# generated using pymatgen
data_Li2PtF6
_symmetry_space_group_name_H-M   'P 1'
_cell_length_a   4.73384384
_cell_length_b   4.74930914
_cell_length_c   9.33571494
_cell_angle_alpha   90.00000000
_cell_angle_beta   90.07149814
_cell_angle_gamma   90.00000000
_symmetry_Int_Tables_number   1
_chemical_formula_structural   Li2PtF6
_chemical_formula_sum   'Li4 Pt2 F12'
_cell_volume   209.88993387
_cell_formula_units_Z   2
loop_
 _symmetry_equiv_pos_site_id
 _symmetry_equiv_pos_as_xyz
  1  'x, y, z'
loop_
 _atom_site_type_symbol
 _atom_site_label
 _atom_site_symmetry_multiplicity
 _atom_site_fract_x
 _atom_site_fract_y
 _atom_site_fract_z
 _atom_site_occupancy
  Li  Li0  1  0.49787357  0.48236927  0.16316509  1
  Li  Li1  1  0.00212643  0.98236927  0.33683491  1
  Li  Li2  1  0.50212643  0.51763073  0.83683491  1
  Li  Li3  1  0.99787357  0.01763073  0.66316509  1
  Pt  Pt4  1  0.50000000  0.50000000  0.50000000  1
  Pt  Pt5  1  -0.00000000  0.00000000  0.00000000  1
  F  F6  1  0.20485287  0.79462095  0.50195702  1
  F  F7  1  0.29514713  0.29462095  0.99804298  1
  F  F8  1  0.79514713  0.20537905  0.49804298  1
  F  F9  1  0.70485287  0.70537905  0.00195702  1
  F  F10  1  0.69444621  0.68774459  0.33861264  1
  F  F11  1  0.80555379  0.18774459  0.16138736  1
  F  F12  1  0.30555379  0.31225541  0.66138736  1
  F  F13  1  0.19444621  0.81225541  0.83861264  1
  F  F14  1  0.30694692  0.30531585  0.34019932  1
  F  F15  1  0.19305308  0.80531585  0.15980068  1
  F  F16  1  0.69305308  0.69468415  0.65980068  1
  F  F17  1  0.80694692  0.19468415  0.84019932  1
