# generated using pymatgen
data_Cs2ZnI4
_symmetry_space_group_name_H-M   'P 1'
_cell_length_a   8.56644579
_cell_length_b   11.10700036
_cell_length_c   14.87636673
_cell_angle_alpha   90.00000000
_cell_angle_beta   90.00000000
_cell_angle_gamma   90.00000000
_symmetry_Int_Tables_number   1
_chemical_formula_structural   Cs2ZnI4
_chemical_formula_sum   'Cs8 Zn4 I16'
_cell_volume   1415.44934851
_cell_formula_units_Z   4
loop_
 _symmetry_equiv_pos_site_id
 _symmetry_equiv_pos_as_xyz
  1  'x, y, z'
loop_
 _atom_site_type_symbol
 _atom_site_label
 _atom_site_symmetry_multiplicity
 _atom_site_fract_x
 _atom_site_fract_y
 _atom_site_fract_z
 _atom_site_occupancy
  Cs  Cs0  1  0.25000000  0.52359885  0.83236631  1
  Cs  Cs1  1  0.25000000  0.02359885  0.66763369  1
  Cs  Cs2  1  0.75000000  0.47640115  0.16763369  1
  Cs  Cs3  1  0.75000000  0.97640115  0.33236631  1
  Cs  Cs4  1  0.25000000  0.86843029  0.10363694  1
  Cs  Cs5  1  0.25000000  0.36843029  0.39636306  1
  Cs  Cs6  1  0.75000000  0.13156971  0.89636306  1
  Cs  Cs7  1  0.75000000  0.63156971  0.60363694  1
  Zn  Zn8  1  0.25000000  0.26415066  0.07746550  1
  Zn  Zn9  1  0.25000000  0.76415066  0.42253450  1
  Zn  Zn10  1  0.75000000  0.73584934  0.92253450  1
  Zn  Zn11  1  0.75000000  0.23584934  0.57746550  1
  I  I12  1  0.25000000  0.50119881  0.09791823  1
  I  I13  1  0.25000000  0.00119881  0.40208177  1
  I  I14  1  0.75000000  0.49880119  0.90208177  1
  I  I15  1  0.75000000  0.99880119  0.59791823  1
  I  I16  1  0.25000000  0.18901450  0.90892904  1
  I  I17  1  0.25000000  0.68901450  0.59107096  1
  I  I18  1  0.75000000  0.81098550  0.09107096  1
  I  I19  1  0.75000000  0.31098550  0.40892904  1
  I  I20  1  0.50288308  0.17352475  0.15407507  1
  I  I21  1  0.99711692  0.67352475  0.34592493  1
  I  I22  1  0.00288308  0.82647525  0.84592493  1
  I  I23  1  0.49711692  0.32647525  0.65407507  1
  I  I24  1  0.49711692  0.82647525  0.84592493  1
  I  I25  1  0.00288308  0.32647525  0.65407507  1
  I  I26  1  0.99711692  0.17352475  0.15407507  1
  I  I27  1  0.50288308  0.67352475  0.34592493  1
