# generated using pymatgen
data_K2BeF4
_symmetry_space_group_name_H-M   'P 1'
_cell_length_a   5.78198940
_cell_length_b   7.40096371
_cell_length_c   10.05306202
_cell_angle_alpha   90.00000000
_cell_angle_beta   90.00000000
_cell_angle_gamma   90.00000000
_symmetry_Int_Tables_number   1
_chemical_formula_structural   K2BeF4
_chemical_formula_sum   'K8 Be4 F16'
_cell_volume   430.19358276
_cell_formula_units_Z   4
loop_
 _symmetry_equiv_pos_site_id
 _symmetry_equiv_pos_as_xyz
  1  'x, y, z'
loop_
 _atom_site_type_symbol
 _atom_site_label
 _atom_site_symmetry_multiplicity
 _atom_site_fract_x
 _atom_site_fract_y
 _atom_site_fract_z
 _atom_site_occupancy
  K  K0  1  0.74864280  0.33997213  0.58707986  1
  K  K1  1  0.24864280  0.66002787  0.41292014  1
  K  K2  1  0.24864280  0.16002787  0.08707986  1
  K  K3  1  0.74864280  0.83997213  0.91292014  1
  K  K4  1  0.26013705  0.49673072  0.80518073  1
  K  K5  1  0.76013705  0.50326928  0.19481927  1
  K  K6  1  0.76013705  0.00326928  0.30518073  1
  K  K7  1  0.26013705  0.99673072  0.69481927  1
  Be  Be8  1  0.75041957  0.27121892  0.91684315  1
  Be  Be9  1  0.25041957  0.72878108  0.08315685  1
  Be  Be10  1  0.25041957  0.22878108  0.41684315  1
  Be  Be11  1  0.75041957  0.77121892  0.58315685  1
  F  F12  1  0.53618681  0.19160725  0.84142785  1
  F  F13  1  0.03618681  0.80839275  0.15857215  1
  F  F14  1  0.03618681  0.30839275  0.34142785  1
  F  F15  1  0.53618681  0.69160725  0.65857215  1
  F  F16  1  0.97853098  0.20960760  0.84513034  1
  F  F17  1  0.47853098  0.79039240  0.15486966  1
  F  F18  1  0.47853098  0.29039240  0.34513034  1
  F  F19  1  0.97853098  0.70960760  0.65486966  1
  F  F20  1  0.72965316  0.47940850  0.91998241  1
  F  F21  1  0.22965316  0.52059150  0.08001759  1
  F  F22  1  0.22965316  0.02059150  0.41998241  1
  F  F23  1  0.72965316  0.97940850  0.58001759  1
  F  F24  1  0.25242963  0.31402160  0.56115591  1
  F  F25  1  0.75242963  0.68597840  0.43884409  1
  F  F26  1  0.75242963  0.18597840  0.06115591  1
  F  F27  1  0.25242963  0.81402160  0.93884409  1
