# generated using pymatgen
data_Lu4FeS7
_symmetry_space_group_name_H-M   'P 1'
_cell_length_a   3.69073444
_cell_length_b   6.36754509
_cell_length_c   11.21123185
_cell_angle_alpha   103.78057973
_cell_angle_beta   90.00000000
_cell_angle_gamma   73.15352228
_symmetry_Int_Tables_number   1
_chemical_formula_structural   Lu4FeS7
_chemical_formula_sum   'Lu4 Fe1 S7'
_cell_volume   244.23221973
_cell_formula_units_Z   1
loop_
 _symmetry_equiv_pos_site_id
 _symmetry_equiv_pos_as_xyz
  1  'x, y, z'
loop_
 _atom_site_type_symbol
 _atom_site_label
 _atom_site_symmetry_multiplicity
 _atom_site_fract_x
 _atom_site_fract_y
 _atom_site_fract_z
 _atom_site_occupancy
  Lu  Lu0  1  0.69417107  0.61165786  0.20489840  1
  Lu  Lu1  1  0.30566710  0.38866579  0.80222738  1
  Lu  Lu2  1  0.99957271  0.00085457  0.00557330  1
  Lu  Lu3  1  0.11289650  0.77420701  0.56545125  1
  Fe  Fe4  1  0.88825798  0.22348405  0.42408391  1
  S  S5  1  0.74466898  0.51066205  0.63905562  1
  S  S6  1  0.26753674  0.46492653  0.35415926  1
  S  S7  1  0.33881069  0.32237862  0.05135547  1
  S  S8  1  0.65966414  0.68067171  0.94860080  1
  S  S9  1  0.03331809  0.93336382  0.22540893  1
  S  S10  1  0.96350355  0.07299291  0.78403202  1
  S  S11  1  0.49193246  0.01613509  0.49515367  1
