# generated using pymatgen
data_MgFeSiO4
_symmetry_space_group_name_H-M   'P 1'
_cell_length_a   4.87595230
_cell_length_b   6.07405580
_cell_length_c   10.43493116
_cell_angle_alpha   90.00000000
_cell_angle_beta   90.00000000
_cell_angle_gamma   90.00000000
_symmetry_Int_Tables_number   1
_chemical_formula_structural   MgFeSiO4
_chemical_formula_sum   'Mg4 Fe4 Si4 O16'
_cell_volume   309.04933542
_cell_formula_units_Z   4
loop_
 _symmetry_equiv_pos_site_id
 _symmetry_equiv_pos_as_xyz
  1  'x, y, z'
loop_
 _atom_site_type_symbol
 _atom_site_label
 _atom_site_symmetry_multiplicity
 _atom_site_fract_x
 _atom_site_fract_y
 _atom_site_fract_z
 _atom_site_occupancy
  Mg  Mg0  1  0.49086266  0.75000000  0.22199892  1
  Mg  Mg1  1  0.00913734  0.75000000  0.72199892  1
  Mg  Mg2  1  0.50913734  0.25000000  0.77800108  1
  Mg  Mg3  1  0.99086266  0.25000000  0.27800108  1
  Fe  Fe4  1  0.50000000  0.00000000  0.50000000  1
  Fe  Fe5  1  0.00000000  0.50000000  0.00000000  1
  Fe  Fe6  1  0.50000000  0.50000000  0.50000000  1
  Fe  Fe7  1  -0.00000000  0.00000000  0.00000000  1
  Si  Si8  1  0.92585623  0.75000000  0.40385138  1
  Si  Si9  1  0.57414377  0.75000000  0.90385138  1
  Si  Si10  1  0.07414377  0.25000000  0.59614862  1
  Si  Si11  1  0.42585623  0.25000000  0.09614862  1
  O  O12  1  0.26377493  0.75000000  0.40418377  1
  O  O13  1  0.23622507  0.75000000  0.90418377  1
  O  O14  1  0.73622507  0.25000000  0.59581623  1
  O  O15  1  0.76377493  0.25000000  0.09581623  1
  O  O16  1  0.70716389  0.75000000  0.05165236  1
  O  O17  1  0.79283611  0.75000000  0.55165236  1
  O  O18  1  0.29283611  0.25000000  0.94834764  1
  O  O19  1  0.20716389  0.25000000  0.44834764  1
  O  O20  1  0.78269281  0.96547999  0.33418868  1
  O  O21  1  0.71730719  0.53452001  0.83418868  1
  O  O22  1  0.21730719  0.46547999  0.66581132  1
  O  O23  1  0.28269281  0.03452001  0.16581132  1
  O  O24  1  0.21730719  0.03452001  0.66581132  1
  O  O25  1  0.28269281  0.46547999  0.16581132  1
  O  O26  1  0.78269281  0.53452001  0.33418868  1
  O  O27  1  0.71730719  0.96547999  0.83418868  1
