# generated using pymatgen
data_H4Pd(NO4)2
_symmetry_space_group_name_H-M   'P 1'
_cell_length_a   5.35536515
_cell_length_b   6.42406401
_cell_length_c   10.98619208
_cell_angle_alpha   108.07334267
_cell_angle_beta   90.00000000
_cell_angle_gamma   90.00000000
_symmetry_Int_Tables_number   1
_chemical_formula_structural   H4Pd(NO4)2
_chemical_formula_sum   'H8 Pd2 N4 O16'
_cell_volume   359.31176335
_cell_formula_units_Z   2
loop_
 _symmetry_equiv_pos_site_id
 _symmetry_equiv_pos_as_xyz
  1  'x, y, z'
loop_
 _atom_site_type_symbol
 _atom_site_label
 _atom_site_symmetry_multiplicity
 _atom_site_fract_x
 _atom_site_fract_y
 _atom_site_fract_z
 _atom_site_occupancy
  H  H0  1  0.33219928  0.90394644  0.59325932  1
  H  H1  1  0.83219928  0.09605356  0.90674068  1
  H  H2  1  0.66780072  0.09605356  0.40674068  1
  H  H3  1  0.16780072  0.90394644  0.09325932  1
  H  H4  1  0.10459482  0.74151671  0.53864176  1
  H  H5  1  0.60459482  0.25848329  0.96135824  1
  H  H6  1  0.89540518  0.25848329  0.46135824  1
  H  H7  1  0.39540518  0.74151671  0.03864176  1
  Pd  Pd8  1  0.50000000  0.50000000  0.50000000  1
  Pd  Pd9  1  -0.00000000  0.50000000  0.00000000  1
  N  N10  1  0.76640474  0.75532285  0.72379545  1
  N  N11  1  0.26640474  0.24467715  0.77620455  1
  N  N12  1  0.23359526  0.24467715  0.27620455  1
  N  N13  1  0.73359526  0.75532285  0.22379545  1
  O  O14  1  0.78371049  0.69099400  0.59479740  1
  O  O15  1  0.28371049  0.30900600  0.90520260  1
  O  O16  1  0.21628951  0.30900600  0.40520260  1
  O  O17  1  0.71628951  0.69099400  0.09479740  1
  O  O18  1  0.92898088  0.89032900  0.77976086  1
  O  O19  1  0.42898088  0.10967100  0.72023914  1
  O  O20  1  0.07101912  0.10967100  0.22023914  1
  O  O21  1  0.57101912  0.89032900  0.27976086  1
  O  O22  1  0.59954200  0.68198600  0.77520537  1
  O  O23  1  0.09954200  0.31801400  0.72479463  1
  O  O24  1  0.40045800  0.31801400  0.22479463  1
  O  O25  1  0.90045800  0.68198600  0.27520537  1
  O  O26  1  0.27994061  0.77222785  0.52121122  1
  O  O27  1  0.77994061  0.22777215  0.97878878  1
  O  O28  1  0.72005939  0.22777215  0.47878878  1
  O  O29  1  0.22005939  0.77222785  0.02121122  1
