# generated using pymatgen
data_Rb2BeF4
_symmetry_space_group_name_H-M   'P 1'
_cell_length_a   5.98767082
_cell_length_b   7.78346668
_cell_length_c   10.48826963
_cell_angle_alpha   90.00000000
_cell_angle_beta   90.00000000
_cell_angle_gamma   90.00000000
_symmetry_Int_Tables_number   1
_chemical_formula_structural   Rb2BeF4
_chemical_formula_sum   'Rb8 Be4 F16'
_cell_volume   488.80408937
_cell_formula_units_Z   4
loop_
 _symmetry_equiv_pos_site_id
 _symmetry_equiv_pos_as_xyz
  1  'x, y, z'
loop_
 _atom_site_type_symbol
 _atom_site_label
 _atom_site_symmetry_multiplicity
 _atom_site_fract_x
 _atom_site_fract_y
 _atom_site_fract_z
 _atom_site_occupancy
  Rb  Rb0  1  0.75443582  0.33850199  0.58780779  1
  Rb  Rb1  1  0.25443582  0.66149801  0.41219221  1
  Rb  Rb2  1  0.25443582  0.16149801  0.08780779  1
  Rb  Rb3  1  0.75443582  0.83850199  0.91219221  1
  Rb  Rb4  1  0.25793243  0.49736196  0.81076536  1
  Rb  Rb5  1  0.75793243  0.50263804  0.18923464  1
  Rb  Rb6  1  0.75793243  0.00263804  0.31076536  1
  Rb  Rb7  1  0.25793243  0.99736196  0.68923464  1
  Be  Be8  1  0.75395800  0.26683424  0.91292235  1
  Be  Be9  1  0.25395800  0.73316576  0.08707765  1
  Be  Be10  1  0.25395800  0.23316576  0.41292235  1
  Be  Be11  1  0.75395800  0.76683424  0.58707765  1
  F  F12  1  0.54616323  0.19531452  0.83900600  1
  F  F13  1  0.04616323  0.80468548  0.16099400  1
  F  F14  1  0.04616323  0.30468548  0.33900600  1
  F  F15  1  0.54616323  0.69531452  0.66099400  1
  F  F16  1  0.97467415  0.20537811  0.84530955  1
  F  F17  1  0.47467415  0.79462189  0.15469045  1
  F  F18  1  0.47467415  0.29462189  0.34530955  1
  F  F19  1  0.97467415  0.70537811  0.65469045  1
  F  F20  1  0.74329463  0.46694699  0.91561108  1
  F  F21  1  0.24329463  0.53305301  0.08438892  1
  F  F22  1  0.24329463  0.03305301  0.41561108  1
  F  F23  1  0.74329463  0.96694699  0.58438892  1
  F  F24  1  0.25154173  0.31243382  0.55247047  1
  F  F25  1  0.75154173  0.68756618  0.44752953  1
  F  F26  1  0.75154173  0.18756618  0.05247047  1
  F  F27  1  0.25154173  0.81243382  0.94752953  1
