# generated using pymatgen
data_KBe2B3O7
_symmetry_space_group_name_H-M   'P 1'
_cell_length_a   6.65516718
_cell_length_b   6.93164944
_cell_length_c   6.93164944
_cell_angle_alpha   81.64635462
_cell_angle_beta   71.70755378
_cell_angle_gamma   71.70755378
_symmetry_Int_Tables_number   1
_chemical_formula_structural   KBe2B3O7
_chemical_formula_sum   'K2 Be4 B6 O14'
_cell_volume   287.87669642
_cell_formula_units_Z   2
loop_
 _symmetry_equiv_pos_site_id
 _symmetry_equiv_pos_as_xyz
  1  'x, y, z'
loop_
 _atom_site_type_symbol
 _atom_site_label
 _atom_site_symmetry_multiplicity
 _atom_site_fract_x
 _atom_site_fract_y
 _atom_site_fract_z
 _atom_site_occupancy
  K  K0  1  0.75000000  0.82122078  0.17877922  1
  K  K1  1  0.25000000  0.17877922  0.82122078  1
  Be  Be2  1  0.34281678  0.63553986  0.05457477  1
  Be  Be3  1  0.15718322  0.94542523  0.36446014  1
  Be  Be4  1  0.65718322  0.36446014  0.94542523  1
  Be  Be5  1  0.84281678  0.05457477  0.63553986  1
  B  B6  1  0.25000000  0.55100994  0.44899006  1
  B  B7  1  0.75000000  0.44899006  0.55100994  1
  B  B8  1  0.68315618  0.73204847  0.77041930  1
  B  B9  1  0.81684382  0.22958070  0.26795153  1
  B  B10  1  0.31684382  0.26795153  0.22958070  1
  B  B11  1  0.18315618  0.77041930  0.73204847  1
  O  O12  1  0.25000000  0.70279199  0.29720801  1
  O  O13  1  0.75000000  0.29720801  0.70279199  1
  O  O14  1  0.61533554  0.61379754  0.94411901  1
  O  O15  1  0.88466446  0.05588099  0.38620246  1
  O  O16  1  0.38466446  0.38620246  0.05588099  1
  O  O17  1  0.11533554  0.94411901  0.61379754  1
  O  O18  1  0.73571184  0.64686817  0.58079588  1
  O  O19  1  0.76428816  0.41920412  0.35313183  1
  O  O20  1  0.26428816  0.35313183  0.41920412  1
  O  O21  1  0.23571184  0.58079588  0.64686817  1
  O  O22  1  0.69754651  0.91941601  0.77761288  1
  O  O23  1  0.80245349  0.22238712  0.08058399  1
  O  O24  1  0.30245349  0.08058399  0.22238712  1
  O  O25  1  0.19754651  0.77761288  0.91941601  1
