# generated using pymatgen
data_AlSb5Se5Cl4
_symmetry_space_group_name_H-M   'P 1'
_cell_length_a   9.70191791
_cell_length_b   9.83934013
_cell_length_c   11.94592967
_cell_angle_alpha   104.07211857
_cell_angle_beta   110.25561778
_cell_angle_gamma   99.74144111
_symmetry_Int_Tables_number   1
_chemical_formula_structural   AlSb5Se5Cl4
_chemical_formula_sum   'Al2 Sb10 Se10 Cl8'
_cell_volume   996.69713149
_cell_formula_units_Z   2
loop_
 _symmetry_equiv_pos_site_id
 _symmetry_equiv_pos_as_xyz
  1  'x, y, z'
loop_
 _atom_site_type_symbol
 _atom_site_label
 _atom_site_symmetry_multiplicity
 _atom_site_fract_x
 _atom_site_fract_y
 _atom_site_fract_z
 _atom_site_occupancy
  Al  Al0  1  0.92579851  0.62323253  0.30045609  1
  Al  Al1  1  0.07420149  0.37676747  0.69954391  1
  Sb  Sb2  1  0.78067795  0.23257288  0.93904078  1
  Sb  Sb3  1  0.21932205  0.76742712  0.06095922  1
  Sb  Sb4  1  0.90482688  0.02523372  0.80872728  1
  Sb  Sb5  1  0.09517312  0.97476628  0.19127272  1
  Sb  Sb6  1  0.57829975  0.81403960  0.91528577  1
  Sb  Sb7  1  0.42170025  0.18596040  0.08471423  1
  Sb  Sb8  1  0.42478346  0.88054288  0.68529827  1
  Sb  Sb9  1  0.57521654  0.11945712  0.31470173  1
  Sb  Sb10  1  0.70226104  0.62258622  0.58480257  1
  Sb  Sb11  1  0.29773896  0.37741378  0.41519743  1
  Se  Se12  1  0.72040125  0.07830917  0.07649117  1
  Se  Se13  1  0.27959875  0.92169083  0.92350883  1
  Se  Se14  1  0.50181932  0.16208500  0.77296737  1
  Se  Se15  1  0.49818068  0.83791500  0.22703263  1
  Se  Se16  1  0.84492556  0.80616299  0.88900438  1
  Se  Se17  1  0.15507444  0.19383701  0.11099562  1
  Se  Se18  1  0.64289994  0.88919412  0.59579649  1
  Se  Se19  1  0.35710006  0.11080588  0.40420351  1
  Se  Se20  1  0.49554614  0.51445827  0.65515998  1
  Se  Se21  1  0.50445386  0.48554173  0.34484002  1
  Cl  Cl22  1  0.16125045  0.67429967  0.31676022  1
  Cl  Cl23  1  0.83874955  0.32570033  0.68323978  1
  Cl  Cl24  1  0.90500366  0.79479158  0.43905009  1
  Cl  Cl25  1  0.09499634  0.20520842  0.56094991  1
  Cl  Cl26  1  0.87630816  0.41488526  0.32959972  1
  Cl  Cl27  1  0.12369184  0.58511474  0.67040028  1
  Cl  Cl28  1  0.77259028  0.60672358  0.11409841  1
  Cl  Cl29  1  0.22740972  0.39327642  0.88590159  1
