# generated using pymatgen
data_LiGa(H2N)4
_symmetry_space_group_name_H-M   'P 1'
_cell_length_a   6.60052629
_cell_length_b   6.19117084
_cell_length_c   7.98482624
_cell_angle_alpha   90.00000000
_cell_angle_beta   90.00000000
_cell_angle_gamma   104.11065590
_symmetry_Int_Tables_number   1
_chemical_formula_structural   LiGa(H2N)4
_chemical_formula_sum   'Li2 Ga2 H16 N8'
_cell_volume   316.45426672
_cell_formula_units_Z   2
loop_
 _symmetry_equiv_pos_site_id
 _symmetry_equiv_pos_as_xyz
  1  'x, y, z'
loop_
 _atom_site_type_symbol
 _atom_site_label
 _atom_site_symmetry_multiplicity
 _atom_site_fract_x
 _atom_site_fract_y
 _atom_site_fract_z
 _atom_site_occupancy
  Li  Li0  1  0.40311774  0.64696557  0.04306734  1
  Li  Li1  1  0.59688226  0.35303443  0.54306734  1
  Ga  Ga2  1  0.36475297  0.15322090  0.82628200  1
  Ga  Ga3  1  0.63524703  0.84677910  0.32628200  1
  H  H4  1  0.13269143  0.77681274  0.86072543  1
  H  H5  1  0.86730857  0.22318726  0.36072543  1
  H  H6  1  0.32184775  0.76605380  0.73496722  1
  H  H7  1  0.67815225  0.23394620  0.23496722  1
  H  H8  1  0.73135802  0.37951885  0.86670947  1
  H  H9  1  0.26864198  0.62048115  0.36670947  1
  H  H10  1  0.73874152  0.12700480  0.80763983  1
  H  H11  1  0.26125848  0.87299520  0.30763983  1
  H  H12  1  0.11205407  0.29415199  0.99599630  1
  H  H13  1  0.88794593  0.70584801  0.49599630  1
  H  H14  1  0.27395608  0.21776075  0.12182018  1
  H  H15  1  0.72604392  0.78223925  0.62182018  1
  H  H16  1  0.18947759  0.38153697  0.64449912  1
  H  H17  1  0.81052241  0.61846303  0.14449912  1
  H  H18  1  0.15932240  0.14022474  0.55796071  1
  H  H19  1  0.84067760  0.85977526  0.05796071  1
  N  N20  1  0.29139063  0.83127961  0.84736158  1
  N  N21  1  0.70860937  0.16872039  0.34736158  1
  N  N22  1  0.66260878  0.25098735  0.78986758  1
  N  N23  1  0.33739122  0.74901265  0.28986758  1
  N  N24  1  0.26748389  0.30126420  0.01166378  1
  N  N25  1  0.73251611  0.69873580  0.51166378  1
  N  N26  1  0.26832914  0.26188538  0.61773947  1
  N  N27  1  0.73167086  0.73811462  0.11773947  1
