# generated using pymatgen
data_Li2Fe(SO4)2
_symmetry_space_group_name_H-M   'P 1'
_cell_length_a   5.08762138
_cell_length_b   7.62629264
_cell_length_c   8.29705198
_cell_angle_alpha   90.00000000
_cell_angle_beta   90.00000000
_cell_angle_gamma   92.57941386
_symmetry_Int_Tables_number   1
_chemical_formula_structural   Li2Fe(SO4)2
_chemical_formula_sum   'Li4 Fe2 S4 O16'
_cell_volume   321.59686924
_cell_formula_units_Z   2
loop_
 _symmetry_equiv_pos_site_id
 _symmetry_equiv_pos_as_xyz
  1  'x, y, z'
loop_
 _atom_site_type_symbol
 _atom_site_label
 _atom_site_symmetry_multiplicity
 _atom_site_fract_x
 _atom_site_fract_y
 _atom_site_fract_z
 _atom_site_occupancy
  Li  Li0  1  0.41588654  0.39905189  0.86253082  1
  Li  Li1  1  0.08411346  0.10094811  0.36253082  1
  Li  Li2  1  0.58411346  0.60094811  0.13746918  1
  Li  Li3  1  0.91588654  0.89905189  0.63746918  1
  Fe  Fe4  1  0.50000000  0.50000000  0.50000000  1
  Fe  Fe5  1  -0.00000000  -0.00000000  0.00000000  1
  S  S6  1  0.52912015  0.19689619  0.19541544  1
  S  S7  1  0.97087985  0.30310381  0.69541544  1
  S  S8  1  0.47087985  0.80310381  0.80458456  1
  S  S9  1  0.02912015  0.69689619  0.30458456  1
  O  O10  1  0.52800989  0.34602707  0.08219456  1
  O  O11  1  0.97199011  0.15397293  0.58219456  1
  O  O12  1  0.47199011  0.65397293  0.91780544  1
  O  O13  1  0.02800989  0.84602707  0.41780544  1
  O  O14  1  0.45375798  0.25089528  0.36169158  1
  O  O15  1  0.04624202  0.24910472  0.86169158  1
  O  O16  1  0.54624202  0.74910472  0.63830842  1
  O  O17  1  0.95375798  0.75089528  0.13830842  1
  O  O18  1  0.33282868  0.05497700  0.14854181  1
  O  O19  1  0.16717132  0.44502300  0.64854181  1
  O  O20  1  0.66717132  0.94502300  0.85145819  1
  O  O21  1  0.83282868  0.55497700  0.35145819  1
  O  O22  1  0.79672150  0.12298754  0.19671668  1
  O  O23  1  0.70327850  0.37701246  0.69671668  1
  O  O24  1  0.20327850  0.87701246  0.80328332  1
  O  O25  1  0.29672150  0.62298754  0.30328332  1
