# generated using pymatgen
data_Cs2V4O9
_symmetry_space_group_name_H-M   'P 1'
_cell_length_a   5.86798301
_cell_length_b   5.86798301
_cell_length_c   16.16527924
_cell_angle_alpha   100.45712041
_cell_angle_beta   100.45712041
_cell_angle_gamma   90.00000000
_symmetry_Int_Tables_number   1
_chemical_formula_structural   Cs2V4O9
_chemical_formula_sum   'Cs4 V8 O18'
_cell_volume   537.97396737
_cell_formula_units_Z   2
loop_
 _symmetry_equiv_pos_site_id
 _symmetry_equiv_pos_as_xyz
  1  'x, y, z'
loop_
 _atom_site_type_symbol
 _atom_site_label
 _atom_site_symmetry_multiplicity
 _atom_site_fract_x
 _atom_site_fract_y
 _atom_site_fract_z
 _atom_site_occupancy
  Cs  Cs0  1  0.12500000  0.60290123  0.75000000  1
  Cs  Cs1  1  0.62500000  0.14709877  0.75000000  1
  Cs  Cs2  1  0.39709877  0.37500000  0.25000000  1
  Cs  Cs3  1  0.85290123  0.87500000  0.25000000  1
  V  V4  1  0.08361643  0.43764053  0.45298947  1
  V  V5  1  0.16638357  0.73465106  0.04701053  1
  V  V6  1  0.36937305  0.01534894  0.45298947  1
  V  V7  1  0.88062695  0.31235947  0.04701053  1
  V  V8  1  0.56235947  0.63062695  0.54701053  1
  V  V9  1  0.68764053  0.83361643  0.95298947  1
  V  V10  1  0.98465106  0.91638357  0.54701053  1
  V  V11  1  0.26534894  0.11937305  0.95298947  1
  O  O12  1  0.25000000  0.75000000  0.50000000  1
  O  O13  1  0.00000000  0.00000000  0.00000000  1
  O  O14  1  0.96834986  0.43523964  0.35067702  1
  O  O15  1  0.28165014  0.83456261  0.14932298  1
  O  O16  1  0.38232716  0.91543739  0.35067702  1
  O  O17  1  0.86767284  0.31476036  0.14932298  1
  O  O18  1  0.56476036  0.61767284  0.64932298  1
  O  O19  1  0.68523964  0.71834986  0.85067702  1
  O  O20  1  0.08456261  0.03165014  0.64932298  1
  O  O21  1  0.16543739  0.13232716  0.85067702  1
  O  O22  1  0.88537414  0.58518765  0.53205869  1
  O  O23  1  0.36462586  0.80312896  0.96794131  1
  O  O24  1  0.64668456  0.94687104  0.53205869  1
  O  O25  1  0.60331544  0.16481235  0.96794131  1
  O  O26  1  0.41481235  0.35331544  0.46794131  1
  O  O27  1  0.83518765  0.63537414  0.03205869  1
  O  O28  1  0.05312896  0.11462586  0.46794131  1
  O  O29  1  0.19687104  0.39668456  0.03205869  1
