# generated using pymatgen
data_CaRhO3
_symmetry_space_group_name_H-M   'P 1'
_cell_length_a   3.17257240
_cell_length_b   8.96629866
_cell_length_c   12.65623707
_cell_angle_alpha   104.36972788
_cell_angle_beta   90.00000000
_cell_angle_gamma   90.00000000
_symmetry_Int_Tables_number   1
_chemical_formula_structural   CaRhO3
_chemical_formula_sum   'Ca6 Rh6 O18'
_cell_volume   348.75874708
_cell_formula_units_Z   6
loop_
 _symmetry_equiv_pos_site_id
 _symmetry_equiv_pos_as_xyz
  1  'x, y, z'
loop_
 _atom_site_type_symbol
 _atom_site_label
 _atom_site_symmetry_multiplicity
 _atom_site_fract_x
 _atom_site_fract_y
 _atom_site_fract_z
 _atom_site_occupancy
  Ca  Ca0  1  0.75000000  0.61701361  0.66972257  1
  Ca  Ca1  1  0.25000000  0.38298639  0.33027743  1
  Ca  Ca2  1  0.75000000  0.99238082  0.64966666  1
  Ca  Ca3  1  0.25000000  0.00761918  0.35033334  1
  Ca  Ca4  1  0.25000000  0.33287100  0.05272978  1
  Ca  Ca5  1  0.75000000  0.66712900  0.94727022  1
  Rh  Rh6  1  0.75000000  0.27205376  0.54366355  1
  Rh  Rh7  1  0.25000000  0.72794624  0.45633645  1
  Rh  Rh8  1  0.25000000  0.99985879  0.89220500  1
  Rh  Rh9  1  0.75000000  0.00014121  0.10779500  1
  Rh  Rh10  1  0.75000000  0.64542211  0.19365512  1
  Rh  Rh11  1  0.25000000  0.35457789  0.80634488  1
  O  O12  1  0.75000000  0.87581529  0.81995829  1
  O  O13  1  0.25000000  0.12418471  0.18004171  1
  O  O14  1  0.25000000  0.78642032  0.61851176  1
  O  O15  1  0.75000000  0.21357968  0.38148824  1
  O  O16  1  0.25000000  0.12818783  0.54707370  1
  O  O17  1  0.75000000  0.87181217  0.45292630  1
  O  O18  1  0.25000000  0.41591282  0.55245610  1
  O  O19  1  0.75000000  0.58408718  0.44754390  1
  O  O20  1  0.75000000  0.32810241  0.70603973  1
  O  O21  1  0.25000000  0.67189759  0.29396027  1
  O  O22  1  0.25000000  0.58213532  0.81006643  1
  O  O23  1  0.75000000  0.41786468  0.18993357  1
  O  O24  1  0.25000000  0.12306497  0.78299515  1
  O  O25  1  0.75000000  0.87693503  0.21700485  1
  O  O26  1  0.75000000  0.39085530  0.91355109  1
  O  O27  1  0.25000000  0.60914470  0.08644891  1
  O  O28  1  0.75000000  0.11703359  0.98643772  1
  O  O29  1  0.25000000  0.88296641  0.01356228  1
