# generated using pymatgen
data_Hf9W4Se
_symmetry_space_group_name_H-M   'P 1'
_cell_length_a   8.65621646
_cell_length_b   8.74253974
_cell_length_c   8.74253974
_cell_angle_alpha   119.93105958
_cell_angle_beta   90.00000000
_cell_angle_gamma   90.00000000
_symmetry_Int_Tables_number   1
_chemical_formula_structural   Hf9W4Se
_chemical_formula_sum   'Hf18 W8 Se2'
_cell_volume   573.37037577
_cell_formula_units_Z   2
loop_
 _symmetry_equiv_pos_site_id
 _symmetry_equiv_pos_as_xyz
  1  'x, y, z'
loop_
 _atom_site_type_symbol
 _atom_site_label
 _atom_site_symmetry_multiplicity
 _atom_site_fract_x
 _atom_site_fract_y
 _atom_site_fract_z
 _atom_site_occupancy
  Hf  Hf0  1  0.54773796  0.80671825  0.61333721  1
  Hf  Hf1  1  0.54751722  0.80669009  0.19330991  1
  Hf  Hf2  1  0.54773796  0.38666279  0.19328175  1
  Hf  Hf3  1  0.45226204  0.19328175  0.38666279  1
  Hf  Hf4  1  0.45248278  0.19330991  0.80669009  1
  Hf  Hf5  1  0.45226204  0.61333721  0.80671825  1
  Hf  Hf6  1  0.04773796  0.19328175  0.38666279  1
  Hf  Hf7  1  0.04751722  0.19330991  0.80669009  1
  Hf  Hf8  1  0.04773796  0.61333721  0.80671825  1
  Hf  Hf9  1  0.95226204  0.80671825  0.61333721  1
  Hf  Hf10  1  0.95248278  0.80669009  0.19330991  1
  Hf  Hf11  1  0.95226204  0.38666279  0.19328175  1
  Hf  Hf12  1  0.75000000  0.45726275  0.91479594  1
  Hf  Hf13  1  0.75000000  0.45741350  0.54258650  1
  Hf  Hf14  1  0.75000000  0.08520406  0.54273725  1
  Hf  Hf15  1  0.25000000  0.54273725  0.08520406  1
  Hf  Hf16  1  0.25000000  0.54258650  0.45741350  1
  Hf  Hf17  1  0.25000000  0.91479594  0.45726275  1
  W  W18  1  0.75000000  0.11008986  0.22009424  1
  W  W19  1  0.75000000  0.11010227  0.88989773  1
  W  W20  1  0.75000000  0.77990576  0.88991014  1
  W  W21  1  0.25000000  0.88991014  0.77990576  1
  W  W22  1  0.25000000  0.88989773  0.11010227  1
  W  W23  1  0.25000000  0.22009424  0.11008986  1
  W  W24  1  0.50000000  -0.00000000  -0.00000000  1
  W  W25  1  -0.00000000  -0.00000000  -0.00000000  1
  Se  Se26  1  0.75000000  0.66669049  0.33330951  1
  Se  Se27  1  0.25000000  0.33330951  0.66669049  1
