# generated using pymatgen
data_Li4MnCo2NiO8
_symmetry_space_group_name_H-M   'P 1'
_cell_length_a   2.94347635
_cell_length_b   9.76522370
_cell_length_c   5.14632570
_cell_angle_alpha   78.97148160
_cell_angle_beta   90.00000161
_cell_angle_gamma   89.99999240
_symmetry_Int_Tables_number   1
_chemical_formula_structural   Li4MnCo2NiO8
_chemical_formula_sum   'Li4 Mn1 Co2 Ni1 O8'
_cell_volume   145.19261177
_cell_formula_units_Z   1
loop_
 _symmetry_equiv_pos_site_id
 _symmetry_equiv_pos_as_xyz
  1  'x, y, z'
loop_
 _atom_site_type_symbol
 _atom_site_label
 _atom_site_symmetry_multiplicity
 _atom_site_fract_x
 _atom_site_fract_y
 _atom_site_fract_z
 _atom_site_occupancy
  Li  Li0  1  1.00000000  0.48944043  0.49893238  1
  Li  Li1  1  0.50000000  0.75000000  0.25000000  1
  Li  Li2  1  0.00000000  0.01055957  0.00106762  1
  Li  Li3  1  0.50000000  0.25000000  0.75000000  1
  Mn  Mn4  1  0.00000000  0.75000000  0.75000000  1
  Co  Co5  1  0.50000000  0.48965058  0.01129927  1
  Co  Co6  1  0.50000000  0.01034942  0.48870073  1
  Ni  Ni7  1  0.00000000  0.25000000  0.25000000  1
  O  O8  1  0.50000000  0.63734289  0.64766238  1
  O  O9  1  1.00000000  0.87100973  0.40676844  1
  O  O10  1  0.50000000  0.11959440  0.15158832  1
  O  O11  1  0.00000000  0.38344869  0.87394611  1
  O  O12  1  0.50000000  0.86265711  0.85233762  1
  O  O13  1  1.00000000  0.11655131  0.62605389  1
  O  O14  1  0.50000000  0.38040560  0.34841168  1
  O  O15  1  0.00000000  0.62899027  0.09323156  1
