# generated using pymatgen
data_K3Mn2O8
_symmetry_space_group_name_H-M   'P 1'
_cell_length_a   5.87499178
_cell_length_b   7.96979029
_cell_length_c   9.93683744
_cell_angle_alpha   111.50373449
_cell_angle_beta   90.00000000
_cell_angle_gamma   90.00000000
_symmetry_Int_Tables_number   1
_chemical_formula_structural   K3Mn2O8
_chemical_formula_sum   'K6 Mn4 O16'
_cell_volume   432.88156686
_cell_formula_units_Z   2
loop_
 _symmetry_equiv_pos_site_id
 _symmetry_equiv_pos_as_xyz
  1  'x, y, z'
loop_
 _atom_site_type_symbol
 _atom_site_label
 _atom_site_symmetry_multiplicity
 _atom_site_fract_x
 _atom_site_fract_y
 _atom_site_fract_z
 _atom_site_occupancy
  K  K0  1  0.75000000  0.14753141  0.54158837  1
  K  K1  1  0.25000000  0.85246859  0.45841163  1
  K  K2  1  0.75000000  0.33200955  0.95368476  1
  K  K3  1  0.25000000  0.66799045  0.04631524  1
  K  K4  1  0.75000000  0.79553487  0.78714513  1
  K  K5  1  0.25000000  0.20446513  0.21285487  1
  Mn  Mn6  1  0.25000000  0.07509729  0.83548641  1
  Mn  Mn7  1  0.75000000  0.92490271  0.16451359  1
  Mn  Mn8  1  0.25000000  0.44730054  0.65044588  1
  Mn  Mn9  1  0.75000000  0.55269946  0.34955412  1
  O  O10  1  0.25000000  0.59721214  0.57676352  1
  O  O11  1  0.75000000  0.40278786  0.42323648  1
  O  O12  1  0.25000000  0.24662257  0.52448205  1
  O  O13  1  0.75000000  0.75337743  0.47551795  1
  O  O14  1  0.02418902  0.47163609  0.75071795  1
  O  O15  1  0.52418902  0.52836391  0.24928205  1
  O  O16  1  0.97581098  0.52836391  0.24928205  1
  O  O17  1  0.47581098  0.47163609  0.75071795  1
  O  O18  1  0.25000000  0.27985483  0.96469992  1
  O  O19  1  0.75000000  0.72014517  0.03530008  1
  O  O20  1  0.25000000  0.92566457  0.91464206  1
  O  O21  1  0.75000000  0.07433543  0.08535794  1
  O  O22  1  0.02042872  0.05016537  0.73229072  1
  O  O23  1  0.52042872  0.94983463  0.26770928  1
  O  O24  1  0.97957128  0.94983463  0.26770928  1
  O  O25  1  0.47957128  0.05016537  0.73229072  1
