# generated using pymatgen
data_Cu3Hg2(Te3O8)2
_symmetry_space_group_name_H-M   'P 1'
_cell_length_a   8.84884319
_cell_length_b   8.84884319
_cell_length_c   11.55788065
_cell_angle_alpha   90.00000000
_cell_angle_beta   90.00000000
_cell_angle_gamma   90.00000000
_symmetry_Int_Tables_number   1
_chemical_formula_structural   Cu3Hg2(Te3O8)2
_chemical_formula_sum   'Cu6 Hg4 Te12 O32'
_cell_volume   905.00546886
_cell_formula_units_Z   2
loop_
 _symmetry_equiv_pos_site_id
 _symmetry_equiv_pos_as_xyz
  1  'x, y, z'
loop_
 _atom_site_type_symbol
 _atom_site_label
 _atom_site_symmetry_multiplicity
 _atom_site_fract_x
 _atom_site_fract_y
 _atom_site_fract_z
 _atom_site_occupancy
  Cu  Cu0  1  0.50000000  -0.00000000  0.32305531  1
  Cu  Cu1  1  0.00000000  0.50000000  0.67694469  1
  Cu  Cu2  1  0.00000000  0.50000000  0.39328491  1
  Cu  Cu3  1  0.50000000  -0.00000000  0.60671509  1
  Cu  Cu4  1  0.50000000  -0.00000000  0.05449976  1
  Cu  Cu5  1  0.00000000  0.50000000  0.94550024  1
  Hg  Hg6  1  0.39494650  0.60505350  0.50000000  1
  Hg  Hg7  1  0.60505350  0.39494650  0.50000000  1
  Hg  Hg8  1  0.89494650  0.89494650  0.50000000  1
  Hg  Hg9  1  0.10505350  0.10505350  0.50000000  1
  Te  Te10  1  0.20493847  0.78171808  0.26782527  1
  Te  Te11  1  0.79506153  0.21828192  0.26782527  1
  Te  Te12  1  0.70493847  0.71828192  0.73217473  1
  Te  Te13  1  0.29506153  0.28171808  0.73217473  1
  Te  Te14  1  0.78171808  0.20493847  0.73217473  1
  Te  Te15  1  0.21828192  0.79506153  0.73217473  1
  Te  Te16  1  0.71828192  0.70493847  0.26782527  1
  Te  Te17  1  0.28171808  0.29506153  0.26782527  1
  Te  Te18  1  0.32469872  0.67530128  0.00000000  1
  Te  Te19  1  0.67530128  0.32469872  0.00000000  1
  Te  Te20  1  0.82469872  0.82469872  0.00000000  1
  Te  Te21  1  0.17530128  0.17530128  0.00000000  1
  O  O22  1  0.40766074  0.80085864  0.32300151  1
  O  O23  1  0.59233926  0.19914136  0.32300151  1
  O  O24  1  0.90766074  0.69914136  0.67699849  1
  O  O25  1  0.09233926  0.30085864  0.67699849  1
  O  O26  1  0.80085864  0.40766074  0.67699849  1
  O  O27  1  0.19914136  0.59233926  0.67699849  1
  O  O28  1  0.69914136  0.90766074  0.32300151  1
  O  O29  1  0.30085864  0.09233926  0.32300151  1
  O  O30  1  0.24209276  0.61256738  0.16582185  1
  O  O31  1  0.75790724  0.38743262  0.16582185  1
  O  O32  1  0.74209276  0.88743262  0.83417815  1
  O  O33  1  0.25790724  0.11256738  0.83417815  1
  O  O34  1  0.61256738  0.24209276  0.83417815  1
  O  O35  1  0.38743262  0.75790724  0.83417815  1
  O  O36  1  0.88743262  0.74209276  0.16582185  1
  O  O37  1  0.11256738  0.25790724  0.16582185  1
  O  O38  1  0.16108028  0.65126726  0.39703563  1
  O  O39  1  0.83891972  0.34873274  0.39703563  1
  O  O40  1  0.66108028  0.84873274  0.60296437  1
  O  O41  1  0.33891972  0.15126726  0.60296437  1
  O  O42  1  0.65126726  0.16108028  0.60296437  1
  O  O43  1  0.34873274  0.83891972  0.60296437  1
  O  O44  1  0.84873274  0.66108028  0.39703563  1
  O  O45  1  0.15126726  0.33891972  0.39703563  1
  O  O46  1  0.31573013  0.87768312  0.06090640  1
  O  O47  1  0.68426987  0.12231688  0.06090640  1
  O  O48  1  0.81573013  0.62231688  0.93909360  1
  O  O49  1  0.18426987  0.37768312  0.93909360  1
  O  O50  1  0.87768312  0.31573013  0.93909360  1
  O  O51  1  0.12231688  0.68426987  0.93909360  1
  O  O52  1  0.62231688  0.81573013  0.06090640  1
  O  O53  1  0.37768312  0.18426987  0.06090640  1
