# generated using pymatgen
data_B3Pb6O10F
_symmetry_space_group_name_H-M   'P 1'
_cell_length_a   6.86310025
_cell_length_b   11.40344926
_cell_length_c   17.27905190
_cell_angle_alpha   90.00000000
_cell_angle_beta   90.00000000
_cell_angle_gamma   90.00000000
_symmetry_Int_Tables_number   1
_chemical_formula_structural   B3Pb6O10F
_chemical_formula_sum   'B12 Pb24 O40 F4'
_cell_volume   1352.31070611
_cell_formula_units_Z   4
loop_
 _symmetry_equiv_pos_site_id
 _symmetry_equiv_pos_as_xyz
  1  'x, y, z'
loop_
 _atom_site_type_symbol
 _atom_site_label
 _atom_site_symmetry_multiplicity
 _atom_site_fract_x
 _atom_site_fract_y
 _atom_site_fract_z
 _atom_site_occupancy
  B  B0  1  0.19398106  0.75000000  0.77489654  1
  B  B1  1  0.80601894  0.25000000  0.22510346  1
  B  B2  1  0.19398106  0.25000000  0.72510346  1
  B  B3  1  0.80601894  0.75000000  0.27489654  1
  B  B4  1  0.77381482  0.50351020  0.00603090  1
  B  B5  1  0.22618518  0.00351020  0.99396910  1
  B  B6  1  0.77381482  0.49648980  0.49396910  1
  B  B7  1  0.22618518  0.99648980  0.50603090  1
  B  B8  1  0.22618518  0.49648980  0.99396910  1
  B  B9  1  0.77381482  0.99648980  0.00603090  1
  B  B10  1  0.22618518  0.50351020  0.50603090  1
  B  B11  1  0.77381482  0.00351020  0.49396910  1
  Pb  Pb12  1  0.96753641  0.56463001  0.84485855  1
  Pb  Pb13  1  0.03246359  0.06463001  0.15514145  1
  Pb  Pb14  1  0.96753641  0.43536999  0.65514145  1
  Pb  Pb15  1  0.03246359  0.93536999  0.34485855  1
  Pb  Pb16  1  0.03246359  0.43536999  0.15514145  1
  Pb  Pb17  1  0.96753641  0.93536999  0.84485855  1
  Pb  Pb18  1  0.03246359  0.56463001  0.34485855  1
  Pb  Pb19  1  0.96753641  0.06463001  0.65514145  1
  Pb  Pb20  1  0.56993080  0.25000000  0.03039524  1
  Pb  Pb21  1  0.43006920  0.75000000  0.96960476  1
  Pb  Pb22  1  0.56993080  0.75000000  0.46960476  1
  Pb  Pb23  1  0.43006920  0.25000000  0.53039524  1
  Pb  Pb24  1  0.08407133  0.25000000  0.93567695  1
  Pb  Pb25  1  0.91592867  0.75000000  0.06432305  1
  Pb  Pb26  1  0.08407133  0.75000000  0.56432305  1
  Pb  Pb27  1  0.91592867  0.25000000  0.43567695  1
  Pb  Pb28  1  0.49538337  0.40807234  0.83370426  1
  Pb  Pb29  1  0.50461663  0.90807234  0.16629574  1
  Pb  Pb30  1  0.49538337  0.59192766  0.66629574  1
  Pb  Pb31  1  0.50461663  0.09192766  0.33370426  1
  Pb  Pb32  1  0.50461663  0.59192766  0.16629574  1
  Pb  Pb33  1  0.49538337  0.09192766  0.83370426  1
  Pb  Pb34  1  0.50461663  0.40807234  0.33370426  1
  Pb  Pb35  1  0.49538337  0.90807234  0.66629574  1
  O  O36  1  0.41842126  0.25000000  0.90868184  1
  O  O37  1  0.58157874  0.75000000  0.09131816  1
  O  O38  1  0.41842126  0.75000000  0.59131816  1
  O  O39  1  0.58157874  0.25000000  0.40868184  1
  O  O40  1  0.09924869  0.75000000  0.84910296  1
  O  O41  1  0.90075131  0.25000000  0.15089704  1
  O  O42  1  0.09924869  0.25000000  0.65089704  1
  O  O43  1  0.90075131  0.75000000  0.34910296  1
  O  O44  1  0.22796422  0.49418817  0.91288149  1
  O  O45  1  0.77203578  0.99418817  0.08711851  1
  O  O46  1  0.22796422  0.50581183  0.58711851  1
  O  O47  1  0.77203578  0.00581183  0.41288149  1
  O  O48  1  0.77203578  0.50581183  0.08711851  1
  O  O49  1  0.22796422  0.00581183  0.91288149  1
  O  O50  1  0.77203578  0.49418817  0.41288149  1
  O  O51  1  0.22796422  0.99418817  0.58711851  1
  O  O52  1  0.82228100  0.60799865  0.96777396  1
  O  O53  1  0.17771900  0.10799865  0.03222604  1
  O  O54  1  0.82228100  0.39200135  0.53222604  1
  O  O55  1  0.17771900  0.89200135  0.46777396  1
  O  O56  1  0.17771900  0.39200135  0.03222604  1
  O  O57  1  0.82228100  0.89200135  0.96777396  1
  O  O58  1  0.17771900  0.60799865  0.46777396  1
  O  O59  1  0.82228100  0.10799865  0.53222604  1
  O  O60  1  0.73009003  0.40355640  0.96468936  1
  O  O61  1  0.26990997  0.90355640  0.03531064  1
  O  O62  1  0.73009003  0.59644360  0.53531064  1
  O  O63  1  0.26990997  0.09644360  0.46468936  1
  O  O64  1  0.26990997  0.59644360  0.03531064  1
  O  O65  1  0.73009003  0.09644360  0.96468936  1
  O  O66  1  0.26990997  0.40355640  0.46468936  1
  O  O67  1  0.73009003  0.90355640  0.53531064  1
  O  O68  1  0.22629462  0.35827247  0.75715361  1
  O  O69  1  0.77370538  0.85827247  0.24284639  1
  O  O70  1  0.22629462  0.64172753  0.74284639  1
  O  O71  1  0.77370538  0.14172753  0.25715361  1
  O  O72  1  0.77370538  0.64172753  0.24284639  1
  O  O73  1  0.22629462  0.14172753  0.75715361  1
  O  O74  1  0.77370538  0.35827247  0.25715361  1
  O  O75  1  0.22629462  0.85827247  0.74284639  1
  F  F76  1  0.66291922  0.25000000  0.76668506  1
  F  F77  1  0.33708078  0.75000000  0.23331494  1
  F  F78  1  0.66291922  0.75000000  0.73331494  1
  F  F79  1  0.33708078  0.25000000  0.26668506  1
