# generated using pymatgen
data_K4U3(AsO8)2
_symmetry_space_group_name_H-M   'P 1'
_cell_length_a   7.02716027
_cell_length_b   7.19057827
_cell_length_c   17.55044238
_cell_angle_alpha   90.00000000
_cell_angle_beta   90.00000000
_cell_angle_gamma   98.50820465
_symmetry_Int_Tables_number   1
_chemical_formula_structural   K4U3(AsO8)2
_chemical_formula_sum   'K8 U6 As4 O32'
_cell_volume   877.05272673
_cell_formula_units_Z   2
loop_
 _symmetry_equiv_pos_site_id
 _symmetry_equiv_pos_as_xyz
  1  'x, y, z'
loop_
 _atom_site_type_symbol
 _atom_site_label
 _atom_site_symmetry_multiplicity
 _atom_site_fract_x
 _atom_site_fract_y
 _atom_site_fract_z
 _atom_site_occupancy
  K  K0  1  0.96203200  0.24241081  0.05154357  1
  K  K1  1  0.03796800  0.25758919  0.55154357  1
  K  K2  1  0.03796800  0.75758919  0.94845643  1
  K  K3  1  0.96203200  0.74241081  0.44845643  1
  K  K4  1  0.17044516  0.77747826  0.70149874  1
  K  K5  1  0.82955484  0.72252174  0.20149874  1
  K  K6  1  0.82955484  0.22252174  0.29850126  1
  K  K7  1  0.17044516  0.27747826  0.79850126  1
  U  U8  1  0.56929604  0.51610374  0.60230881  1
  U  U9  1  0.43070396  0.98389626  0.10230881  1
  U  U10  1  0.43070396  0.48389626  0.39769119  1
  U  U11  1  0.56929604  0.01610374  0.89769119  1
  U  U12  1  0.50000000  0.00000000  0.50000000  1
  U  U13  1  0.50000000  0.50000000  0.00000000  1
  As  As14  1  0.70063288  0.02936588  0.68126675  1
  As  As15  1  0.29936712  0.47063412  0.18126675  1
  As  As16  1  0.29936712  0.97063412  0.31873325  1
  As  As17  1  0.70063288  0.52936588  0.81873325  1
  O  O18  1  0.94203356  0.04774732  0.68820263  1
  O  O19  1  0.05796644  0.45225268  0.18820263  1
  O  O20  1  0.05796644  0.95225268  0.31179737  1
  O  O21  1  0.94203356  0.54774732  0.81179737  1
  O  O22  1  0.58327102  0.52458943  0.73340978  1
  O  O23  1  0.41672898  0.97541057  0.23340978  1
  O  O24  1  0.41672898  0.47541057  0.26659022  1
  O  O25  1  0.58327102  0.02458943  0.76659022  1
  O  O26  1  0.58545388  0.84364068  0.62632316  1
  O  O27  1  0.41454612  0.65635932  0.12632316  1
  O  O28  1  0.41454612  0.15635932  0.37367684  1
  O  O29  1  0.58545388  0.34364068  0.87367684  1
  O  O30  1  0.62981616  0.19841563  0.62103086  1
  O  O31  1  0.37018384  0.30158437  0.12103086  1
  O  O32  1  0.37018384  0.80158437  0.37896914  1
  O  O33  1  0.62981616  0.69841563  0.87896914  1
  O  O34  1  0.83340003  0.56006046  0.58451049  1
  O  O35  1  0.16659997  0.93993954  0.08451049  1
  O  O36  1  0.16659997  0.43993954  0.41548951  1
  O  O37  1  0.83340003  0.06006046  0.91548951  1
  O  O38  1  0.30856388  0.48199180  0.62628878  1
  O  O39  1  0.69143612  0.01800820  0.12628878  1
  O  O40  1  0.69143612  0.51800820  0.37371122  1
  O  O41  1  0.30856388  0.98199180  0.87371122  1
  O  O42  1  0.51629186  0.18497936  0.00222341  1
  O  O43  1  0.48370814  0.31502064  0.50222341  1
  O  O44  1  0.48370814  0.81502064  0.99777659  1
  O  O45  1  0.51629186  0.68497936  0.49777659  1
  O  O46  1  0.24777719  0.95756319  0.53318638  1
  O  O47  1  0.75222281  0.54243681  0.03318638  1
  O  O48  1  0.75222281  0.04243681  0.46681362  1
  O  O49  1  0.24777719  0.45756319  0.96681362  1
