# generated using pymatgen
data_Na3In(PO4)2
_symmetry_space_group_name_H-M   'P 1'
_cell_length_a   5.53502034
_cell_length_b   7.12730098
_cell_length_c   8.77930311
_cell_angle_alpha   89.98613081
_cell_angle_beta   90.00000000
_cell_angle_gamma   90.00000000
_symmetry_Int_Tables_number   1
_chemical_formula_structural   Na3In(PO4)2
_chemical_formula_sum   'Na6 In2 P4 O16'
_cell_volume   346.34135413
_cell_formula_units_Z   2
loop_
 _symmetry_equiv_pos_site_id
 _symmetry_equiv_pos_as_xyz
  1  'x, y, z'
loop_
 _atom_site_type_symbol
 _atom_site_label
 _atom_site_symmetry_multiplicity
 _atom_site_fract_x
 _atom_site_fract_y
 _atom_site_fract_z
 _atom_site_occupancy
  Na  Na0  1  0.25000000  0.49417094  0.25609824  1
  Na  Na1  1  0.75000000  0.50582906  0.74390176  1
  Na  Na2  1  0.25000000  0.27643105  0.56644512  1
  Na  Na3  1  0.75000000  0.72356895  0.43355488  1
  Na  Na4  1  0.25000000  0.71053065  0.93937392  1
  Na  Na5  1  0.75000000  0.28946935  0.06062608  1
  In  In6  1  0.25000000  0.99730049  0.24730465  1
  In  In7  1  0.75000000  0.00269951  0.75269535  1
  P  P8  1  0.25000000  0.77653240  0.59886676  1
  P  P9  1  0.75000000  0.22346760  0.40113324  1
  P  P10  1  0.25000000  0.22286614  0.90493082  1
  P  P11  1  0.75000000  0.77713386  0.09506918  1
  O  O12  1  0.25000000  0.94960797  0.49146761  1
  O  O13  1  0.75000000  0.05039203  0.50853239  1
  O  O14  1  0.25000000  0.59336350  0.51026114  1
  O  O15  1  0.75000000  0.40663650  0.48973886  1
  O  O16  1  0.97907390  0.21634556  0.29396878  1
  O  O17  1  0.47907390  0.78365444  0.70603122  1
  O  O18  1  0.02092610  0.78365444  0.70603122  1
  O  O19  1  0.52092610  0.21634556  0.29396878  1
  O  O20  1  0.25000000  0.04206298  0.00339978  1
  O  O21  1  0.75000000  0.95793702  0.99660022  1
  O  O22  1  0.97921626  0.77625855  0.20269671  1
  O  O23  1  0.47921626  0.22374145  0.79730329  1
  O  O24  1  0.02078374  0.22374145  0.79730329  1
  O  O25  1  0.52078374  0.77625855  0.20269671  1
  O  O26  1  0.25000000  0.39875211  0.00260905  1
  O  O27  1  0.75000000  0.60124789  0.99739095  1
