# generated using pymatgen
data_BaGaB4H3O10
_symmetry_space_group_name_H-M   'P 1'
_cell_length_a   7.21861813
_cell_length_b   7.24515042
_cell_length_c   19.11761416
_cell_angle_alpha   83.86418397
_cell_angle_beta   79.11753263
_cell_angle_gamma   60.12106679
_symmetry_Int_Tables_number   1
_chemical_formula_structural   BaGaB4H3O10
_chemical_formula_sum   'Ba4 Ga4 B16 H12 O40'
_cell_volume   851.26305812
_cell_formula_units_Z   4
loop_
 _symmetry_equiv_pos_site_id
 _symmetry_equiv_pos_as_xyz
  1  'x, y, z'
loop_
 _atom_site_type_symbol
 _atom_site_label
 _atom_site_symmetry_multiplicity
 _atom_site_fract_x
 _atom_site_fract_y
 _atom_site_fract_z
 _atom_site_occupancy
  Ba  Ba0  1  0.96728862  0.80797100  0.60237155  1
  Ba  Ba1  1  0.37763116  0.69202900  0.89762845  1
  Ba  Ba2  1  0.03271138  0.19202900  0.39762845  1
  Ba  Ba3  1  0.62236884  0.30797100  0.10237155  1
  Ga  Ga4  1  0.32316404  0.14869264  0.55958154  1
  Ga  Ga5  1  0.03143822  0.35130736  0.94041846  1
  Ga  Ga6  1  0.67683596  0.85130736  0.44041846  1
  Ga  Ga7  1  0.96856178  0.64869264  0.05958154  1
  B  B8  1  0.58421865  0.70459049  0.60236513  1
  B  B9  1  0.89117426  0.79540951  0.89763487  1
  B  B10  1  0.41578135  0.29540951  0.39763487  1
  B  B11  1  0.10882574  0.20459049  0.10236513  1
  B  B12  1  0.85584121  0.32508152  0.57146263  1
  B  B13  1  0.75238536  0.17491848  0.92853737  1
  B  B14  1  0.14415879  0.67491848  0.42853737  1
  B  B15  1  0.24761464  0.82508152  0.07146263  1
  B  B16  1  0.47479901  0.44208365  0.57700094  1
  B  B17  1  0.49388360  0.05791635  0.92299906  1
  B  B18  1  0.52520099  0.55791635  0.42299906  1
  B  B19  1  0.50611640  0.94208365  0.07700094  1
  B  B20  1  0.38245624  0.96534367  0.70552616  1
  B  B21  1  0.05332607  0.53465633  0.79447384  1
  B  B22  1  0.61754376  0.03465633  0.29447384  1
  B  B23  1  0.94667393  0.46534367  0.20552616  1
  H  H24  1  0.23581086  0.12190594  0.79863682  1
  H  H25  1  0.15635362  0.37809406  0.70136318  1
  H  H26  1  0.76418914  0.87809406  0.20136318  1
  H  H27  1  0.84364638  0.62190594  0.29863682  1
  H  H28  1  0.96985920  0.09253283  0.71578541  1
  H  H29  1  0.77817745  0.40746717  0.78421459  1
  H  H30  1  0.03014080  0.90746717  0.28421459  1
  H  H31  1  0.22182255  0.59253283  0.21578541  1
  H  H32  1  0.91751851  0.92490263  0.76130217  1
  H  H33  1  0.60372332  0.57509737  0.73869783  1
  H  H34  1  0.08248149  0.07509737  0.23869783  1
  H  H35  1  0.39627668  0.42490263  0.26130217  1
  O  O36  1  0.42272283  0.64430502  0.59349889  1
  O  O37  1  0.66052673  0.85569498  0.90650111  1
  O  O38  1  0.57727717  0.35569498  0.40650111  1
  O  O39  1  0.33947327  0.14430502  0.09349889  1
  O  O40  1  0.31460766  0.41088178  0.56330734  1
  O  O41  1  0.28879677  0.08911822  0.93669266  1
  O  O42  1  0.68539234  0.58911822  0.43669266  1
  O  O43  1  0.71120323  0.91088178  0.06330734  1
  O  O44  1  0.68980247  0.27595940  0.57155919  1
  O  O45  1  0.53732106  0.22404060  0.92844081  1
  O  O46  1  0.31019753  0.72404060  0.42844081  1
  O  O47  1  0.46267894  0.77595940  0.07155919  1
  O  O48  1  0.05945355  0.16382643  0.54877388  1
  O  O49  1  0.77205387  0.33617357  0.95122612  1
  O  O50  1  0.94054645  0.83617357  0.45122612  1
  O  O51  1  0.22794613  0.66382643  0.04877388  1
  O  O52  1  0.80867177  0.52231727  0.58989343  1
  O  O53  1  0.92088246  0.97768273  0.91010657  1
  O  O54  1  0.19132823  0.47768273  0.41010657  1
  O  O55  1  0.07911754  0.02231727  0.08989343  1
  O  O56  1  0.54922131  0.77222890  0.67688940  1
  O  O57  1  0.99833961  0.72777110  0.82311060  1
  O  O58  1  0.45077869  0.22777110  0.32311060  1
  O  O59  1  0.00166039  0.27222890  0.17688940  1
  O  O60  1  0.57781195  0.87659205  0.55176501  1
  O  O61  1  0.00616902  0.62340795  0.94823499  1
  O  O62  1  0.42218805  0.12340795  0.44823499  1
  O  O63  1  0.99383098  0.37659205  0.05176501  1
  O  O64  1  0.26126810  0.13443439  0.66479815  1
  O  O65  1  0.06050064  0.36556561  0.83520185  1
  O  O66  1  0.73873190  0.86556561  0.33520185  1
  O  O67  1  0.93949936  0.63443439  0.16479815  1
  O  O68  1  0.34275293  0.97541916  0.77958165  1
  O  O69  1  0.09775374  0.52458084  0.72041835  1
  O  O70  1  0.65724707  0.02458084  0.22041835  1
  O  O71  1  0.90224626  0.47541916  0.27958165  1
  O  O72  1  0.87994188  0.02590709  0.71954115  1
  O  O73  1  0.62539013  0.47409291  0.78045885  1
  O  O74  1  0.12005812  0.97409291  0.28045885  1
  O  O75  1  0.37460987  0.52590709  0.21954115  1
