# generated using pymatgen
data_Rb3Sb2I9
_symmetry_space_group_name_H-M   'P 1'
_cell_length_a   8.44735190
_cell_length_b   15.03963502
_cell_length_c   21.05851897
_cell_angle_alpha   90.03372539
_cell_angle_beta   90.00000000
_cell_angle_gamma   90.00000000
_symmetry_Int_Tables_number   1
_chemical_formula_structural   Rb3Sb2I9
_chemical_formula_sum   'Rb12 Sb8 I36'
_cell_volume   2675.38096203
_cell_formula_units_Z   4
loop_
 _symmetry_equiv_pos_site_id
 _symmetry_equiv_pos_as_xyz
  1  'x, y, z'
loop_
 _atom_site_type_symbol
 _atom_site_label
 _atom_site_symmetry_multiplicity
 _atom_site_fract_x
 _atom_site_fract_y
 _atom_site_fract_z
 _atom_site_occupancy
  Rb  Rb0  1  0.48253067  0.47078939  0.22748457  1
  Rb  Rb1  1  0.01746933  0.97078939  0.72748457  1
  Rb  Rb2  1  0.51746933  0.52921061  0.77251543  1
  Rb  Rb3  1  0.98253067  0.02921061  0.27251543  1
  Rb  Rb4  1  0.48958016  0.81855845  0.56805281  1
  Rb  Rb5  1  0.01041984  0.31855845  0.06805281  1
  Rb  Rb6  1  0.51041984  0.18144155  0.43194719  1
  Rb  Rb7  1  0.98958016  0.68144155  0.93194719  1
  Rb  Rb8  1  0.52518674  0.84797924  0.10580810  1
  Rb  Rb9  1  0.97481326  0.34797924  0.60580810  1
  Rb  Rb10  1  0.47481326  0.15202076  0.89419190  1
  Rb  Rb11  1  0.02518674  0.65202076  0.39419190  1
  Sb  Sb12  1  0.49253799  0.83782507  0.84183694  1
  Sb  Sb13  1  0.00746201  0.33782507  0.34183694  1
  Sb  Sb14  1  0.50746201  0.16217493  0.15816306  1
  Sb  Sb15  1  0.99253799  0.66217493  0.65816306  1
  Sb  Sb16  1  0.50868549  0.83365877  0.34105928  1
  Sb  Sb17  1  0.99131451  0.33365877  0.84105928  1
  Sb  Sb18  1  0.49131451  0.16634123  0.65894072  1
  Sb  Sb19  1  0.00868549  0.66634123  0.15894072  1
  I  I20  1  0.93141504  0.50293959  0.25179712  1
  I  I21  1  0.56858496  0.00293959  0.75179712  1
  I  I22  1  0.06858496  0.49706041  0.74820288  1
  I  I23  1  0.43141504  0.99706041  0.24820288  1
  I  I24  1  0.94269565  0.82313094  0.58177100  1
  I  I25  1  0.55730435  0.32313094  0.08177100  1
  I  I26  1  0.05730435  0.17686906  0.41822900  1
  I  I27  1  0.44269565  0.67686906  0.91822900  1
  I  I28  1  0.06661401  0.82238301  0.07975196  1
  I  I29  1  0.43338599  0.32238301  0.57975196  1
  I  I30  1  0.93338599  0.17761699  0.92024804  1
  I  I31  1  0.56661401  0.67761699  0.42024804  1
  I  I32  1  0.19310991  0.58354951  0.56058388  1
  I  I33  1  0.30689009  0.08354951  0.06058388  1
  I  I34  1  0.80689009  0.41645049  0.43941612  1
  I  I35  1  0.69310991  0.91645049  0.93941612  1
  I  I36  1  0.20573655  0.55211381  0.07859560  1
  I  I37  1  0.29426345  0.05211381  0.57859560  1
  I  I38  1  0.79426345  0.44788619  0.92140440  1
  I  I39  1  0.70573655  0.94788619  0.42140440  1
  I  I40  1  0.20691268  0.92439825  0.89031135  1
  I  I41  1  0.29308732  0.42439825  0.39031135  1
  I  I42  1  0.79308732  0.07560175  0.10968865  1
  I  I43  1  0.70691268  0.57560175  0.60968865  1
  I  I44  1  0.22238520  0.87986813  0.41237599  1
  I  I45  1  0.27761480  0.37986813  0.91237599  1
  I  I46  1  0.77761480  0.12013187  0.58762401  1
  I  I47  1  0.72238520  0.62013187  0.08762401  1
  I  I48  1  0.20209850  0.25530295  0.22257610  1
  I  I49  1  0.29790150  0.75530295  0.72257610  1
  I  I50  1  0.79790150  0.74469705  0.77742390  1
  I  I51  1  0.70209850  0.24469705  0.27742390  1
  I  I52  1  0.18305391  0.20585119  0.74444712  1
  I  I53  1  0.31694609  0.70585119  0.24444712  1
  I  I54  1  0.81694609  0.79414881  0.25555288  1
  I  I55  1  0.68305391  0.29414881  0.75555288  1
