# generated using pymatgen
data_NaCaMn3Si5HO15
_symmetry_space_group_name_H-M   'P 1'
_cell_length_a   6.88201028
_cell_length_b   7.80432570
_cell_length_c   12.12800699
_cell_angle_alpha   110.93483341
_cell_angle_beta   84.50278766
_cell_angle_gamma   94.31812534
_symmetry_Int_Tables_number   1
_chemical_formula_structural   NaCaMn3Si5HO15
_chemical_formula_sum   'Na2 Ca2 Mn6 Si10 H2 O30'
_cell_volume   604.99961522
_cell_formula_units_Z   2
loop_
 _symmetry_equiv_pos_site_id
 _symmetry_equiv_pos_as_xyz
  1  'x, y, z'
loop_
 _atom_site_type_symbol
 _atom_site_label
 _atom_site_symmetry_multiplicity
 _atom_site_fract_x
 _atom_site_fract_y
 _atom_site_fract_z
 _atom_site_occupancy
  Na  Na0  1  0.36203711  0.52687658  0.86057865  1
  Na  Na1  1  0.63796289  0.47312342  0.13942135  1
  Ca  Ca2  1  0.28136078  0.70645017  0.47497679  1
  Ca  Ca3  1  0.71863922  0.29354983  0.52502321  1
  Mn  Mn4  1  0.13361128  0.86414748  0.05640579  1
  Mn  Mn5  1  0.86638872  0.13585252  0.94359421  1
  Mn  Mn6  1  0.06302546  0.93962800  0.34861115  1
  Mn  Mn7  1  0.93697454  0.06037200  0.65138885  1
  Mn  Mn8  1  0.17092092  0.81019430  0.76634184  1
  Mn  Mn9  1  0.82907908  0.18980570  0.23365816  1
  Si  Si10  1  0.35647196  0.20690001  0.94561723  1
  Si  Si11  1  0.64352804  0.79309999  0.05438277  1
  Si  Si12  1  0.42287699  0.12961663  0.67343131  1
  Si  Si13  1  0.57712301  0.87038337  0.32656869  1
  Si  Si14  1  0.21470777  0.35556383  0.55145357  1
  Si  Si15  1  0.78529223  0.64443617  0.44854643  1
  Si  Si16  1  0.29902470  0.27381784  0.27856432  1
  Si  Si17  1  0.70097530  0.72618216  0.72143568  1
  Si  Si18  1  0.11979601  0.48795194  0.14637284  1
  Si  Si19  1  0.88020399  0.51204806  0.85362716  1
  H  H20  1  0.47785044  0.81953847  0.89142456  1
  H  H21  1  0.52214956  0.18046153  0.10857544  1
  O  O22  1  0.55586777  0.17871648  0.99875096  1
  O  O23  1  0.44413223  0.82128352  0.00124904  1
  O  O24  1  0.17869221  0.05306765  0.93655856  1
  O  O25  1  0.82130779  0.94693235  0.06344144  1
  O  O26  1  0.41824936  0.23291748  0.81797672  1
  O  O27  1  0.58175064  0.76708252  0.18202328  1
  O  O28  1  0.24917271  0.97039119  0.64703763  1
  O  O29  1  0.75082729  0.02960881  0.35296237  1
  O  O30  1  0.35893725  0.92425078  0.38322638  1
  O  O31  1  0.64106275  0.07574922  0.61677362  1
  O  O32  1  0.37802594  0.30206394  0.62604849  1
  O  O33  1  0.62197406  0.69793606  0.37395151  1
  O  O34  1  0.16723531  0.56970015  0.61129750  1
  O  O35  1  0.83276469  0.43029985  0.38870250  1
  O  O36  1  0.03279495  0.20592315  0.52997467  1
  O  O37  1  0.96720505  0.79407685  0.47002533  1
  O  O38  1  0.33535874  0.34561008  0.42117179  1
  O  O39  1  0.66464126  0.65438992  0.57882821  1
  O  O40  1  0.13416516  0.10766048  0.23657110  1
  O  O41  1  0.86583484  0.89233952  0.76342890  1
  O  O42  1  0.48615882  0.78279125  0.79237632  1
  O  O43  1  0.51384118  0.21720875  0.20762368  1
  O  O44  1  0.23532973  0.46272077  0.25778211  1
  O  O45  1  0.76467027  0.53727923  0.74221789  1
  O  O46  1  0.07664984  0.70233329  0.17688507  1
  O  O47  1  0.92335016  0.29766671  0.82311493  1
  O  O48  1  0.06990356  0.65493018  0.88059309  1
  O  O49  1  0.93009644  0.34506982  0.11940691  1
  O  O50  1  0.28222620  0.41609414  0.02964827  1
  O  O51  1  0.71777380  0.58390586  0.97035173  1
