# generated using pymatgen
data_Sc2(TeO3)3
_symmetry_space_group_name_H-M   'P 1'
_cell_length_a   5.32012359
_cell_length_b   6.97635984
_cell_length_c   24.76809402
_cell_angle_alpha   90.00000000
_cell_angle_beta   90.00000000
_cell_angle_gamma   106.80464805
_symmetry_Int_Tables_number   1
_chemical_formula_structural   Sc2(TeO3)3
_chemical_formula_sum   'Sc8 Te12 O36'
_cell_volume   880.01373002
_cell_formula_units_Z   4
loop_
 _symmetry_equiv_pos_site_id
 _symmetry_equiv_pos_as_xyz
  1  'x, y, z'
loop_
 _atom_site_type_symbol
 _atom_site_label
 _atom_site_symmetry_multiplicity
 _atom_site_fract_x
 _atom_site_fract_y
 _atom_site_fract_z
 _atom_site_occupancy
  Sc  Sc0  1  0.69775576  0.36370924  0.47270743  1
  Sc  Sc1  1  0.19775576  0.86370924  0.02729257  1
  Sc  Sc2  1  0.30224424  0.63629076  0.52729257  1
  Sc  Sc3  1  0.80224424  0.13629076  0.97270743  1
  Sc  Sc4  1  0.51246206  0.12201248  0.33942552  1
  Sc  Sc5  1  0.01246206  0.62201248  0.16057448  1
  Sc  Sc6  1  0.48753794  0.87798752  0.66057448  1
  Sc  Sc7  1  0.98753794  0.37798752  0.83942552  1
  Te  Te8  1  0.84238530  0.89910994  0.43577353  1
  Te  Te9  1  0.34238530  0.39910994  0.06422647  1
  Te  Te10  1  0.15761470  0.10089006  0.56422647  1
  Te  Te11  1  0.65761470  0.60089006  0.93577353  1
  Te  Te12  1  0.20574020  0.47387217  0.38299973  1
  Te  Te13  1  0.70574020  0.97387217  0.11700027  1
  Te  Te14  1  0.79425980  0.52612783  0.61700027  1
  Te  Te15  1  0.29425980  0.02612783  0.88299973  1
  Te  Te16  1  0.83310194  0.82901046  0.27682246  1
  Te  Te17  1  0.33310194  0.32901046  0.22317754  1
  Te  Te18  1  0.16689806  0.17098954  0.72317754  1
  Te  Te19  1  0.66689806  0.67098954  0.77682246  1
  O  O20  1  0.63157771  0.66404761  0.47311869  1
  O  O21  1  0.13157771  0.16404761  0.02688131  1
  O  O22  1  0.36842229  0.33595239  0.52688131  1
  O  O23  1  0.86842229  0.83595239  0.97311869  1
  O  O24  1  0.56962846  0.88090719  0.38453412  1
  O  O25  1  0.06962846  0.38090719  0.11546588  1
  O  O26  1  0.43037154  0.11909281  0.61546588  1
  O  O27  1  0.93037154  0.61909281  0.88453412  1
  O  O28  1  0.78002662  0.09321347  0.48341449  1
  O  O29  1  0.28002662  0.59321347  0.01658551  1
  O  O30  1  0.21997338  0.90678653  0.51658551  1
  O  O31  1  0.71997338  0.40678653  0.98341449  1
  O  O32  1  0.09104650  0.54853396  0.45199925  1
  O  O33  1  0.59104650  0.04853396  0.04800075  1
  O  O34  1  0.90895350  0.45146604  0.54800075  1
  O  O35  1  0.40895350  0.95146604  0.95199925  1
  O  O36  1  0.87146460  0.28544502  0.37837407  1
  O  O37  1  0.37146460  0.78544502  0.12162593  1
  O  O38  1  0.12853540  0.71455498  0.62162593  1
  O  O39  1  0.62853540  0.21455498  0.87837407  1
  O  O40  1  0.39262190  0.29378404  0.40859738  1
  O  O41  1  0.89262190  0.79378404  0.09140262  1
  O  O42  1  0.60737810  0.70621596  0.59140262  1
  O  O43  1  0.10737810  0.20621596  0.90859738  1
  O  O44  1  0.70696200  0.05512940  0.27408609  1
  O  O45  1  0.20696200  0.55512940  0.22591391  1
  O  O46  1  0.29303800  0.94487060  0.72591391  1
  O  O47  1  0.79303800  0.44487060  0.77408609  1
  O  O48  1  0.95574588  0.86272804  0.20408645  1
  O  O49  1  0.45574588  0.36272804  0.29591355  1
  O  O50  1  0.04425412  0.13727196  0.79591355  1
  O  O51  1  0.54425412  0.63727196  0.70408645  1
  O  O52  1  0.14328266  0.93908754  0.31729168  1
  O  O53  1  0.64328266  0.43908754  0.18270832  1
  O  O54  1  0.85671734  0.06091246  0.68270832  1
  O  O55  1  0.35671734  0.56091246  0.81729168  1
