# generated using pymatgen
data_MnPb2WO6
_symmetry_space_group_name_H-M   'P 1'
_cell_length_a   5.90713810
_cell_length_b   8.17556265
_cell_length_c   11.84830707
_cell_angle_alpha   90.00000000
_cell_angle_beta   90.00000000
_cell_angle_gamma   90.00000000
_symmetry_Int_Tables_number   1
_chemical_formula_structural   MnPb2WO6
_chemical_formula_sum   'Mn4 Pb8 W4 O24'
_cell_volume   572.20424612
_cell_formula_units_Z   4
loop_
 _symmetry_equiv_pos_site_id
 _symmetry_equiv_pos_as_xyz
  1  'x, y, z'
loop_
 _atom_site_type_symbol
 _atom_site_label
 _atom_site_symmetry_multiplicity
 _atom_site_fract_x
 _atom_site_fract_y
 _atom_site_fract_z
 _atom_site_occupancy
  Mn  Mn0  1  0.74089924  0.62039581  0.88232102  1
  Mn  Mn1  1  0.25910076  0.12039581  0.11767898  1
  Mn  Mn2  1  0.24089924  0.12039581  0.61767898  1
  Mn  Mn3  1  0.75910076  0.62039581  0.38232102  1
  Pb  Pb4  1  0.20743347  0.87689867  0.85173463  1
  Pb  Pb5  1  0.79256653  0.37689867  0.14826537  1
  Pb  Pb6  1  0.70743347  0.37689867  0.64826537  1
  Pb  Pb7  1  0.29256653  0.87689867  0.35173463  1
  Pb  Pb8  1  0.20348445  0.36540982  0.85497185  1
  Pb  Pb9  1  0.79651555  0.86540982  0.14502815  1
  Pb  Pb10  1  0.70348445  0.86540982  0.64502815  1
  Pb  Pb11  1  0.29651555  0.36540982  0.35497185  1
  W  W12  1  0.74893959  0.11809220  0.88168396  1
  W  W13  1  0.25106041  0.61809220  0.11831604  1
  W  W14  1  0.24893959  0.61809220  0.61831604  1
  W  W15  1  0.75106041  0.11809220  0.38168396  1
  O  O16  1  0.03392256  0.12405335  0.76950428  1
  O  O17  1  0.96607744  0.62405335  0.23049572  1
  O  O18  1  0.53392256  0.62405335  0.73049572  1
  O  O19  1  0.46607744  0.12405335  0.26950428  1
  O  O20  1  0.55471115  0.11245847  0.74630494  1
  O  O21  1  0.44528885  0.61245847  0.25369506  1
  O  O22  1  0.05471115  0.61245847  0.75369506  1
  O  O23  1  0.94528885  0.11245847  0.24630494  1
  O  O24  1  0.50841499  0.11271989  0.98262878  1
  O  O25  1  0.49158501  0.61271989  0.01737122  1
  O  O26  1  0.00841499  0.61271989  0.51737122  1
  O  O27  1  0.99158501  0.11271989  0.48262878  1
  O  O28  1  0.76926326  0.35655021  0.86115273  1
  O  O29  1  0.23073674  0.85655021  0.13884727  1
  O  O30  1  0.26926326  0.85655021  0.63884727  1
  O  O31  1  0.73073674  0.35655021  0.36115273  1
  O  O32  1  0.78930803  0.88140799  0.86089862  1
  O  O33  1  0.21069197  0.38140799  0.13910138  1
  O  O34  1  0.28930803  0.38140799  0.63910138  1
  O  O35  1  0.71069197  0.88140799  0.36089862  1
  O  O36  1  0.97823892  0.12251358  0.99691831  1
  O  O37  1  0.02176108  0.62251358  0.00308169  1
  O  O38  1  0.47823892  0.62251358  0.50308169  1
  O  O39  1  0.52176108  0.12251358  0.49691831  1
