# generated using pymatgen
data_Li2MgSi5O12
_symmetry_space_group_name_H-M   'P 1'
_cell_length_a   9.85423056
_cell_length_b   9.85423056
_cell_length_c   9.85423056
_cell_angle_alpha   70.34211768
_cell_angle_beta   70.34211768
_cell_angle_gamma   109.09853882
_symmetry_Int_Tables_number   1
_chemical_formula_structural   Li2MgSi5O12
_chemical_formula_sum   'Li8 Mg4 Si20 O48'
_cell_volume   736.60132739
_cell_formula_units_Z   4
loop_
 _symmetry_equiv_pos_site_id
 _symmetry_equiv_pos_as_xyz
  1  'x, y, z'
loop_
 _atom_site_type_symbol
 _atom_site_label
 _atom_site_symmetry_multiplicity
 _atom_site_fract_x
 _atom_site_fract_y
 _atom_site_fract_z
 _atom_site_occupancy
  Li  Li0  1  0.37606050  0.75000000  0.87393950  1
  Li  Li1  1  0.12393950  0.25000000  0.62606050  1
  Li  Li2  1  0.25000000  0.62393950  0.62606050  1
  Li  Li3  1  0.75000000  0.87606050  0.87393950  1
  Li  Li4  1  0.62393950  0.25000000  0.12606050  1
  Li  Li5  1  0.87606050  0.75000000  0.37393950  1
  Li  Li6  1  0.75000000  0.37606050  0.37393950  1
  Li  Li7  1  0.25000000  0.12393950  0.12606050  1
  Mg  Mg8  1  0.37500000  0.62500000  0.25000000  1
  Mg  Mg9  1  0.12500000  0.87500000  0.75000000  1
  Mg  Mg10  1  0.62500000  0.37500000  0.75000000  1
  Mg  Mg11  1  0.87500000  0.12500000  0.25000000  1
  Si  Si12  1  0.12500000  0.37500000  0.25000000  1
  Si  Si13  1  0.37500000  0.12500000  0.75000000  1
  Si  Si14  1  0.62406572  0.75000000  0.62593428  1
  Si  Si15  1  0.87593428  0.25000000  0.87406572  1
  Si  Si16  1  0.25000000  0.87593428  0.37406572  1
  Si  Si17  1  0.75000000  0.62406572  0.12593428  1
  Si  Si18  1  0.87500000  0.62500000  0.75000000  1
  Si  Si19  1  0.62500000  0.87500000  0.25000000  1
  Si  Si20  1  0.37593428  0.25000000  0.37406572  1
  Si  Si21  1  0.12406572  0.75000000  0.12593428  1
  Si  Si22  1  0.75000000  0.12406572  0.62593428  1
  Si  Si23  1  0.25000000  0.37593428  0.87406572  1
  Si  Si24  1  0.50000000  0.00000000  -0.00000000  1
  Si  Si25  1  0.50000000  0.50000000  0.50000000  1
  Si  Si26  1  0.00000000  0.50000000  -0.00000000  1
  Si  Si27  1  0.00000000  0.00000000  0.50000000  1
  Si  Si28  1  0.50000000  0.50000000  -0.00000000  1
  Si  Si29  1  0.50000000  0.00000000  0.50000000  1
  Si  Si30  1  0.00000000  0.50000000  0.50000000  1
  Si  Si31  1  0.00000000  0.00000000  -0.00000000  1
  O  O32  1  0.51275414  0.32018559  0.60641515  1
  O  O33  1  0.42660075  0.11916929  0.89358485  1
  O  O34  1  0.07339925  0.17981441  0.30743146  1
  O  O35  1  0.98724586  0.38083071  0.19256854  1
  O  O36  1  0.68059903  0.19380754  0.92143431  1
  O  O37  1  0.88475815  0.30619246  0.01320851  1
  O  O38  1  0.81940097  0.89796666  0.48679149  1
  O  O39  1  0.61524185  0.60203334  0.57856569  1
  O  O40  1  0.80993602  0.48963534  0.11348691  1
  O  O41  1  0.69006398  0.57657708  0.32030068  1
  O  O42  1  0.10312224  0.92342292  0.38651309  1
  O  O43  1  0.39687776  0.01036466  0.17969932  1
  O  O44  1  0.48724586  0.67981441  0.39358485  1
  O  O45  1  0.57339925  0.88083071  0.10641515  1
  O  O46  1  0.92660075  0.82018559  0.69256854  1
  O  O47  1  0.01275414  0.61916929  0.80743146  1
  O  O48  1  0.31940097  0.80619246  0.07856569  1
  O  O49  1  0.11524185  0.69380754  0.98679149  1
  O  O50  1  0.18059903  0.10203334  0.51320851  1
  O  O51  1  0.38475815  0.39796666  0.42143431  1
  O  O52  1  0.19006398  0.51036466  0.88651309  1
  O  O53  1  0.30993602  0.42342292  0.67969932  1
  O  O54  1  0.89687776  0.07657708  0.61348691  1
  O  O55  1  0.60312224  0.98963534  0.82030068  1
  O  O56  1  0.48963534  0.80993602  0.61348691  1
  O  O57  1  0.57657708  0.69006398  0.82030068  1
  O  O58  1  0.92342292  0.10312224  0.88651309  1
  O  O59  1  0.01036466  0.39687776  0.67969932  1
  O  O60  1  0.32018559  0.51275414  0.10641515  1
  O  O61  1  0.11916929  0.42660075  0.39358485  1
  O  O62  1  0.17981441  0.07339925  0.80743146  1
  O  O63  1  0.38083071  0.98724586  0.69256854  1
  O  O64  1  0.19380754  0.68059903  0.42143431  1
  O  O65  1  0.30619246  0.88475815  0.51320851  1
  O  O66  1  0.89796666  0.81940097  0.98679149  1
  O  O67  1  0.60203334  0.61524185  0.07856569  1
  O  O68  1  0.51036466  0.19006398  0.38651309  1
  O  O69  1  0.42342292  0.30993602  0.17969932  1
  O  O70  1  0.07657708  0.89687776  0.11348691  1
  O  O71  1  0.98963534  0.60312224  0.32030068  1
  O  O72  1  0.67981441  0.48724586  0.89358485  1
  O  O73  1  0.88083071  0.57339925  0.60641515  1
  O  O74  1  0.82018559  0.92660075  0.19256854  1
  O  O75  1  0.61916929  0.01275414  0.30743146  1
  O  O76  1  0.80619246  0.31940097  0.57856569  1
  O  O77  1  0.69380754  0.11524185  0.48679149  1
  O  O78  1  0.10203334  0.18059903  0.01320851  1
  O  O79  1  0.39796666  0.38475815  0.92143431  1
