# generated using pymatgen
data_SrLiAlF6
_symmetry_space_group_name_H-M   'P 1'
_cell_length_a   5.17292147
_cell_length_b   8.94210787
_cell_length_c   10.32977564
_cell_angle_alpha   90.00000000
_cell_angle_beta   90.20273531
_cell_angle_gamma   90.00000000
_symmetry_Int_Tables_number   1
_chemical_formula_structural   SrLiAlF6
_chemical_formula_sum   'Sr4 Li4 Al4 F24'
_cell_volume   477.81959919
_cell_formula_units_Z   4
loop_
 _symmetry_equiv_pos_site_id
 _symmetry_equiv_pos_as_xyz
  1  'x, y, z'
loop_
 _atom_site_type_symbol
 _atom_site_label
 _atom_site_symmetry_multiplicity
 _atom_site_fract_x
 _atom_site_fract_y
 _atom_site_fract_z
 _atom_site_occupancy
  Sr  Sr0  1  0.75052879  0.73857064  0.00107591  1
  Sr  Sr1  1  0.24947121  0.23857064  0.49892409  1
  Sr  Sr2  1  0.24947121  0.26142936  0.99892409  1
  Sr  Sr3  1  0.75052879  0.76142936  0.50107591  1
  Li  Li4  1  0.73887037  0.08470871  0.75396614  1
  Li  Li5  1  0.26112963  0.58470871  0.74603386  1
  Li  Li6  1  0.26112963  0.91529129  0.24603386  1
  Li  Li7  1  0.73887037  0.41529129  0.25396614  1
  Al  Al8  1  0.75631767  0.08279423  0.25035122  1
  Al  Al9  1  0.24368233  0.58279423  0.24964878  1
  Al  Al10  1  0.24368233  0.91720577  0.74964878  1
  Al  Al11  1  0.75631767  0.41720577  0.75035122  1
  F  F12  1  0.86850411  0.23645333  0.35516247  1
  F  F13  1  0.13149589  0.73645333  0.14483753  1
  F  F14  1  0.13149589  0.76354667  0.64483753  1
  F  F15  1  0.86850411  0.26354667  0.85516247  1
  F  F16  1  0.47093156  0.05951748  0.35499221  1
  F  F17  1  0.52906844  0.55951748  0.14500779  1
  F  F18  1  0.52906844  0.94048252  0.64500779  1
  F  F19  1  0.47093156  0.44048252  0.85499221  1
  F  F20  1  0.60710933  0.22824232  0.15267732  1
  F  F21  1  0.39289067  0.72824232  0.34732268  1
  F  F22  1  0.39289067  0.77175768  0.84732268  1
  F  F23  1  0.60710933  0.27175768  0.65267732  1
  F  F24  1  0.04816189  0.08380445  0.15002429  1
  F  F25  1  0.95183811  0.58380445  0.34997571  1
  F  F26  1  0.95183811  0.91619555  0.84997571  1
  F  F27  1  0.04816189  0.41619555  0.65002429  1
  F  F28  1  0.93301618  0.94787367  0.35251682  1
  F  F29  1  0.06698382  0.44787367  0.14748318  1
  F  F30  1  0.06698382  0.05212633  0.64748318  1
  F  F31  1  0.93301618  0.55212633  0.85251682  1
  F  F32  1  0.60864005  0.93719018  0.14980875  1
  F  F33  1  0.39135995  0.43719018  0.35019125  1
  F  F34  1  0.39135995  0.06280982  0.85019125  1
  F  F35  1  0.60864005  0.56280982  0.64980875  1
