# generated using pymatgen
data_K5Mo4O14F
_symmetry_space_group_name_H-M   'P 1'
_cell_length_a   8.63326620
_cell_length_b   10.62028186
_cell_length_c   10.62028186
_cell_angle_alpha   61.81216479
_cell_angle_beta   83.10812362
_cell_angle_gamma   83.10812362
_symmetry_Int_Tables_number   1
_chemical_formula_structural   K5Mo4O14F
_chemical_formula_sum   'K10 Mo8 O28 F2'
_cell_volume   849.83150382
_cell_formula_units_Z   2
loop_
 _symmetry_equiv_pos_site_id
 _symmetry_equiv_pos_as_xyz
  1  'x, y, z'
loop_
 _atom_site_type_symbol
 _atom_site_label
 _atom_site_symmetry_multiplicity
 _atom_site_fract_x
 _atom_site_fract_y
 _atom_site_fract_z
 _atom_site_occupancy
  K  K0  1  0.90914549  0.11742687  0.32303017  1
  K  K1  1  0.59085451  0.67696983  0.88257313  1
  K  K2  1  0.09085451  0.88257313  0.67696983  1
  K  K3  1  0.40914549  0.32303017  0.11742687  1
  K  K4  1  0.75000000  0.94100133  0.05899867  1
  K  K5  1  0.25000000  0.05899867  0.94100133  1
  K  K6  1  0.22786748  0.54594232  0.68194288  1
  K  K7  1  0.27213252  0.31805712  0.45405768  1
  K  K8  1  0.77213252  0.45405768  0.31805712  1
  K  K9  1  0.72786748  0.68194288  0.54594232  1
  Mo  Mo10  1  0.39622821  0.93326726  0.36860669  1
  Mo  Mo11  1  0.10377179  0.63139331  0.06673274  1
  Mo  Mo12  1  0.60377179  0.06673274  0.63139331  1
  Mo  Mo13  1  0.89622821  0.36860669  0.93326726  1
  Mo  Mo14  1  0.42885010  0.69814603  0.20671574  1
  Mo  Mo15  1  0.07114990  0.79328426  0.30185397  1
  Mo  Mo16  1  0.57114990  0.30185397  0.79328426  1
  Mo  Mo17  1  0.92885010  0.20671574  0.69814603  1
  O  O18  1  0.30869783  0.87350178  0.24903362  1
  O  O19  1  0.19130217  0.75096638  0.12649822  1
  O  O20  1  0.69130217  0.12649822  0.75096638  1
  O  O21  1  0.80869783  0.24903362  0.87350178  1
  O  O22  1  0.57091057  0.67919443  0.32275574  1
  O  O23  1  0.92908943  0.67724426  0.32080557  1
  O  O24  1  0.42908943  0.32080557  0.67724426  1
  O  O25  1  0.07091057  0.32275574  0.67919443  1
  O  O26  1  0.50525977  0.82189474  0.03506343  1
  O  O27  1  0.99474023  0.96493657  0.17810526  1
  O  O28  1  0.49474023  0.17810526  0.96493657  1
  O  O29  1  0.00525977  0.03506343  0.82189474  1
  O  O30  1  0.45026743  0.53334169  0.19694918  1
  O  O31  1  0.04973257  0.80305082  0.46665831  1
  O  O32  1  0.54973257  0.46665831  0.80305082  1
  O  O33  1  0.95026743  0.19694918  0.53334169  1
  O  O34  1  0.27774203  0.08487017  0.36351033  1
  O  O35  1  0.22225797  0.63648967  0.91512983  1
  O  O36  1  0.72225797  0.91512983  0.63648967  1
  O  O37  1  0.77774203  0.36351033  0.08487017  1
  O  O38  1  0.40028596  0.79671108  0.54890230  1
  O  O39  1  0.09971404  0.45109770  0.20328892  1
  O  O40  1  0.59971404  0.20328892  0.45109770  1
  O  O41  1  0.90028596  0.54890230  0.79671108  1
  O  O42  1  0.58898241  0.98410145  0.30325449  1
  O  O43  1  0.91101759  0.69674551  0.01589855  1
  O  O44  1  0.41101759  0.01589855  0.69674551  1
  O  O45  1  0.08898241  0.30325449  0.98410145  1
  F  F46  1  0.25000000  0.60774280  0.39225720  1
  F  F47  1  0.75000000  0.39225720  0.60774280  1
