# generated using pymatgen
data_Sr7Cu44As23
_symmetry_space_group_name_H-M   'P 1'
_cell_length_a   11.86423312
_cell_length_b   11.86423312
_cell_length_c   11.86423312
_cell_angle_alpha   60.00000000
_cell_angle_beta   60.00000000
_cell_angle_gamma   60.00000000
_symmetry_Int_Tables_number   1
_chemical_formula_structural   Sr7Cu44As23
_chemical_formula_sum   'Sr7 Cu44 As23'
_cell_volume   1180.87523932
_cell_formula_units_Z   1
loop_
 _symmetry_equiv_pos_site_id
 _symmetry_equiv_pos_as_xyz
  1  'x, y, z'
loop_
 _atom_site_type_symbol
 _atom_site_label
 _atom_site_symmetry_multiplicity
 _atom_site_fract_x
 _atom_site_fract_y
 _atom_site_fract_z
 _atom_site_occupancy
  Sr  Sr0  1  0.75614066  0.24385934  0.24385934  1
  Sr  Sr1  1  0.75614066  0.24385934  0.75614066  1
  Sr  Sr2  1  0.75614066  0.75614066  0.24385934  1
  Sr  Sr3  1  0.24385934  0.75614066  0.75614066  1
  Sr  Sr4  1  0.24385934  0.75614066  0.24385934  1
  Sr  Sr5  1  0.24385934  0.24385934  0.75614066  1
  Sr  Sr6  1  0.00000000  0.00000000  0.00000000  1
  Cu  Cu7  1  0.47175060  0.01937040  0.25443950  1
  Cu  Cu8  1  0.47175060  0.25443950  0.25443950  1
  Cu  Cu9  1  0.47175060  0.25443950  0.01937040  1
  Cu  Cu10  1  0.01937040  0.47175060  0.25443950  1
  Cu  Cu11  1  0.25443950  0.47175060  0.01937040  1
  Cu  Cu12  1  0.25443950  0.47175060  0.25443950  1
  Cu  Cu13  1  0.25443950  0.25443950  0.47175060  1
  Cu  Cu14  1  0.25443950  0.01937040  0.47175060  1
  Cu  Cu15  1  0.01937040  0.25443950  0.47175060  1
  Cu  Cu16  1  0.25443950  0.25443950  0.01937040  1
  Cu  Cu17  1  0.01937040  0.25443950  0.25443950  1
  Cu  Cu18  1  0.25443950  0.01937040  0.25443950  1
  Cu  Cu19  1  0.52824940  0.98062960  0.74556050  1
  Cu  Cu20  1  0.52824940  0.74556050  0.74556050  1
  Cu  Cu21  1  0.52824940  0.74556050  0.98062960  1
  Cu  Cu22  1  0.98062960  0.52824940  0.74556050  1
  Cu  Cu23  1  0.74556050  0.52824940  0.98062960  1
  Cu  Cu24  1  0.74556050  0.52824940  0.74556050  1
  Cu  Cu25  1  0.74556050  0.74556050  0.52824940  1
  Cu  Cu26  1  0.74556050  0.98062960  0.52824940  1
  Cu  Cu27  1  0.98062960  0.74556050  0.52824940  1
  Cu  Cu28  1  0.74556050  0.74556050  0.98062960  1
  Cu  Cu29  1  0.98062960  0.74556050  0.74556050  1
  Cu  Cu30  1  0.74556050  0.98062960  0.74556050  1
  Cu  Cu31  1  0.63578279  0.00000000  0.00000000  1
  Cu  Cu32  1  0.63578279  -0.00000000  0.36421721  1
  Cu  Cu33  1  0.63578279  0.36421721  -0.00000000  1
  Cu  Cu34  1  -0.00000000  0.63578279  0.36421721  1
  Cu  Cu35  1  -0.00000000  0.63578279  0.00000000  1
  Cu  Cu36  1  0.36421721  0.63578279  0.00000000  1
  Cu  Cu37  1  -0.00000000  0.36421721  0.63578279  1
  Cu  Cu38  1  0.36421721  0.00000000  0.63578279  1
  Cu  Cu39  1  -0.00000000  0.00000000  0.63578279  1
  Cu  Cu40  1  0.36421721  -0.00000000  0.00000000  1
  Cu  Cu41  1  -0.00000000  0.36421721  0.00000000  1
  Cu  Cu42  1  0.00000000  -0.00000000  0.36421721  1
  Cu  Cu43  1  0.76390880  0.41203040  0.41203040  1
  Cu  Cu44  1  0.41203040  0.76390880  0.41203040  1
  Cu  Cu45  1  0.41203040  0.41203040  0.76390880  1
  Cu  Cu46  1  0.41203040  0.41203040  0.41203040  1
  Cu  Cu47  1  0.23609120  0.58796960  0.58796960  1
  Cu  Cu48  1  0.58796960  0.23609120  0.58796960  1
  Cu  Cu49  1  0.58796960  0.58796960  0.23609120  1
  Cu  Cu50  1  0.58796960  0.58796960  0.58796960  1
  As  As51  1  0.15606234  0.50000000  0.50000000  1
  As  As52  1  0.15606234  0.50000000  0.84393766  1
  As  As53  1  0.15606234  0.84393766  0.50000000  1
  As  As54  1  0.50000000  0.15606234  0.84393766  1
  As  As55  1  0.50000000  0.15606234  0.50000000  1
  As  As56  1  0.84393766  0.15606234  0.50000000  1
  As  As57  1  0.50000000  0.84393766  0.15606234  1
  As  As58  1  0.84393766  0.50000000  0.15606234  1
  As  As59  1  0.50000000  0.50000000  0.15606234  1
  As  As60  1  0.84393766  0.50000000  0.50000000  1
  As  As61  1  0.50000000  0.84393766  0.50000000  1
  As  As62  1  0.50000000  0.50000000  0.84393766  1
  As  As63  1  0.66805383  0.11064872  0.11064872  1
  As  As64  1  0.11064872  0.66805383  0.11064872  1
  As  As65  1  0.11064872  0.11064872  0.66805383  1
  As  As66  1  0.11064872  0.11064872  0.11064872  1
  As  As67  1  0.33194617  0.88935128  0.88935128  1
  As  As68  1  0.88935128  0.33194617  0.88935128  1
  As  As69  1  0.88935128  0.88935128  0.33194617  1
  As  As70  1  0.88935128  0.88935128  0.88935128  1
  As  As71  1  0.25000000  0.25000000  0.25000000  1
  As  As72  1  0.75000000  0.75000000  0.75000000  1
  As  As73  1  0.50000000  0.50000000  0.50000000  1
