# generated using pymatgen
data_H5S2NO7
_symmetry_space_group_name_H-M   'P 1'
_cell_length_a   7.45682512
_cell_length_b   8.61540064
_cell_length_c   11.18751383
_cell_angle_alpha   90.00000000
_cell_angle_beta   90.00000000
_cell_angle_gamma   106.81583316
_symmetry_Int_Tables_number   1
_chemical_formula_structural   H5S2NO7
_chemical_formula_sum   'H20 S8 N4 O28'
_cell_volume   687.99245148
_cell_formula_units_Z   4
loop_
 _symmetry_equiv_pos_site_id
 _symmetry_equiv_pos_as_xyz
  1  'x, y, z'
loop_
 _atom_site_type_symbol
 _atom_site_label
 _atom_site_symmetry_multiplicity
 _atom_site_fract_x
 _atom_site_fract_y
 _atom_site_fract_z
 _atom_site_occupancy
  H  H0  1  0.89579557  0.21279258  0.54415481  1
  H  H1  1  0.10420443  0.28720742  0.04415481  1
  H  H2  1  0.10420443  0.78720742  0.45584519  1
  H  H3  1  0.89579557  0.71279258  0.95584519  1
  H  H4  1  0.41955832  0.41955952  0.75693845  1
  H  H5  1  0.58044168  0.08044048  0.25693845  1
  H  H6  1  0.58044168  0.58044048  0.24306155  1
  H  H7  1  0.41955832  0.91955952  0.74306155  1
  H  H8  1  0.41861253  0.55136347  0.64461709  1
  H  H9  1  0.58138747  0.94863653  0.14461709  1
  H  H10  1  0.58138747  0.44863653  0.35538291  1
  H  H11  1  0.41861253  0.05136347  0.85538291  1
  H  H12  1  0.25827344  0.52218009  0.75277550  1
  H  H13  1  0.74172656  0.97781991  0.25277550  1
  H  H14  1  0.74172656  0.47781991  0.24722450  1
  H  H15  1  0.25827344  0.02218009  0.74722450  1
  H  H16  1  0.24714839  0.37299069  0.65432224  1
  H  H17  1  0.75285161  0.12700931  0.15432224  1
  H  H18  1  0.75285161  0.62700931  0.34567776  1
  H  H19  1  0.24714839  0.87299069  0.84567776  1
  S  S20  1  0.08673604  0.32511811  0.39947327  1
  S  S21  1  0.91326396  0.17488189  0.89947327  1
  S  S22  1  0.91326396  0.67488189  0.60052673  1
  S  S23  1  0.08673604  0.82511811  0.10052673  1
  S  S24  1  0.31552429  0.10689938  0.44360781  1
  S  S25  1  0.68447571  0.39310062  0.94360781  1
  S  S26  1  0.68447571  0.89310062  0.55639219  1
  S  S27  1  0.31552429  0.60689938  0.05639219  1
  N  N28  1  0.33613390  0.46621540  0.70180841  1
  N  N29  1  0.66386610  0.03378460  0.20180841  1
  N  N30  1  0.66386610  0.53378460  0.29819159  1
  N  N31  1  0.33613390  0.96621540  0.79819159  1
  O  O32  1  0.94213421  0.32394826  0.31463758  1
  O  O33  1  0.05786579  0.17605174  0.81463758  1
  O  O34  1  0.05786579  0.67605174  0.68536242  1
  O  O35  1  0.94213421  0.82394826  0.18536242  1
  O  O36  1  0.25962910  0.45318142  0.40059492  1
  O  O37  1  0.74037090  0.04681858  0.90059492  1
  O  O38  1  0.74037090  0.54681858  0.59940508  1
  O  O39  1  0.25962910  0.95318142  0.09940508  1
  O  O40  1  0.00946692  0.31304362  0.52993973  1
  O  O41  1  0.99053308  0.18695638  0.02993973  1
  O  O42  1  0.99053308  0.68695638  0.47006027  1
  O  O43  1  0.00946692  0.81304362  0.97006027  1
  O  O44  1  0.30918147  0.15044652  0.56799162  1
  O  O45  1  0.69081853  0.34955348  0.06799162  1
  O  O46  1  0.69081853  0.84955348  0.43200838  1
  O  O47  1  0.30918147  0.65044652  0.93200838  1
  O  O48  1  0.47670385  0.20053782  0.37550639  1
  O  O49  1  0.52329615  0.29946218  0.87550639  1
  O  O50  1  0.52329615  0.79946218  0.62449361  1
  O  O51  1  0.47670385  0.70053782  0.12449361  1
  O  O52  1  0.26478312  0.93395588  0.41654901  1
  O  O53  1  0.73521688  0.56604412  0.91654901  1
  O  O54  1  0.73521688  0.06604412  0.58345099  1
  O  O55  1  0.26478312  0.43395588  0.08345099  1
  O  O56  1  0.12566731  0.15240647  0.37818765  1
  O  O57  1  0.87433269  0.34759353  0.87818765  1
  O  O58  1  0.87433269  0.84759353  0.62181235  1
  O  O59  1  0.12566731  0.65240647  0.12181235  1
