# generated using pymatgen
data_Yb5P12Ru19
_symmetry_space_group_name_H-M   'P 1'
_cell_length_a   3.98008117
_cell_length_b   12.47734852
_cell_length_c   12.47771418
_cell_angle_alpha   119.99903079
_cell_angle_beta   90.00000000
_cell_angle_gamma   90.00000000
_symmetry_Int_Tables_number   1
_chemical_formula_structural   Yb5P12Ru19
_chemical_formula_sum   'Yb5 P12 Ru19'
_cell_volume   536.64135989
_cell_formula_units_Z   1
loop_
 _symmetry_equiv_pos_site_id
 _symmetry_equiv_pos_as_xyz
  1  'x, y, z'
loop_
 _atom_site_type_symbol
 _atom_site_label
 _atom_site_symmetry_multiplicity
 _atom_site_fract_x
 _atom_site_fract_y
 _atom_site_fract_z
 _atom_site_occupancy
  Yb  Yb0  1  0.50000000  0.99995089  0.18407663  1
  Yb  Yb1  1  0.50000000  0.18402820  0.00000000  1
  Yb  Yb2  1  0.50000000  0.81587426  0.81592337  1
  Yb  Yb3  1  -0.00000000  0.33335517  0.66669312  1
  Yb  Yb4  1  0.00000000  0.66666205  0.33330688  1
  P  P5  1  0.00000000  0.99992561  0.81546958  1
  P  P6  1  0.00000000  0.81549469  0.00000000  1
  P  P7  1  0.00000000  0.18445603  0.18453042  1
  P  P8  1  0.50000000  0.30670909  0.47684839  1
  P  P9  1  0.50000000  0.17016375  0.69329980  1
  P  P10  1  0.50000000  0.52318767  0.82983485  1
  P  P11  1  0.50000000  0.82986069  0.52315161  1
  P  P12  1  0.50000000  0.47686395  0.30670020  1
  P  P13  1  0.50000000  0.69335283  0.17016515  1
  P  P14  1  0.00000000  0.99998844  0.37405859  1
  P  P15  1  0.00000000  0.37418705  -0.00000000  1
  P  P16  1  -0.00000000  0.62592985  0.62594141  1
  Ru  Ru17  1  0.00000000  0.00000101  0.55493236  1
  Ru  Ru18  1  0.00000000  0.55492524  1.00000000  1
  Ru  Ru19  1  -0.00000000  0.44506865  0.44506764  1
  Ru  Ru20  1  0.50000000  0.99996593  0.71747176  1
  Ru  Ru21  1  0.50000000  0.71750222  -0.00000000  1
  Ru  Ru22  1  0.50000000  0.28249416  0.28252824  1
  Ru  Ru23  1  0.00000000  0.19312830  0.37863983  1
  Ru  Ru24  1  0.00000000  0.18547022  0.80687242  1
  Ru  Ru25  1  0.00000000  0.62145346  0.81459421  1
  Ru  Ru26  1  0.00000000  0.81448847  0.62136017  1
  Ru  Ru27  1  0.00000000  0.37859779  0.19312758  1
  Ru  Ru28  1  0.00000000  0.80685926  0.18540579  1
  Ru  Ru29  1  0.50000000  0.12575137  0.49115451  1
  Ru  Ru30  1  0.50000000  0.36542656  0.87425347  1
  Ru  Ru31  1  0.50000000  0.50881288  0.63458630  1
  Ru  Ru32  1  0.50000000  0.63459686  0.50884549  1
  Ru  Ru33  1  0.50000000  0.49117309  0.12574653  1
  Ru  Ru34  1  0.50000000  0.87422658  0.36541370  1
  Ru  Ru35  1  0.00000000  -0.00003228  0.00000000  1
