# generated using pymatgen
data_Ca10P6CO27
_symmetry_space_group_name_H-M   'P 1'
_cell_length_a   6.93522449
_cell_length_b   9.47427066
_cell_length_c   9.67028901
_cell_angle_alpha   61.92652228
_cell_angle_beta   89.76928730
_cell_angle_gamma   89.09326277
_symmetry_Int_Tables_number   1
_chemical_formula_structural   Ca10P6CO27
_chemical_formula_sum   'Ca10 P6 C1 O27'
_cell_volume   560.56560472
_cell_formula_units_Z   1
loop_
 _symmetry_equiv_pos_site_id
 _symmetry_equiv_pos_as_xyz
  1  'x, y, z'
loop_
 _atom_site_type_symbol
 _atom_site_label
 _atom_site_symmetry_multiplicity
 _atom_site_fract_x
 _atom_site_fract_y
 _atom_site_fract_z
 _atom_site_occupancy
  Ca  Ca0  1  0.97765785  0.33729548  0.31712010  1
  Ca  Ca1  1  0.50921892  0.67705446  0.65594031  1
  Ca  Ca2  1  0.01033844  0.67813413  0.67964616  1
  Ca  Ca3  1  0.48356867  0.32985125  0.33951517  1
  Ca  Ca4  1  0.75805766  0.01997650  0.74836247  1
  Ca  Ca5  1  0.23613836  0.98117025  0.27554586  1
  Ca  Ca6  1  0.74821280  0.72001434  0.27656944  1
  Ca  Ca7  1  0.74142630  0.24664027  0.00580978  1
  Ca  Ca8  1  0.24191762  0.74285324  0.00138002  1
  Ca  Ca9  1  0.23592664  0.28437232  0.73210793  1
  P  P10  1  0.74384449  0.63707298  0.96477481  1
  P  P11  1  0.23900746  0.35746853  0.03335307  1
  P  P12  1  0.74714478  0.97122486  0.40168117  1
  P  P13  1  0.74314668  0.40649399  0.61997775  1
  P  P14  1  0.23973009  0.59570102  0.37298937  1
  P  P15  1  0.25414135  0.02751518  0.60587582  1
  C  C16  1  0.51051183  0.00410649  0.99867607  1
  O  O17  1  0.74443089  0.52564809  0.14483397  1
  O  O18  1  0.23635862  0.46895056  0.85250265  1
  O  O19  1  0.73308669  0.15750950  0.31876532  1
  O  O20  1  0.74802664  0.34266110  0.49762196  1
  O  O21  1  0.24132394  0.67195689  0.48477843  1
  O  O22  1  0.26252073  0.84185608  0.67268385  1
  O  O23  1  0.74975582  0.53519646  0.87516560  1
  O  O24  1  0.22637398  0.45929883  0.12210888  1
  O  O25  1  0.78419592  0.89739396  0.58268163  1
  O  O26  1  0.82196995  0.58022837  0.54629096  1
  O  O27  1  0.19690182  0.41183186  0.46310397  1
  O  O28  1  0.18371721  0.11035198  0.43073778  1
  O  O29  1  0.92400465  0.74680411  0.91080812  1
  O  O30  1  0.42438705  0.25222416  0.09364784  1
  O  O31  1  0.91191993  0.91736059  0.32819819  1
  O  O32  1  0.87327764  0.29155259  0.76144764  1
  O  O33  1  0.43738317  0.60847982  0.29269076  1
  O  O34  1  0.45412722  0.09827913  0.60163319  1
  O  O35  1  0.06524787  0.24175693  0.08328532  1
  O  O36  1  0.56239436  0.74776397  0.90821625  1
  O  O37  1  0.11211473  0.06263374  0.71160613  1
  O  O38  1  0.08162826  0.67668488  0.24431529  1
  O  O39  1  0.53600000  0.42195655  0.66949311  1
  O  O40  1  0.55681041  0.89521162  0.38410540  1
  O  O41  1  0.50072573  0.12678156  0.86281888  1
  O  O42  1  0.35599241  0.93477253  0.07266664  1
  O  O43  1  0.68483441  0.95770881  0.05466692  1
