# generated using pymatgen
data_Sm3InS6
_symmetry_space_group_name_H-M   'P 1'
_cell_length_a   3.95516390
_cell_length_b   13.72521412
_cell_length_c   16.76029361
_cell_angle_alpha   90.00000000
_cell_angle_beta   90.00000000
_cell_angle_gamma   90.00000000
_symmetry_Int_Tables_number   1
_chemical_formula_structural   Sm3InS6
_chemical_formula_sum   'Sm12 In4 S24'
_cell_volume   909.84043954
_cell_formula_units_Z   4
loop_
 _symmetry_equiv_pos_site_id
 _symmetry_equiv_pos_as_xyz
  1  'x, y, z'
loop_
 _atom_site_type_symbol
 _atom_site_label
 _atom_site_symmetry_multiplicity
 _atom_site_fract_x
 _atom_site_fract_y
 _atom_site_fract_z
 _atom_site_occupancy
  Sm  Sm0  1  0.25465876  0.03704136  0.77833634  1
  Sm  Sm1  1  0.25465876  0.96295864  0.22166366  1
  Sm  Sm2  1  0.74534124  0.46295864  0.27833634  1
  Sm  Sm3  1  0.74534124  0.53704136  0.72166366  1
  Sm  Sm4  1  0.26095334  0.24749712  0.60956194  1
  Sm  Sm5  1  0.26095334  0.75250288  0.39043806  1
  Sm  Sm6  1  0.73904666  0.25250288  0.10956194  1
  Sm  Sm7  1  0.73904666  0.74749712  0.89043806  1
  Sm  Sm8  1  0.74665707  0.30967538  0.85643499  1
  Sm  Sm9  1  0.74665707  0.69032462  0.14356501  1
  Sm  Sm10  1  0.25334293  0.19032462  0.35643499  1
  Sm  Sm11  1  0.25334293  0.80967538  0.64356501  1
  In  In12  1  0.75360286  0.00000000  0.50000000  1
  In  In13  1  0.24639714  0.50000000  0.00000000  1
  In  In14  1  0.40435145  0.50000000  0.50000000  1
  In  In15  1  0.59564855  0.00000000  0.00000000  1
  S  S16  1  0.76878242  0.39682601  0.59085431  1
  S  S17  1  0.76878242  0.60317399  0.40914569  1
  S  S18  1  0.23121758  0.10317399  0.09085431  1
  S  S19  1  0.23121758  0.89682601  0.90914569  1
  S  S20  1  0.24611797  0.31020734  0.98202967  1
  S  S21  1  0.24611797  0.68979266  0.01797033  1
  S  S22  1  0.75388203  0.18979266  0.48202967  1
  S  S23  1  0.75388203  0.81020734  0.51797033  1
  S  S24  1  0.75506669  0.10848424  0.88868562  1
  S  S25  1  0.75506669  0.89151576  0.11131438  1
  S  S26  1  0.24493331  0.39151576  0.38868562  1
  S  S27  1  0.24493331  0.60848424  0.61131438  1
  S  S28  1  0.75789813  0.17827561  0.71762167  1
  S  S29  1  0.75789813  0.82172439  0.28237833  1
  S  S30  1  0.24210187  0.32172439  0.21762167  1
  S  S31  1  0.24210187  0.67827561  0.78237833  1
  S  S32  1  0.24793648  0.38608278  0.75547492  1
  S  S33  1  0.24793648  0.61391722  0.24452508  1
  S  S34  1  0.75206352  0.11391722  0.25547492  1
  S  S35  1  0.75206352  0.88608278  0.74452508  1
  S  S36  1  0.25375043  0.02032105  0.60488843  1
  S  S37  1  0.25375043  0.97967895  0.39511157  1
  S  S38  1  0.74624957  0.47967895  0.10488843  1
  S  S39  1  0.74624957  0.52032105  0.89511157  1
