# generated using pymatgen
data_BaGe4O9
_symmetry_space_group_name_H-M   'P 1'
_cell_length_a   4.81020029
_cell_length_b   11.82416734
_cell_length_c   11.82417826
_cell_angle_alpha   120.00011874
_cell_angle_beta   90.00006482
_cell_angle_gamma   90.00013168
_symmetry_Int_Tables_number   1
_chemical_formula_structural   BaGe4O9
_chemical_formula_sum   'Ba3 Ge12 O27'
_cell_volume   582.41802615
_cell_formula_units_Z   3
loop_
 _symmetry_equiv_pos_site_id
 _symmetry_equiv_pos_as_xyz
  1  'x, y, z'
loop_
 _atom_site_type_symbol
 _atom_site_label
 _atom_site_symmetry_multiplicity
 _atom_site_fract_x
 _atom_site_fract_y
 _atom_site_fract_z
 _atom_site_occupancy
  Ba  Ba0  1  0.00007162  0.00209548  0.66640842  1
  Ba  Ba1  1  0.00007738  0.33358605  0.33568321  1
  Ba  Ba2  1  0.00007688  0.66431867  0.99790838  1
  Ge  Ge3  1  0.10682683  -0.00000031  0.00000010  1
  Ge  Ge4  1  0.89625040  0.66666245  0.33333120  1
  Ge  Ge5  1  0.00521471  0.33333854  0.66666929  1
  Ge  Ge6  1  0.59608358  0.99513628  0.17919383  1
  Ge  Ge7  1  0.59608306  0.82080741  0.81594311  1
  Ge  Ge8  1  0.59608835  0.18405561  0.00486238  1
  Ge  Ge9  1  0.50236450  0.15249250  0.48693667  1
  Ge  Ge10  1  0.50236142  0.51306694  0.66555494  1
  Ge  Ge11  1  0.50236600  0.33444600  0.84751000  1
  Ge  Ge12  1  0.40732677  0.84589452  0.32872014  1
  Ge  Ge13  1  0.40732979  0.67128000  0.51717360  1
  Ge  Ge14  1  0.40732529  0.48282099  0.15410300  1
  O  O15  1  0.88173927  0.92163842  0.07409712  1
  O  O16  1  0.88173948  0.92590484  0.84754253  1
  O  O17  1  0.88174071  0.15245603  0.07836163  1
  O  O18  1  0.77491042  0.17930650  0.59871693  1
  O  O19  1  0.77491154  0.40128832  0.58058891  1
  O  O20  1  0.77491165  0.41941731  0.82070035  1
  O  O21  1  0.69229445  0.12012555  0.34150826  1
  O  O22  1  0.69229432  0.65849348  0.77861889  1
  O  O23  1  0.69229583  0.22138236  0.87987326  1
  O  O24  1  0.30794495  0.00807429  0.45424707  1
  O  O25  1  0.30794135  0.54575474  0.55382719  1
  O  O26  1  0.30793816  0.44617203  0.99192549  1
  O  O27  1  0.12040422  0.74166435  0.25557146  1
  O  O28  1  0.12040157  0.74442577  0.48609306  1
  O  O29  1  0.12039896  0.51390044  0.25833128  1
  O  O30  1  0.33208918  0.08320549  0.15274084  1
  O  O31  1  0.33209007  0.84725966  0.93046597  1
  O  O32  1  0.33209040  0.06953324  0.91679411  1
  O  O33  1  0.50391435  0.85086940  0.18478259  1
  O  O34  1  0.50391512  0.81521828  0.66608767  1
  O  O35  1  0.50391960  0.33391049  0.14912900  1
  O  O36  1  0.67064484  0.81945818  0.41706141  1
  O  O37  1  0.67064675  0.58293385  0.40239754  1
  O  O38  1  0.67065045  0.59759512  0.18053533  1
  O  O39  1  0.24277831  0.27031164  0.51478771  1
  O  O40  1  0.24277299  0.48521830  0.75552349  1
  O  O41  1  0.24277448  0.24448080  0.72969266  1
