# generated using pymatgen
data_Cu7Se2(Cl3O4)2
_symmetry_space_group_name_H-M   'P 1'
_cell_length_a   10.58528806
_cell_length_b   11.11272628
_cell_length_c   14.63762797
_cell_angle_alpha   89.98446552
_cell_angle_beta   90.00722048
_cell_angle_gamma   113.67779388
_symmetry_Int_Tables_number   1
_chemical_formula_structural   Cu7Se2(Cl3O4)2
_chemical_formula_sum   'Cu28 Se8 Cl24 O32'
_cell_volume   1576.89693202
_cell_formula_units_Z   4
loop_
 _symmetry_equiv_pos_site_id
 _symmetry_equiv_pos_as_xyz
  1  'x, y, z'
loop_
 _atom_site_type_symbol
 _atom_site_label
 _atom_site_symmetry_multiplicity
 _atom_site_fract_x
 _atom_site_fract_y
 _atom_site_fract_z
 _atom_site_occupancy
  Cu  Cu0  1  0.51691568  0.74197816  0.37673869  1
  Cu  Cu1  1  0.98307872  0.25801998  0.87673767  1
  Cu  Cu2  1  0.48308432  0.25802184  0.62326131  1
  Cu  Cu3  1  0.01692128  0.74198002  0.12326233  1
  Cu  Cu4  1  0.52108734  0.99974423  0.28710437  1
  Cu  Cu5  1  0.97891209  0.00025673  0.78710399  1
  Cu  Cu6  1  0.47891266  0.00025577  0.71289563  1
  Cu  Cu7  1  0.02108791  0.99974327  0.21289601  1
  Cu  Cu8  1  0.68207690  0.86539082  0.17238226  1
  Cu  Cu9  1  0.81791668  0.13460444  0.67238508  1
  Cu  Cu10  1  0.31792310  0.13460918  0.82761774  1
  Cu  Cu11  1  0.18208332  0.86539556  0.32761492  1
  Cu  Cu12  1  0.37115154  0.69657655  0.19690833  1
  Cu  Cu13  1  0.12887587  0.30343081  0.69688503  1
  Cu  Cu14  1  0.62884846  0.30342345  0.80309167  1
  Cu  Cu15  1  0.87112413  0.69656919  0.30311497  1
  Cu  Cu16  1  0.67899375  0.34619897  0.43739507  1
  Cu  Cu17  1  0.82098624  0.65379447  0.93739306  1
  Cu  Cu18  1  0.32100625  0.65380103  0.56260493  1
  Cu  Cu19  1  0.17901376  0.34620553  0.06260694  1
  Cu  Cu20  1  0.50000000  0.50000000  0.50000000  1
  Cu  Cu21  1  0.00000000  0.50000000  -0.00000000  1
  Cu  Cu22  1  0.35089001  0.21020023  0.43702443  1
  Cu  Cu23  1  0.14916648  0.78984208  0.93698490  1
  Cu  Cu24  1  0.64910999  0.78979977  0.56297557  1
  Cu  Cu25  1  0.85083352  0.21015792  0.06301510  1
  Cu  Cu26  1  0.00000000  0.50000000  0.50000000  1
  Cu  Cu27  1  0.50000000  0.50000000  -0.00000000  1
  Se  Se28  1  0.80508746  0.00083980  0.37586926  1
  Se  Se29  1  0.69492883  0.99917048  0.87585936  1
  Se  Se30  1  0.19491254  0.99916020  0.62413074  1
  Se  Se31  1  0.30507117  0.00082952  0.12414064  1
  Se  Se32  1  0.76632655  0.53210972  0.63155529  1
  Se  Se33  1  0.73369004  0.46791429  0.13154587  1
  Se  Se34  1  0.23367345  0.46789028  0.36844471  1
  Se  Se35  1  0.26630996  0.53208571  0.86845413  1
  Cl  Cl36  1  0.52028884  0.21404606  0.32432025  1
  Cl  Cl37  1  0.97969416  0.78596425  0.82430821  1
  Cl  Cl38  1  0.47971116  0.78595394  0.67567975  1
  Cl  Cl39  1  0.02030584  0.21403575  0.17569179  1
  Cl  Cl40  1  0.65033681  0.08651139  0.12191917  1
  Cl  Cl41  1  0.84962758  0.91347376  0.62191268  1
  Cl  Cl42  1  0.34966319  0.91348861  0.87808083  1
  Cl  Cl43  1  0.15037242  0.08652624  0.37808732  1
  Cl  Cl44  1  0.88640925  0.38582833  0.37040654  1
  Cl  Cl45  1  0.61357686  0.61416680  0.87040854  1
  Cl  Cl46  1  0.11359075  0.61417167  0.62959346  1
  Cl  Cl47  1  0.38642314  0.38583320  0.12959146  1
  Cl  Cl48  1  0.15790000  0.56771594  0.15819498  1
  Cl  Cl49  1  0.34212317  0.43229558  0.65820078  1
  Cl  Cl50  1  0.84210000  0.43228406  0.84180502  1
  Cl  Cl51  1  0.65787683  0.56770442  0.34179922  1
  Cl  Cl52  1  0.50120184  0.74877792  0.06997913  1
  Cl  Cl53  1  0.99878179  0.25121761  0.56996777  1
  Cl  Cl54  1  0.49879816  0.25122208  0.93002087  1
  Cl  Cl55  1  0.00121821  0.74878239  0.43003223  1
  Cl  Cl56  1  0.34883692  0.88617558  0.42889685  1
  Cl  Cl57  1  0.15116359  0.11382740  0.92889615  1
  Cl  Cl58  1  0.65116308  0.11382442  0.57110315  1
  Cl  Cl59  1  0.84883641  0.88617260  0.07110385  1
  O  O60  1  0.51475636  0.33166516  0.50168568  1
  O  O61  1  0.98522329  0.66822394  0.00174521  1
  O  O62  1  0.48524364  0.66833484  0.49831432  1
  O  O63  1  0.01477671  0.33177606  0.99825479  1
  O  O64  1  0.53195045  0.82780075  0.25947488  1
  O  O65  1  0.96802771  0.17219139  0.75952544  1
  O  O66  1  0.46804955  0.17219925  0.74052512  1
  O  O67  1  0.03197229  0.82780861  0.24047456  1
  O  O68  1  0.69980927  0.07367546  0.34343697  1
  O  O69  1  0.80019450  0.92632136  0.84343645  1
  O  O70  1  0.30019073  0.92632454  0.65656303  1
  O  O71  1  0.19980550  0.07367864  0.15656355  1
  O  O72  1  0.83313036  0.93123888  0.27031333  1
  O  O73  1  0.66687615  0.06875825  0.77031702  1
  O  O74  1  0.16686964  0.06876112  0.72968667  1
  O  O75  1  0.33312385  0.93124175  0.22968298  1
  O  O76  1  0.69217581  0.85446123  0.42856953  1
  O  O77  1  0.80788187  0.14556741  0.92853191  1
  O  O78  1  0.30782419  0.14553877  0.57143047  1
  O  O79  1  0.19211813  0.85443259  0.07146809  1
  O  O80  1  0.65956988  0.59430810  0.57975389  1
  O  O81  1  0.84051348  0.40573049  0.07971057  1
  O  O82  1  0.34043012  0.40569190  0.42024611  1
  O  O83  1  0.15948652  0.59426951  0.92028943  1
  O  O84  1  0.81185989  0.45885647  0.53761447  1
  O  O85  1  0.68812509  0.54113371  0.03761916  1
  O  O86  1  0.18814011  0.54114353  0.46238553  1
  O  O87  1  0.31187491  0.45886629  0.96238084  1
  O  O88  1  0.64610662  0.38669020  0.68038934  1
  O  O89  1  0.85393794  0.61333599  0.18035736  1
  O  O90  1  0.35389338  0.61330980  0.31961066  1
  O  O91  1  0.14606206  0.38666401  0.81964264  1
