# generated using pymatgen
data_Sb(WBr3)5
_symmetry_space_group_name_H-M   'P 1'
_cell_length_a   9.91287565
_cell_length_b   15.34133255
_cell_length_c   19.59257871
_cell_angle_alpha   91.67465676
_cell_angle_beta   99.45831626
_cell_angle_gamma   88.97039495
_symmetry_Int_Tables_number   1
_chemical_formula_structural   Sb(WBr3)5
_chemical_formula_sum   'Sb4 W20 Br60'
_cell_volume   2937.55178137
_cell_formula_units_Z   4
loop_
 _symmetry_equiv_pos_site_id
 _symmetry_equiv_pos_as_xyz
  1  'x, y, z'
loop_
 _atom_site_type_symbol
 _atom_site_label
 _atom_site_symmetry_multiplicity
 _atom_site_fract_x
 _atom_site_fract_y
 _atom_site_fract_z
 _atom_site_occupancy
  Sb  Sb0  1  0.35083167  0.63341891  0.98344405  1
  Sb  Sb1  1  0.64916833  0.36658109  0.01655595  1
  Sb  Sb2  1  0.68307184  0.92950696  0.00181756  1
  Sb  Sb3  1  0.31692816  0.07049304  0.99818244  1
  W  W4  1  0.07032372  0.26002530  0.78807931  1
  W  W5  1  0.92967628  0.73997470  0.21192069  1
  W  W6  1  0.10110426  0.25447001  0.65563263  1
  W  W7  1  0.89889574  0.74552999  0.34436737  1
  W  W8  1  0.94914582  0.37715504  0.70115288  1
  W  W9  1  0.05085418  0.62284496  0.29884712  1
  W  W10  1  0.80025847  0.26286256  0.74956824  1
  W  W11  1  0.19974153  0.73713744  0.25043176  1
  W  W12  1  0.94821484  0.13943149  0.70247355  1
  W  W13  1  0.05178516  0.86056851  0.29752645  1
  W  W14  1  0.59843141  0.76082179  0.75002191  1
  W  W15  1  0.40156859  0.23917821  0.24997809  1
  W  W16  1  0.49009398  0.84216695  0.63621464  1
  W  W17  1  0.50990602  0.15783305  0.36378536  1
  W  W18  1  0.49156935  0.67055766  0.63649987  1
  W  W19  1  0.50843065  0.32944234  0.36350013  1
  W  W20  1  0.75699609  0.67289102  0.67568325  1
  W  W21  1  0.24300391  0.32710898  0.32431675  1
  W  W22  1  0.75590872  0.84186006  0.67645802  1
  W  W23  1  0.24409128  0.15813994  0.32354198  1
  Br  Br24  1  0.21619350  0.38019897  0.74088945  1
  Br  Br25  1  0.78380650  0.61980103  0.25911055  1
  Br  Br26  1  0.92210115  0.38861799  0.83217245  1
  Br  Br27  1  0.07789885  0.61138201  0.16782755  1
  Br  Br28  1  0.91883250  0.14092601  0.83333771  1
  Br  Br29  1  0.08116750  0.85907399  0.16666229  1
  Br  Br30  1  0.21514328  0.13278291  0.74033538  1
  Br  Br31  1  0.78485672  0.86721709  0.25966462  1
  Br  Br32  1  0.97478185  0.36779415  0.57229366  1
  Br  Br33  1  0.02521815  0.63220585  0.42770634  1
  Br  Br34  1  0.68918476  0.37402251  0.66032339  1
  Br  Br35  1  0.31081524  0.62597749  0.33967661  1
  Br  Br36  1  0.68776676  0.14505717  0.66357148  1
  Br  Br37  1  0.31223324  0.85494283  0.33642852  1
  Br  Br38  1  0.97397234  0.13740912  0.57373674  1
  Br  Br39  1  0.02602766  0.86259088  0.42626326  1
  Br  Br40  1  0.23438476  0.25900612  0.90594326  1
  Br  Br41  1  0.76561524  0.74099388  0.09405674  1
  Br  Br42  1  0.31158435  0.25143191  0.59731876  1
  Br  Br43  1  0.68841565  0.74856809  0.40268124  1
  Br  Br44  1  0.96153802  0.55342297  0.70034579  1
  Br  Br45  1  0.03846198  0.44657703  0.29965421  1
  Br  Br46  1  0.59808533  0.27232883  0.81515137  1
  Br  Br47  1  0.40191467  0.72767117  0.18484863  1
  Br  Br48  1  0.95799352  0.96158836  0.70331995  1
  Br  Br49  1  0.04200648  0.03841164  0.29668005  1
  Br  Br50  1  0.33013187  0.76012639  0.70957755  1
  Br  Br51  1  0.66986813  0.23987361  0.29042245  1
  Br  Br52  1  0.60636070  0.58865619  0.74987255  1
  Br  Br53  1  0.39363930  0.41134381  0.25012745  1
  Br  Br54  1  0.86851528  0.75938772  0.78858809  1
  Br  Br55  1  0.13148472  0.24061228  0.21141191  1
  Br  Br56  1  0.60145213  0.93350034  0.74892118  1
  Br  Br57  1  0.39854787  0.06649966  0.25107882  1
  Br  Br58  1  0.39408807  0.75270062  0.52698739  1
  Br  Br59  1  0.60591193  0.24729938  0.47301261  1
  Br  Br60  1  0.65271961  0.59145494  0.56335785  1
  Br  Br61  1  0.34728039  0.40854506  0.43664215  1
  Br  Br62  1  0.91342830  0.75416044  0.60624708  1
  Br  Br63  1  0.08657170  0.24583956  0.39375292  1
  Br  Br64  1  0.64954207  0.91518307  0.56398090  1
  Br  Br65  1  0.35045793  0.08481693  0.43601910  1
  Br  Br66  1  0.56443875  0.76777399  0.87836746  1
  Br  Br67  1  0.43556125  0.23222601  0.12163254  1
  Br  Br68  1  0.30134014  0.95634841  0.61155806  1
  Br  Br69  1  0.69865986  0.04365159  0.38844194  1
  Br  Br70  1  0.30950661  0.55412885  0.61243481  1
  Br  Br71  1  0.69049339  0.44587115  0.38756519  1
  Br  Br72  1  0.28481761  0.57545795  0.85917379  1
  Br  Br73  1  0.71518239  0.42454205  0.14082621  1
  Br  Br74  1  0.31862881  0.49138595  0.04418106  1
  Br  Br75  1  0.68137119  0.50861405  0.95581894  1
  Br  Br76  1  0.12075343  0.70433471  0.99304381  1
  Br  Br77  1  0.87924657  0.29566529  0.00695619  1
  Br  Br78  1  0.60661413  0.06790717  0.92933469  1
  Br  Br79  1  0.39338587  0.93209283  0.07066531  1
  Br  Br80  1  0.89750640  0.91053518  0.94584121  1
  Br  Br81  1  0.10249360  0.08946482  0.05415879  1
  Br  Br82  1  0.77626571  0.02115779  0.11146092  1
  Br  Br83  1  0.22373429  0.97884221  0.88853908  1
