# generated using pymatgen
data_LaTi2Al9O19
_symmetry_space_group_name_H-M   'P 1'
_cell_length_a   9.80750951
_cell_length_b   11.08251309
_cell_length_c   12.67120174
_cell_angle_alpha   115.93244106
_cell_angle_beta   97.59234868
_cell_angle_gamma   90.00000000
_symmetry_Int_Tables_number   1
_chemical_formula_structural   LaTi2Al9O19
_chemical_formula_sum   'La4 Ti8 Al36 O76'
_cell_volume   1225.14081134
_cell_formula_units_Z   4
loop_
 _symmetry_equiv_pos_site_id
 _symmetry_equiv_pos_as_xyz
  1  'x, y, z'
loop_
 _atom_site_type_symbol
 _atom_site_label
 _atom_site_symmetry_multiplicity
 _atom_site_fract_x
 _atom_site_fract_y
 _atom_site_fract_z
 _atom_site_occupancy
  La  La0  1  0.43431834  0.42701837  0.10666721  1
  La  La1  1  0.06568166  0.32035115  0.89333279  1
  La  La2  1  0.56568166  0.57298163  0.89333279  1
  La  La3  1  0.93431834  0.67964885  0.10666721  1
  Ti  Ti4  1  0.36817799  0.28463586  0.79732425  1
  Ti  Ti5  1  0.13182201  0.48731162  0.20267575  1
  Ti  Ti6  1  0.63182201  0.71536414  0.20267575  1
  Ti  Ti7  1  0.86817799  0.51268838  0.79732425  1
  Ti  Ti8  1  0.62985914  0.06661268  0.37703860  1
  Ti  Ti9  1  0.87014086  0.68957408  0.62296140  1
  Ti  Ti10  1  0.37014086  0.93338732  0.62296140  1
  Ti  Ti11  1  0.12985914  0.31042592  0.37703860  1
  Al  Al12  1  0.81961729  0.35145338  0.45451918  1
  Al  Al13  1  0.68038271  0.89693420  0.54548082  1
  Al  Al14  1  0.18038271  0.64854662  0.54548082  1
  Al  Al15  1  0.31961729  0.10306580  0.45451918  1
  Al  Al16  1  0.59298533  0.56689181  0.61046856  1
  Al  Al17  1  0.90701467  0.95642324  0.38953144  1
  Al  Al18  1  0.40701467  0.43310819  0.38953144  1
  Al  Al19  1  0.09298533  0.04357676  0.61046856  1
  Al  Al20  1  0.41373820  0.09544735  0.94270917  1
  Al  Al21  1  0.08626180  0.15273818  0.05729083  1
  Al  Al22  1  0.58626180  0.90455265  0.05729083  1
  Al  Al23  1  0.91373820  0.84726182  0.94270917  1
  Al  Al24  1  0.75000000  0.12348775  -0.00000000  1
  Al  Al25  1  0.25000000  0.87651225  -0.00000000  1
  Al  Al26  1  0.63397502  0.16043491  0.78762904  1
  Al  Al27  1  0.86602498  0.37280587  0.21237096  1
  Al  Al28  1  0.36602498  0.83956509  0.21237096  1
  Al  Al29  1  0.13397502  0.62719413  0.78762904  1
  Al  Al30  1  0.61337680  0.23503588  0.20500091  1
  Al  Al31  1  0.88662320  0.03003497  0.79499909  1
  Al  Al32  1  0.38662320  0.76496412  0.79499909  1
  Al  Al33  1  0.11337680  0.96996503  0.20500091  1
  Al  Al34  1  0.63323085  0.88532907  0.79382730  1
  Al  Al35  1  0.86676915  0.09150176  0.20617270  1
  Al  Al36  1  0.36676915  0.11467093  0.20617270  1
  Al  Al37  1  0.13323085  0.90849824  0.79382730  1
  Al  Al38  1  0.34351580  0.43611092  0.61270300  1
  Al  Al39  1  0.15648420  0.82340792  0.38729700  1
  Al  Al40  1  0.65648420  0.56388908  0.38729700  1
  Al  Al41  1  0.84351580  0.17659208  0.61270300  1
  Al  Al42  1  0.59144634  0.29888712  0.60585489  1
  Al  Al43  1  0.90855366  0.69303224  0.39414511  1
  Al  Al44  1  0.40855366  0.70111288  0.39414511  1
  Al  Al45  1  0.09144634  0.30696776  0.60585489  1
  Al  Al46  1  0.75000000  0.38382368  -0.00000000  1
  Al  Al47  1  0.25000000  0.61617632  -0.00000000  1
  O  O48  1  0.69350505  0.21793544  0.68774712  1
  O  O49  1  0.80649495  0.53018832  0.31225288  1
  O  O50  1  0.30649495  0.78206456  0.31225288  1
  O  O51  1  0.19350505  0.46981168  0.68774712  1
  O  O52  1  0.33304765  0.22197085  0.91361664  1
  O  O53  1  0.16695235  0.30835421  0.08638336  1
  O  O54  1  0.66695235  0.77802915  0.08638336  1
  O  O55  1  0.83304765  0.69164579  0.91361664  1
  O  O56  1  0.33351316  0.45584301  0.91385294  1
  O  O57  1  0.16648684  0.54199007  0.08614706  1
  O  O58  1  0.66648684  0.54415699  0.08614706  1
  O  O59  1  0.83351316  0.45800993  0.91385294  1
  O  O60  1  0.49443582  0.39716649  0.52275187  1
  O  O61  1  0.00556418  0.87441462  0.47724813  1
  O  O62  1  0.50556418  0.60283351  0.47724813  1
  O  O63  1  0.99443582  0.12558538  0.52275187  1
  O  O64  1  0.75821194  0.00109100  0.49097830  1
  O  O65  1  0.74178806  0.51011269  0.50902170  1
  O  O66  1  0.24178806  0.99890900  0.50902170  1
  O  O67  1  0.25821194  0.48988731  0.49097830  1
  O  O68  1  0.58153201  0.06834815  0.89550714  1
  O  O69  1  0.91846799  0.17284102  0.10449286  1
  O  O70  1  0.41846799  0.93165185  0.10449286  1
  O  O71  1  0.08153201  0.82715898  0.89550714  1
  O  O72  1  0.31069881  0.52069007  0.29147722  1
  O  O73  1  0.18930119  0.22921285  0.70852278  1
  O  O74  1  0.68930119  0.47930993  0.70852278  1
  O  O75  1  0.81069881  0.77078715  0.29147722  1
  O  O76  1  0.50004896  0.13476979  0.49077240  1
  O  O77  1  0.99995104  0.64399738  0.50922760  1
  O  O78  1  0.49995104  0.86523021  0.50922760  1
  O  O79  1  0.00004896  0.35600262  0.49077240  1
  O  O80  1  0.55183128  0.64558803  0.29936464  1
  O  O81  1  0.94816872  0.34622339  0.70063536  1
  O  O82  1  0.44816872  0.35441197  0.70063536  1
  O  O83  1  0.05183128  0.65377661  0.29936464  1
  O  O84  1  0.54753789  0.14901813  0.28692741  1
  O  O85  1  0.95246211  0.86209071  0.71307259  1
  O  O86  1  0.45246211  0.85098187  0.71307259  1
  O  O87  1  0.04753789  0.13790929  0.28692741  1
  O  O88  1  0.30793840  0.94183065  0.89509768  1
  O  O89  1  0.19206160  0.04673297  0.10490232  1
  O  O90  1  0.69206160  0.05816935  0.10490232  1
  O  O91  1  0.80793840  0.95326703  0.89509768  1
  O  O92  1  0.44328708  0.17595145  0.10225514  1
  O  O93  1  0.05671292  0.07369631  0.89774486  1
  O  O94  1  0.55671292  0.82404855  0.89774486  1
  O  O95  1  0.94328708  0.92630369  0.10225514  1
  O  O96  1  0.23792358  0.25915681  0.50851411  1
  O  O97  1  0.26207642  0.75064270  0.49148589  1
  O  O98  1  0.76207642  0.74084319  0.49148589  1
  O  O99  1  0.73792358  0.24935730  0.50851411  1
  O  O100  1  0.54925236  0.39922252  0.29222242  1
  O  O101  1  0.95074764  0.10700009  0.70777758  1
  O  O102  1  0.45074764  0.60077748  0.70777758  1
  O  O103  1  0.04925236  0.89299991  0.29222242  1
  O  O104  1  0.30493738  0.70336192  0.89851667  1
  O  O105  1  0.19506262  0.80484525  0.10148333  1
  O  O106  1  0.69506262  0.29663808  0.10148333  1
  O  O107  1  0.80493738  0.19515475  0.89851667  1
  O  O108  1  0.41922354  0.67268921  0.10435016  1
  O  O109  1  0.08077646  0.56833905  0.89564984  1
  O  O110  1  0.58077646  0.32731079  0.89564984  1
  O  O111  1  0.91922354  0.43166095  0.10435016  1
  O  O112  1  0.29593194  0.02018555  0.29270596  1
  O  O113  1  0.20406806  0.72747959  0.70729404  1
  O  O114  1  0.70406806  0.97981445  0.70729404  1
  O  O115  1  0.79593194  0.27252041  0.29270596  1
  O  O116  1  0.30162549  0.27410338  0.30637263  1
  O  O117  1  0.19837451  0.96773075  0.69362737  1
  O  O118  1  0.69837451  0.72589662  0.69362737  1
  O  O119  1  0.80162549  0.03226925  0.30637263  1
  O  O120  1  0.45296115  0.10634782  0.71141892  1
  O  O121  1  0.04703885  0.39492890  0.28858108  1
  O  O122  1  0.54703885  0.89365218  0.28858108  1
  O  O123  1  0.95296115  0.60507110  0.71141892  1
