# generated using pymatgen
data_Sn2H12Cl6O7
_symmetry_space_group_name_H-M   'P 1'
_cell_length_a   7.33988817
_cell_length_b   7.33988817
_cell_length_c   17.44746384
_cell_angle_alpha   85.81397792
_cell_angle_beta   85.81397792
_cell_angle_gamma   63.17397315
_symmetry_Int_Tables_number   1
_chemical_formula_structural   Sn2H12Cl6O7
_chemical_formula_sum   'Sn4 H24 Cl12 O14'
_cell_volume   835.72060550
_cell_formula_units_Z   2
loop_
 _symmetry_equiv_pos_site_id
 _symmetry_equiv_pos_as_xyz
  1  'x, y, z'
loop_
 _atom_site_type_symbol
 _atom_site_label
 _atom_site_symmetry_multiplicity
 _atom_site_fract_x
 _atom_site_fract_y
 _atom_site_fract_z
 _atom_site_occupancy
  Sn  Sn0  1  0.91979634  0.63147655  0.08165537  1
  Sn  Sn1  1  0.36852345  0.08020366  0.41834463  1
  Sn  Sn2  1  0.08020366  0.36852345  0.91834463  1
  Sn  Sn3  1  0.63147655  0.91979634  0.58165537  1
  H  H4  1  0.84176591  0.77769695  0.93134621  1
  H  H5  1  0.22230305  0.15823409  0.56865379  1
  H  H6  1  0.15823409  0.22230305  0.06865379  1
  H  H7  1  0.77769695  0.84176591  0.43134621  1
  H  H8  1  0.23456694  0.68423362  0.99623245  1
  H  H9  1  0.31576638  0.76543306  0.50376755  1
  H  H10  1  0.76543306  0.31576638  0.00376755  1
  H  H11  1  0.68423362  0.23456694  0.49623245  1
  H  H12  1  0.18158470  0.82962057  0.07190642  1
  H  H13  1  0.17037943  0.81841530  0.42809358  1
  H  H14  1  0.81841530  0.17037943  0.92809358  1
  H  H15  1  0.82962057  0.18158470  0.57190642  1
  H  H16  1  0.10302746  0.02720084  0.16949916  1
  H  H17  1  0.97279916  0.89697254  0.33050084  1
  H  H18  1  0.89697254  0.97279916  0.83050084  1
  H  H19  1  0.02720084  0.10302746  0.66949916  1
  H  H20  1  0.33609824  0.94166449  0.14308675  1
  H  H21  1  0.05833551  0.66390176  0.35691325  1
  H  H22  1  0.66390176  0.05833551  0.85691325  1
  H  H23  1  0.94166449  0.33609824  0.64308675  1
  H  H24  1  0.78719511  0.10589072  0.23000013  1
  H  H25  1  0.89410928  0.21280489  0.26999987  1
  H  H26  1  0.21280489  0.89410928  0.76999987  1
  H  H27  1  0.10589072  0.78719511  0.73000013  1
  Cl  Cl28  1  0.66528965  0.50301851  0.10939206  1
  Cl  Cl29  1  0.49698149  0.33471035  0.39060794  1
  Cl  Cl30  1  0.33471035  0.49698149  0.89060794  1
  Cl  Cl31  1  0.50301851  0.66528965  0.60939206  1
  Cl  Cl32  1  0.07456863  0.53853629  0.20368070  1
  Cl  Cl33  1  0.46146371  0.92543137  0.29631930  1
  Cl  Cl34  1  0.92543137  0.46146371  0.79631930  1
  Cl  Cl35  1  0.53853629  0.07456863  0.70368070  1
  Cl  Cl36  1  0.68337015  0.98426392  0.09984861  1
  Cl  Cl37  1  0.01573608  0.31662985  0.40015139  1
  Cl  Cl38  1  0.31662985  0.01573608  0.90015139  1
  Cl  Cl39  1  0.98426392  0.68337015  0.59984861  1
  O  O40  1  0.86579518  0.65079931  0.96271908  1
  O  O41  1  0.34920069  0.13420482  0.53728092  1
  O  O42  1  0.13420482  0.34920069  0.03728092  1
  O  O43  1  0.65079931  0.86579518  0.46271908  1
  O  O44  1  0.14095880  0.74321475  0.04096186  1
  O  O45  1  0.25678525  0.85904120  0.45903814  1
  O  O46  1  0.85904120  0.25678525  0.95903814  1
  O  O47  1  0.74321475  0.14095880  0.54096186  1
  O  O48  1  0.19894718  0.99597218  0.12353676  1
  O  O49  1  0.00402782  0.80105282  0.37646324  1
  O  O50  1  0.80105282  0.00402782  0.87646324  1
  O  O51  1  0.99597218  0.19894718  0.62353676  1
  O  O52  1  0.91735636  0.08264364  0.25000000  1
  O  O53  1  0.08264364  0.91735636  0.75000000  1
