# generated using pymatgen
data_Sr3Te4O11
_symmetry_space_group_name_H-M   'P 1'
_cell_length_a   7.68607492
_cell_length_b   9.40474062
_cell_length_c   9.74698393
_cell_angle_alpha   98.36066826
_cell_angle_beta   110.05401796
_cell_angle_gamma   101.49872508
_symmetry_Int_Tables_number   1
_chemical_formula_structural   Sr3Te4O11
_chemical_formula_sum   'Sr6 Te8 O22'
_cell_volume   630.83474628
_cell_formula_units_Z   2
loop_
 _symmetry_equiv_pos_site_id
 _symmetry_equiv_pos_as_xyz
  1  'x, y, z'
loop_
 _atom_site_type_symbol
 _atom_site_label
 _atom_site_symmetry_multiplicity
 _atom_site_fract_x
 _atom_site_fract_y
 _atom_site_fract_z
 _atom_site_occupancy
  Sr  Sr0  1  0.47365440  0.33330341  0.32316943  1
  Sr  Sr1  1  0.04257142  0.37595248  0.53009319  1
  Sr  Sr2  1  0.48641793  0.82591956  0.82623385  1
  Sr  Sr3  1  0.31620132  0.21456139  0.88527440  1
  Sr  Sr4  1  0.86942282  0.76502308  0.58905577  1
  Sr  Sr5  1  0.88697319  0.25310172  0.08872217  1
  Te  Te6  1  0.10276838  0.93441664  0.00479379  1
  Te  Te7  1  0.20011110  0.54695631  0.98220790  1
  Te  Te8  1  0.64088782  0.98962954  0.25254747  1
  Te  Te9  1  0.25768754  0.65635554  0.41032482  1
  Te  Te10  1  0.72188282  0.59461613  0.16490890  1
  Te  Te11  1  0.67818174  0.10330934  0.66802449  1
  Te  Te12  1  0.68274747  0.48780474  0.74968519  1
  Te  Te13  1  0.16325232  0.04378265  0.43377507  1
  O  O14  1  0.73817046  0.19679344  0.33997414  1
  O  O15  1  0.13116158  0.19072100  0.32084402  1
  O  O16  1  0.37992459  0.52595293  0.51451569  1
  O  O17  1  0.87079338  0.92919049  0.37240116  1
  O  O18  1  0.70058347  0.98826217  0.08206793  1
  O  O19  1  0.15251276  0.14951105  0.60795813  1
  O  O20  1  0.79006924  0.48395359  0.60218459  1
  O  O21  1  0.47461681  0.15341758  0.51604146  1
  O  O22  1  0.88701281  0.43621962  0.90002354  1
  O  O23  1  0.34791983  0.07771505  0.11211905  1
  O  O24  1  0.57585613  0.11380971  0.81828104  1
  O  O25  1  0.01669060  0.50792024  0.30229954  1
  O  O26  1  0.75066704  0.69645315  0.82299281  1
  O  O27  1  0.60632219  0.89356676  0.60161414  1
  O  O28  1  0.18542779  0.74225423  0.56252505  1
  O  O29  1  0.16903274  0.85519281  0.84604842  1
  O  O30  1  0.98123503  0.06868588  0.90718742  1
  O  O31  1  0.21631964  0.44957091  0.80666056  1
  O  O32  1  0.22963447  0.39487893  0.08843497  1
  O  O33  1  0.49234678  0.66000614  0.05177610  1
  O  O34  1  0.62055486  0.38729322  0.07963842  1
  O  O35  1  0.66528752  0.59559857  0.33649536  1
