# generated using pymatgen
data_Pr23Mg4Ru7
_symmetry_space_group_name_H-M   'P 1'
_cell_length_a   10.12915686
_cell_length_b   10.12915686
_cell_length_c   22.80154052
_cell_angle_alpha   90.00000000
_cell_angle_beta   90.00000000
_cell_angle_gamma   119.99774165
_symmetry_Int_Tables_number   1
_chemical_formula_structural   Pr23Mg4Ru7
_chemical_formula_sum   'Pr46 Mg8 Ru14'
_cell_volume   2026.05531326
_cell_formula_units_Z   2
loop_
 _symmetry_equiv_pos_site_id
 _symmetry_equiv_pos_as_xyz
  1  'x, y, z'
loop_
 _atom_site_type_symbol
 _atom_site_label
 _atom_site_symmetry_multiplicity
 _atom_site_fract_x
 _atom_site_fract_y
 _atom_site_fract_z
 _atom_site_occupancy
  Pr  Pr0  1  0.12707350  0.87292650  0.36420049  1
  Pr  Pr1  1  0.74582634  0.87288032  0.36419137  1
  Pr  Pr2  1  0.12711968  0.25417366  0.36419137  1
  Pr  Pr3  1  0.87292650  0.12707350  0.86420049  1
  Pr  Pr4  1  0.25417366  0.12711968  0.86419137  1
  Pr  Pr5  1  0.87288032  0.74582634  0.86419137  1
  Pr  Pr6  1  0.20788753  0.79211247  0.21809860  1
  Pr  Pr7  1  0.58419745  0.79208081  0.21810200  1
  Pr  Pr8  1  0.20791919  0.41580255  0.21810200  1
  Pr  Pr9  1  0.79211247  0.20788753  0.71809860  1
  Pr  Pr10  1  0.41580255  0.20791919  0.71810200  1
  Pr  Pr11  1  0.79208081  0.58419745  0.71810200  1
  Pr  Pr12  1  0.20778679  0.79221321  0.05065561  1
  Pr  Pr13  1  0.58443332  0.79221112  0.05063512  1
  Pr  Pr14  1  0.20778888  0.41556668  0.05063512  1
  Pr  Pr15  1  0.79221321  0.20778679  0.55065561  1
  Pr  Pr16  1  0.41556668  0.20778888  0.55063512  1
  Pr  Pr17  1  0.79221112  0.58443332  0.55063512  1
  Pr  Pr18  1  0.20864585  0.79135415  0.50729129  1
  Pr  Pr19  1  0.58271014  0.79135658  0.50729091  1
  Pr  Pr20  1  0.20864342  0.41728986  0.50729091  1
  Pr  Pr21  1  0.79135415  0.20864585  0.00729129  1
  Pr  Pr22  1  0.41728986  0.20864342  0.00729091  1
  Pr  Pr23  1  0.79135658  0.58271014  0.00729091  1
  Pr  Pr24  1  0.54134910  0.45865090  0.41436666  1
  Pr  Pr25  1  0.91728781  0.45867912  0.41437673  1
  Pr  Pr26  1  0.54132088  0.08271219  0.41437673  1
  Pr  Pr27  1  0.45865090  0.54134910  0.91436666  1
  Pr  Pr28  1  0.08271219  0.54132088  0.91437673  1
  Pr  Pr29  1  0.45867912  0.91728781  0.91437673  1
  Pr  Pr30  1  0.54056257  0.45943743  0.14347847  1
  Pr  Pr31  1  0.91888669  0.45945034  0.14347819  1
  Pr  Pr32  1  0.54054966  0.08111331  0.14347819  1
  Pr  Pr33  1  0.45943743  0.54056257  0.64347847  1
  Pr  Pr34  1  0.08111331  0.54054966  0.64347819  1
  Pr  Pr35  1  0.45945034  0.91888669  0.64347819  1
  Pr  Pr36  1  0.33343508  0.66656492  0.35409573  1
  Pr  Pr37  1  0.66656492  0.33343508  0.85409573  1
  Pr  Pr38  1  0.00001813  0.99998187  0.49681681  1
  Pr  Pr39  1  0.99998187  0.00001813  0.99681681  1
  Pr  Pr40  1  0.79146771  0.20853229  0.28058664  1
  Pr  Pr41  1  0.41706723  0.20855795  0.28058630  1
  Pr  Pr42  1  0.79144205  0.58293277  0.28058630  1
  Pr  Pr43  1  0.20853229  0.79146771  0.78058664  1
  Pr  Pr44  1  0.58293277  0.79144205  0.78058630  1
  Pr  Pr45  1  0.20855795  0.41706723  0.78058630  1
  Mg  Mg46  1  0.89517403  0.10482597  0.13607415  1
  Mg  Mg47  1  0.20965286  0.10482624  0.13607240  1
  Mg  Mg48  1  0.89517376  0.79034714  0.13607240  1
  Mg  Mg49  1  0.10482597  0.89517403  0.63607415  1
  Mg  Mg50  1  0.79034714  0.89517376  0.63607240  1
  Mg  Mg51  1  0.10482624  0.20965286  0.63607240  1
  Mg  Mg52  1  0.00000024  -0.00000024  0.24795100  1
  Mg  Mg53  1  -0.00000024  0.00000024  0.74795100  1
  Ru  Ru54  1  0.48261326  0.51738674  0.28970416  1
  Ru  Ru55  1  0.03476906  0.51737879  0.28970238  1
  Ru  Ru56  1  0.48262121  0.96523094  0.28970238  1
  Ru  Ru57  1  0.51738674  0.48261326  0.78970416  1
  Ru  Ru58  1  0.96523094  0.48262121  0.78970238  1
  Ru  Ru59  1  0.51737879  0.03476906  0.78970238  1
  Ru  Ru60  1  0.85298150  0.14701850  0.43759448  1
  Ru  Ru61  1  0.29403972  0.14701435  0.43758983  1
  Ru  Ru62  1  0.85298565  0.70596028  0.43758983  1
  Ru  Ru63  1  0.14701850  0.85298150  0.93759448  1
  Ru  Ru64  1  0.70596028  0.85298565  0.93758983  1
  Ru  Ru65  1  0.14701435  0.29403972  0.93758983  1
  Ru  Ru66  1  0.33331701  0.66668299  0.13129545  1
  Ru  Ru67  1  0.66668299  0.33331701  0.63129545  1
