# generated using pymatgen
data_CsP(HO2)2
_symmetry_space_group_name_H-M   'P 1'
_cell_length_a   4.96200452
_cell_length_b   6.47005409
_cell_length_c   15.21843178
_cell_angle_alpha   90.00000000
_cell_angle_beta   90.33308696
_cell_angle_gamma   90.00000000
_symmetry_Int_Tables_number   1
_chemical_formula_structural   CsP(HO2)2
_chemical_formula_sum   'Cs4 P4 H8 O16'
_cell_volume   488.57093752
_cell_formula_units_Z   4
loop_
 _symmetry_equiv_pos_site_id
 _symmetry_equiv_pos_as_xyz
  1  'x, y, z'
loop_
 _atom_site_type_symbol
 _atom_site_label
 _atom_site_symmetry_multiplicity
 _atom_site_fract_x
 _atom_site_fract_y
 _atom_site_fract_z
 _atom_site_occupancy
  Cs  Cs0  1  0.64436853  0.74842123  0.11882167  1
  Cs  Cs1  1  0.85563147  0.24842123  0.38117833  1
  Cs  Cs2  1  0.35563147  0.25157877  0.88117833  1
  Cs  Cs3  1  0.14436853  0.75157877  0.61882167  1
  P  P4  1  0.15917907  0.23985524  0.13038787  1
  P  P5  1  0.34082093  0.73985524  0.36961213  1
  P  P6  1  0.84082093  0.76014476  0.86961213  1
  P  P7  1  0.65917907  0.26014476  0.63038787  1
  H  H8  1  0.74692264  0.24468869  0.07070731  1
  H  H9  1  0.75307736  0.74468869  0.42929269  1
  H  H10  1  0.25307736  0.75531131  0.92929269  1
  H  H11  1  0.24692264  0.25531131  0.57070731  1
  H  H12  1  0.27500023  0.98308280  0.26271467  1
  H  H13  1  0.22499977  0.48308280  0.23728533  1
  H  H14  1  0.72499977  0.01691720  0.73728533  1
  H  H15  1  0.77500023  0.51691720  0.76271467  1
  O  O16  1  0.43362708  0.25136924  0.08729184  1
  O  O17  1  0.06637292  0.75136924  0.41270816  1
  O  O18  1  0.56637292  0.74863076  0.91270816  1
  O  O19  1  0.93362708  0.24863076  0.58729184  1
  O  O20  1  0.94301231  0.25104941  0.05251146  1
  O  O21  1  0.55698769  0.75104941  0.44748854  1
  O  O22  1  0.05698769  0.74895059  0.94748854  1
  O  O23  1  0.44301231  0.24895059  0.55251146  1
  O  O24  1  0.10596759  0.04946044  0.18734928  1
  O  O25  1  0.39403241  0.54946044  0.31265072  1
  O  O26  1  0.89403241  0.95053956  0.81265072  1
  O  O27  1  0.60596759  0.45053956  0.68734928  1
  O  O28  1  0.09726053  0.44579252  0.18466017  1
  O  O29  1  0.40273947  0.94579252  0.31533983  1
  O  O30  1  0.90273947  0.55420748  0.81533983  1
  O  O31  1  0.59726053  0.05420748  0.68466017  1
