# generated using pymatgen
data_Na2MnP2O7
_symmetry_space_group_name_H-M   'P 1'
_cell_length_a   6.68860107
_cell_length_b   9.68660448
_cell_length_c   11.20795488
_cell_angle_alpha   64.86282521
_cell_angle_beta   86.00498887
_cell_angle_gamma   73.20268245
_symmetry_Int_Tables_number   1
_chemical_formula_structural   Na2MnP2O7
_chemical_formula_sum   'Na8 Mn4 P8 O28'
_cell_volume   628.15858083
_cell_formula_units_Z   4
loop_
 _symmetry_equiv_pos_site_id
 _symmetry_equiv_pos_as_xyz
  1  'x, y, z'
loop_
 _atom_site_type_symbol
 _atom_site_label
 _atom_site_symmetry_multiplicity
 _atom_site_fract_x
 _atom_site_fract_y
 _atom_site_fract_z
 _atom_site_occupancy
  Na  Na0  1  0.60162303  0.86076941  0.65718007  1
  Na  Na1  1  0.41980102  0.13956803  0.34503843  1
  Na  Na2  1  0.18200371  0.85234144  0.10324654  1
  Na  Na3  1  0.75963217  0.14653425  0.86339109  1
  Na  Na4  1  0.96927714  0.17650405  0.52570201  1
  Na  Na5  1  0.03319264  0.81911549  0.47565547  1
  Na  Na6  1  0.41051821  0.51621775  0.02395391  1
  Na  Na7  1  0.86444395  0.48301328  0.95221886  1
  Mn  Mn8  1  0.65510905  0.48950740  0.27300871  1
  Mn  Mn9  1  0.72886255  0.88795749  0.22109031  1
  Mn  Mn10  1  0.34963641  0.50405188  0.73440425  1
  Mn  Mn11  1  0.27196644  0.10567855  0.78704196  1
  P  P12  1  0.94242838  0.17036941  0.21659796  1
  P  P13  1  0.57322685  0.70245524  0.46210364  1
  P  P14  1  0.30365604  0.18830335  0.04351275  1
  P  P15  1  0.86840547  0.45601996  0.68893697  1
  P  P16  1  0.06970445  0.82223440  0.79060495  1
  P  P17  1  0.42004681  0.29097541  0.54547194  1
  P  P18  1  0.70969679  0.80339240  0.96031167  1
  P  P19  1  0.13144128  0.53869466  0.31656680  1
  O  O20  1  0.09042862  0.26495491  0.10206906  1
  O  O21  1  0.36232129  0.33520224  0.94360278  1
  O  O22  1  0.24854320  0.09172141  0.97958353  1
  O  O23  1  0.45867742  0.08630114  0.16296856  1
  O  O24  1  0.73912962  0.30719184  0.19149019  1
  O  O25  1  0.05859161  0.10033477  0.35034711  1
  O  O26  1  0.91842654  0.04306511  0.17683069  1
  O  O27  1  0.76148310  0.54177813  0.54000146  1
  O  O28  1  0.55775528  0.70308516  0.32482305  1
  O  O29  1  0.64610481  0.84666320  0.44737922  1
  O  O30  1  0.38123911  0.68821925  0.54213992  1
  O  O31  1  0.69087351  0.46797675  0.78366719  1
  O  O32  1  0.96908086  0.28349907  0.70937420  1
  O  O33  1  0.01938912  0.54471917  0.69567874  1
  O  O34  1  0.92658371  0.72201885  0.90536579  1
  O  O35  1  0.63649409  0.65806788  0.04960108  1
  O  O36  1  0.56627769  0.91848070  0.83721177  1
  O  O37  1  0.76905402  0.89085932  0.03173376  1
  O  O38  1  0.27480397  0.69208777  0.80648402  1
  O  O39  1  0.94882093  0.89847657  0.65758102  1
  O  O40  1  0.09434825  0.94293123  0.83898782  1
  O  O41  1  0.23571987  0.45233150  0.46766250  1
  O  O42  1  0.34096412  0.14717855  0.56708762  1
  O  O43  1  0.61108895  0.29648412  0.46254450  1
  O  O44  1  0.44682135  0.29194707  0.68141677  1
  O  O45  1  0.02986070  0.71074872  0.29673953  1
  O  O46  1  0.31437595  0.52733523  0.22546788  1
  O  O47  1  0.97996993  0.44983648  0.31222195  1
