# generated using pymatgen
data_P2H12C4O3
_symmetry_space_group_name_H-M   'P 1'
_cell_length_a   6.55350726
_cell_length_b   6.55350726
_cell_length_c   13.12450247
_cell_angle_alpha   100.56736024
_cell_angle_beta   100.56736024
_cell_angle_gamma   95.90931606
_symmetry_Int_Tables_number   1
_chemical_formula_structural   P2H12C4O3
_chemical_formula_sum   'P4 H24 C8 O6'
_cell_volume   539.25092545
_cell_formula_units_Z   2
loop_
 _symmetry_equiv_pos_site_id
 _symmetry_equiv_pos_as_xyz
  1  'x, y, z'
loop_
 _atom_site_type_symbol
 _atom_site_label
 _atom_site_symmetry_multiplicity
 _atom_site_fract_x
 _atom_site_fract_y
 _atom_site_fract_z
 _atom_site_occupancy
  P  P0  1  0.11403113  0.83820288  0.35542322  1
  P  P1  1  0.16179712  0.88596887  0.14457678  1
  P  P2  1  0.88596887  0.16179712  0.64457678  1
  P  P3  1  0.83820288  0.11403113  0.85542322  1
  H  H4  1  0.25991226  0.54416211  0.41423571  1
  H  H5  1  0.45583789  0.74008774  0.08576429  1
  H  H6  1  0.74008774  0.45583789  0.58576429  1
  H  H7  1  0.54416211  0.25991226  0.91423571  1
  H  H8  1  0.20852522  0.73492010  0.51934690  1
  H  H9  1  0.26507990  0.79147478  0.98065310  1
  H  H10  1  0.79147478  0.26507990  0.48065310  1
  H  H11  1  0.73492010  0.20852522  0.01934690  1
  H  H12  1  0.43485703  0.78592711  0.46503785  1
  H  H13  1  0.21407289  0.56514297  0.03496215  1
  H  H14  1  0.56514297  0.21407289  0.53496215  1
  H  H15  1  0.78592711  0.43485703  0.96503785  1
  H  H16  1  0.79084813  0.69499543  0.38910091  1
  H  H17  1  0.30500457  0.20915187  0.11089909  1
  H  H18  1  0.20915187  0.30500457  0.61089909  1
  H  H19  1  0.69499543  0.79084813  0.88910091  1
  H  H20  1  0.87182223  0.51806547  0.28747141  1
  H  H21  1  0.48193453  0.12817777  0.21252859  1
  H  H22  1  0.12817777  0.48193453  0.71252859  1
  H  H23  1  0.51806547  0.87182223  0.78747141  1
  H  H24  1  0.75966686  0.74388680  0.25716268  1
  H  H25  1  0.25611320  0.24033314  0.24283732  1
  H  H26  1  0.24033314  0.25611320  0.74283732  1
  H  H27  1  0.74388680  0.75966686  0.75716268  1
  C  C28  1  0.27065898  0.71266807  0.44641006  1
  C  C29  1  0.28733193  0.72934102  0.05358994  1
  C  C30  1  0.72934102  0.28733193  0.55358994  1
  C  C31  1  0.71266807  0.27065898  0.94641006  1
  C  C32  1  0.85848973  0.68261199  0.31802314  1
  C  C33  1  0.31738801  0.14151027  0.18197686  1
  C  C34  1  0.14151027  0.31738801  0.68197686  1
  C  C35  1  0.68261199  0.85848973  0.81802314  1
  O  O36  1  0.21727533  0.78272467  0.25000000  1
  O  O37  1  0.78272467  0.21727533  0.75000000  1
  O  O38  1  0.11632093  0.06745703  0.39208968  1
  O  O39  1  0.93254297  0.88367907  0.10791032  1
  O  O40  1  0.88367907  0.93254297  0.60791032  1
  O  O41  1  0.06745703  0.11632093  0.89208968  1
