# generated using pymatgen
data_Bi14Mo5O36
_symmetry_space_group_name_H-M   'P 1'
_cell_length_a   5.73320164
_cell_length_b   8.76550724
_cell_length_c   17.68267669
_cell_angle_alpha   99.75986657
_cell_angle_beta   99.32959191
_cell_angle_gamma   90.00000000
_symmetry_Int_Tables_number   1
_chemical_formula_structural   Bi14Mo5O36
_chemical_formula_sum   'Bi14 Mo5 O36'
_cell_volume   863.84166566
_cell_formula_units_Z   1
loop_
 _symmetry_equiv_pos_site_id
 _symmetry_equiv_pos_as_xyz
  1  'x, y, z'
loop_
 _atom_site_type_symbol
 _atom_site_label
 _atom_site_symmetry_multiplicity
 _atom_site_fract_x
 _atom_site_fract_y
 _atom_site_fract_z
 _atom_site_occupancy
  Bi  Bi0  1  0.73487683  0.81167357  0.48435229  1
  Bi  Bi1  1  0.25052454  0.18832643  0.51564771  1
  Bi  Bi2  1  0.72333072  0.46776808  0.57879447  1
  Bi  Bi3  1  0.14453625  0.53223192  0.42120553  1
  Bi  Bi4  1  0.31181794  0.77119580  0.64088987  1
  Bi  Bi5  1  0.67092807  0.22880420  0.35911013  1
  Bi  Bi6  1  0.38912685  0.43960160  0.73883210  1
  Bi  Bi7  1  0.65029475  0.56039840  0.26116790  1
  Bi  Bi8  1  0.91697678  0.72730779  0.79179322  1
  Bi  Bi9  1  0.12518356  0.27269221  0.20820678  1
  Bi  Bi10  1  0.94453033  0.38849247  0.89701316  1
  Bi  Bi11  1  0.04751717  0.61150753  0.10298684  1
  Bi  Bi12  1  0.47279975  0.66899848  0.94554879  1
  Bi  Bi13  1  0.52725096  0.33100152  0.05445121  1
  Mo  Mo14  1  0.00562993  1.00000000  1.00000000  1
  Mo  Mo15  1  0.58723410  0.94652975  0.15783125  1
  Mo  Mo16  1  0.42940285  0.05347025  0.84216875  1
  Mo  Mo17  1  0.13309989  0.90253190  0.32439936  1
  Mo  Mo18  1  0.80870053  0.09746810  0.67560064  1
  O  O19  1  0.04650431  0.69178541  0.53526432  1
  O  O20  1  0.51123999  0.30821459  0.46473568  1
  O  O21  1  0.52820639  0.66012472  0.53785506  1
  O  O22  1  0.99035134  0.33987528  0.46214494  1
  O  O23  1  0.12782961  0.61655830  0.69985804  1
  O  O24  1  0.42797157  0.38344170  0.30014196  1
  O  O25  1  0.61338685  0.60608294  0.69511325  1
  O  O26  1  0.91827360  0.39391706  0.30488675  1
  O  O27  1  0.15220072  0.56006514  0.85101124  1
  O  O28  1  0.30118948  0.43993486  0.14898876  1
  O  O29  1  0.66035760  0.54869701  0.84748738  1
  O  O30  1  0.81287022  0.45130299  0.15251262  1
  O  O31  1  0.26355242  0.50000000  1.00000000  1
  O  O32  1  0.76774432  0.50000000  1.00000000  1
  O  O33  1  0.70498802  0.81775213  0.08205516  1
  O  O34  1  0.62293286  0.18224787  0.91794484  1
  O  O35  1  0.43520253  0.12593495  0.14167895  1
  O  O36  1  0.29352358  0.87406505  0.85832105  1
  O  O37  1  0.82956070  0.01761861  0.23526171  1
  O  O38  1  0.59429900  0.98238139  0.76473829  1
  O  O39  1  0.41675007  0.82357415  0.19914137  1
  O  O40  1  0.21760869  0.17642585  0.80085863  1
  O  O41  1  0.01311029  0.73099240  0.25527162  1
  O  O42  1  0.75783867  0.26900760  0.74472838  1
  O  O43  1  0.28018460  0.07792974  0.30931307  1
  O  O44  1  0.97087153  0.92207026  0.69068693  1
  O  O45  1  0.93240400  0.96354507  0.39244991  1
  O  O46  1  0.53995409  0.03645493  0.60755009  1
  O  O47  1  0.36371689  0.82075643  0.38693039  1
  O  O48  1  0.97678650  0.17924357  0.61306961  1
  O  O49  1  0.79794757  0.88094053  0.92511915  1
  O  O50  1  0.87282843  0.11905947  0.07488085  1
  O  O51  1  0.16894991  0.13390108  0.95987677  1
  O  O52  1  0.20907314  0.86609892  0.04012323  1
  O  O53  1  0.78260927  0.62518236  0.39618984  1
  O  O54  1  0.38641943  0.37481764  0.60381016  1
