# generated using pymatgen
data_Ba3NaRu2O9
_symmetry_space_group_name_H-M   'P 1'
_cell_length_a   11.93152749
_cell_length_b   11.90582250
_cell_length_c   14.60043666
_cell_angle_alpha   90.00000000
_cell_angle_beta   90.00000000
_cell_angle_gamma   120.07144574
_symmetry_Int_Tables_number   1
_chemical_formula_structural   Ba3NaRu2O9
_chemical_formula_sum   'Ba24 Na8 Ru16 O72'
_cell_volume   1794.89402500
_cell_formula_units_Z   8
loop_
 _symmetry_equiv_pos_site_id
 _symmetry_equiv_pos_as_xyz
  1  'x, y, z'
loop_
 _atom_site_type_symbol
 _atom_site_label
 _atom_site_symmetry_multiplicity
 _atom_site_fract_x
 _atom_site_fract_y
 _atom_site_fract_z
 _atom_site_occupancy
  Ba  Ba0  1  0.00253639  0.00507278  0.75000000  1
  Ba  Ba1  1  0.99746361  0.99492722  0.25000000  1
  Ba  Ba2  1  0.49855121  0.99710242  0.25000000  1
  Ba  Ba3  1  0.50144879  0.00289758  0.75000000  1
  Ba  Ba4  1  0.99416123  0.49100064  0.25000000  1
  Ba  Ba5  1  0.50316059  0.50899936  0.75000000  1
  Ba  Ba6  1  0.00583877  0.50899936  0.75000000  1
  Ba  Ba7  1  0.49683941  0.49100064  0.25000000  1
  Ba  Ba8  1  0.66782062  0.33564125  0.41555866  1
  Ba  Ba9  1  0.33217938  0.66435875  0.58444134  1
  Ba  Ba10  1  0.66782062  0.33564125  0.08444134  1
  Ba  Ba11  1  0.33217938  0.66435875  0.91555866  1
  Ba  Ba12  1  0.16783618  0.33567235  0.41322254  1
  Ba  Ba13  1  0.83216382  0.66432765  0.58677746  1
  Ba  Ba14  1  0.16783618  0.33567235  0.08677746  1
  Ba  Ba15  1  0.83216382  0.66432765  0.91322254  1
  Ba  Ba16  1  0.66065871  0.82338884  0.40428670  1
  Ba  Ba17  1  0.83726988  0.17661116  0.59571330  1
  Ba  Ba18  1  0.66065871  0.82338884  0.09571330  1
  Ba  Ba19  1  0.83726988  0.17661116  0.90428670  1
  Ba  Ba20  1  0.33934129  0.17661116  0.59571330  1
  Ba  Ba21  1  0.16273012  0.82338884  0.40428670  1
  Ba  Ba22  1  0.33934129  0.17661116  0.90428670  1
  Ba  Ba23  1  0.16273012  0.82338884  0.09571330  1
  Na  Na24  1  0.00000000  0.50000000  0.50000000  1
  Na  Na25  1  0.50000000  0.50000000  0.50000000  1
  Na  Na26  1  0.00000000  0.50000000  -0.00000000  1
  Na  Na27  1  0.50000000  0.50000000  -0.00000000  1
  Na  Na28  1  0.50000000  0.00000000  0.50000000  1
  Na  Na29  1  0.50000000  0.00000000  -0.00000000  1
  Na  Na30  1  0.00000000  0.00000000  0.50000000  1
  Na  Na31  1  0.00000000  0.00000000  -0.00000000  1
  Ru  Ru32  1  0.83020069  0.66040138  0.33694761  1
  Ru  Ru33  1  0.16979931  0.33959862  0.66305239  1
  Ru  Ru34  1  0.83020069  0.66040138  0.16305239  1
  Ru  Ru35  1  0.16979931  0.33959862  0.83694761  1
  Ru  Ru36  1  0.33115643  0.66231285  0.33640525  1
  Ru  Ru37  1  0.66884357  0.33768715  0.66359475  1
  Ru  Ru38  1  0.33115643  0.66231285  0.16359475  1
  Ru  Ru39  1  0.66884357  0.33768715  0.83640525  1
  Ru  Ru40  1  0.83168489  0.16139925  0.34640349  1
  Ru  Ru41  1  0.67028564  0.83860075  0.65359651  1
  Ru  Ru42  1  0.83168489  0.16139925  0.15359651  1
  Ru  Ru43  1  0.67028564  0.83860075  0.84640349  1
  Ru  Ru44  1  0.16831511  0.83860075  0.65359651  1
  Ru  Ru45  1  0.32971436  0.16139925  0.34640349  1
  Ru  Ru46  1  0.16831511  0.83860075  0.84640349  1
  Ru  Ru47  1  0.32971436  0.16139925  0.15359651  1
  O  O48  1  0.90585283  0.58259915  0.40800858  1
  O  O49  1  0.32325367  0.41740085  0.59199142  1
  O  O50  1  0.90585283  0.58259915  0.09199142  1
  O  O51  1  0.32325367  0.41740085  0.90800858  1
  O  O52  1  0.09414717  0.41740085  0.59199142  1
  O  O53  1  0.67674633  0.58259915  0.40800858  1
  O  O54  1  0.09414717  0.41740085  0.90800858  1
  O  O55  1  0.67674633  0.58259915  0.09199142  1
  O  O56  1  0.75066660  0.50133320  0.25000000  1
  O  O57  1  0.24933340  0.49866680  0.75000000  1
  O  O58  1  0.75075290  0.73973962  0.25000000  1
  O  O59  1  0.01101328  0.26026038  0.75000000  1
  O  O60  1  0.24924710  0.26026038  0.75000000  1
  O  O61  1  0.98898672  0.73973962  0.25000000  1
  O  O62  1  0.90684307  0.81368614  0.40856772  1
  O  O63  1  0.09315693  0.18631386  0.59143228  1
  O  O64  1  0.90684307  0.81368614  0.09143228  1
  O  O65  1  0.09315693  0.18631386  0.90856772  1
  O  O66  1  0.17616499  0.58427887  0.40593262  1
  O  O67  1  0.59188612  0.41572113  0.59406738  1
  O  O68  1  0.17616499  0.58427887  0.09406738  1
  O  O69  1  0.59188612  0.41572113  0.90593262  1
  O  O70  1  0.82383501  0.41572113  0.59406738  1
  O  O71  1  0.40811388  0.58427887  0.40593262  1
  O  O72  1  0.82383501  0.41572113  0.90593262  1
  O  O73  1  0.40811388  0.58427887  0.09406738  1
  O  O74  1  0.25203592  0.50407184  0.25000000  1
  O  O75  1  0.74796408  0.49592816  0.75000000  1
  O  O76  1  0.40696466  0.81392932  0.41039861  1
  O  O77  1  0.59303534  0.18607068  0.58960139  1
  O  O78  1  0.40696466  0.81392932  0.08960139  1
  O  O79  1  0.59303534  0.18607068  0.91039861  1
  O  O80  1  0.25451084  0.74521125  0.25000000  1
  O  O81  1  0.50929958  0.25478875  0.75000000  1
  O  O82  1  0.74548916  0.25478875  0.75000000  1
  O  O83  1  0.49070042  0.74521125  0.25000000  1
  O  O84  1  0.90394610  0.31555570  0.41458976  1
  O  O85  1  0.58839040  0.68444430  0.58541024  1
  O  O86  1  0.90394610  0.31555570  0.08541024  1
  O  O87  1  0.58839040  0.68444430  0.91458976  1
  O  O88  1  0.09605390  0.68444430  0.58541024  1
  O  O89  1  0.41160960  0.31555570  0.41458976  1
  O  O90  1  0.09605390  0.68444430  0.91458976  1
  O  O91  1  0.41160960  0.31555570  0.08541024  1
  O  O92  1  0.97841983  0.24280367  0.25000000  1
  O  O93  1  0.73561616  0.75719633  0.75000000  1
  O  O94  1  0.02158017  0.75719633  0.75000000  1
  O  O95  1  0.26438384  0.24280367  0.25000000  1
  O  O96  1  0.75573837  0.23160568  0.25000000  1
  O  O97  1  0.52413268  0.76839432  0.75000000  1
  O  O98  1  0.24426163  0.76839432  0.75000000  1
  O  O99  1  0.47586732  0.23160568  0.25000000  1
  O  O100  1  0.67450364  0.07866623  0.40837718  1
  O  O101  1  0.59583741  0.92133377  0.59162282  1
  O  O102  1  0.67450364  0.07866623  0.09162282  1
  O  O103  1  0.59583741  0.92133377  0.90837718  1
  O  O104  1  0.32549636  0.92133377  0.59162282  1
  O  O105  1  0.40416259  0.07866623  0.40837718  1
  O  O106  1  0.32549636  0.92133377  0.90837718  1
  O  O107  1  0.40416259  0.07866623  0.09162282  1
  O  O108  1  0.91544853  0.08845596  0.40828060  1
  O  O109  1  0.82699257  0.91154404  0.59171940  1
  O  O110  1  0.91544853  0.08845596  0.09171940  1
  O  O111  1  0.82699257  0.91154404  0.90828060  1
  O  O112  1  0.08455147  0.91154404  0.59171940  1
  O  O113  1  0.17300743  0.08845596  0.40828060  1
  O  O114  1  0.08455147  0.91154404  0.90828060  1
  O  O115  1  0.17300743  0.08845596  0.09171940  1
  O  O116  1  0.76339258  0.01378950  0.25000000  1
  O  O117  1  0.74960308  0.98621050  0.75000000  1
  O  O118  1  0.23660742  0.98621050  0.75000000  1
  O  O119  1  0.25039692  0.01378950  0.25000000  1
