# generated using pymatgen
data_CsMo3I7
_symmetry_space_group_name_H-M   'P 1'
_cell_length_a   11.06342810
_cell_length_b   11.07373480
_cell_length_c   16.97473675
_cell_angle_alpha   90.08905254
_cell_angle_beta   89.95543225
_cell_angle_gamma   120.03081894
_symmetry_Int_Tables_number   1
_chemical_formula_structural   CsMo3I7
_chemical_formula_sum   'Cs4 Mo12 I28'
_cell_volume   1800.45402627
_cell_formula_units_Z   4
loop_
 _symmetry_equiv_pos_site_id
 _symmetry_equiv_pos_as_xyz
  1  'x, y, z'
loop_
 _atom_site_type_symbol
 _atom_site_label
 _atom_site_symmetry_multiplicity
 _atom_site_fract_x
 _atom_site_fract_y
 _atom_site_fract_z
 _atom_site_occupancy
  Cs  Cs0  1  -0.00000000  -0.00000000  0.50000000  1
  Cs  Cs1  1  -0.00000000  -0.00000000  0.00000000  1
  Cs  Cs2  1  0.33344476  0.66672238  0.25000000  1
  Cs  Cs3  1  0.66655524  0.33327762  0.75000000  1
  Mo  Mo4  1  0.47403611  0.66535157  0.68535720  1
  Mo  Mo5  1  0.33457824  0.80868173  0.68535709  1
  Mo  Mo6  1  0.19121272  0.52586919  0.68537152  1
  Mo  Mo7  1  0.52596389  0.19131546  0.18535720  1
  Mo  Mo8  1  0.80878728  0.33465647  0.18537152  1
  Mo  Mo9  1  0.66542176  0.47410349  0.18535709  1
  Mo  Mo10  1  0.52596389  0.33464843  0.31464280  1
  Mo  Mo11  1  0.66542176  0.19131827  0.31464291  1
  Mo  Mo12  1  0.80878728  0.47413081  0.31462848  1
  Mo  Mo13  1  0.47403611  0.80868454  0.81464280  1
  Mo  Mo14  1  0.19121272  0.66534353  0.81462848  1
  Mo  Mo15  1  0.33457824  0.52589651  0.81464291  1
  I  I16  1  0.33327993  0.66660133  0.54884519  1
  I  I17  1  0.66672007  0.33332140  0.04884519  1
  I  I18  1  0.66672007  0.33339867  0.45115481  1
  I  I19  1  0.33327993  0.66667860  0.95115481  1
  I  I20  1  0.68561994  0.65511837  0.59068915  1
  I  I21  1  0.34488683  0.03028621  0.59080695  1
  I  I22  1  0.96935001  0.31433289  0.59063199  1
  I  I23  1  0.31438006  0.96949844  0.09068915  1
  I  I24  1  0.03064999  0.34498288  0.09063199  1
  I  I25  1  0.65511317  0.68539938  0.09080695  1
  I  I26  1  0.31438006  0.34488163  0.40931085  1
  I  I27  1  0.65511317  0.96971379  0.40919305  1
  I  I28  1  0.03064999  0.68566711  0.40936801  1
  I  I29  1  0.68561994  0.03050156  0.90931085  1
  I  I30  1  0.96935001  0.65501712  0.90936801  1
  I  I31  1  0.34488683  0.31460062  0.90919305  1
  I  I32  1  0.62785932  0.95665468  0.68075440  1
  I  I33  1  0.04307625  0.67100573  0.68075470  1
  I  I34  1  0.32875368  0.37210863  0.68066775  1
  I  I35  1  0.37214068  0.32879536  0.18075440  1
  I  I36  1  0.67124632  0.04335495  0.18066775  1
  I  I37  1  0.95692375  0.62792948  0.18075470  1
  I  I38  1  0.37214068  0.04334532  0.31924560  1
  I  I39  1  0.95692375  0.32899427  0.31924530  1
  I  I40  1  0.67124632  0.62789137  0.31933225  1
  I  I41  1  0.62785932  0.67120464  0.81924560  1
  I  I42  1  0.32875368  0.95664505  0.81933225  1
  I  I43  1  0.04307625  0.37207052  0.81924530  1
