# generated using pymatgen
data_Ba4Ru3O10
_symmetry_space_group_name_H-M   'P 1'
_cell_length_a   5.85738113
_cell_length_b   7.35560408
_cell_length_c   13.30401396
_cell_angle_alpha   90.00000000
_cell_angle_beta   90.00000000
_cell_angle_gamma   113.83743252
_symmetry_Int_Tables_number   1
_chemical_formula_structural   Ba4Ru3O10
_chemical_formula_sum   'Ba8 Ru6 O20'
_cell_volume   524.30164269
_cell_formula_units_Z   2
loop_
 _symmetry_equiv_pos_site_id
 _symmetry_equiv_pos_as_xyz
  1  'x, y, z'
loop_
 _atom_site_type_symbol
 _atom_site_label
 _atom_site_symmetry_multiplicity
 _atom_site_fract_x
 _atom_site_fract_y
 _atom_site_fract_z
 _atom_site_occupancy
  Ba  Ba0  1  0.96343277  0.92900114  0.63976607  1
  Ba  Ba1  1  0.53656723  0.07099886  0.13976607  1
  Ba  Ba2  1  0.03656723  0.07099886  0.36023393  1
  Ba  Ba3  1  0.46343277  0.92900114  0.86023393  1
  Ba  Ba4  1  0.24221638  0.48241168  0.11091449  1
  Ba  Ba5  1  0.25778362  0.51758832  0.61091449  1
  Ba  Ba6  1  0.75778362  0.51758832  0.88908551  1
  Ba  Ba7  1  0.74221638  0.48241168  0.38908551  1
  Ru  Ru8  1  0.50000000  0.00000000  0.50000000  1
  Ru  Ru9  1  -0.00000000  0.00000000  0.00000000  1
  Ru  Ru10  1  0.37844873  0.75258698  0.35092894  1
  Ru  Ru11  1  0.12155127  0.24741302  0.85092894  1
  Ru  Ru12  1  0.62155127  0.24741302  0.64907106  1
  Ru  Ru13  1  0.87844873  0.75258698  0.14907106  1
  O  O14  1  0.45912594  0.92878947  0.65062607  1
  O  O15  1  0.04087406  0.07121053  0.15062607  1
  O  O16  1  0.54087406  0.07121053  0.34937393  1
  O  O17  1  0.95912594  0.92878947  0.84937393  1
  O  O18  1  0.84162779  0.21757238  0.53697834  1
  O  O19  1  0.65837221  0.78242762  0.03697834  1
  O  O20  1  0.15837221  0.78242762  0.46302166  1
  O  O21  1  0.34162779  0.21757238  0.96302166  1
  O  O22  1  0.38025680  0.21935624  0.53356506  1
  O  O23  1  0.11974320  0.78064376  0.03356506  1
  O  O24  1  0.61974320  0.78064376  0.46643494  1
  O  O25  1  0.88025680  0.21935624  0.96643494  1
  O  O26  1  0.76896388  0.53665989  0.64678916  1
  O  O27  1  0.73103612  0.46334011  0.14678916  1
  O  O28  1  0.23103612  0.46334011  0.35321084  1
  O  O29  1  0.26896388  0.53665989  0.85321084  1
  O  O30  1  0.86268040  0.24194619  0.75280695  1
  O  O31  1  0.63731960  0.75805381  0.25280695  1
  O  O32  1  0.13731960  0.75805381  0.24719305  1
  O  O33  1  0.36268040  0.24194619  0.74719305  1
