# generated using pymatgen
data_Li2Ni2H24C6(N4O5)3
_symmetry_space_group_name_H-M   'P 1'
_cell_length_a   4.97438268
_cell_length_b   9.64879595
_cell_length_c   11.56905676
_cell_angle_alpha   92.07232202
_cell_angle_beta   89.72209930
_cell_angle_gamma   89.86396638
_symmetry_Int_Tables_number   1
_chemical_formula_structural   Li2Ni2H24C6(N4O5)3
_chemical_formula_sum   'Li2 Ni2 H24 C6 N12 O15'
_cell_volume   554.90624686
_cell_formula_units_Z   1
loop_
 _symmetry_equiv_pos_site_id
 _symmetry_equiv_pos_as_xyz
  1  'x, y, z'
loop_
 _atom_site_type_symbol
 _atom_site_label
 _atom_site_symmetry_multiplicity
 _atom_site_fract_x
 _atom_site_fract_y
 _atom_site_fract_z
 _atom_site_occupancy
  Li  Li0  1  0.23692364  0.20349836  0.80969151  1
  Li  Li1  1  0.74132208  0.79633964  0.18904879  1
  Ni  Ni2  1  0.72180416  0.73619693  0.67053140  1
  Ni  Ni3  1  0.21872761  0.26592062  0.32911333  1
  H  H4  1  0.80028430  0.33674138  0.69620128  1
  H  H5  1  0.29701786  0.66272745  0.30478925  1
  H  H6  1  0.93489152  0.50302256  0.55966922  1
  H  H7  1  0.44647803  0.49349072  0.43775340  1
  H  H8  1  0.87231459  0.93760440  0.95805824  1
  H  H9  1  0.37010859  0.06727628  0.04169537  1
  H  H10  1  0.18271310  0.80129587  0.55384937  1
  H  H11  1  0.68025691  0.19810354  0.44233437  1
  H  H12  1  0.08426236  0.54021766  0.68508253  1
  H  H13  1  0.57629412  0.46172110  0.30716523  1
  H  H14  1  0.88473728  0.70974945  0.89012005  1
  H  H15  1  0.39591644  0.29805930  0.11599718  1
  H  H16  1  0.96620300  0.92988564  0.40331197  1
  H  H17  1  0.46352337  0.07046421  0.59531439  1
  H  H18  1  0.03641927  0.94300441  0.61351127  1
  H  H19  1  0.53056005  0.05698420  0.38530800  1
  H  H20  1  0.78249588  0.17947449  0.90842085  1
  H  H21  1  0.29146776  0.82183928  0.09036641  1
  H  H22  1  0.91363099  0.32086372  0.95084684  1
  H  H23  1  0.40994841  0.67263593  0.06401858  1
  H  H24  1  0.12965493  0.78481890  0.81756283  1
  H  H25  1  0.63054890  0.21065600  0.18633868  1
  H  H26  1  0.38301326  0.45501820  0.94554766  1
  H  H27  1  0.59988672  0.49273965  0.04283437  1
  C  C28  1  0.50852010  0.48304750  0.75370161  1
  C  C29  1  0.00692129  0.51923089  0.24516893  1
  C  C30  1  0.61544944  0.97266478  0.82069834  1
  C  C31  1  0.11111110  0.03128478  0.17852375  1
  C  C32  1  0.63695108  0.80574200  0.43703459  1
  C  C33  1  0.13458258  0.19643798  0.56384247  1
  N  N34  1  0.87020651  0.87482052  0.46527534  1
  N  N35  1  0.36985748  0.12844617  0.53504920  1
  N  N36  1  0.73503884  0.43810204  0.69664556  1
  N  N37  1  0.22149955  0.56426681  0.31133992  1
  N  N38  1  0.83267344  0.91312165  0.87268482  1
  N  N39  1  0.32622470  0.09250665  0.12637693  1
  N  N40  1  0.99978766  0.84972688  0.57083500  1
  N  N41  1  0.49633182  0.15087111  0.42788304  1
  N  N42  1  0.92515784  0.78245360  0.83002256  1
  N  N43  1  0.42758157  0.21910214  0.17236350  1
  N  N44  1  0.90123810  0.53620092  0.64379769  1
  N  N45  1  0.39959553  0.46382394  0.35433202  1
  O  O46  1  0.51989536  0.08344657  0.87017400  1
  O  O47  1  0.01308721  0.92327192  0.12628269  1
  O  O48  1  0.95735275  0.22535532  0.92940652  1
  O  O49  1  0.46108665  0.77114420  0.07129229  1
  O  O50  1  0.52593167  0.91910001  0.72526075  1
  O  O51  1  0.02497446  0.08117632  0.27647351  1
  O  O52  1  0.37124492  0.39390266  0.80831267  1
  O  O53  1  0.87479418  0.60771124  0.18999818  1
  O  O54  1  0.44170535  0.61186159  0.75049545  1
  O  O55  1  0.94337373  0.38934811  0.24755319  1
  O  O56  1  0.53763826  0.82568877  0.33778655  1
  O  O57  1  0.03568508  0.17630834  0.66418807  1
  O  O58  1  0.52882751  0.72850669  0.51358922  1
  O  O59  1  0.02464337  0.27368066  0.48871130  1
  O  O60  1  0.40718576  0.48089733  0.02961799  1
