# generated using pymatgen
data_K5In3P6Se19
_symmetry_space_group_name_H-M   'P 1'
_cell_length_a   7.89838685
_cell_length_b   13.54156512
_cell_length_c   18.84881281
_cell_angle_alpha   86.73318684
_cell_angle_beta   88.42486423
_cell_angle_gamma   81.78960503
_symmetry_Int_Tables_number   1
_chemical_formula_structural   K5In3P6Se19
_chemical_formula_sum   'K10 In6 P12 Se38'
_cell_volume   1991.71564708
_cell_formula_units_Z   2
loop_
 _symmetry_equiv_pos_site_id
 _symmetry_equiv_pos_as_xyz
  1  'x, y, z'
loop_
 _atom_site_type_symbol
 _atom_site_label
 _atom_site_symmetry_multiplicity
 _atom_site_fract_x
 _atom_site_fract_y
 _atom_site_fract_z
 _atom_site_occupancy
  K  K0  1  0.73227298  0.40667494  0.07547524  1
  K  K1  1  0.26772702  0.59332506  0.92452476  1
  K  K2  1  0.94990210  0.15503498  0.44165803  1
  K  K3  1  0.05009790  0.84496502  0.55834197  1
  K  K4  1  0.75040641  0.78414141  0.20482929  1
  K  K5  1  0.24959359  0.21585859  0.79517071  1
  K  K6  1  0.57258571  0.64704300  0.39131010  1
  K  K7  1  0.42741429  0.35295700  0.60868990  1
  K  K8  1  0.23768536  0.88503555  0.08967912  1
  K  K9  1  0.76231464  0.11496445  0.91032088  1
  In  In10  1  0.50594101  0.09855744  0.32951586  1
  In  In11  1  0.49405899  0.90144256  0.67048414  1
  In  In12  1  0.24421850  0.26397650  0.15858106  1
  In  In13  1  0.75578150  0.73602350  0.84141894  1
  In  In14  1  0.18259654  0.43516473  0.32198957  1
  In  In15  1  0.81740346  0.56483527  0.67801043  1
  P  P16  1  0.63989809  0.05905213  0.13181714  1
  P  P17  1  0.36010191  0.94094787  0.86818286  1
  P  P18  1  0.86162319  0.09942282  0.19625628  1
  P  P19  1  0.13837681  0.90057718  0.80374372  1
  P  P20  1  0.12365336  0.56979832  0.14204571  1
  P  P21  1  0.87634664  0.43020168  0.85795429  1
  P  P22  1  0.37463777  0.60748194  0.18678330  1
  P  P23  1  0.62536223  0.39251806  0.81321670  1
  P  P24  1  0.91189755  0.43918307  0.50637849  1
  P  P25  1  0.08810245  0.56081693  0.49362151  1
  P  P26  1  0.50292720  0.93485207  0.46433404  1
  P  P27  1  0.49707280  0.06514793  0.53566596  1
  Se  Se28  1  0.21328508  0.23984651  0.29552001  1
  Se  Se29  1  0.78671492  0.76015349  0.70447999  1
  Se  Se30  1  0.45903844  0.99956492  0.21013015  1
  Se  Se31  1  0.54096156  0.00043508  0.78986985  1
  Se  Se32  1  0.51560345  0.20380923  0.07813771  1
  Se  Se33  1  0.48439655  0.79619077  0.92186229  1
  Se  Se34  1  0.73802991  0.95153074  0.05595926  1
  Se  Se35  1  0.26197009  0.04846926  0.94404074  1
  Se  Se36  1  0.73928845  0.21228111  0.27076000  1
  Se  Se37  1  0.26071155  0.78771889  0.72924000  1
  Se  Se38  1  0.99951063  0.17127103  0.10476378  1
  Se  Se39  1  0.00048937  0.82872897  0.89523622  1
  Se  Se40  1  0.00050201  0.96615071  0.24565756  1
  Se  Se41  1  0.99949799  0.03384929  0.75434244  1
  Se  Se42  1  0.17899309  0.43396239  0.07612218  1
  Se  Se43  1  0.82100691  0.56603761  0.92387782  1
  Se  Se44  1  0.95023226  0.53489556  0.23449313  1
  Se  Se45  1  0.04976774  0.46510444  0.76550687  1
  Se  Se46  1  0.01013903  0.69218053  0.07261572  1
  Se  Se47  1  0.98986097  0.30781947  0.92738428  1
  Se  Se48  1  0.47583780  0.46125179  0.24224412  1
  Se  Se49  1  0.52416220  0.53874821  0.75775588  1
  Se  Se50  1  0.30663909  0.73011535  0.25617574  1
  Se  Se51  1  0.69336091  0.26988465  0.74382426  1
  Se  Se52  1  0.53216091  0.64065070  0.09481224  1
  Se  Se53  1  0.46783909  0.35934930  0.90518776  1
  Se  Se54  1  0.84321170  0.41305744  0.39645954  1
  Se  Se55  1  0.15678830  0.58694256  0.60354046  1
  Se  Se56  1  0.02150148  0.30983833  0.56916328  1
  Se  Se57  1  0.97849852  0.69016167  0.43083672  1
  Se  Se58  1  0.67745975  0.52543912  0.55781214  1
  Se  Se59  1  0.32254025  0.47456088  0.44218786  1
  Se  Se60  1  0.27729135  0.96583775  0.39509008  1
  Se  Se61  1  0.72270865  0.03416225  0.60490992  1
  Se  Se62  1  0.73292657  0.93947326  0.39273927  1
  Se  Se63  1  0.26707343  0.06052674  0.60726073  1
  Se  Se64  1  0.50811246  0.80268430  0.53861365  1
  Se  Se65  1  0.49188754  0.19731570  0.46138635  1
