# generated using pymatgen
data_Ca2Al2Si6Sn(H3O11)2
_symmetry_space_group_name_H-M   'P 1'
_cell_length_a   7.56046479
_cell_length_b   7.82988081
_cell_length_c   16.03065712
_cell_angle_alpha   90.00000000
_cell_angle_beta   101.04470219
_cell_angle_gamma   90.00000000
_symmetry_Int_Tables_number   1
_chemical_formula_structural   Ca2Al2Si6Sn(H3O11)2
_chemical_formula_sum   'Ca4 Al4 Si12 Sn2 H12 O44'
_cell_volume   931.39852817
_cell_formula_units_Z   2
loop_
 _symmetry_equiv_pos_site_id
 _symmetry_equiv_pos_as_xyz
  1  'x, y, z'
loop_
 _atom_site_type_symbol
 _atom_site_label
 _atom_site_symmetry_multiplicity
 _atom_site_fract_x
 _atom_site_fract_y
 _atom_site_fract_z
 _atom_site_occupancy
  Ca  Ca0  1  0.99734490  0.81133828  0.20042953  1
  Ca  Ca1  1  0.00265510  0.31133828  0.29957047  1
  Ca  Ca2  1  0.00265510  0.18866172  0.79957047  1
  Ca  Ca3  1  0.99734490  0.68866172  0.70042953  1
  Al  Al4  1  0.32041595  0.52176447  0.22859861  1
  Al  Al5  1  0.67958405  0.02176447  0.27140139  1
  Al  Al6  1  0.67958405  0.47823553  0.77140139  1
  Al  Al7  1  0.32041595  0.97823553  0.72859861  1
  Si  Si8  1  0.28701524  0.66923780  0.04367813  1
  Si  Si9  1  0.71298476  0.16923780  0.45632187  1
  Si  Si10  1  0.71298476  0.33076220  0.95632187  1
  Si  Si11  1  0.28701524  0.83076220  0.54367813  1
  Si  Si12  1  0.69366376  0.64525335  0.33356865  1
  Si  Si13  1  0.30633624  0.14525335  0.16643135  1
  Si  Si14  1  0.30633624  0.35474665  0.66643135  1
  Si  Si15  1  0.69366376  0.85474665  0.83356865  1
  Si  Si16  1  0.66762071  0.71629489  0.00698786  1
  Si  Si17  1  0.33237929  0.21629489  0.49301214  1
  Si  Si18  1  0.33237929  0.28370511  0.99301214  1
  Si  Si19  1  0.66762071  0.78370511  0.50698786  1
  Sn  Sn20  1  -0.00000000  0.50000000  0.50000000  1
  Sn  Sn21  1  -0.00000000  -0.00000000  0.00000000  1
  H  H22  1  0.72547324  0.50956749  0.18844607  1
  H  H23  1  0.27452676  0.00956749  0.31155393  1
  H  H24  1  0.27452676  0.49043251  0.81155393  1
  H  H25  1  0.72547324  0.99043251  0.68844607  1
  H  H26  1  0.84715604  0.46799593  0.12141045  1
  H  H27  1  0.15284396  0.96799593  0.37858955  1
  H  H28  1  0.15284396  0.53200407  0.87858955  1
  H  H29  1  0.84715604  0.03200407  0.62141045  1
  H  H30  1  0.21593556  0.63189153  0.35665468  1
  H  H31  1  0.78406444  0.13189153  0.14334532  1
  H  H32  1  0.78406444  0.36810847  0.64334532  1
  H  H33  1  0.21593556  0.86810847  0.85665468  1
  O  O34  1  0.16328388  0.69841750  0.47972528  1
  O  O35  1  0.83671612  0.19841750  0.02027472  1
  O  O36  1  0.83671612  0.30158250  0.52027472  1
  O  O37  1  0.16328388  0.80158250  0.97972528  1
  O  O38  1  0.26510586  0.48391729  0.99259373  1
  O  O39  1  0.73489414  0.98391729  0.50740627  1
  O  O40  1  0.73489414  0.51608271  0.00740627  1
  O  O41  1  0.26510586  0.01608271  0.49259373  1
  O  O42  1  0.76297169  0.80945298  0.28472600  1
  O  O43  1  0.23702831  0.30945298  0.21527400  1
  O  O44  1  0.23702831  0.19054702  0.71527400  1
  O  O45  1  0.76297169  0.69054702  0.78472600  1
  O  O46  1  0.86198885  0.52228411  0.37545429  1
  O  O47  1  0.13801115  0.02228411  0.12454571  1
  O  O48  1  0.13801115  0.47771589  0.62454571  1
  O  O49  1  0.86198885  0.97771589  0.87545429  1
  O  O50  1  0.23398159  0.64407383  0.13666623  1
  O  O51  1  0.76601841  0.14407383  0.36333377  1
  O  O52  1  0.76601841  0.35592617  0.86333377  1
  O  O53  1  0.23398159  0.85592617  0.63666623  1
  O  O54  1  0.83541567  0.83232276  0.05473102  1
  O  O55  1  0.16458433  0.33232276  0.44526898  1
  O  O56  1  0.16458433  0.16767724  0.94526898  1
  O  O57  1  0.83541567  0.66767724  0.55473102  1
  O  O58  1  0.55351082  0.53393384  0.26455968  1
  O  O59  1  0.44648918  0.03393384  0.23544032  1
  O  O60  1  0.44648918  0.46606616  0.73544032  1
  O  O61  1  0.55351082  0.96606616  0.76455968  1
  O  O62  1  0.85223975  0.50327648  0.18109626  1
  O  O63  1  0.14776025  0.00327648  0.31890374  1
  O  O64  1  0.14776025  0.49672352  0.81890374  1
  O  O65  1  0.85223975  0.99672352  0.68109626  1
  O  O66  1  0.18145990  0.60522966  0.29631937  1
  O  O67  1  0.81854010  0.10522966  0.20368063  1
  O  O68  1  0.81854010  0.39477034  0.70368063  1
  O  O69  1  0.18145990  0.89477034  0.79631937  1
  O  O70  1  0.50178857  0.72409485  0.05869185  1
  O  O71  1  0.49821143  0.22409485  0.44130815  1
  O  O72  1  0.49821143  0.27590515  0.94130815  1
  O  O73  1  0.50178857  0.77590515  0.55869185  1
  O  O74  1  0.59351745  0.72337648  0.40835634  1
  O  O75  1  0.40648255  0.22337648  0.09164366  1
  O  O76  1  0.40648255  0.27662352  0.59164366  1
  O  O77  1  0.59351745  0.77662352  0.90835634  1
