# generated using pymatgen
data_Cs3LaBr6
_symmetry_space_group_name_H-M   'P 1'
_cell_length_a   8.88673926
_cell_length_b   14.21499815
_cell_length_c   15.20555150
_cell_angle_alpha   98.65368062
_cell_angle_beta   106.99092605
_cell_angle_gamma   90.00000000
_symmetry_Int_Tables_number   1
_chemical_formula_structural   Cs3LaBr6
_chemical_formula_sum   'Cs12 La4 Br24'
_cell_volume   1814.12082768
_cell_formula_units_Z   4
loop_
 _symmetry_equiv_pos_site_id
 _symmetry_equiv_pos_as_xyz
  1  'x, y, z'
loop_
 _atom_site_type_symbol
 _atom_site_label
 _atom_site_symmetry_multiplicity
 _atom_site_fract_x
 _atom_site_fract_y
 _atom_site_fract_z
 _atom_site_occupancy
  Cs  Cs0  1  0.83694835  0.14560803  0.30966236  1
  Cs  Cs1  1  0.52728599  0.35439197  0.69033764  1
  Cs  Cs2  1  0.16305165  0.85439197  0.69033764  1
  Cs  Cs3  1  0.47271401  0.64560803  0.30966236  1
  Cs  Cs4  1  0.33133024  0.92634100  0.09814756  1
  Cs  Cs5  1  0.23318269  0.57365900  0.90185244  1
  Cs  Cs6  1  0.66866976  0.07365900  0.90185244  1
  Cs  Cs7  1  0.76681731  0.42634100  0.09814756  1
  Cs  Cs8  1  0.65813524  0.69965860  0.67742562  1
  Cs  Cs9  1  0.98070962  0.80034140  0.32257438  1
  Cs  Cs10  1  0.34186476  0.30034140  0.32257438  1
  Cs  Cs11  1  0.01929038  0.19965860  0.67742562  1
  La  La12  1  0.50000000  -0.00000000  0.50000000  1
  La  La13  1  -0.00000000  0.50000000  0.50000000  1
  La  La14  1  0.80138080  0.75000000  -0.00000000  1
  La  La15  1  0.19861920  0.25000000  0.00000000  1
  Br  Br16  1  0.62491661  0.91968142  0.34469170  1
  Br  Br17  1  0.28022491  0.58031858  0.65530830  1
  Br  Br18  1  0.37508339  0.08031858  0.65530830  1
  Br  Br19  1  0.71977509  0.41968142  0.34469170  1
  Br  Br20  1  0.51042523  0.82040669  0.87901966  1
  Br  Br21  1  0.63140558  0.67959331  0.12098034  1
  Br  Br22  1  0.48957477  0.17959331  0.12098034  1
  Br  Br23  1  0.36859442  0.32040669  0.87901966  1
  Br  Br24  1  0.21834933  0.03387302  0.35054074  1
  Br  Br25  1  0.86780859  0.46612698  0.64945926  1
  Br  Br26  1  0.78165067  0.96612698  0.64945926  1
  Br  Br27  1  0.13219141  0.53387302  0.35054074  1
  Br  Br28  1  0.63739393  0.19120812  0.49933930  1
  Br  Br29  1  0.13805463  0.30879188  0.50066070  1
  Br  Br30  1  0.36260607  0.80879188  0.50066070  1
  Br  Br31  1  0.86194537  0.69120812  0.49933930  1
  Br  Br32  1  0.83003563  0.93808126  0.11405707  1
  Br  Br33  1  0.71597856  0.56191874  0.88594293  1
  Br  Br34  1  0.16996437  0.06191874  0.88594293  1
  Br  Br35  1  0.28402144  0.43808126  0.11405707  1
  Br  Br36  1  0.98956819  0.79551497  0.87897368  1
  Br  Br37  1  0.11059452  0.70448503  0.12102632  1
  Br  Br38  1  0.01043181  0.20448503  0.12102632  1
  Br  Br39  1  0.88940548  0.29551497  0.87897368  1
