# generated using pymatgen
data_LaYS3
_symmetry_space_group_name_H-M   'P 1'
_cell_length_a   4.03379219
_cell_length_b   11.14370711
_cell_length_c   21.83288667
_cell_angle_alpha   101.40669488
_cell_angle_beta   90.00000000
_cell_angle_gamma   90.00000000
_symmetry_Int_Tables_number   1
_chemical_formula_structural   LaYS3
_chemical_formula_sum   'La8 Y8 S24'
_cell_volume   962.03388096
_cell_formula_units_Z   8
loop_
 _symmetry_equiv_pos_site_id
 _symmetry_equiv_pos_as_xyz
  1  'x, y, z'
loop_
 _atom_site_type_symbol
 _atom_site_label
 _atom_site_symmetry_multiplicity
 _atom_site_fract_x
 _atom_site_fract_y
 _atom_site_fract_z
 _atom_site_occupancy
  La  La0  1  0.25000000  0.69725186  0.76550357  1
  La  La1  1  0.75000000  0.30274814  0.23449643  1
  La  La2  1  0.25000000  0.09193930  0.86309628  1
  La  La3  1  0.75000000  0.90806070  0.13690372  1
  La  La4  1  0.25000000  0.30860199  0.73182445  1
  La  La5  1  0.75000000  0.69139801  0.26817555  1
  La  La6  1  0.25000000  0.19981272  0.53608665  1
  La  La7  1  0.75000000  0.80018728  0.46391335  1
  Y  Y8  1  0.25000000  0.44777325  0.41700276  1
  Y  Y9  1  0.75000000  0.55222675  0.58299724  1
  Y  Y10  1  0.25000000  0.02935157  0.35106834  1
  Y  Y11  1  0.75000000  0.97064843  0.64893166  1
  Y  Y12  1  0.25000000  0.17885519  0.04689901  1
  Y  Y13  1  0.75000000  0.82114481  0.95310099  1
  Y  Y14  1  0.25000000  0.52353433  0.08834940  1
  Y  Y15  1  0.75000000  0.47646567  0.91165060  1
  S  S16  1  0.25000000  0.91398620  0.03722513  1
  S  S17  1  0.75000000  0.08601380  0.96277487  1
  S  S18  1  0.25000000  0.79426789  0.36625081  1
  S  S19  1  0.75000000  0.20573211  0.63374919  1
  S  S20  1  0.25000000  0.25482283  0.32370321  1
  S  S21  1  0.75000000  0.74517717  0.67629679  1
  S  S22  1  0.25000000  0.36353241  0.96384819  1
  S  S23  1  0.75000000  0.63646759  0.03615181  1
  S  S24  1  0.25000000  0.49427781  0.22157132  1
  S  S25  1  0.75000000  0.50572219  0.77842868  1
  S  S26  1  0.25000000  0.74853236  0.17459586  1
  S  S27  1  0.75000000  0.25146764  0.82540414  1
  S  S28  1  0.25000000  0.12414929  0.16432983  1
  S  S29  1  0.75000000  0.87585071  0.83567017  1
  S  S30  1  0.25000000  0.64529717  0.51437595  1
  S  S31  1  0.75000000  0.35470283  0.48562405  1
  S  S32  1  0.25000000  0.94245145  0.55562432  1
  S  S33  1  0.75000000  0.05754855  0.44437568  1
  S  S34  1  0.25000000  0.03844071  0.72872709  1
  S  S35  1  0.75000000  0.96155929  0.27127291  1
  S  S36  1  0.25000000  0.45214779  0.63338866  1
  S  S37  1  0.75000000  0.54785221  0.36661134  1
  S  S38  1  0.25000000  0.65780871  0.90051820  1
  S  S39  1  0.75000000  0.34219129  0.09948180  1
