# generated using pymatgen
data_Nd2V2H2Se4O17
_symmetry_space_group_name_H-M   'P 1'
_cell_length_a   7.05956150
_cell_length_b   8.35516859
_cell_length_c   13.30928761
_cell_angle_alpha   91.14469187
_cell_angle_beta   105.37954116
_cell_angle_gamma   90.00000000
_symmetry_Int_Tables_number   1
_chemical_formula_structural   Nd2V2H2Se4O17
_chemical_formula_sum   'Nd4 V4 H4 Se8 O34'
_cell_volume   756.75833410
_cell_formula_units_Z   2
loop_
 _symmetry_equiv_pos_site_id
 _symmetry_equiv_pos_as_xyz
  1  'x, y, z'
loop_
 _atom_site_type_symbol
 _atom_site_label
 _atom_site_symmetry_multiplicity
 _atom_site_fract_x
 _atom_site_fract_y
 _atom_site_fract_z
 _atom_site_occupancy
  Nd  Nd0  1  0.64348267  0.79647845  0.43810282  1
  Nd  Nd1  1  0.20537985  0.70352155  0.56189718  1
  Nd  Nd2  1  0.35651733  0.20352155  0.56189718  1
  Nd  Nd3  1  0.79462015  0.29647845  0.43810282  1
  V  V4  1  0.82708184  0.19906949  0.10126583  1
  V  V5  1  0.72581601  0.30093051  0.89873417  1
  V  V6  1  0.17291816  0.80093051  0.89873417  1
  V  V7  1  0.27418399  0.69906949  0.10126583  1
  H  H8  1  0.32624857  0.15897959  0.98489659  1
  H  H9  1  0.34135198  0.34102041  0.01510341  1
  H  H10  1  0.67375143  0.84102041  0.01510341  1
  H  H11  1  0.65864802  0.65897959  0.98489659  1
  Se  Se12  1  0.75331562  0.55333891  0.64622741  1
  Se  Se13  1  0.10708821  0.94666109  0.35377259  1
  Se  Se14  1  0.24668438  0.44666109  0.35377259  1
  Se  Se15  1  0.89291179  0.05333891  0.64622741  1
  Se  Se16  1  0.51854221  0.02489635  0.20765956  1
  Se  Se17  1  0.31088265  0.47510365  0.79234044  1
  Se  Se18  1  0.48145779  0.97510365  0.79234044  1
  Se  Se19  1  0.68911735  0.52489635  0.20765956  1
  O  O20  1  0.86739145  0.56965432  0.54364962  1
  O  O21  1  0.32374183  0.93034568  0.45635038  1
  O  O22  1  0.13260855  0.43034568  0.45635038  1
  O  O23  1  0.67625817  0.06965432  0.54364962  1
  O  O24  1  0.56687144  0.68889380  0.59894402  1
  O  O25  1  0.96792742  0.81110620  0.40105598  1
  O  O26  1  0.43312856  0.31110620  0.40105598  1
  O  O27  1  0.03207258  0.18889380  0.59894402  1
  O  O28  1  0.65464470  0.36816936  0.60651517  1
  O  O29  1  0.04812953  0.13183064  0.39348483  1
  O  O30  1  0.34535530  0.63183064  0.39348483  1
  O  O31  1  0.95187047  0.86816936  0.60651517  1
  O  O32  1  0.72170969  0.01373661  0.15558281  1
  O  O33  1  0.56612688  0.48626339  0.84441719  1
  O  O34  1  0.27829031  0.98626339  0.84441719  1
  O  O35  1  0.43387312  0.51373661  0.15558281  1
  O  O36  1  0.47404313  0.81892051  0.21698877  1
  O  O37  1  0.25705436  0.68107949  0.78301123  1
  O  O38  1  0.52595687  0.18107949  0.78301123  1
  O  O39  1  0.74294564  0.31892051  0.21698877  1
  O  O40  1  0.63298809  0.04751553  0.33767710  1
  O  O41  1  0.29531098  0.45248447  0.66232290  1
  O  O42  1  0.36701191  0.95248447  0.66232290  1
  O  O43  1  0.70468902  0.54751553  0.33767710  1
  O  O44  1  0.06223160  0.17686096  0.14979340  1
  O  O45  1  0.91243820  0.32313904  0.85020660  1
  O  O46  1  0.93776840  0.82313904  0.85020660  1
  O  O47  1  0.08756180  0.67686096  0.14979340  1
  O  O48  1  0.76670790  0.10914532  0.96896715  1
  O  O49  1  0.79774075  0.39085468  0.03103285  1
  O  O50  1  0.23329210  0.89085468  0.03103285  1
  O  O51  1  0.20225925  0.60914532  0.96896715  1
  O  O52  1  0.41657965  0.25000000  0.00000000  1
  O  O53  1  0.58342035  0.75000000  0.00000000  1
