# generated using pymatgen
data_Nd3RuO7
_symmetry_space_group_name_H-M   'P 1'
_cell_length_a   7.50389370
_cell_length_b   7.60297734
_cell_length_c   10.96906878
_cell_angle_alpha   90.00000000
_cell_angle_beta   89.99526225
_cell_angle_gamma   90.00000000
_symmetry_Int_Tables_number   1
_chemical_formula_structural   Nd3RuO7
_chemical_formula_sum   'Nd12 Ru4 O28'
_cell_volume   625.80658350
_cell_formula_units_Z   4
loop_
 _symmetry_equiv_pos_site_id
 _symmetry_equiv_pos_as_xyz
  1  'x, y, z'
loop_
 _atom_site_type_symbol
 _atom_site_label
 _atom_site_symmetry_multiplicity
 _atom_site_fract_x
 _atom_site_fract_y
 _atom_site_fract_z
 _atom_site_occupancy
  Nd  Nd0  1  0.00000000  0.50000000  -0.00000000  1
  Nd  Nd1  1  0.00000000  0.00000000  -0.00000000  1
  Nd  Nd2  1  0.50000000  0.50000000  0.50000000  1
  Nd  Nd3  1  0.50000000  0.00000000  0.50000000  1
  Nd  Nd4  1  0.30361443  0.25000000  0.21831202  1
  Nd  Nd5  1  0.69638557  0.75000000  0.78168798  1
  Nd  Nd6  1  0.30869098  0.25000000  0.77560321  1
  Nd  Nd7  1  0.69130902  0.75000000  0.22439679  1
  Nd  Nd8  1  0.80993543  0.25000000  0.72359882  1
  Nd  Nd9  1  0.19006457  0.75000000  0.27640118  1
  Nd  Nd10  1  0.80196267  0.25000000  0.28140264  1
  Nd  Nd11  1  0.19803733  0.75000000  0.71859736  1
  Ru  Ru12  1  0.50000000  0.50000000  -0.00000000  1
  Ru  Ru13  1  0.50000000  0.00000000  -0.00000000  1
  Ru  Ru14  1  0.00000000  0.50000000  0.50000000  1
  Ru  Ru15  1  0.00000000  0.00000000  0.50000000  1
  O  O16  1  0.41860542  0.25000000  0.99425577  1
  O  O17  1  0.58139458  0.75000000  0.00574423  1
  O  O18  1  0.91627679  0.25000000  0.50172356  1
  O  O19  1  0.08372321  0.75000000  0.49827644  1
  O  O20  1  0.01930929  0.25000000  0.13216828  1
  O  O21  1  0.98069071  0.75000000  0.86783172  1
  O  O22  1  0.03351202  0.25000000  0.86877744  1
  O  O23  1  0.96648798  0.75000000  0.13122256  1
  O  O24  1  0.53294269  0.25000000  0.63284116  1
  O  O25  1  0.46705731  0.75000000  0.36715884  1
  O  O26  1  0.51912654  0.25000000  0.36935516  1
  O  O27  1  0.48087346  0.75000000  0.63064484  1
  O  O28  1  0.29979123  0.53627271  0.11726342  1
  O  O29  1  0.70020877  0.03627271  0.88273658  1
  O  O30  1  0.70020877  0.46372729  0.88273658  1
  O  O31  1  0.29979123  0.96372729  0.11726342  1
  O  O32  1  0.33181631  0.54155617  0.86510092  1
  O  O33  1  0.66818369  0.04155617  0.13489908  1
  O  O34  1  0.66818369  0.45844383  0.13489908  1
  O  O35  1  0.33181631  0.95844383  0.86510092  1
  O  O36  1  0.82264938  0.53977142  0.63053638  1
  O  O37  1  0.17735062  0.03977142  0.36946362  1
  O  O38  1  0.17735062  0.46022858  0.36946362  1
  O  O39  1  0.82264938  0.96022858  0.63053638  1
  O  O40  1  0.80735769  0.54005948  0.37877688  1
  O  O41  1  0.19264231  0.04005948  0.62122312  1
  O  O42  1  0.19264231  0.45994052  0.62122312  1
  O  O43  1  0.80735769  0.95994052  0.37877688  1
