# generated using pymatgen
data_Yb36Sn23
_symmetry_space_group_name_H-M   'P 1'
_cell_length_a   12.35344077
_cell_length_b   12.35344077
_cell_length_c   23.48028722
_cell_angle_alpha   90.00000000
_cell_angle_beta   90.00000000
_cell_angle_gamma   90.00000000
_symmetry_Int_Tables_number   1
_chemical_formula_structural   Yb36Sn23
_chemical_formula_sum   'Yb72 Sn46'
_cell_volume   3583.26790511
_cell_formula_units_Z   2
loop_
 _symmetry_equiv_pos_site_id
 _symmetry_equiv_pos_as_xyz
  1  'x, y, z'
loop_
 _atom_site_type_symbol
 _atom_site_label
 _atom_site_symmetry_multiplicity
 _atom_site_fract_x
 _atom_site_fract_y
 _atom_site_fract_z
 _atom_site_occupancy
  Yb  Yb0  1  0.00000000  0.50000000  0.87294642  1
  Yb  Yb1  1  0.50000000  0.00000000  0.87294642  1
  Yb  Yb2  1  0.00000000  0.50000000  0.12705358  1
  Yb  Yb3  1  0.50000000  0.00000000  0.12705358  1
  Yb  Yb4  1  0.00000000  0.50000000  0.72093989  1
  Yb  Yb5  1  0.50000000  0.00000000  0.72093989  1
  Yb  Yb6  1  0.00000000  0.50000000  0.27906011  1
  Yb  Yb7  1  0.50000000  0.00000000  0.27906011  1
  Yb  Yb8  1  0.00000000  0.50000000  0.57177121  1
  Yb  Yb9  1  0.50000000  0.00000000  0.57177121  1
  Yb  Yb10  1  0.00000000  0.50000000  0.42822879  1
  Yb  Yb11  1  0.50000000  0.00000000  0.42822879  1
  Yb  Yb12  1  0.33170988  0.83170988  -0.00000000  1
  Yb  Yb13  1  0.66829012  0.16829012  -0.00000000  1
  Yb  Yb14  1  0.16829012  0.33170988  -0.00000000  1
  Yb  Yb15  1  0.83170988  0.66829012  -0.00000000  1
  Yb  Yb16  1  0.71358601  0.58232087  0.50000000  1
  Yb  Yb17  1  0.28641399  0.41767913  0.50000000  1
  Yb  Yb18  1  0.78641399  0.08232087  0.50000000  1
  Yb  Yb19  1  0.21358601  0.91767913  0.50000000  1
  Yb  Yb20  1  0.58232087  0.28641399  0.50000000  1
  Yb  Yb21  1  0.41767913  0.71358601  0.50000000  1
  Yb  Yb22  1  0.08232087  0.21358601  0.50000000  1
  Yb  Yb23  1  0.91767913  0.78641399  0.50000000  1
  Yb  Yb24  1  0.78906753  0.91327959  0.63025843  1
  Yb  Yb25  1  0.21093247  0.08672041  0.63025843  1
  Yb  Yb26  1  0.71093247  0.41327959  0.63025843  1
  Yb  Yb27  1  0.28906753  0.58672041  0.63025843  1
  Yb  Yb28  1  0.91327959  0.21093247  0.63025843  1
  Yb  Yb29  1  0.08672041  0.78906753  0.63025843  1
  Yb  Yb30  1  0.41327959  0.28906753  0.63025843  1
  Yb  Yb31  1  0.58672041  0.71093247  0.63025843  1
  Yb  Yb32  1  0.21093247  0.08672041  0.36974157  1
  Yb  Yb33  1  0.78906753  0.91327959  0.36974157  1
  Yb  Yb34  1  0.28906753  0.58672041  0.36974157  1
  Yb  Yb35  1  0.71093247  0.41327959  0.36974157  1
  Yb  Yb36  1  0.08672041  0.78906753  0.36974157  1
  Yb  Yb37  1  0.91327959  0.21093247  0.36974157  1
  Yb  Yb38  1  0.58672041  0.71093247  0.36974157  1
  Yb  Yb39  1  0.41327959  0.28906753  0.36974157  1
  Yb  Yb40  1  0.71518309  0.57541036  0.75932002  1
  Yb  Yb41  1  0.28481691  0.42458964  0.75932002  1
  Yb  Yb42  1  0.78481691  0.07541036  0.75932002  1
  Yb  Yb43  1  0.21518309  0.92458964  0.75932002  1
  Yb  Yb44  1  0.57541036  0.28481691  0.75932002  1
  Yb  Yb45  1  0.42458964  0.71518309  0.75932002  1
  Yb  Yb46  1  0.07541036  0.21518309  0.75932002  1
  Yb  Yb47  1  0.92458964  0.78481691  0.75932002  1
  Yb  Yb48  1  0.28481691  0.42458964  0.24067998  1
  Yb  Yb49  1  0.71518309  0.57541036  0.24067998  1
  Yb  Yb50  1  0.21518309  0.92458964  0.24067998  1
  Yb  Yb51  1  0.78481691  0.07541036  0.24067998  1
  Yb  Yb52  1  0.42458964  0.71518309  0.24067998  1
  Yb  Yb53  1  0.57541036  0.28481691  0.24067998  1
  Yb  Yb54  1  0.92458964  0.78481691  0.24067998  1
  Yb  Yb55  1  0.07541036  0.21518309  0.24067998  1
  Yb  Yb56  1  0.29163164  0.55435081  0.91033948  1
  Yb  Yb57  1  0.70836836  0.44564919  0.91033948  1
  Yb  Yb58  1  0.20836836  0.05435081  0.91033948  1
  Yb  Yb59  1  0.79163164  0.94564919  0.91033948  1
  Yb  Yb60  1  0.55435081  0.70836836  0.91033948  1
  Yb  Yb61  1  0.44564919  0.29163164  0.91033948  1
  Yb  Yb62  1  0.05435081  0.79163164  0.91033948  1
  Yb  Yb63  1  0.94564919  0.20836836  0.91033948  1
  Yb  Yb64  1  0.70836836  0.44564919  0.08966052  1
  Yb  Yb65  1  0.29163164  0.55435081  0.08966052  1
  Yb  Yb66  1  0.79163164  0.94564919  0.08966052  1
  Yb  Yb67  1  0.20836836  0.05435081  0.08966052  1
  Yb  Yb68  1  0.44564919  0.29163164  0.08966052  1
  Yb  Yb69  1  0.55435081  0.70836836  0.08966052  1
  Yb  Yb70  1  0.94564919  0.20836836  0.08966052  1
  Yb  Yb71  1  0.05435081  0.79163164  0.08966052  1
  Sn  Sn72  1  0.50000000  0.50000000  0.83389898  1
  Sn  Sn73  1  0.00000000  0.00000000  0.83389898  1
  Sn  Sn74  1  0.50000000  0.50000000  0.16610102  1
  Sn  Sn75  1  0.00000000  0.00000000  0.16610102  1
  Sn  Sn76  1  0.50000000  0.50000000  0.69957394  1
  Sn  Sn77  1  0.00000000  0.00000000  0.69957394  1
  Sn  Sn78  1  0.50000000  0.50000000  0.30042606  1
  Sn  Sn79  1  0.00000000  0.00000000  0.30042606  1
  Sn  Sn80  1  0.50000000  0.50000000  0.56517366  1
  Sn  Sn81  1  0.00000000  0.00000000  0.56517366  1
  Sn  Sn82  1  0.50000000  0.50000000  0.43482634  1
  Sn  Sn83  1  0.00000000  0.00000000  0.43482634  1
  Sn  Sn84  1  0.08689297  0.58689297  -0.00000000  1
  Sn  Sn85  1  0.91310703  0.41310703  -0.00000000  1
  Sn  Sn86  1  0.41310703  0.08689297  -0.00000000  1
  Sn  Sn87  1  0.58689297  0.91310703  -0.00000000  1
  Sn  Sn88  1  0.16141473  0.66141473  0.78667012  1
  Sn  Sn89  1  0.83858527  0.33858527  0.78667012  1
  Sn  Sn90  1  0.33858527  0.16141473  0.78667012  1
  Sn  Sn91  1  0.66141473  0.83858527  0.78667012  1
  Sn  Sn92  1  0.83858527  0.33858527  0.21332988  1
  Sn  Sn93  1  0.16141473  0.66141473  0.21332988  1
  Sn  Sn94  1  0.66141473  0.83858527  0.21332988  1
  Sn  Sn95  1  0.33858527  0.16141473  0.21332988  1
  Sn  Sn96  1  0.30299690  0.80299690  0.86735698  1
  Sn  Sn97  1  0.69700310  0.19700310  0.86735698  1
  Sn  Sn98  1  0.19700310  0.30299690  0.86735698  1
  Sn  Sn99  1  0.80299690  0.69700310  0.86735698  1
  Sn  Sn100  1  0.69700310  0.19700310  0.13264302  1
  Sn  Sn101  1  0.30299690  0.80299690  0.13264302  1
  Sn  Sn102  1  0.80299690  0.69700310  0.13264302  1
  Sn  Sn103  1  0.19700310  0.30299690  0.13264302  1
  Sn  Sn104  1  0.50000000  0.50000000  -0.00000000  1
  Sn  Sn105  1  0.00000000  0.00000000  -0.00000000  1
  Sn  Sn106  1  0.15528954  0.65528954  0.50000000  1
  Sn  Sn107  1  0.84471046  0.34471046  0.50000000  1
  Sn  Sn108  1  0.34471046  0.15528954  0.50000000  1
  Sn  Sn109  1  0.65528954  0.84471046  0.50000000  1
  Sn  Sn110  1  0.34817851  0.84817851  0.64212101  1
  Sn  Sn111  1  0.65182149  0.15182149  0.64212101  1
  Sn  Sn112  1  0.15182149  0.34817851  0.64212101  1
  Sn  Sn113  1  0.84817851  0.65182149  0.64212101  1
  Sn  Sn114  1  0.65182149  0.15182149  0.35787899  1
  Sn  Sn115  1  0.34817851  0.84817851  0.35787899  1
  Sn  Sn116  1  0.84817851  0.65182149  0.35787899  1
  Sn  Sn117  1  0.15182149  0.34817851  0.35787899  1
