# generated using pymatgen
data_Te6MoI3
_symmetry_space_group_name_H-M   'P 1'
_cell_length_a   12.07292555
_cell_length_b   16.50341159
_cell_length_c   16.78284685
_cell_angle_alpha   90.00000000
_cell_angle_beta   90.00000000
_cell_angle_gamma   106.47603191
_symmetry_Int_Tables_number   1
_chemical_formula_structural   Te6MoI3
_chemical_formula_sum   'Te48 Mo8 I24'
_cell_volume   3206.58400989
_cell_formula_units_Z   8
loop_
 _symmetry_equiv_pos_site_id
 _symmetry_equiv_pos_as_xyz
  1  'x, y, z'
loop_
 _atom_site_type_symbol
 _atom_site_label
 _atom_site_symmetry_multiplicity
 _atom_site_fract_x
 _atom_site_fract_y
 _atom_site_fract_z
 _atom_site_occupancy
  Te  Te0  1  0.47178052  0.60996942  0.15830079  1
  Te  Te1  1  0.97178052  0.10996942  0.34169921  1
  Te  Te2  1  0.52821948  0.39003058  0.84169921  1
  Te  Te3  1  0.02821948  0.89003058  0.65830079  1
  Te  Te4  1  0.57644079  0.75375091  0.25160922  1
  Te  Te5  1  0.07644079  0.25375091  0.24839078  1
  Te  Te6  1  0.42355921  0.24624909  0.74839078  1
  Te  Te7  1  0.92355921  0.74624909  0.75160922  1
  Te  Te8  1  0.53952536  0.88956622  0.08893973  1
  Te  Te9  1  0.03952536  0.38956622  0.41106027  1
  Te  Te10  1  0.46047464  0.11043378  0.91106027  1
  Te  Te11  1  0.96047464  0.61043378  0.58893973  1
  Te  Te12  1  0.43395254  0.74582341  0.99582246  1
  Te  Te13  1  0.93395254  0.24582341  0.50417754  1
  Te  Te14  1  0.56604746  0.25417659  0.00417754  1
  Te  Te15  1  0.06604746  0.75417659  0.49582246  1
  Te  Te16  1  0.80447063  0.67850735  0.13443950  1
  Te  Te17  1  0.30447063  0.17850735  0.36556050  1
  Te  Te18  1  0.19552937  0.32149265  0.86556050  1
  Te  Te19  1  0.69552937  0.82149265  0.63443950  1
  Te  Te20  1  0.84924402  0.85890567  0.11292700  1
  Te  Te21  1  0.34924402  0.35890567  0.38707300  1
  Te  Te22  1  0.15075598  0.14109433  0.88707300  1
  Te  Te23  1  0.65075598  0.64109433  0.61292700  1
  Te  Te24  1  0.76359002  0.82515298  0.95777347  1
  Te  Te25  1  0.26359002  0.32515298  0.54222653  1
  Te  Te26  1  0.23640998  0.17484702  0.04222653  1
  Te  Te27  1  0.73640998  0.67484702  0.45777347  1
  Te  Te28  1  0.70156643  0.64712141  0.98284586  1
  Te  Te29  1  0.20156643  0.14712141  0.51715414  1
  Te  Te30  1  0.29843357  0.35287859  0.01715414  1
  Te  Te31  1  0.79843357  0.85287859  0.48284586  1
  Te  Te32  1  0.24586489  0.67387069  0.28924277  1
  Te  Te33  1  0.74586489  0.17387069  0.21075723  1
  Te  Te34  1  0.75413511  0.32612931  0.71075723  1
  Te  Te35  1  0.25413511  0.82612931  0.78924277  1
  Te  Te36  1  0.31365736  0.85339835  0.26615772  1
  Te  Te37  1  0.81365736  0.35339835  0.23384228  1
  Te  Te38  1  0.68634264  0.14660165  0.73384228  1
  Te  Te39  1  0.18634264  0.64660165  0.76615772  1
  Te  Te40  1  0.20946795  0.82562558  0.11560183  1
  Te  Te41  1  0.70946795  0.32562558  0.38439817  1
  Te  Te42  1  0.79053205  0.17437442  0.88439817  1
  Te  Te43  1  0.29053205  0.67437442  0.61560183  1
  Te  Te44  1  0.16015531  0.64726838  0.13388688  1
  Te  Te45  1  0.66015531  0.14726838  0.36611312  1
  Te  Te46  1  0.83984469  0.35273162  0.86611312  1
  Te  Te47  1  0.33984469  0.85273162  0.63388688  1
  Mo  Mo48  1  0.62171114  0.75084811  0.09093026  1
  Mo  Mo49  1  0.12171114  0.25084811  0.40906974  1
  Mo  Mo50  1  0.37828886  0.24915189  0.90906974  1
  Mo  Mo51  1  0.87828886  0.74915189  0.59093026  1
  Mo  Mo52  1  0.38935044  0.74943388  0.15657698  1
  Mo  Mo53  1  0.88935044  0.24943388  0.34342302  1
  Mo  Mo54  1  0.61064956  0.25056612  0.84342302  1
  Mo  Mo55  1  0.11064956  0.75056612  0.65657698  1
  I  I56  1  0.91698012  0.78473071  0.29591445  1
  I  I57  1  0.41698012  0.28473071  0.20408555  1
  I  I58  1  0.08301988  0.21526929  0.70408555  1
  I  I59  1  0.58301988  0.71526929  0.79591445  1
  I  I60  1  0.85876899  0.03685983  0.06205305  1
  I  I61  1  0.35876899  0.53685983  0.43794695  1
  I  I62  1  0.14123101  0.96314017  0.93794695  1
  I  I63  1  0.64123101  0.46314017  0.56205305  1
  I  I64  1  0.65722834  0.45513503  0.04708519  1
  I  I65  1  0.15722834  0.95513503  0.45291481  1
  I  I66  1  0.34277166  0.54486497  0.95291481  1
  I  I67  1  0.84277166  0.04486497  0.54708519  1
  I  I68  1  0.16741910  0.45440002  0.21096151  1
  I  I69  1  0.66741910  0.95440002  0.28903849  1
  I  I70  1  0.83258090  0.54559998  0.78903849  1
  I  I71  1  0.33258090  0.04559998  0.71096151  1
  I  I72  1  0.41668633  0.79191381  0.44607503  1
  I  I73  1  0.91668633  0.29191381  0.05392497  1
  I  I74  1  0.58331367  0.20808619  0.55392497  1
  I  I75  1  0.08331367  0.70808619  0.94607503  1
  I  I76  1  0.35222413  0.02610844  0.17667009  1
  I  I77  1  0.85222413  0.52610844  0.32332991  1
  I  I78  1  0.64777587  0.97389156  0.82332991  1
  I  I79  1  0.14777587  0.47389156  0.67667009  1
