# generated using pymatgen
data_Y2Te3MoO12
_symmetry_space_group_name_H-M   'P 1'
_cell_length_a   5.26594827
_cell_length_b   11.22604427
_cell_length_c   18.00801113
_cell_angle_alpha   90.00000000
_cell_angle_beta   90.00000000
_cell_angle_gamma   90.00000000
_symmetry_Int_Tables_number   1
_chemical_formula_structural   Y2Te3MoO12
_chemical_formula_sum   'Y8 Te12 Mo4 O48'
_cell_volume   1064.55741535
_cell_formula_units_Z   4
loop_
 _symmetry_equiv_pos_site_id
 _symmetry_equiv_pos_as_xyz
  1  'x, y, z'
loop_
 _atom_site_type_symbol
 _atom_site_label
 _atom_site_symmetry_multiplicity
 _atom_site_fract_x
 _atom_site_fract_y
 _atom_site_fract_z
 _atom_site_occupancy
  Y  Y0  1  0.75571203  0.92208156  0.56109433  1
  Y  Y1  1  0.74428797  0.57791844  0.06109433  1
  Y  Y2  1  0.24428797  0.42208156  0.43890567  1
  Y  Y3  1  0.25571203  0.07791844  0.93890567  1
  Y  Y4  1  0.24428797  0.07791844  0.43890567  1
  Y  Y5  1  0.25571203  0.42208156  0.93890567  1
  Y  Y6  1  0.75571203  0.57791844  0.56109433  1
  Y  Y7  1  0.74428797  0.92208156  0.06109433  1
  Te  Te8  1  0.28116615  0.75000000  0.45347915  1
  Te  Te9  1  0.21883385  0.75000000  0.95347915  1
  Te  Te10  1  0.71883385  0.25000000  0.54652085  1
  Te  Te11  1  0.78116615  0.25000000  0.04652085  1
  Te  Te12  1  0.27240966  0.08541396  0.66783724  1
  Te  Te13  1  0.22759034  0.41458604  0.16783724  1
  Te  Te14  1  0.72759034  0.58541396  0.33216276  1
  Te  Te15  1  0.77240966  0.91458604  0.83216276  1
  Te  Te16  1  0.72759034  0.91458604  0.33216276  1
  Te  Te17  1  0.77240966  0.58541396  0.83216276  1
  Te  Te18  1  0.27240966  0.41458604  0.66783724  1
  Te  Te19  1  0.22759034  0.08541396  0.16783724  1
  Mo  Mo20  1  0.26095281  0.75000000  0.67808302  1
  Mo  Mo21  1  0.23904719  0.75000000  0.17808302  1
  Mo  Mo22  1  0.73904719  0.25000000  0.32191698  1
  Mo  Mo23  1  0.76095281  0.25000000  0.82191698  1
  O  O24  1  0.51985945  0.75000000  0.53554435  1
  O  O25  1  0.98014055  0.75000000  0.03554435  1
  O  O26  1  0.48014055  0.25000000  0.46445565  1
  O  O27  1  0.01985945  0.25000000  0.96445565  1
  O  O28  1  0.09637047  0.88488498  0.49013147  1
  O  O29  1  0.40362953  0.61511502  0.99013147  1
  O  O30  1  0.90362953  0.38488498  0.50986853  1
  O  O31  1  0.59637047  0.11511502  0.00986853  1
  O  O32  1  0.90362953  0.11511502  0.50986853  1
  O  O33  1  0.59637047  0.38488498  0.00986853  1
  O  O34  1  0.09637047  0.61511502  0.49013147  1
  O  O35  1  0.40362953  0.88488498  0.99013147  1
  O  O36  1  0.42033870  0.06227498  0.57098791  1
  O  O37  1  0.07966130  0.43772502  0.07098791  1
  O  O38  1  0.57966130  0.56227498  0.42901209  1
  O  O39  1  0.92033870  0.93772502  0.92901209  1
  O  O40  1  0.57966130  0.93772502  0.42901209  1
  O  O41  1  0.92033870  0.56227498  0.92901209  1
  O  O42  1  0.42033870  0.43772502  0.57098791  1
  O  O43  1  0.07966130  0.06227498  0.07098791  1
  O  O44  1  0.46251561  0.88120594  0.67035262  1
  O  O45  1  0.03748439  0.61879406  0.17035262  1
  O  O46  1  0.53748439  0.38120594  0.32964738  1
  O  O47  1  0.96251561  0.11879406  0.82964738  1
  O  O48  1  0.53748439  0.11879406  0.32964738  1
  O  O49  1  0.96251561  0.38120594  0.82964738  1
  O  O50  1  0.46251561  0.61879406  0.67035262  1
  O  O51  1  0.03748439  0.88120594  0.17035262  1
  O  O52  1  0.95836774  0.01130114  0.65715555  1
  O  O53  1  0.54163226  0.48869886  0.15715555  1
  O  O54  1  0.04163226  0.51130114  0.34284445  1
  O  O55  1  0.45836774  0.98869886  0.84284445  1
  O  O56  1  0.04163226  0.98869886  0.34284445  1
  O  O57  1  0.45836774  0.51130114  0.84284445  1
  O  O58  1  0.95836774  0.48869886  0.65715555  1
  O  O59  1  0.54163226  0.01130114  0.15715555  1
  O  O60  1  0.14700639  0.25000000  0.64093221  1
  O  O61  1  0.35299361  0.25000000  0.14093221  1
  O  O62  1  0.85299361  0.75000000  0.35906779  1
  O  O63  1  0.64700639  0.75000000  0.85906779  1
  O  O64  1  0.97612255  0.75000000  0.61990348  1
  O  O65  1  0.52387745  0.75000000  0.11990348  1
  O  O66  1  0.02387745  0.25000000  0.38009652  1
  O  O67  1  0.47612255  0.25000000  0.88009652  1
  O  O68  1  0.14826342  0.75000000  0.76985297  1
  O  O69  1  0.35173658  0.75000000  0.26985297  1
  O  O70  1  0.85173658  0.25000000  0.23014703  1
  O  O71  1  0.64826342  0.25000000  0.73014703  1
