# generated using pymatgen
data_DyGa3
_symmetry_space_group_name_H-M   'P 1'
_cell_length_a   6.19344589
_cell_length_b   6.19344589
_cell_length_c   23.52493550
_cell_angle_alpha   90.00000000
_cell_angle_beta   90.00000000
_cell_angle_gamma   120.00045236
_symmetry_Int_Tables_number   1
_chemical_formula_structural   DyGa3
_chemical_formula_sum   'Dy10 Ga30'
_cell_volume   781.48705473
_cell_formula_units_Z   10
loop_
 _symmetry_equiv_pos_site_id
 _symmetry_equiv_pos_as_xyz
  1  'x, y, z'
loop_
 _atom_site_type_symbol
 _atom_site_label
 _atom_site_symmetry_multiplicity
 _atom_site_fract_x
 _atom_site_fract_y
 _atom_site_fract_z
 _atom_site_occupancy
  Dy  Dy0  1  0.00000501  0.99999499  0.75000000  1
  Dy  Dy1  1  0.99999499  0.00000501  0.25000000  1
  Dy  Dy2  1  0.66667026  0.33332974  0.64903119  1
  Dy  Dy3  1  0.33332974  0.66667026  0.35096881  1
  Dy  Dy4  1  0.33332974  0.66667026  0.14903119  1
  Dy  Dy5  1  0.66667026  0.33332974  0.85096881  1
  Dy  Dy6  1  0.66666868  0.33333132  0.45541944  1
  Dy  Dy7  1  0.33333132  0.66666868  0.54458056  1
  Dy  Dy8  1  0.33333132  0.66666868  0.95541944  1
  Dy  Dy9  1  0.66666868  0.33333132  0.04458056  1
  Ga  Ga10  1  0.48244155  0.96486890  0.75000000  1
  Ga  Ga11  1  0.48244316  0.51755684  0.75000000  1
  Ga  Ga12  1  0.03513110  0.51755845  0.75000000  1
  Ga  Ga13  1  0.51755845  0.03513110  0.25000000  1
  Ga  Ga14  1  0.51755684  0.48244316  0.25000000  1
  Ga  Ga15  1  0.96486890  0.48244155  0.25000000  1
  Ga  Ga16  1  0.17025542  0.34050390  0.64875420  1
  Ga  Ga17  1  0.17025079  0.82974921  0.64875327  1
  Ga  Ga18  1  0.65949610  0.82974458  0.64875420  1
  Ga  Ga19  1  0.82974458  0.65949610  0.35124580  1
  Ga  Ga20  1  0.82974921  0.17025079  0.35124673  1
  Ga  Ga21  1  0.34050390  0.17025542  0.35124580  1
  Ga  Ga22  1  0.82974458  0.65949610  0.14875420  1
  Ga  Ga23  1  0.82974921  0.17025079  0.14875327  1
  Ga  Ga24  1  0.34050390  0.17025542  0.14875420  1
  Ga  Ga25  1  0.17025542  0.34050390  0.85124580  1
  Ga  Ga26  1  0.17025079  0.82974921  0.85124673  1
  Ga  Ga27  1  0.65949610  0.82974458  0.85124580  1
  Ga  Ga28  1  0.85434053  0.70868435  0.55097605  1
  Ga  Ga29  1  0.85434587  0.14565413  0.55097632  1
  Ga  Ga30  1  0.29131565  0.14565947  0.55097605  1
  Ga  Ga31  1  0.14565947  0.29131565  0.44902395  1
  Ga  Ga32  1  0.14565413  0.85434587  0.44902368  1
  Ga  Ga33  1  0.70868435  0.85434053  0.44902395  1
  Ga  Ga34  1  0.14565947  0.29131565  0.05097605  1
  Ga  Ga35  1  0.14565413  0.85434587  0.05097632  1
  Ga  Ga36  1  0.70868435  0.85434053  0.05097605  1
  Ga  Ga37  1  0.85434053  0.70868435  0.94902395  1
  Ga  Ga38  1  0.85434587  0.14565413  0.94902368  1
  Ga  Ga39  1  0.29131565  0.14565947  0.94902395  1
