# generated using pymatgen
data_NaUVO6
_symmetry_space_group_name_H-M   'P 1'
_cell_length_a   6.27036456
_cell_length_b   8.40902972
_cell_length_c   10.48639767
_cell_angle_alpha   90.00000000
_cell_angle_beta   99.05350903
_cell_angle_gamma   90.00000000
_symmetry_Int_Tables_number   1
_chemical_formula_structural   NaUVO6
_chemical_formula_sum   'Na4 U4 V4 O24'
_cell_volume   546.03501804
_cell_formula_units_Z   4
loop_
 _symmetry_equiv_pos_site_id
 _symmetry_equiv_pos_as_xyz
  1  'x, y, z'
loop_
 _atom_site_type_symbol
 _atom_site_label
 _atom_site_symmetry_multiplicity
 _atom_site_fract_x
 _atom_site_fract_y
 _atom_site_fract_z
 _atom_site_occupancy
  Na  Na0  1  0.96562457  0.29251999  0.67668307  1
  Na  Na1  1  0.03437543  0.79251999  0.82331693  1
  Na  Na2  1  0.03437543  0.70748001  0.32331693  1
  Na  Na3  1  0.96562457  0.20748001  0.17668307  1
  U  U4  1  0.51383541  0.47956046  0.81773204  1
  U  U5  1  0.48616459  0.97956046  0.68226796  1
  U  U6  1  0.48616459  0.52043954  0.18226796  1
  U  U7  1  0.51383541  0.02043954  0.31773204  1
  V  V8  1  0.37093215  0.14846311  0.95500851  1
  V  V9  1  0.62906785  0.64846311  0.54499149  1
  V  V10  1  0.62906785  0.85153689  0.04499149  1
  V  V11  1  0.37093215  0.35153689  0.45500851  1
  O  O12  1  0.55660396  0.06365587  0.10392202  1
  O  O13  1  0.44339604  0.56365587  0.39607798  1
  O  O14  1  0.44339604  0.93634413  0.89607798  1
  O  O15  1  0.55660396  0.43634413  0.60392202  1
  O  O16  1  0.45834232  0.34838275  0.00772551  1
  O  O17  1  0.54165768  0.84838275  0.49227449  1
  O  O18  1  0.54165768  0.65161725  0.99227449  1
  O  O19  1  0.45834232  0.15161725  0.50772551  1
  O  O20  1  0.38058516  0.21069626  0.78570997  1
  O  O21  1  0.61941484  0.71069626  0.71429003  1
  O  O22  1  0.61941484  0.78930374  0.21429003  1
  O  O23  1  0.38058516  0.28930374  0.28570997  1
  O  O24  1  0.22969965  0.53983079  0.77360538  1
  O  O25  1  0.77030035  0.03983079  0.72639462  1
  O  O26  1  0.77030035  0.46016921  0.22639462  1
  O  O27  1  0.22969965  0.96016921  0.27360538  1
  O  O28  1  0.79726405  0.41978057  0.85506993  1
  O  O29  1  0.20273595  0.91978057  0.64493007  1
  O  O30  1  0.20273595  0.58021943  0.14493007  1
  O  O31  1  0.79726405  0.08021943  0.35506993  1
  O  O32  1  0.11967119  0.13860680  0.97801538  1
  O  O33  1  0.88032881  0.63860680  0.52198462  1
  O  O34  1  0.88032881  0.86139320  0.02198462  1
  O  O35  1  0.11967119  0.36139320  0.47801538  1
