# generated using pymatgen
data_KSi2HO5
_symmetry_space_group_name_H-M   'P 1'
_cell_length_a   8.47380248
_cell_length_b   8.52330871
_cell_length_c   9.53643770
_cell_angle_alpha   66.16558497
_cell_angle_beta   63.62236401
_cell_angle_gamma   60.19195290
_symmetry_Int_Tables_number   1
_chemical_formula_structural   KSi2HO5
_chemical_formula_sum   'K4 Si8 H4 O20'
_cell_volume   520.32927052
_cell_formula_units_Z   4
loop_
 _symmetry_equiv_pos_site_id
 _symmetry_equiv_pos_as_xyz
  1  'x, y, z'
loop_
 _atom_site_type_symbol
 _atom_site_label
 _atom_site_symmetry_multiplicity
 _atom_site_fract_x
 _atom_site_fract_y
 _atom_site_fract_z
 _atom_site_occupancy
  K  K0  1  0.00000000  -0.00000000  0.00000000  1
  K  K1  1  0.00000000  0.50000000  0.50000000  1
  K  K2  1  0.68016272  0.65890157  0.98077298  1
  K  K3  1  0.31983728  0.34109843  0.01922702  1
  Si  Si4  1  0.11589583  0.71901652  0.67631393  1
  Si  Si5  1  0.48877372  0.71901652  0.67631393  1
  Si  Si6  1  0.88410417  0.28098348  0.32368607  1
  Si  Si7  1  0.51122628  0.28098348  0.32368607  1
  Si  Si8  1  0.78207101  0.10787035  0.70249662  1
  Si  Si9  1  0.40756203  0.10787035  0.70249662  1
  Si  Si10  1  0.21792899  0.89212965  0.29750338  1
  Si  Si11  1  0.59243797  0.89212965  0.29750338  1
  H  H12  1  0.68368796  0.37020149  0.79883992  1
  H  H13  1  0.14727063  0.37020149  0.79883992  1
  H  H14  1  0.31631204  0.62979851  0.20116008  1
  H  H15  1  0.85272937  0.62979851  0.20116008  1
  O  O16  1  0.03865591  0.55584651  0.76657575  1
  O  O17  1  0.63892183  0.55584651  0.76657575  1
  O  O18  1  0.96134409  0.44415349  0.23342425  1
  O  O19  1  0.36107817  0.44415349  0.23342425  1
  O  O20  1  0.71993097  0.22006399  0.83317630  1
  O  O21  1  0.22682874  0.22006399  0.83317630  1
  O  O22  1  0.28006903  0.77993601  0.16682370  1
  O  O23  1  0.77317126  0.77993601  0.16682370  1
  O  O24  1  0.96287651  0.91370246  0.73720709  1
  O  O25  1  0.38621395  0.91370246  0.73720709  1
  O  O26  1  0.03712349  0.08629754  0.26279291  1
  O  O27  1  0.61378605  0.08629754  0.26279291  1
  O  O28  1  0.15620236  0.76869279  0.48000432  1
  O  O29  1  0.59510053  0.76869279  0.48000432  1
  O  O30  1  0.84379764  0.23130721  0.51999568  1
  O  O31  1  0.40489947  0.23130721  0.51999568  1
  O  O32  1  0.61083823  0.04955010  0.72877344  1
  O  O33  1  0.38916177  0.95044990  0.27122656  1
  O  O34  1  0.31297634  0.66310563  0.71094170  1
  O  O35  1  0.68702366  0.33689437  0.28905830  1
