# generated using pymatgen
data_V4Cd9O19
_symmetry_space_group_name_H-M   'P 1'
_cell_length_a   8.74566019
_cell_length_b   8.76980579
_cell_length_c   13.16380251
_cell_angle_alpha   95.59100855
_cell_angle_beta   102.51466952
_cell_angle_gamma   108.48392056
_symmetry_Int_Tables_number   1
_chemical_formula_structural   V4Cd9O19
_chemical_formula_sum   'V8 Cd18 O38'
_cell_volume   919.62855077
_cell_formula_units_Z   2
loop_
 _symmetry_equiv_pos_site_id
 _symmetry_equiv_pos_as_xyz
  1  'x, y, z'
loop_
 _atom_site_type_symbol
 _atom_site_label
 _atom_site_symmetry_multiplicity
 _atom_site_fract_x
 _atom_site_fract_y
 _atom_site_fract_z
 _atom_site_occupancy
  V  V0  1  0.47372353  0.23171276  0.35200453  1
  V  V1  1  0.53018503  0.77809560  0.64628124  1
  V  V2  1  0.01039319  0.25830756  0.56790092  1
  V  V3  1  0.99369150  0.76211769  0.43468994  1
  V  V4  1  0.36942217  0.00502132  0.84514898  1
  V  V5  1  0.62842250  0.98514858  0.14243809  1
  V  V6  1  0.08178076  0.37722067  0.11469884  1
  V  V7  1  0.93578429  0.62077441  0.88018434  1
  Cd  Cd8  1  0.20602080  0.02664460  0.08209787  1
  Cd  Cd9  1  0.79416287  0.97476286  0.91737768  1
  Cd  Cd10  1  0.86231627  0.72539889  0.12192318  1
  Cd  Cd11  1  0.15306734  0.27419124  0.87755902  1
  Cd  Cd12  1  0.26883104  0.80239069  0.26771206  1
  Cd  Cd13  1  0.73654031  0.22332323  0.73887510  1
  Cd  Cd14  1  0.04754058  0.10313838  0.31860593  1
  Cd  Cd15  1  0.94692174  0.91430184  0.68070007  1
  Cd  Cd16  1  0.25213739  0.50599447  0.42373437  1
  Cd  Cd17  1  0.73602701  0.50360605  0.56640991  1
  Cd  Cd18  1  0.59927787  0.34560684  0.99867160  1
  Cd  Cd19  1  0.37260616  0.66091775  0.99034510  1
  Cd  Cd20  1  0.65068685  0.89766143  0.42734266  1
  Cd  Cd21  1  0.35051484  0.12260579  0.57466463  1
  Cd  Cd22  1  0.51867662  0.54642048  0.24639740  1
  Cd  Cd23  1  0.49164306  0.47293109  0.76121802  1
  Cd  Cd24  1  0.83341414  0.39694477  0.26357056  1
  Cd  Cd25  1  0.14522769  0.63507418  0.70298507  1
  O  O26  1  0.67446026  0.38604444  0.38938363  1
  O  O27  1  0.32761023  0.62717695  0.60359781  1
  O  O28  1  0.34347660  0.28719872  0.42147983  1
  O  O29  1  0.65890031  0.72959845  0.57229996  1
  O  O30  1  0.39652260  0.23151768  0.22028587  1
  O  O31  1  0.61093157  0.76429138  0.77638835  1
  O  O32  1  0.47843497  0.04257842  0.37980142  1
  O  O33  1  0.52771184  0.96988926  0.62795470  1
  O  O34  1  0.93294340  0.38802419  0.63767151  1
  O  O35  1  0.05990881  0.63146035  0.35729622  1
  O  O36  1  0.01793134  0.30476340  0.44280736  1
  O  O37  1  0.98713700  0.70920424  0.55992384  1
  O  O38  1  0.20571901  0.28542371  0.64564373  1
  O  O39  1  0.79812944  0.74499895  0.36670224  1
  O  O40  1  0.87653604  0.05599171  0.55161437  1
  O  O41  1  0.12922210  0.96376870  0.45066853  1
  O  O42  1  0.42279387  0.67874045  0.34940369  1
  O  O43  1  0.57442925  0.33673646  0.64818824  1
  O  O44  1  0.09280159  0.92007994  0.20766526  1
  O  O45  1  0.90986247  0.09678419  0.79530776  1
  O  O46  1  0.41054088  0.88320288  0.12660880  1
  O  O47  1  0.58499568  0.11372394  0.86686666  1
  O  O48  1  0.06826326  0.33145153  0.24202212  1
  O  O49  1  0.92468927  0.68657447  0.75732900  1
  O  O50  1  0.74816677  0.99710612  0.26745830  1
  O  O51  1  0.24734104  0.00853264  0.72338246  1
  O  O52  1  0.03657478  0.19135124  0.02654319  1
  O  O53  1  0.97120803  0.79504887  0.97480733  1
  O  O54  1  0.68271017  0.86481795  0.04746766  1
  O  O55  1  0.30588106  0.09925515  0.94460204  1
  O  O56  1  0.94551160  0.47628631  0.07996989  1
  O  O57  1  0.08890105  0.53050683  0.89344532  1
  O  O58  1  0.67310777  0.18146448  0.11785596  1
  O  O59  1  0.33314576  0.79913295  0.85215447  1
  O  O60  1  0.28068015  0.51090703  0.11677718  1
  O  O61  1  0.74566838  0.47048881  0.87282755  1
  O  O62  1  0.68266681  0.51639953  0.15372626  1
  O  O63  1  0.40664230  0.44567949  0.90478039  1
