# generated using pymatgen
data_Sm2ThS5
_symmetry_space_group_name_H-M   'P 1'
_cell_length_a   7.52708318
_cell_length_b   8.16579065
_cell_length_c   12.00259245
_cell_angle_alpha   90.00000000
_cell_angle_beta   90.00000000
_cell_angle_gamma   90.00000000
_symmetry_Int_Tables_number   1
_chemical_formula_structural   Sm2ThS5
_chemical_formula_sum   'Sm8 Th4 S20'
_cell_volume   737.73436930
_cell_formula_units_Z   4
loop_
 _symmetry_equiv_pos_site_id
 _symmetry_equiv_pos_as_xyz
  1  'x, y, z'
loop_
 _atom_site_type_symbol
 _atom_site_label
 _atom_site_symmetry_multiplicity
 _atom_site_fract_x
 _atom_site_fract_y
 _atom_site_fract_z
 _atom_site_occupancy
  Sm  Sm0  1  0.98160543  0.00067867  0.17873831  1
  Sm  Sm1  1  0.51839457  0.49932133  0.67873831  1
  Sm  Sm2  1  0.01839457  0.50067867  0.82126169  1
  Sm  Sm3  1  0.48160543  0.99932133  0.32126169  1
  Sm  Sm4  1  0.01839457  0.99932133  0.82126169  1
  Sm  Sm5  1  0.48160543  0.50067867  0.32126169  1
  Sm  Sm6  1  0.98160543  0.49932133  0.17873831  1
  Sm  Sm7  1  0.51839457  0.00067867  0.67873831  1
  Th  Th8  1  0.42389422  0.75000000  0.00946411  1
  Th  Th9  1  0.07610578  0.75000000  0.50946411  1
  Th  Th10  1  0.57610578  0.25000000  0.99053589  1
  Th  Th11  1  0.92389422  0.25000000  0.49053589  1
  S  S12  1  0.66378514  0.54363097  0.89781874  1
  S  S13  1  0.83621486  0.95636903  0.39781874  1
  S  S14  1  0.33621486  0.04363097  0.10218126  1
  S  S15  1  0.16378514  0.45636903  0.60218126  1
  S  S16  1  0.33621486  0.45636903  0.10218126  1
  S  S17  1  0.16378514  0.04363097  0.60218126  1
  S  S18  1  0.66378514  0.95636903  0.89781874  1
  S  S19  1  0.83621486  0.54363097  0.39781874  1
  S  S20  1  0.67284654  0.75000000  0.18771127  1
  S  S21  1  0.82715346  0.75000000  0.68771127  1
  S  S22  1  0.32715346  0.25000000  0.81228873  1
  S  S23  1  0.17284654  0.25000000  0.31228873  1
  S  S24  1  0.03950510  0.75000000  0.00015683  1
  S  S25  1  0.46049490  0.75000000  0.50015683  1
  S  S26  1  0.96049490  0.25000000  0.99984317  1
  S  S27  1  0.53950510  0.25000000  0.49984317  1
  S  S28  1  0.29939115  0.75000000  0.78202727  1
  S  S29  1  0.20060885  0.75000000  0.28202727  1
  S  S30  1  0.70060885  0.25000000  0.21797273  1
  S  S31  1  0.79939115  0.25000000  0.71797273  1
