# generated using pymatgen
data_K4Ge2B8H2O19
_symmetry_space_group_name_H-M   'P 1'
_cell_length_a   6.89255793
_cell_length_b   7.05369407
_cell_length_c   20.66456056
_cell_angle_alpha   91.93045117
_cell_angle_beta   90.00000002
_cell_angle_gamma   119.24715519
_symmetry_Int_Tables_number   1
_chemical_formula_structural   K4Ge2B8H2O19
_chemical_formula_sum   'K8 Ge4 B16 H4 O38'
_cell_volume   875.94093905
_cell_formula_units_Z   2
loop_
 _symmetry_equiv_pos_site_id
 _symmetry_equiv_pos_as_xyz
  1  'x, y, z'
loop_
 _atom_site_type_symbol
 _atom_site_label
 _atom_site_symmetry_multiplicity
 _atom_site_fract_x
 _atom_site_fract_y
 _atom_site_fract_z
 _atom_site_occupancy
  K  K0  1  0.02847432  0.71877343  0.20264376  1
  K  K1  1  0.30970089  0.28122657  0.29735624  1
  K  K2  1  0.97152568  0.28122657  0.79735624  1
  K  K3  1  0.69029911  0.71877343  0.70264376  1
  K  K4  1  0.27827998  0.73892964  0.01255420  1
  K  K5  1  0.53935035  0.26107036  0.48744580  1
  K  K6  1  0.72172002  0.26107036  0.98744580  1
  K  K7  1  0.46064965  0.73892964  0.51255420  1
  Ge  Ge8  1  0.66355959  0.04161338  0.17550114  1
  Ge  Ge9  1  0.62194621  0.95838662  0.32449886  1
  Ge  Ge10  1  0.33644041  0.95838662  0.82449886  1
  Ge  Ge11  1  0.37805379  0.04161338  0.67550114  1
  B  B12  1  0.51346547  0.58860017  0.14927755  1
  B  B13  1  0.92486530  0.41139983  0.35072245  1
  B  B14  1  0.48653453  0.41139983  0.85072245  1
  B  B15  1  0.07513470  0.58860017  0.64927755  1
  B  B16  1  0.40551554  0.21437187  0.11603356  1
  B  B17  1  0.19114367  0.78562813  0.38396644  1
  B  B18  1  0.59448446  0.78562813  0.88396644  1
  B  B19  1  0.80885633  0.21437187  0.61603356  1
  B  B20  1  0.12040703  0.29802736  0.14653162  1
  B  B21  1  0.82237968  0.70197264  0.35346838  1
  B  B22  1  0.87959297  0.70197264  0.85346838  1
  B  B23  1  0.17762032  0.29802736  0.64653162  1
  B  B24  1  0.16795942  0.24005841  0.03137985  1
  B  B25  1  0.92790101  0.75994159  0.46862015  1
  B  B26  1  0.83204058  0.75994159  0.96862015  1
  B  B27  1  0.07209899  0.24005841  0.53137985  1
  H  H28  1  0.81758225  0.78379851  0.06662255  1
  H  H29  1  0.03378374  0.21620149  0.43337745  1
  H  H30  1  0.18241775  0.21620149  0.93337745  1
  H  H31  1  0.96621626  0.78379851  0.56662255  1
  O  O32  1  0.21322375  0.15429568  0.15670576  1
  O  O33  1  0.05892806  0.84570432  0.34329424  1
  O  O34  1  0.78677625  0.84570432  0.84329424  1
  O  O35  1  0.94107194  0.15429568  0.65670576  1
  O  O36  1  0.93467139  0.25606158  0.18983217  1
  O  O37  1  0.67860981  0.74393842  0.31016783  1
  O  O38  1  0.06532861  0.74393842  0.81016783  1
  O  O39  1  0.32139019  0.25606158  0.68983217  1
  O  O40  1  0.51841256  0.00000000  0.25000000  1
  O  O41  1  0.48158744  1.00000000  0.75000000  1
  O  O42  1  0.68366417  0.80656865  0.14973282  1
  O  O43  1  0.87709552  0.19343135  0.35026718  1
  O  O44  1  0.31633583  0.19343135  0.85026718  1
  O  O45  1  0.12290448  0.80656865  0.64973282  1
  O  O46  1  0.58313531  0.44068593  0.13467736  1
  O  O47  1  0.14244937  0.55931407  0.36532264  1
  O  O48  1  0.41686469  0.55931407  0.86532264  1
  O  O49  1  0.85755063  0.44068593  0.63467736  1
  O  O50  1  0.89696918  0.75421237  0.03206603  1
  O  O51  1  0.14275681  0.24578763  0.46793397  1
  O  O52  1  0.10303082  0.24578763  0.96793397  1
  O  O53  1  0.85724319  0.75421237  0.53206603  1
  O  O54  1  0.49485782  0.06231454  0.11602524  1
  O  O55  1  0.43254328  0.93768546  0.38397476  1
  O  O56  1  0.50514218  0.93768546  0.88397476  1
  O  O57  1  0.56745672  0.06231454  0.61602524  1
  O  O58  1  0.95242300  0.71826880  0.92290576  1
  O  O59  1  0.23415420  0.28173120  0.57709424  1
  O  O60  1  0.04757700  0.28173120  0.07709424  1
  O  O61  1  0.76584580  0.71826880  0.42290576  1
  O  O62  1  0.29664895  0.53446639  0.15991896  1
  O  O63  1  0.76218256  0.46553361  0.34008104  1
  O  O64  1  0.70335105  0.46553361  0.84008104  1
  O  O65  1  0.23781744  0.53446639  0.65991896  1
  O  O66  1  0.65451571  0.78832998  0.95490889  1
  O  O67  1  0.86618573  0.21167002  0.54509111  1
  O  O68  1  0.34548429  0.21167002  0.04509111  1
  O  O69  1  0.13381427  0.78832998  0.45490889  1
