# generated using pymatgen
data_K3Ni(NO2)5
_symmetry_space_group_name_H-M   'P 1'
_cell_length_a   7.23735082
_cell_length_b   7.32093375
_cell_length_c   11.15221817
_cell_angle_alpha   90.00000000
_cell_angle_beta   90.00000000
_cell_angle_gamma   97.98598370
_symmetry_Int_Tables_number   1
_chemical_formula_structural   K3Ni(NO2)5
_chemical_formula_sum   'K6 Ni2 N10 O20'
_cell_volume   585.16056706
_cell_formula_units_Z   2
loop_
 _symmetry_equiv_pos_site_id
 _symmetry_equiv_pos_as_xyz
  1  'x, y, z'
loop_
 _atom_site_type_symbol
 _atom_site_label
 _atom_site_symmetry_multiplicity
 _atom_site_fract_x
 _atom_site_fract_y
 _atom_site_fract_z
 _atom_site_occupancy
  K  K0  1  0.22649540  0.68696169  0.25031317  1
  K  K1  1  0.77350460  0.31303831  0.75031317  1
  K  K2  1  0.72540840  0.80371308  0.50611619  1
  K  K3  1  0.27459160  0.19628692  0.00611619  1
  K  K4  1  0.27538051  0.19554638  0.49172811  1
  K  K5  1  0.72461949  0.80445362  0.99172811  1
  Ni  Ni6  1  0.75877070  0.29031648  0.25022226  1
  Ni  Ni7  1  0.24122930  0.70968352  0.75022226  1
  N  N8  1  0.00251508  0.16897400  0.25497820  1
  N  N9  1  0.99748492  0.83102600  0.75497820  1
  N  N10  1  0.56316872  0.05207791  0.24997027  1
  N  N11  1  0.43683128  0.94792209  0.74997027  1
  N  N12  1  0.67872440  0.62320346  0.24965646  1
  N  N13  1  0.32127560  0.37679654  0.74965646  1
  N  N14  1  0.77722842  0.30143085  0.44458337  1
  N  N15  1  0.22277158  0.69856915  0.94458337  1
  N  N16  1  0.22350745  0.69805684  0.55666076  1
  N  N17  1  0.77649255  0.30194316  0.05666076  1
  O  O18  1  0.49704412  0.98127663  0.15331325  1
  O  O19  1  0.50295588  0.01872337  0.65331325  1
  O  O20  1  0.50228093  0.01875568  0.84672386  1
  O  O21  1  0.49771907  0.98124432  0.34672386  1
  O  O22  1  0.15808330  0.27358488  0.24790092  1
  O  O23  1  0.84191670  0.72641512  0.74790092  1
  O  O24  1  0.84533165  0.58331884  0.24962563  1
  O  O25  1  0.15466835  0.41668116  0.74962563  1
  O  O26  1  0.88059193  0.20741740  0.50292735  1
  O  O27  1  0.11940807  0.79258260  0.00292735  1
  O  O28  1  0.11923919  0.79318092  0.50015536  1
  O  O29  1  0.88076081  0.20681908  0.00015536  1
  O  O30  1  0.55636750  0.48104691  0.25007525  1
  O  O31  1  0.44363250  0.51895309  0.75007525  1
  O  O32  1  0.68749500  0.40667832  0.50357720  1
  O  O33  1  0.31250500  0.59332168  0.00357720  1
  O  O34  1  0.31127445  0.59297579  0.49599934  1
  O  O35  1  0.68872555  0.40702421  0.99599934  1
  O  O36  1  0.00403806  0.00018847  0.26967306  1
  O  O37  1  0.99596194  -0.00018847  0.76967306  1
