# generated using pymatgen
data_Er2Nb2S7O30
_symmetry_space_group_name_H-M   'P 1'
_cell_length_a   7.10761993
_cell_length_b   12.79656004
_cell_length_c   12.79656004
_cell_angle_alpha   90.00000000
_cell_angle_beta   90.00000000
_cell_angle_gamma   90.00000000
_symmetry_Int_Tables_number   1
_chemical_formula_structural   Er2Nb2S7O30
_chemical_formula_sum   'Er4 Nb4 S14 O60'
_cell_volume   1163.88661527
_cell_formula_units_Z   2
loop_
 _symmetry_equiv_pos_site_id
 _symmetry_equiv_pos_as_xyz
  1  'x, y, z'
loop_
 _atom_site_type_symbol
 _atom_site_label
 _atom_site_symmetry_multiplicity
 _atom_site_fract_x
 _atom_site_fract_y
 _atom_site_fract_z
 _atom_site_occupancy
  Er  Er0  1  0.40769218  0.19856182  0.69856182  1
  Er  Er1  1  0.59230782  0.30143818  0.19856182  1
  Er  Er2  1  0.40769218  0.80143818  0.30143818  1
  Er  Er3  1  0.59230782  0.69856182  0.80143818  1
  Nb  Nb4  1  0.02038992  0.36055982  0.86055982  1
  Nb  Nb5  1  0.97961008  0.13944018  0.36055982  1
  Nb  Nb6  1  0.02038992  0.63944018  0.13944018  1
  Nb  Nb7  1  0.97961008  0.86055982  0.63944018  1
  S  S8  1  0.65391256  0.50000000  -0.00000000  1
  S  S9  1  0.34608744  -0.00000000  0.50000000  1
  S  S10  1  0.10832541  0.62385175  0.87614825  1
  S  S11  1  0.89167459  0.87614825  0.37614825  1
  S  S12  1  0.10832541  0.37614825  0.12385175  1
  S  S13  1  0.89167459  0.12385175  0.62385175  1
  S  S14  1  0.69706711  0.43594188  0.67709328  1
  S  S15  1  0.30293289  0.06405812  0.17709328  1
  S  S16  1  0.69706711  0.56405812  0.32290672  1
  S  S17  1  0.30293289  0.93594188  0.82290672  1
  S  S18  1  0.30293289  0.32290672  0.43594188  1
  S  S19  1  0.69706711  0.17709328  0.93594188  1
  S  S20  1  0.30293289  0.67709328  0.56405812  1
  S  S21  1  0.69706711  0.82290672  0.06405812  1
  O  O22  1  0.20984017  0.29609435  0.79609435  1
  O  O23  1  0.79015983  0.20390565  0.29609435  1
  O  O24  1  0.20984017  0.70390565  0.20390565  1
  O  O25  1  0.79015983  0.79609435  0.70390565  1
  O  O26  1  0.53948725  0.43204164  0.06795836  1
  O  O27  1  0.46051275  0.06795836  0.56795836  1
  O  O28  1  0.53948725  0.56795836  0.93204164  1
  O  O29  1  0.46051275  0.93204164  0.43204164  1
  O  O30  1  0.77646940  0.43338379  0.93338379  1
  O  O31  1  0.22353060  0.06661621  0.43338379  1
  O  O32  1  0.77646940  0.56661621  0.06661621  1
  O  O33  1  0.22353060  0.93338379  0.56661621  1
  O  O34  1  0.92141820  0.65636624  0.84363376  1
  O  O35  1  0.07858180  0.84363376  0.34363376  1
  O  O36  1  0.92141820  0.34363376  0.15636624  1
  O  O37  1  0.07858180  0.15636624  0.65636624  1
  O  O38  1  0.26255957  0.67711700  0.82288300  1
  O  O39  1  0.73744043  0.82288300  0.32288300  1
  O  O40  1  0.26255957  0.32288300  0.17711700  1
  O  O41  1  0.73744043  0.17711700  0.67711700  1
  O  O42  1  0.13334896  0.50837060  0.85729959  1
  O  O43  1  0.86665104  0.99162940  0.35729959  1
  O  O44  1  0.13334896  0.49162940  0.14270041  1
  O  O45  1  0.86665104  0.00837060  0.64270041  1
  O  O46  1  0.86665104  0.14270041  0.50837060  1
  O  O47  1  0.13334896  0.35729959  0.00837060  1
  O  O48  1  0.86665104  0.85729959  0.49162940  1
  O  O49  1  0.13334896  0.64270041  0.99162940  1
  O  O50  1  0.54200452  0.36806362  0.71215484  1
  O  O51  1  0.45799548  0.13193638  0.21215484  1
  O  O52  1  0.54200452  0.63193638  0.28784516  1
  O  O53  1  0.45799548  0.86806362  0.78784516  1
  O  O54  1  0.45799548  0.28784516  0.36806362  1
  O  O55  1  0.54200452  0.21215484  0.86806362  1
  O  O56  1  0.45799548  0.71215484  0.63193638  1
  O  O57  1  0.54200452  0.78784516  0.13193638  1
  O  O58  1  0.66978814  0.54448710  0.71101768  1
  O  O59  1  0.33021186  0.95551290  0.21101768  1
  O  O60  1  0.66978814  0.45551290  0.28898232  1
  O  O61  1  0.33021186  0.04448710  0.78898232  1
  O  O62  1  0.33021186  0.28898232  0.54448710  1
  O  O63  1  0.66978814  0.21101768  0.04448710  1
  O  O64  1  0.33021186  0.71101768  0.45551290  1
  O  O65  1  0.66978814  0.78898232  0.95551290  1
  O  O66  1  0.72435157  0.42554687  0.56420814  1
  O  O67  1  0.27564843  0.07445313  0.06420814  1
  O  O68  1  0.72435157  0.57445313  0.43579186  1
  O  O69  1  0.27564843  0.92554687  0.93579186  1
  O  O70  1  0.27564843  0.43579186  0.42554687  1
  O  O71  1  0.72435157  0.06420814  0.92554687  1
  O  O72  1  0.27564843  0.56420814  0.57445313  1
  O  O73  1  0.72435157  0.93579186  0.07445313  1
  O  O74  1  0.87834727  0.39495512  0.72934770  1
  O  O75  1  0.12165273  0.10504488  0.22934770  1
  O  O76  1  0.87834727  0.60504488  0.27065230  1
  O  O77  1  0.12165273  0.89495512  0.77065230  1
  O  O78  1  0.12165273  0.27065230  0.39495512  1
  O  O79  1  0.87834727  0.22934770  0.89495512  1
  O  O80  1  0.12165273  0.72934770  0.60504488  1
  O  O81  1  0.87834727  0.77065230  0.10504488  1
