# generated using pymatgen
data_Nd2Ni7
_symmetry_space_group_name_H-M   'P 1'
_cell_length_a   5.01745885
_cell_length_b   5.01745885
_cell_length_c   24.49636618
_cell_angle_alpha   90.00000000
_cell_angle_beta   90.00000000
_cell_angle_gamma   120.01516087
_symmetry_Int_Tables_number   1
_chemical_formula_structural   Nd2Ni7
_chemical_formula_sum   'Nd8 Ni28'
_cell_volume   533.99054514
_cell_formula_units_Z   4
loop_
 _symmetry_equiv_pos_site_id
 _symmetry_equiv_pos_as_xyz
  1  'x, y, z'
loop_
 _atom_site_type_symbol
 _atom_site_label
 _atom_site_symmetry_multiplicity
 _atom_site_fract_x
 _atom_site_fract_y
 _atom_site_fract_z
 _atom_site_occupancy
  Nd  Nd0  1  0.66663985  0.33336015  0.52986985  1
  Nd  Nd1  1  0.33336015  0.66663985  0.47013015  1
  Nd  Nd2  1  0.33336015  0.66663985  0.02986985  1
  Nd  Nd3  1  0.66663985  0.33336015  0.97013015  1
  Nd  Nd4  1  0.66666474  0.33333526  0.67450220  1
  Nd  Nd5  1  0.33333526  0.66666474  0.32549780  1
  Nd  Nd6  1  0.33333526  0.66666474  0.17450220  1
  Nd  Nd7  1  0.66666474  0.33333526  0.82549780  1
  Ni  Ni8  1  -0.00000000  -0.00000000  0.50000000  1
  Ni  Ni9  1  -0.00000000  -0.00000000  0.00000000  1
  Ni  Ni10  1  0.16760766  0.33520852  0.75000000  1
  Ni  Ni11  1  0.16760517  0.83239483  0.75000000  1
  Ni  Ni12  1  0.66479148  0.83239234  0.75000000  1
  Ni  Ni13  1  0.83239234  0.66479148  0.25000000  1
  Ni  Ni14  1  0.83239483  0.16760517  0.25000000  1
  Ni  Ni15  1  0.33520852  0.16760766  0.25000000  1
  Ni  Ni16  1  0.16606373  0.33206209  0.58724701  1
  Ni  Ni17  1  0.16599952  0.83400048  0.58726710  1
  Ni  Ni18  1  0.66793791  0.83393627  0.58724701  1
  Ni  Ni19  1  0.83393627  0.66793791  0.41275299  1
  Ni  Ni20  1  0.83400048  0.16599952  0.41273290  1
  Ni  Ni21  1  0.33206209  0.16606373  0.41275299  1
  Ni  Ni22  1  0.83393627  0.66793791  0.08724701  1
  Ni  Ni23  1  0.83400048  0.16599952  0.08726710  1
  Ni  Ni24  1  0.33206209  0.16606373  0.08724701  1
  Ni  Ni25  1  0.16606373  0.33206209  0.91275299  1
  Ni  Ni26  1  0.16599952  0.83400048  0.91273290  1
  Ni  Ni27  1  0.66793791  0.83393627  0.91275299  1
  Ni  Ni28  1  0.99996135  0.00003865  0.66902396  1
  Ni  Ni29  1  0.00003865  0.99996135  0.33097604  1
  Ni  Ni30  1  0.00003865  0.99996135  0.16902396  1
  Ni  Ni31  1  0.99996135  0.00003865  0.83097604  1
  Ni  Ni32  1  0.66664996  0.33335004  0.33247872  1
  Ni  Ni33  1  0.33335004  0.66664996  0.66752128  1
  Ni  Ni34  1  0.33335004  0.66664996  0.83247872  1
  Ni  Ni35  1  0.66664996  0.33335004  0.16752128  1
