# generated using pymatgen
data_Ce2Te7Cl2O17
_symmetry_space_group_name_H-M   'P 1'
_cell_length_a   5.44753732
_cell_length_b   9.86587384
_cell_length_c   19.18970507
_cell_angle_alpha   96.36772337
_cell_angle_beta   90.00000000
_cell_angle_gamma   90.00000000
_symmetry_Int_Tables_number   1
_chemical_formula_structural   Ce2Te7Cl2O17
_chemical_formula_sum   'Ce4 Te14 Cl4 O34'
_cell_volume   1024.98242106
_cell_formula_units_Z   2
loop_
 _symmetry_equiv_pos_site_id
 _symmetry_equiv_pos_as_xyz
  1  'x, y, z'
loop_
 _atom_site_type_symbol
 _atom_site_label
 _atom_site_symmetry_multiplicity
 _atom_site_fract_x
 _atom_site_fract_y
 _atom_site_fract_z
 _atom_site_occupancy
  Ce  Ce0  1  0.36276669  0.90356948  0.90898502  1
  Ce  Ce1  1  0.63723331  0.09643052  0.09101498  1
  Ce  Ce2  1  0.36276669  0.59643052  0.59101498  1
  Ce  Ce3  1  0.63723331  0.40356948  0.40898502  1
  Te  Te4  1  0.05375193  0.75000000  0.75000000  1
  Te  Te5  1  0.94624807  0.25000000  0.25000000  1
  Te  Te6  1  0.89583410  0.62119714  0.91298638  1
  Te  Te7  1  0.10416590  0.37880286  0.08701362  1
  Te  Te8  1  0.89583410  0.87880286  0.58701362  1
  Te  Te9  1  0.10416590  0.12119714  0.41298638  1
  Te  Te10  1  0.17773569  0.81304984  0.08215007  1
  Te  Te11  1  0.82226431  0.18695016  0.91784993  1
  Te  Te12  1  0.17773569  0.68695016  0.41784993  1
  Te  Te13  1  0.82226431  0.31304984  0.58215007  1
  Te  Te14  1  0.48945052  0.93050064  0.25797397  1
  Te  Te15  1  0.51054948  0.06949936  0.74202603  1
  Te  Te16  1  0.48945052  0.56949936  0.24202603  1
  Te  Te17  1  0.51054948  0.43050064  0.75797397  1
  Cl  Cl18  1  0.32749168  0.39004492  0.91977862  1
  Cl  Cl19  1  0.67250832  0.60995508  0.08022138  1
  Cl  Cl20  1  0.32749168  0.10995508  0.58022138  1
  Cl  Cl21  1  0.67250832  0.89004492  0.41977862  1
  O  O22  1  0.92872940  0.94752221  0.09004434  1
  O  O23  1  0.07127060  0.05247779  0.90995566  1
  O  O24  1  0.92872940  0.55247779  0.40995566  1
  O  O25  1  0.07127060  0.44752221  0.59004434  1
  O  O26  1  0.09784795  0.74973284  0.97945826  1
  O  O27  1  0.90215205  0.25026716  0.02054174  1
  O  O28  1  0.09784795  0.75026716  0.52054174  1
  O  O29  1  0.90215205  0.24973284  0.47945826  1
  O  O30  1  0.66085823  0.75825920  0.90257234  1
  O  O31  1  0.33914177  0.24174080  0.09742766  1
  O  O32  1  0.66085823  0.74174080  0.59742766  1
  O  O33  1  0.33914177  0.25825920  0.40257234  1
  O  O34  1  0.38154394  0.95195815  0.16401157  1
  O  O35  1  0.61845606  0.04804185  0.83598843  1
  O  O36  1  0.38154394  0.54804185  0.33598843  1
  O  O37  1  0.61845606  0.45195815  0.66401157  1
  O  O38  1  0.40294535  0.91667298  0.03299036  1
  O  O39  1  0.59705465  0.08332702  0.96700964  1
  O  O40  1  0.40294535  0.58332702  0.46700964  1
  O  O41  1  0.59705465  0.41667298  0.53299036  1
  O  O42  1  0.31276533  0.75000000  0.25000000  1
  O  O43  1  0.68723467  0.25000000  0.75000000  1
  O  O44  1  0.77313130  0.52562034  0.80407025  1
  O  O45  1  0.22686870  0.47437966  0.19592975  1
  O  O46  1  0.77313130  0.97437966  0.69592975  1
  O  O47  1  0.22686870  0.02562034  0.30407025  1
  O  O48  1  0.28563931  0.88486920  0.78534340  1
  O  O49  1  0.71436069  0.11513080  0.21465660  1
  O  O50  1  0.28563931  0.61513080  0.71465660  1
  O  O51  1  0.71436069  0.38486920  0.28534340  1
  O  O52  1  0.13430417  0.69119142  0.85079235  1
  O  O53  1  0.86569583  0.30880858  0.14920765  1
  O  O54  1  0.13430417  0.80880858  0.64920765  1
  O  O55  1  0.86569583  0.19119142  0.35079235  1
