# generated using pymatgen
data_Li2Ge7O15
_symmetry_space_group_name_H-M   'P 1'
_cell_length_a   9.78734591
_cell_length_b   7.48149526
_cell_length_c   17.16073476
_cell_angle_alpha   90.00000000
_cell_angle_beta   90.00000000
_cell_angle_gamma   90.00000000
_symmetry_Int_Tables_number   1
_chemical_formula_structural   Li2Ge7O15
_chemical_formula_sum   'Li8 Ge28 O60'
_cell_volume   1256.57733375
_cell_formula_units_Z   4
loop_
 _symmetry_equiv_pos_site_id
 _symmetry_equiv_pos_as_xyz
  1  'x, y, z'
loop_
 _atom_site_type_symbol
 _atom_site_label
 _atom_site_symmetry_multiplicity
 _atom_site_fract_x
 _atom_site_fract_y
 _atom_site_fract_z
 _atom_site_occupancy
  Li  Li0  1  0.00637560  0.75948944  0.25583425  1
  Li  Li1  1  0.50637560  0.24051056  0.74416575  1
  Li  Li2  1  0.50637560  0.75948944  0.24416575  1
  Li  Li3  1  0.00637560  0.24051056  0.75583425  1
  Li  Li4  1  0.25080633  0.73516023  0.99295544  1
  Li  Li5  1  0.75080633  0.26483977  0.00704456  1
  Li  Li6  1  0.75080633  0.73516023  0.50704456  1
  Li  Li7  1  0.25080633  0.26483977  0.49295544  1
  Ge  Ge8  1  0.25049821  0.74959845  0.16288890  1
  Ge  Ge9  1  0.75049821  0.25040155  0.83711110  1
  Ge  Ge10  1  0.75049821  0.74959845  0.33711110  1
  Ge  Ge11  1  0.25049821  0.25040155  0.66288890  1
  Ge  Ge12  1  0.24805367  0.53988628  0.80919260  1
  Ge  Ge13  1  0.74805367  0.46011372  0.19080740  1
  Ge  Ge14  1  0.74805367  0.53988628  0.69080740  1
  Ge  Ge15  1  0.24805367  0.46011372  0.30919260  1
  Ge  Ge16  1  0.03307506  0.45948786  0.08713521  1
  Ge  Ge17  1  0.53307506  0.54051214  0.91286479  1
  Ge  Ge18  1  0.53307506  0.45948786  0.41286479  1
  Ge  Ge19  1  0.03307506  0.54051214  0.58713521  1
  Ge  Ge20  1  0.47285235  0.46267937  0.09475700  1
  Ge  Ge21  1  0.97285235  0.53732063  0.90524300  1
  Ge  Ge22  1  0.97285235  0.46267937  0.40524300  1
  Ge  Ge23  1  0.47285235  0.53732063  0.59475700  1
  Ge  Ge24  1  0.75021011  0.96267170  0.69255698  1
  Ge  Ge25  1  0.25021011  0.03732830  0.30744302  1
  Ge  Ge26  1  0.25021011  0.96267170  0.80744302  1
  Ge  Ge27  1  0.75021011  0.03732830  0.19255698  1
  Ge  Ge28  1  0.96747357  0.03488490  0.40922007  1
  Ge  Ge29  1  0.46747357  0.96511510  0.59077993  1
  Ge  Ge30  1  0.46747357  0.03488490  0.09077993  1
  Ge  Ge31  1  0.96747357  0.96511510  0.90922007  1
  Ge  Ge32  1  0.52971876  0.03225008  0.40810537  1
  Ge  Ge33  1  0.02971876  0.96774992  0.59189463  1
  Ge  Ge34  1  0.02971876  0.03225008  0.09189463  1
  Ge  Ge35  1  0.52971876  0.96774992  0.90810537  1
  O  O36  1  0.22617792  0.75078164  0.76511473  1
  O  O37  1  0.72617792  0.24921836  0.23488527  1
  O  O38  1  0.72617792  0.75078164  0.73488527  1
  O  O39  1  0.22617792  0.24921836  0.26511473  1
  O  O40  1  0.41955542  0.48876457  0.83503795  1
  O  O41  1  0.91955542  0.51123543  0.16496205  1
  O  O42  1  0.91955542  0.48876457  0.66496205  1
  O  O43  1  0.41955542  0.51123543  0.33503795  1
  O  O44  1  0.15665096  0.55003454  0.90051411  1
  O  O45  1  0.65665096  0.44996546  0.09948589  1
  O  O46  1  0.65665096  0.55003454  0.59948589  1
  O  O47  1  0.15665096  0.44996546  0.40051411  1
  O  O48  1  0.42873984  0.53307541  0.99879758  1
  O  O49  1  0.92873984  0.46692459  0.00120242  1
  O  O50  1  0.92873984  0.53307541  0.50120242  1
  O  O51  1  0.42873984  0.46692459  0.49879758  1
  O  O52  1  0.17160210  0.60580999  0.08275847  1
  O  O53  1  0.67160210  0.39419001  0.91724153  1
  O  O54  1  0.67160210  0.60580999  0.41724153  1
  O  O55  1  0.17160210  0.39419001  0.58275847  1
  O  O56  1  0.10666271  0.24448337  0.08892371  1
  O  O57  1  0.60666271  0.75551663  0.91107629  1
  O  O58  1  0.60666271  0.24448337  0.41107629  1
  O  O59  1  0.10666271  0.75551663  0.58892371  1
  O  O60  1  0.41252779  0.61110047  0.16500205  1
  O  O61  1  0.91252779  0.38889953  0.83499795  1
  O  O62  1  0.91252779  0.61110047  0.33499795  1
  O  O63  1  0.41252779  0.38889953  0.66500205  1
  O  O64  1  0.17347689  0.61231566  0.24514982  1
  O  O65  1  0.67347689  0.38768434  0.75485018  1
  O  O66  1  0.67347689  0.61231566  0.25485018  1
  O  O67  1  0.17347689  0.38768434  0.74514982  1
  O  O68  1  0.59155660  0.05124591  0.65812410  1
  O  O69  1  0.09155660  0.94875409  0.34187590  1
  O  O70  1  0.09155660  0.05124591  0.84187590  1
  O  O71  1  0.59155660  0.94875409  0.15812410  1
  O  O72  1  0.85030640  0.92585499  0.60594201  1
  O  O73  1  0.35030640  0.07414501  0.39405799  1
  O  O74  1  0.35030640  0.92585499  0.89405799  1
  O  O75  1  0.85030640  0.07414501  0.10594201  1
  O  O76  1  0.55459214  0.92890681  0.50047125  1
  O  O77  1  0.05459214  0.07109319  0.49952875  1
  O  O78  1  0.05459214  0.92890681  0.99952875  1
  O  O79  1  0.55459214  0.07109319  0.00047125  1
  O  O80  1  0.82793846  0.89076167  0.42013402  1
  O  O81  1  0.32793846  0.10923833  0.57986598  1
  O  O82  1  0.32793846  0.89076167  0.07986598  1
  O  O83  1  0.82793846  0.10923833  0.92013402  1
  O  O84  1  0.91028230  0.24882414  0.38247058  1
  O  O85  1  0.41028230  0.75117586  0.61752942  1
  O  O86  1  0.41028230  0.24882414  0.11752942  1
  O  O87  1  0.91028230  0.75117586  0.88247058  1
  O  O88  1  0.58871346  0.89168075  0.33437133  1
  O  O89  1  0.08871346  0.10831925  0.66562867  1
  O  O90  1  0.08871346  0.89168075  0.16562867  1
  O  O91  1  0.58871346  0.10831925  0.83437133  1
  O  O92  1  0.83305336  0.89920143  0.25943180  1
  O  O93  1  0.33305336  0.10079857  0.74056820  1
  O  O94  1  0.33305336  0.89920143  0.24056820  1
  O  O95  1  0.83305336  0.10079857  0.75943180  1
