# generated using pymatgen
data_LiPO3
_symmetry_space_group_name_H-M   'P 1'
_cell_length_a   5.52155793
_cell_length_b   13.31298021
_cell_length_c   16.75589351
_cell_angle_alpha   99.19583484
_cell_angle_beta   90.00000000
_cell_angle_gamma   90.00000000
_symmetry_Int_Tables_number   1
_chemical_formula_structural   LiPO3
_chemical_formula_sum   'Li20 P20 O60'
_cell_volume   1215.86884539
_cell_formula_units_Z   20
loop_
 _symmetry_equiv_pos_site_id
 _symmetry_equiv_pos_as_xyz
  1  'x, y, z'
loop_
 _atom_site_type_symbol
 _atom_site_label
 _atom_site_symmetry_multiplicity
 _atom_site_fract_x
 _atom_site_fract_y
 _atom_site_fract_z
 _atom_site_occupancy
  Li  Li0  1  0.49460658  0.94469748  0.81821951  1
  Li  Li1  1  0.50539342  0.44469748  0.31821951  1
  Li  Li2  1  0.48441889  0.82283455  0.93400417  1
  Li  Li3  1  0.51558111  0.32283455  0.43400417  1
  Li  Li4  1  0.50578376  0.70241446  0.04945724  1
  Li  Li5  1  0.49421624  0.20241446  0.54945724  1
  Li  Li6  1  0.50722414  0.58284553  0.16454833  1
  Li  Li7  1  0.49277586  0.08284553  0.66454833  1
  Li  Li8  1  0.99278342  0.51246047  0.24156638  1
  Li  Li9  1  0.00721658  0.01246047  0.74156638  1
  Li  Li10  1  0.52119418  0.94254903  0.31828573  1
  Li  Li11  1  0.47880582  0.44254903  0.81828573  1
  Li  Li12  1  0.47631303  0.82145525  0.43372985  1
  Li  Li13  1  0.52368697  0.32145525  0.93372985  1
  Li  Li14  1  0.53325042  0.70227107  0.55045327  1
  Li  Li15  1  0.46674958  0.20227107  0.05045327  1
  Li  Li16  1  0.47773705  0.58249525  0.66701556  1
  Li  Li17  1  0.52226295  0.08249525  0.16701556  1
  Li  Li18  1  0.96088924  0.51046285  0.74363360  1
  Li  Li19  1  0.03911076  0.01046285  0.24363360  1
  P  P20  1  0.18537746  0.00119270  0.00041348  1
  P  P21  1  0.81462254  0.50119270  0.50041348  1
  P  P22  1  0.84331672  0.88766778  0.09328036  1
  P  P23  1  0.15668328  0.38766778  0.59328036  1
  P  P24  1  0.18844422  0.79592429  0.19706117  1
  P  P25  1  0.81155578  0.29592429  0.69706117  1
  P  P26  1  0.82897734  0.71670633  0.30831138  1
  P  P27  1  0.17102266  0.21670633  0.80831138  1
  P  P28  1  0.15973937  0.61665022  0.40824945  1
  P  P29  1  0.84026063  0.11665022  0.90824945  1
  P  P30  1  0.84393025  0.90948743  0.57456703  1
  P  P31  1  0.15606975  0.40948743  0.07456703  1
  P  P32  1  0.17432229  0.80898577  0.67443761  1
  P  P33  1  0.82567771  0.30898577  0.17443761  1
  P  P34  1  0.81227804  0.73013174  0.78645504  1
  P  P35  1  0.18772196  0.23013174  0.28645504  1
  P  P36  1  0.15190108  0.63772161  0.88985610  1
  P  P37  1  0.84809892  0.13772161  0.38985610  1
  P  P38  1  0.80986741  0.52442549  0.98284501  1
  P  P39  1  0.19013259  0.02442549  0.48284501  1
  O  O40  1  0.06900024  0.90542791  0.03541331  1
  O  O41  1  0.93099976  0.40542791  0.53541331  1
  O  O42  1  0.95108737  0.80044951  0.14062823  1
  O  O43  1  0.04891263  0.30044951  0.64062823  1
  O  O44  1  0.08001809  0.75720600  0.27585647  1
  O  O45  1  0.91998191  0.25720600  0.77585647  1
  O  O46  1  0.92668102  0.68535492  0.39225873  1
  O  O47  1  0.07331898  0.18535492  0.89225873  1
  O  O48  1  0.94202189  0.05829950  0.97814753  1
  O  O49  1  0.05797811  0.55829950  0.47814753  1
  O  O50  1  0.07678122  0.84068586  0.59062182  1
  O  O51  1  0.92321878  0.34068586  0.09062182  1
  O  O52  1  0.92184148  0.77263008  0.70940358  1
  O  O53  1  0.07815852  0.27263008  0.20940358  1
  O  O54  1  0.04926458  0.72675643  0.84355544  1
  O  O55  1  0.95073542  0.22675643  0.34355544  1
  O  O56  1  0.91878722  0.61804822  0.94347977  1
  O  O57  1  0.08121278  0.11804822  0.44347977  1
  O  O58  1  0.94469136  0.96795616  0.50432673  1
  O  O59  1  0.05530864  0.46795616  0.00432673  1
  O  O60  1  0.32279537  0.95528396  0.92611057  1
  O  O61  1  0.67720463  0.45528396  0.42611057  1
  O  O62  1  0.31391797  0.07116553  0.06607425  1
  O  O63  1  0.68608203  0.57116553  0.56607425  1
  O  O64  1  0.64357628  0.83672350  0.04134894  1
  O  O65  1  0.35642372  0.33672350  0.54134894  1
  O  O66  1  0.79530508  0.98220075  0.15325703  1
  O  O67  1  0.20469492  0.48220075  0.65325703  1
  O  O68  1  0.35197359  0.71498940  0.15464708  1
  O  O69  1  0.64802641  0.21498940  0.65464708  1
  O  O70  1  0.28178109  0.90200733  0.22458989  1
  O  O71  1  0.71821891  0.40200733  0.72458989  1
  O  O72  1  0.75154632  0.62203535  0.25270492  1
  O  O73  1  0.24845368  0.12203535  0.75270492  1
  O  O74  1  0.65629036  0.80312801  0.33064812  1
  O  O75  1  0.34370964  0.30312801  0.83064812  1
  O  O76  1  0.21512061  0.54225679  0.33284071  1
  O  O77  1  0.78487939  0.04225679  0.83284071  1
  O  O78  1  0.35577738  0.68560254  0.44670789  1
  O  O79  1  0.64422262  0.18560254  0.94670789  1
  O  O80  1  0.64988981  0.83905628  0.53666507  1
  O  O81  1  0.35011019  0.33905628  0.03666507  1
  O  O82  1  0.78599619  0.98430724  0.64939387  1
  O  O83  1  0.21400381  0.48430724  0.14939387  1
  O  O84  1  0.34079323  0.72037944  0.65178506  1
  O  O85  1  0.65920677  0.22037944  0.15178506  1
  O  O86  1  0.25804402  0.90385337  0.72854186  1
  O  O87  1  0.74195598  0.40385337  0.22854186  1
  O  O88  1  0.72573361  0.62309478  0.75837516  1
  O  O89  1  0.27426639  0.12309478  0.25837516  1
  O  O90  1  0.64295033  0.80892095  0.82880129  1
  O  O91  1  0.35704967  0.30892095  0.32880129  1
  O  O92  1  0.20527187  0.54359328  0.82997324  1
  O  O93  1  0.79472813  0.04359328  0.32997324  1
  O  O94  1  0.34729550  0.68735550  0.94435969  1
  O  O95  1  0.65270450  0.18735550  0.44435969  1
  O  O96  1  0.67746979  0.45237856  0.91955946  1
  O  O97  1  0.32253021  0.95237856  0.41955946  1
  O  O98  1  0.67891439  0.57294355  0.05763404  1
  O  O99  1  0.32108561  0.07294355  0.55763404  1
