# generated using pymatgen
data_Tm4Ga21Ni10
_symmetry_space_group_name_H-M   'P 1'
_cell_length_a   4.04652000
_cell_length_b   10.58066361
_cell_length_c   13.18479646
_cell_angle_alpha   80.64768417
_cell_angle_beta   81.17285460
_cell_angle_gamma   78.97586873
_symmetry_Int_Tables_number   1
_chemical_formula_structural   Tm4Ga21Ni10
_chemical_formula_sum   'Tm4 Ga21 Ni10'
_cell_volume   542.34098197
_cell_formula_units_Z   1
loop_
 _symmetry_equiv_pos_site_id
 _symmetry_equiv_pos_as_xyz
  1  'x, y, z'
loop_
 _atom_site_type_symbol
 _atom_site_label
 _atom_site_symmetry_multiplicity
 _atom_site_fract_x
 _atom_site_fract_y
 _atom_site_fract_z
 _atom_site_occupancy
  Tm  Tm0  1  0.87951735  0.90788707  0.33307823  1
  Tm  Tm1  1  0.12048265  0.09211293  0.66692177  1
  Tm  Tm2  1  0.23091164  0.36485890  0.17331782  1
  Tm  Tm3  1  0.76908836  0.63514110  0.82668218  1
  Ga  Ga4  1  0.46039219  0.71248120  0.36673441  1
  Ga  Ga5  1  0.53960781  0.28751880  0.63326559  1
  Ga  Ga6  1  0.79814647  0.40002783  0.00367923  1
  Ga  Ga7  1  0.20185353  0.59997217  0.99632077  1
  Ga  Ga8  1  0.70193375  0.09898704  0.49714545  1
  Ga  Ga9  1  0.29806625  0.90101296  0.50285455  1
  Ga  Ga10  1  0.88286181  0.68261108  0.55166529  1
  Ga  Ga11  1  0.11713819  0.31738892  0.44833471  1
  Ga  Ga12  1  0.61497372  0.47355300  0.29649956  1
  Ga  Ga13  1  0.38502628  0.52644700  0.70350044  1
  Ga  Ga14  1  0.75252710  0.20172005  0.29322574  1
  Ga  Ga15  1  0.24747290  0.79827995  0.70677426  1
  Ga  Ga16  1  0.60167815  0.79309341  0.00355028  1
  Ga  Ga17  1  0.39832185  0.20690659  0.99644972  1
  Ga  Ga18  1  0.99311643  0.92294479  0.09082234  1
  Ga  Ga19  1  0.00688357  0.07705521  0.90917766  1
  Ga  Ga20  1  0.93533940  0.33375301  0.79556819  1
  Ga  Ga21  1  0.06466060  0.66624699  0.20443181  1
  Ga  Ga22  1  0.50000000  0.50000000  0.50000000  1
  Ga  Ga23  1  0.37225506  0.05913987  0.19635001  1
  Ga  Ga24  1  0.62774494  0.94086013  0.80364999  1
  Ni  Ni25  1  0.49795643  0.81921409  0.18487304  1
  Ni  Ni26  1  0.50204357  0.18078591  0.81512696  1
  Ni  Ni27  1  0.86558521  0.16350285  0.10532672  1
  Ni  Ni28  1  0.13441479  0.83649715  0.89467328  1
  Ni  Ni29  1  0.74912660  0.88631656  0.61543024  1
  Ni  Ni30  1  0.25087340  0.11368344  0.38456976  1
  Ni  Ni31  1  0.65307231  0.57981887  0.11403651  1
  Ni  Ni32  1  0.34692769  0.42018113  0.88596349  1
  Ni  Ni33  1  0.97574213  0.44187323  0.60664250  1
  Ni  Ni34  1  0.02425787  0.55812677  0.39335750  1
