# generated using pymatgen
data_Cs2CrH8Cl5O4
_symmetry_space_group_name_H-M   'P 1'
_cell_length_a   6.25890864
_cell_length_b   10.34226338
_cell_length_c   13.23308634
_cell_angle_alpha   73.60920423
_cell_angle_beta   76.32070107
_cell_angle_gamma   72.38683371
_symmetry_Int_Tables_number   1
_chemical_formula_structural   Cs2CrH8Cl5O4
_chemical_formula_sum   'Cs4 Cr2 H16 Cl10 O8'
_cell_volume   772.48967481
_cell_formula_units_Z   2
loop_
 _symmetry_equiv_pos_site_id
 _symmetry_equiv_pos_as_xyz
  1  'x, y, z'
loop_
 _atom_site_type_symbol
 _atom_site_label
 _atom_site_symmetry_multiplicity
 _atom_site_fract_x
 _atom_site_fract_y
 _atom_site_fract_z
 _atom_site_occupancy
  Cs  Cs0  1  0.68811933  0.92652471  0.67275210  1
  Cs  Cs1  1  0.28739614  0.57347529  0.82724790  1
  Cs  Cs2  1  0.31188067  0.07347529  0.32724790  1
  Cs  Cs3  1  0.71260386  0.42652471  0.17275210  1
  Cr  Cr4  1  0.00000000  0.50000000  0.50000000  1
  Cr  Cr5  1  0.00000000  0.00000000  -0.00000000  1
  H  H6  1  0.57641032  0.66890266  0.50679562  1
  H  H7  1  0.75210860  0.83109734  0.99320438  1
  H  H8  1  0.42358968  0.33109734  0.49320438  1
  H  H9  1  0.24789140  0.16890266  0.00679562  1
  H  H10  1  0.66044221  0.63770931  0.39064815  1
  H  H11  1  0.68879967  0.86229069  0.10935185  1
  H  H12  1  0.33955779  0.36229069  0.60935185  1
  H  H13  1  0.31120033  0.13770931  0.89064815  1
  H  H14  1  0.15318227  0.71726115  0.49248677  1
  H  H15  1  0.36293018  0.78273885  0.00751323  1
  H  H16  1  0.84681773  0.28273885  0.50751323  1
  H  H17  1  0.63706982  0.21726115  0.99248677  1
  H  H18  1  0.19749144  0.69359017  0.37499943  1
  H  H19  1  0.26608104  0.80640983  0.12500057  1
  H  H20  1  0.80250856  0.30640983  0.62500057  1
  H  H21  1  0.73391896  0.19359017  0.87499943  1
  Cl  Cl22  1  0.30100741  0.80829649  0.56697447  1
  Cl  Cl23  1  0.67627837  0.69170351  0.93302553  1
  Cl  Cl24  1  0.69899259  0.19170351  0.43302553  1
  Cl  Cl25  1  0.32372163  0.30829649  0.06697447  1
  Cl  Cl26  1  0.88516710  0.54520983  0.67080204  1
  Cl  Cl27  1  0.10117897  0.95479017  0.82919796  1
  Cl  Cl28  1  0.11483290  0.45479017  0.32919796  1
  Cl  Cl29  1  0.89882103  0.04520983  0.17080204  1
  Cl  Cl30  1  0.51685777  0.25000000  0.75000000  1
  Cl  Cl31  1  0.48314223  0.75000000  0.25000000  1
  O  O32  1  0.68221447  0.59963202  0.46584815  1
  O  O33  1  0.74769465  0.90036798  0.03415185  1
  O  O34  1  0.31778553  0.40036798  0.53415185  1
  O  O35  1  0.25230535  0.09963202  0.96584815  1
  O  O36  1  0.08839598  0.68602613  0.44331507  1
  O  O37  1  0.21773718  0.81397387  0.05668493  1
  O  O38  1  0.91160402  0.31397387  0.55668493  1
  O  O39  1  0.78226282  0.18602613  0.94331507  1
