# generated using pymatgen
data_Na5H4BrO4
_symmetry_space_group_name_H-M   'P 1'
_cell_length_a   6.57736999
_cell_length_b   11.91922051
_cell_length_c   19.04121186
_cell_angle_alpha   90.00000000
_cell_angle_beta   90.00000000
_cell_angle_gamma   90.00000000
_symmetry_Int_Tables_number   1
_chemical_formula_structural   Na5H4BrO4
_chemical_formula_sum   'Na40 H32 Br8 O32'
_cell_volume   1492.77623372
_cell_formula_units_Z   8
loop_
 _symmetry_equiv_pos_site_id
 _symmetry_equiv_pos_as_xyz
  1  'x, y, z'
loop_
 _atom_site_type_symbol
 _atom_site_label
 _atom_site_symmetry_multiplicity
 _atom_site_fract_x
 _atom_site_fract_y
 _atom_site_fract_z
 _atom_site_occupancy
  Na  Na0  1  -0.00000000  0.50000000  -0.00000000  1
  Na  Na1  1  0.50000000  -0.00000000  0.50000000  1
  Na  Na2  1  -0.00000000  0.50000000  0.50000000  1
  Na  Na3  1  0.50000000  -0.00000000  -0.00000000  1
  Na  Na4  1  0.64889761  0.98257255  0.25000000  1
  Na  Na5  1  0.85110239  0.48257255  0.25000000  1
  Na  Na6  1  0.35110239  0.01742745  0.75000000  1
  Na  Na7  1  0.14889761  0.51742745  0.75000000  1
  Na  Na8  1  0.10794087  0.94873146  0.25000000  1
  Na  Na9  1  0.39205913  0.44873146  0.25000000  1
  Na  Na10  1  0.89205913  0.05126854  0.75000000  1
  Na  Na11  1  0.60794087  0.55126854  0.75000000  1
  Na  Na12  1  0.54238090  0.68661279  0.25000000  1
  Na  Na13  1  0.95761910  0.18661279  0.25000000  1
  Na  Na14  1  0.45761910  0.31338721  0.75000000  1
  Na  Na15  1  0.04238090  0.81338721  0.75000000  1
  Na  Na16  1  0.86593400  0.84687879  0.12505234  1
  Na  Na17  1  0.63406600  0.34687879  0.37494766  1
  Na  Na18  1  0.13406600  0.15312121  0.62505234  1
  Na  Na19  1  0.36593400  0.65312121  0.87494766  1
  Na  Na20  1  0.13406600  0.15312121  0.87494766  1
  Na  Na21  1  0.36593400  0.65312121  0.62505234  1
  Na  Na22  1  0.86593400  0.84687879  0.37494766  1
  Na  Na23  1  0.63406600  0.34687879  0.12505234  1
  Na  Na24  1  0.62387531  0.73496514  0.00439172  1
  Na  Na25  1  0.87612469  0.23496514  0.49560828  1
  Na  Na26  1  0.37612469  0.26503486  0.50439172  1
  Na  Na27  1  0.12387531  0.76503486  0.99560828  1
  Na  Na28  1  0.37612469  0.26503486  0.99560828  1
  Na  Na29  1  0.12387531  0.76503486  0.50439172  1
  Na  Na30  1  0.62387531  0.73496514  0.49560828  1
  Na  Na31  1  0.87612469  0.23496514  0.00439172  1
  Na  Na32  1  0.25211857  0.60350129  0.12429930  1
  Na  Na33  1  0.24788143  0.10350129  0.37570070  1
  Na  Na34  1  0.74788143  0.39649871  0.62429930  1
  Na  Na35  1  0.75211857  0.89649871  0.87570070  1
  Na  Na36  1  0.74788143  0.39649871  0.87570070  1
  Na  Na37  1  0.75211857  0.89649871  0.62429930  1
  Na  Na38  1  0.25211857  0.60350129  0.37570070  1
  Na  Na39  1  0.24788143  0.10350129  0.12429930  1
  H  H40  1  0.13202086  0.67453308  0.25000000  1
  H  H41  1  0.36797914  0.17453308  0.25000000  1
  H  H42  1  0.86797914  0.32546692  0.75000000  1
  H  H43  1  0.63202086  0.82546692  0.75000000  1
  H  H44  1  0.89672741  0.73627460  0.25000000  1
  H  H45  1  0.60327259  0.23627460  0.25000000  1
  H  H46  1  0.10327259  0.26372540  0.75000000  1
  H  H47  1  0.39672741  0.76372540  0.75000000  1
  H  H48  1  0.87137142  0.61945083  0.11305249  1
  H  H49  1  0.62862858  0.11945083  0.38694751  1
  H  H50  1  0.12862858  0.38054917  0.61305249  1
  H  H51  1  0.37137142  0.88054917  0.88694751  1
  H  H52  1  0.12862858  0.38054917  0.88694751  1
  H  H53  1  0.37137142  0.88054917  0.61305249  1
  H  H54  1  0.87137142  0.61945083  0.38694751  1
  H  H55  1  0.62862858  0.11945083  0.11305249  1
  H  H56  1  0.63383473  0.56805654  0.12285523  1
  H  H57  1  0.86616527  0.06805654  0.37714477  1
  H  H58  1  0.36616527  0.43194346  0.62285523  1
  H  H59  1  0.13383473  0.93194346  0.87714477  1
  H  H60  1  0.36616527  0.43194346  0.87714477  1
  H  H61  1  0.13383473  0.93194346  0.62285523  1
  H  H62  1  0.63383473  0.56805654  0.37714477  1
  H  H63  1  0.86616527  0.06805654  0.12285523  1
  H  H64  1  0.88707545  0.96805310  0.00231116  1
  H  H65  1  0.61292455  0.46805310  0.49768884  1
  H  H66  1  0.11292455  0.03194690  0.50231116  1
  H  H67  1  0.38707545  0.53194690  0.99768884  1
  H  H68  1  0.11292455  0.03194690  0.99768884  1
  H  H69  1  0.38707545  0.53194690  0.50231116  1
  H  H70  1  0.88707545  0.96805310  0.49768884  1
  H  H71  1  0.61292455  0.46805310  0.00231116  1
  Br  Br72  1  0.37490567  0.85032877  0.13036916  1
  Br  Br73  1  0.12509433  0.35032877  0.36963084  1
  Br  Br74  1  0.62509433  0.14967123  0.63036916  1
  Br  Br75  1  0.87490567  0.64967123  0.86963084  1
  Br  Br76  1  0.62509433  0.14967123  0.86963084  1
  Br  Br77  1  0.87490567  0.64967123  0.63036916  1
  Br  Br78  1  0.37490567  0.85032877  0.36963084  1
  Br  Br79  1  0.12509433  0.35032877  0.13036916  1
  O  O80  1  0.15673507  0.59413924  0.25000000  1
  O  O81  1  0.34326493  0.09413924  0.25000000  1
  O  O82  1  0.84326493  0.40586076  0.75000000  1
  O  O83  1  0.65673507  0.90586076  0.75000000  1
  O  O84  1  0.83525444  0.81038759  0.25000000  1
  O  O85  1  0.66474556  0.31038759  0.25000000  1
  O  O86  1  0.16474556  0.18961241  0.75000000  1
  O  O87  1  0.33525444  0.68961241  0.75000000  1
  O  O88  1  0.91209079  0.66071638  0.07129399  1
  O  O89  1  0.58790921  0.16071638  0.42870601  1
  O  O90  1  0.08790921  0.33928362  0.57129399  1
  O  O91  1  0.41209079  0.83928362  0.92870601  1
  O  O92  1  0.08790921  0.33928362  0.92870601  1
  O  O93  1  0.41209079  0.83928362  0.57129399  1
  O  O94  1  0.91209079  0.66071638  0.42870601  1
  O  O95  1  0.58790921  0.16071638  0.07129399  1
  O  O96  1  0.59042218  0.53879838  0.16801048  1
  O  O97  1  0.90957782  0.03879838  0.33198952  1
  O  O98  1  0.40957782  0.46120162  0.66801048  1
  O  O99  1  0.09042218  0.96120162  0.83198952  1
  O  O100  1  0.40957782  0.46120162  0.83198952  1
  O  O101  1  0.09042218  0.96120162  0.66801048  1
  O  O102  1  0.59042218  0.53879838  0.33198952  1
  O  O103  1  0.90957782  0.03879838  0.16801048  1
  O  O104  1  0.83795435  0.89140472  0.00019483  1
  O  O105  1  0.66204565  0.39140472  0.49980517  1
  O  O106  1  0.16204565  0.10859528  0.50019483  1
  O  O107  1  0.33795435  0.60859528  0.99980517  1
  O  O108  1  0.16204565  0.10859528  0.99980517  1
  O  O109  1  0.33795435  0.60859528  0.50019483  1
  O  O110  1  0.83795435  0.89140472  0.49980517  1
  O  O111  1  0.66204565  0.39140472  0.00019483  1
