# generated using pymatgen
data_Nb10Se40I3
_symmetry_space_group_name_H-M   'P 1'
_cell_length_a   9.71394436
_cell_length_b   9.72007241
_cell_length_c   32.38297385
_cell_angle_alpha   92.23472858
_cell_angle_beta   90.00000000
_cell_angle_gamma   90.00000000
_symmetry_Int_Tables_number   1
_chemical_formula_structural   Nb10Se40I3
_chemical_formula_sum   'Nb20 Se80 I6'
_cell_volume   3055.28282881
_cell_formula_units_Z   2
loop_
 _symmetry_equiv_pos_site_id
 _symmetry_equiv_pos_as_xyz
  1  'x, y, z'
loop_
 _atom_site_type_symbol
 _atom_site_label
 _atom_site_symmetry_multiplicity
 _atom_site_fract_x
 _atom_site_fract_y
 _atom_site_fract_z
 _atom_site_occupancy
  Nb  Nb0  1  0.50121431  -0.00000000  0.25000000  1
  Nb  Nb1  1  0.49878569  -0.00000000  0.75000000  1
  Nb  Nb2  1  0.00090258  0.50000000  0.25000000  1
  Nb  Nb3  1  0.99909742  0.50000000  0.75000000  1
  Nb  Nb4  1  0.50045640  0.00012846  0.04819941  1
  Nb  Nb5  1  0.50045640  0.99987154  0.45180059  1
  Nb  Nb6  1  0.49954360  0.99987154  0.95180059  1
  Nb  Nb7  1  0.49954360  0.00012846  0.54819941  1
  Nb  Nb8  1  0.00017100  0.50010416  0.04905780  1
  Nb  Nb9  1  0.00017100  0.49989584  0.45094220  1
  Nb  Nb10  1  0.99982900  0.49989584  0.95094220  1
  Nb  Nb11  1  0.99982900  0.50010416  0.54905780  1
  Nb  Nb12  1  0.50101885  0.99928248  0.15149034  1
  Nb  Nb13  1  0.50101885  0.00071752  0.34850966  1
  Nb  Nb14  1  0.49898115  0.00071752  0.84850966  1
  Nb  Nb15  1  0.49898115  0.99928248  0.65149034  1
  Nb  Nb16  1  0.00058264  0.50032855  0.15083193  1
  Nb  Nb17  1  0.00058264  0.49967145  0.34916807  1
  Nb  Nb18  1  0.99941736  0.49967145  0.84916807  1
  Nb  Nb19  1  0.99941736  0.50032855  0.65083193  1
  Se  Se20  1  0.31876793  0.12545647  0.09833776  1
  Se  Se21  1  0.31876793  0.87454353  0.40166224  1
  Se  Se22  1  0.68123207  0.87454353  0.90166224  1
  Se  Se23  1  0.68123207  0.12545647  0.59833776  1
  Se  Se24  1  0.68255165  0.87489376  0.09521490  1
  Se  Se25  1  0.68255165  0.12510624  0.40478510  1
  Se  Se26  1  0.31744835  0.12510624  0.90478510  1
  Se  Se27  1  0.31744835  0.87489376  0.59521490  1
  Se  Se28  1  0.87555112  0.31811550  0.09502667  1
  Se  Se29  1  0.87555112  0.68188450  0.40497333  1
  Se  Se30  1  0.12444888  0.68188450  0.90497333  1
  Se  Se31  1  0.12444888  0.31811550  0.59502667  1
  Se  Se32  1  0.12558146  0.68260624  0.09876560  1
  Se  Se33  1  0.12558146  0.31739376  0.40123440  1
  Se  Se34  1  0.87441854  0.31739376  0.90123440  1
  Se  Se35  1  0.87441854  0.68260624  0.59876560  1
  Se  Se36  1  0.38059275  0.18877469  0.20580826  1
  Se  Se37  1  0.38059275  0.81122531  0.29419174  1
  Se  Se38  1  0.61940725  0.81122531  0.79419174  1
  Se  Se39  1  0.61940725  0.18877469  0.70580826  1
  Se  Se40  1  0.62197738  0.18973432  0.29827369  1
  Se  Se41  1  0.62197738  0.81026568  0.20172631  1
  Se  Se42  1  0.37802262  0.81026568  0.70172631  1
  Se  Se43  1  0.37802262  0.18973432  0.79827369  1
  Se  Se44  1  0.81178656  0.37963760  0.20251442  1
  Se  Se45  1  0.81178656  0.62036240  0.29748558  1
  Se  Se46  1  0.18821344  0.62036240  0.79748558  1
  Se  Se47  1  0.18821344  0.37963760  0.70251442  1
  Se  Se48  1  0.18980604  0.61963640  0.20505089  1
  Se  Se49  1  0.18980604  0.38036360  0.29494911  1
  Se  Se50  1  0.81019396  0.38036360  0.79494911  1
  Se  Se51  1  0.81019396  0.61963640  0.70505089  1
  Se  Se52  1  0.71838020  0.03553823  0.19796756  1
  Se  Se53  1  0.71838020  0.96446177  0.30203244  1
  Se  Se54  1  0.28161980  0.96446177  0.80203244  1
  Se  Se55  1  0.28161980  0.03553823  0.69796756  1
  Se  Se56  1  0.28412365  0.03719898  0.30277768  1
  Se  Se57  1  0.28412365  0.96280102  0.19722232  1
  Se  Se58  1  0.71587635  0.96280102  0.69722232  1
  Se  Se59  1  0.71587635  0.03719898  0.80277768  1
  Se  Se60  1  0.96426318  0.71712354  0.20006706  1
  Se  Se61  1  0.96426318  0.28287646  0.29993294  1
  Se  Se62  1  0.03573682  0.28287646  0.79993294  1
  Se  Se63  1  0.03573682  0.71712354  0.70006706  1
  Se  Se64  1  0.03773960  0.28327955  0.19474808  1
  Se  Se65  1  0.03773960  0.71672045  0.30525192  1
  Se  Se66  1  0.96226040  0.71672045  0.80525192  1
  Se  Se67  1  0.96226040  0.28327955  0.69474808  1
  Se  Se68  1  0.55083629  0.21101421  0.10589350  1
  Se  Se69  1  0.55083629  0.78898579  0.39410650  1
  Se  Se70  1  0.44916371  0.78898579  0.89410650  1
  Se  Se71  1  0.44916371  0.21101421  0.60589350  1
  Se  Se72  1  0.45115562  0.78797074  0.10075376  1
  Se  Se73  1  0.45115562  0.21202926  0.39924624  1
  Se  Se74  1  0.54884438  0.21202926  0.89924624  1
  Se  Se75  1  0.54884438  0.78797074  0.60075376  1
  Se  Se76  1  0.78816740  0.55065843  0.10383729  1
  Se  Se77  1  0.78816740  0.44934157  0.39616271  1
  Se  Se78  1  0.21183260  0.44934157  0.89616271  1
  Se  Se79  1  0.21183260  0.55065843  0.60383729  1
  Se  Se80  1  0.21308254  0.45054175  0.10265225  1
  Se  Se81  1  0.21308254  0.54945825  0.39734775  1
  Se  Se82  1  0.78691746  0.54945825  0.89734775  1
  Se  Se83  1  0.78691746  0.45054175  0.60265225  1
  Se  Se84  1  0.69629910  0.10718376  0.00097134  1
  Se  Se85  1  0.69629910  0.89281624  0.49902866  1
  Se  Se86  1  0.30370090  0.89281624  0.99902866  1
  Se  Se87  1  0.30370090  0.10718376  0.50097134  1
  Se  Se88  1  0.89347896  0.69608067  0.00233097  1
  Se  Se89  1  0.89347896  0.30391933  0.49766903  1
  Se  Se90  1  0.10652104  0.30391933  0.99766903  1
  Se  Se91  1  0.10652104  0.69608067  0.50233097  1
  Se  Se92  1  0.48092647  0.22157336  0.00266133  1
  Se  Se93  1  0.48092647  0.77842664  0.49733867  1
  Se  Se94  1  0.51907353  0.77842664  0.99733867  1
  Se  Se95  1  0.51907353  0.22157336  0.50266133  1
  Se  Se96  1  0.77958879  0.48013662  0.99980255  1
  Se  Se97  1  0.77958879  0.51986338  0.50019745  1
  Se  Se98  1  0.22041121  0.51986338  0.00019745  1
  Se  Se99  1  0.22041121  0.48013662  0.49980255  1
  I  I100  1  0.00292911  0.00090943  0.07849109  1
  I  I101  1  0.00292911  0.99909057  0.42150891  1
  I  I102  1  0.99707089  0.99909057  0.92150891  1
  I  I103  1  0.99707089  0.00090943  0.57849109  1
  I  I104  1  0.50419398  0.50000000  0.25000000  1
  I  I105  1  0.49580602  0.50000000  0.75000000  1
