# generated using pymatgen
data_Rb4Te8O23
_symmetry_space_group_name_H-M   'P 1'
_cell_length_a   7.43106138
_cell_length_b   14.94265057
_cell_length_c   20.19134576
_cell_angle_alpha   90.00000000
_cell_angle_beta   90.00000000
_cell_angle_gamma   90.00000000
_symmetry_Int_Tables_number   1
_chemical_formula_structural   Rb4Te8O23
_chemical_formula_sum   'Rb16 Te32 O92'
_cell_volume   2242.04205735
_cell_formula_units_Z   4
loop_
 _symmetry_equiv_pos_site_id
 _symmetry_equiv_pos_as_xyz
  1  'x, y, z'
loop_
 _atom_site_type_symbol
 _atom_site_label
 _atom_site_symmetry_multiplicity
 _atom_site_fract_x
 _atom_site_fract_y
 _atom_site_fract_z
 _atom_site_occupancy
  Rb  Rb0  1  0.12310786  0.75541725  0.06260284  1
  Rb  Rb1  1  0.62310786  0.24458275  0.93739716  1
  Rb  Rb2  1  0.62310786  0.25541725  0.43739716  1
  Rb  Rb3  1  0.12310786  0.74458275  0.56260284  1
  Rb  Rb4  1  0.62230382  0.50580789  0.31345201  1
  Rb  Rb5  1  0.12230382  0.49419211  0.68654799  1
  Rb  Rb6  1  0.12230382  0.00580789  0.18654799  1
  Rb  Rb7  1  0.62230382  0.99419211  0.81345201  1
  Rb  Rb8  1  0.12152597  0.50390037  0.17614819  1
  Rb  Rb9  1  0.62152597  0.49609963  0.82385181  1
  Rb  Rb10  1  0.62152597  0.00390037  0.32385181  1
  Rb  Rb11  1  0.12152597  0.99609963  0.67614819  1
  Rb  Rb12  1  0.62240792  0.75103025  0.42886216  1
  Rb  Rb13  1  0.12240792  0.24896975  0.57113784  1
  Rb  Rb14  1  0.12240792  0.25103025  0.07113784  1
  Rb  Rb15  1  0.62240792  0.74896975  0.92886216  1
  Te  Te16  1  0.12286957  0.62394081  0.36474627  1
  Te  Te17  1  0.62286957  0.37605919  0.63525373  1
  Te  Te18  1  0.62286957  0.12394081  0.13525373  1
  Te  Te19  1  0.12286957  0.87605919  0.86474627  1
  Te  Te20  1  0.62360211  0.87206509  0.10857521  1
  Te  Te21  1  0.12360211  0.12793491  0.89142479  1
  Te  Te22  1  0.12360211  0.37206509  0.39142479  1
  Te  Te23  1  0.62360211  0.62793491  0.60857521  1
  Te  Te24  1  0.12056459  0.88277497  0.37107813  1
  Te  Te25  1  0.62056459  0.11722503  0.62892187  1
  Te  Te26  1  0.62056459  0.38277497  0.12892187  1
  Te  Te27  1  0.12056459  0.61722503  0.87107813  1
  Te  Te28  1  0.37143839  0.49967337  0.50056662  1
  Te  Te29  1  0.87143839  0.50032663  0.49943338  1
  Te  Te30  1  0.87143839  0.99967337  0.99943338  1
  Te  Te31  1  0.37143839  0.00032663  0.00056662  1
  Te  Te32  1  0.36824624  0.00047081  0.50018447  1
  Te  Te33  1  0.86824624  0.99952919  0.49981553  1
  Te  Te34  1  0.86824624  0.50047081  0.99981553  1
  Te  Te35  1  0.36824624  0.49952919  0.00018447  1
  Te  Te36  1  0.61805306  0.62842456  0.12256878  1
  Te  Te37  1  0.11805306  0.37157544  0.87743122  1
  Te  Te38  1  0.11805306  0.12842456  0.37743122  1
  Te  Te39  1  0.61805306  0.87157544  0.62256878  1
  Te  Te40  1  0.37109382  0.76256945  0.24370734  1
  Te  Te41  1  0.87109382  0.23743055  0.75629266  1
  Te  Te42  1  0.87109382  0.26256945  0.25629266  1
  Te  Te43  1  0.37109382  0.73743055  0.74370734  1
  Te  Te44  1  0.87172470  0.75966387  0.24359255  1
  Te  Te45  1  0.37172470  0.24033613  0.75640745  1
  Te  Te46  1  0.37172470  0.25966387  0.25640745  1
  Te  Te47  1  0.87172470  0.74033613  0.74359255  1
  O  O48  1  0.80787053  0.88021382  0.03180754  1
  O  O49  1  0.30787053  0.11978618  0.96819246  1
  O  O50  1  0.30787053  0.38021382  0.46819246  1
  O  O51  1  0.80787053  0.61978618  0.53180754  1
  O  O52  1  0.12136060  0.97381348  0.03178996  1
  O  O53  1  0.62136060  0.02618652  0.96821004  1
  O  O54  1  0.62136060  0.47381348  0.46821004  1
  O  O55  1  0.12136060  0.52618652  0.53178996  1
  O  O56  1  0.32241960  0.54801729  0.41278933  1
  O  O57  1  0.82241960  0.45198271  0.58721067  1
  O  O58  1  0.82241960  0.04801729  0.08721067  1
  O  O59  1  0.32241960  0.95198271  0.91278933  1
  O  O60  1  0.43538837  0.88146215  0.03342808  1
  O  O61  1  0.93538837  0.11853785  0.96657192  1
  O  O62  1  0.93538837  0.38146215  0.46657192  1
  O  O63  1  0.43538837  0.61853785  0.53342808  1
  O  O64  1  0.92090472  0.54877806  0.41175711  1
  O  O65  1  0.42090472  0.45122194  0.58824289  1
  O  O66  1  0.42090472  0.04877806  0.08824289  1
  O  O67  1  0.92090472  0.95122194  0.91175711  1
  O  O68  1  0.80720359  0.60518757  0.05791938  1
  O  O69  1  0.30720359  0.39481243  0.94208062  1
  O  O70  1  0.30720359  0.10518757  0.44208062  1
  O  O71  1  0.80720359  0.89481243  0.55791938  1
  O  O72  1  0.85093846  0.92288063  0.42515564  1
  O  O73  1  0.35093846  0.07711937  0.57484436  1
  O  O74  1  0.35093846  0.42288063  0.07484436  1
  O  O75  1  0.85093846  0.57711937  0.92515564  1
  O  O76  1  0.11866898  0.54376579  0.01059084  1
  O  O77  1  0.61866898  0.45623421  0.98940916  1
  O  O78  1  0.61866898  0.04376579  0.48940916  1
  O  O79  1  0.11866898  0.95623421  0.51059084  1
  O  O80  1  0.42656450  0.60430413  0.05890558  1
  O  O81  1  0.92656450  0.39569587  0.94109442  1
  O  O82  1  0.92656450  0.10430413  0.44109442  1
  O  O83  1  0.42656450  0.89569587  0.55890558  1
  O  O84  1  0.38874707  0.92464180  0.42556657  1
  O  O85  1  0.88874707  0.07535820  0.57443343  1
  O  O86  1  0.88874707  0.42464180  0.07443343  1
  O  O87  1  0.38874707  0.57535820  0.92556657  1
  O  O88  1  0.61725925  0.50837036  0.16144487  1
  O  O89  1  0.11725925  0.49162964  0.83855513  1
  O  O90  1  0.11725925  0.00837036  0.33855513  1
  O  O91  1  0.61725925  0.99162964  0.66144487  1
  O  O92  1  0.80650268  0.65251553  0.18762775  1
  O  O93  1  0.30650268  0.34748447  0.81237225  1
  O  O94  1  0.30650268  0.15251553  0.31237225  1
  O  O95  1  0.80650268  0.84748447  0.68762775  1
  O  O96  1  0.42964408  0.65529942  0.18668331  1
  O  O97  1  0.92964408  0.34470058  0.81331669  1
  O  O98  1  0.92964408  0.15529942  0.31331669  1
  O  O99  1  0.42964408  0.84470058  0.68668331  1
  O  O100  1  0.61838497  0.74774700  0.08090070  1
  O  O101  1  0.11838497  0.25225300  0.91909930  1
  O  O102  1  0.11838497  0.24774700  0.41909930  1
  O  O103  1  0.61838497  0.75225300  0.58090070  1
  O  O104  1  0.36926658  0.68448669  0.31797468  1
  O  O105  1  0.86926658  0.31551331  0.68202532  1
  O  O106  1  0.86926658  0.18448669  0.18202532  1
  O  O107  1  0.36926658  0.81551331  0.81797468  1
  O  O108  1  0.62226182  0.79480632  0.26549141  1
  O  O109  1  0.12226182  0.20519368  0.73450859  1
  O  O110  1  0.12226182  0.29480632  0.23450859  1
  O  O111  1  0.62226182  0.70519368  0.76549141  1
  O  O112  1  0.38171307  0.83958570  0.16793845  1
  O  O113  1  0.88171307  0.16041430  0.83206155  1
  O  O114  1  0.88171307  0.33958570  0.33206155  1
  O  O115  1  0.38171307  0.66041430  0.66793845  1
  O  O116  1  0.12205907  0.72533252  0.21967942  1
  O  O117  1  0.62205907  0.27466748  0.78032058  1
  O  O118  1  0.62205907  0.22533252  0.28032058  1
  O  O119  1  0.12205907  0.77466748  0.71967942  1
  O  O120  1  0.30290386  0.86792408  0.29636123  1
  O  O121  1  0.80290386  0.13207592  0.70363877  1
  O  O122  1  0.80290386  0.36792408  0.20363877  1
  O  O123  1  0.30290386  0.63207592  0.79636123  1
  O  O124  1  0.87506863  0.67900117  0.31660057  1
  O  O125  1  0.37506863  0.32099883  0.68339943  1
  O  O126  1  0.37506863  0.17900117  0.18339943  1
  O  O127  1  0.87506863  0.82099883  0.81660057  1
  O  O128  1  0.86527665  0.83508041  0.16684940  1
  O  O129  1  0.36527665  0.16491959  0.83315060  1
  O  O130  1  0.36527665  0.33508041  0.33315060  1
  O  O131  1  0.86527665  0.66491959  0.66684940  1
  O  O132  1  0.93394441  0.86341545  0.29886646  1
  O  O133  1  0.43394441  0.13658455  0.70113354  1
  O  O134  1  0.43394441  0.36341545  0.20113354  1
  O  O135  1  0.93394441  0.63658455  0.79886646  1
  O  O136  1  0.12030047  0.72133658  0.42160902  1
  O  O137  1  0.62030047  0.27866342  0.57839098  1
  O  O138  1  0.62030047  0.22133658  0.07839098  1
  O  O139  1  0.12030047  0.77866342  0.92160902  1
