# generated using pymatgen
data_VCoH14(O2F)4
_symmetry_space_group_name_H-M   'P 1'
_cell_length_a   6.58165087
_cell_length_b   11.50881628
_cell_length_c   14.13596486
_cell_angle_alpha   89.49657465
_cell_angle_beta   89.57869392
_cell_angle_gamma   78.02765402
_symmetry_Int_Tables_number   1
_chemical_formula_structural   VCoH14(O2F)4
_chemical_formula_sum   'V4 Co4 H56 O32 F16'
_cell_volume   1047.40862478
_cell_formula_units_Z   4
loop_
 _symmetry_equiv_pos_site_id
 _symmetry_equiv_pos_as_xyz
  1  'x, y, z'
loop_
 _atom_site_type_symbol
 _atom_site_label
 _atom_site_symmetry_multiplicity
 _atom_site_fract_x
 _atom_site_fract_y
 _atom_site_fract_z
 _atom_site_occupancy
  V  V0  1  0.49445757  0.23557742  0.26738017  1
  V  V1  1  0.50554243  0.76442258  0.73261983  1
  V  V2  1  0.48705582  0.73386632  0.24063807  1
  V  V3  1  0.51294418  0.26613368  0.75936193  1
  Co  Co4  1  0.00000000  0.00000000  -0.00000000  1
  Co  Co5  1  -0.00000000  0.50000000  -0.00000000  1
  Co  Co6  1  -0.00000000  0.50000000  0.50000000  1
  Co  Co7  1  -0.00000000  0.00000000  0.50000000  1
  H  H8  1  0.60673278  0.09781624  0.06273900  1
  H  H9  1  0.39326722  0.90218376  0.93726100  1
  H  H10  1  0.59953740  0.11182884  0.95105497  1
  H  H11  1  0.40046260  0.88817116  0.04894503  1
  H  H12  1  0.04293750  0.84691442  0.85344534  1
  H  H13  1  0.95706250  0.15308558  0.14655466  1
  H  H14  1  0.80800429  0.85956071  0.88748735  1
  H  H15  1  0.19199571  0.14043929  0.11251265  1
  H  H16  1  0.82445965  0.86717587  0.12791772  1
  H  H17  1  0.17554035  0.13282413  0.87208228  1
  H  H18  1  0.05234963  0.87586608  0.16665602  1
  H  H19  1  0.94765037  0.12413392  0.83334398  1
  H  H20  1  0.67165336  0.68500495  0.04384820  1
  H  H21  1  0.32834664  0.31499505  0.95615180  1
  H  H22  1  0.61698596  0.62627654  0.94635884  1
  H  H23  1  0.38301404  0.37372346  0.05364116  1
  H  H24  1  0.77357411  0.35795656  0.91228037  1
  H  H25  1  0.22642589  0.64204344  0.08771963  1
  H  H26  1  0.92655311  0.28104052  0.98810528  1
  H  H27  1  0.07344689  0.71895948  0.01189472  1
  H  H28  1  0.06095302  0.41019365  0.18107762  1
  H  H29  1  0.93904698  0.58980635  0.81892238  1
  H  H30  1  0.89067027  0.53115811  0.18432570  1
  H  H31  1  0.10932973  0.46884189  0.81567430  1
  H  H32  1  0.80623964  0.36920773  0.38214002  1
  H  H33  1  0.19376036  0.63079227  0.61785998  1
  H  H34  1  0.04319318  0.35624292  0.34750469  1
  H  H35  1  0.95680682  0.64375708  0.65249531  1
  H  H36  1  0.60337178  0.61182074  0.45086360  1
  H  H37  1  0.39662822  0.38817926  0.54913640  1
  H  H38  1  0.60050066  0.59263981  0.56219840  1
  H  H39  1  0.39949934  0.40736019  0.43780160  1
  H  H40  1  0.82330383  0.35996707  0.62080198  1
  H  H41  1  0.17669617  0.64003293  0.37919802  1
  H  H42  1  0.05072135  0.36501100  0.66131667  1
  H  H43  1  0.94927865  0.63498900  0.33868333  1
  H  H44  1  0.90113324  0.03668571  0.68534330  1
  H  H45  1  0.09886676  0.96331429  0.31465670  1
  H  H46  1  0.07691791  0.91567691  0.68344943  1
  H  H47  1  0.92308209  0.08432309  0.31655057  1
  H  H48  1  0.74131523  0.86161424  0.54521798  1
  H  H49  1  0.25868477  0.13838576  0.45478202  1
  H  H50  1  0.92247453  0.77677350  0.49171805  1
  H  H51  1  0.07752547  0.22322650  0.50828195  1
  H  H52  1  0.62558535  0.13141074  0.45029871  1
  H  H53  1  0.37441465  0.86858926  0.54970129  1
  H  H54  1  0.66870687  0.18268982  0.55250790  1
  H  H55  1  0.33129313  0.81731018  0.44749210  1
  H  H56  1  0.54666604  0.95896980  0.30415703  1
  H  H57  1  0.45333396  0.04103020  0.69584297  1
  H  H58  1  0.70254197  0.86644131  0.36496898  1
  H  H59  1  0.29745803  0.13355869  0.63503102  1
  H  H60  1  0.67777986  0.38461974  0.13531431  1
  H  H61  1  0.32222014  0.61538026  0.86468569  1
  H  H62  1  0.47993817  0.46642688  0.17839810  1
  H  H63  1  0.52006183  0.53357312  0.82160190  1
  O  O64  1  0.68356518  0.07112029  0.00377781  1
  O  O65  1  0.31643482  0.92887971  0.99622219  1
  O  O66  1  0.94991408  0.86103572  0.90937154  1
  O  O67  1  0.05008592  0.13896428  0.09062846  1
  O  O68  1  0.95883775  0.88633450  0.11115704  1
  O  O69  1  0.04116225  0.11366550  0.88884296  1
  O  O70  1  0.71886585  0.62049677  0.99821526  1
  O  O71  1  0.28113415  0.37950323  0.00178474  1
  O  O72  1  0.84920948  0.36106338  0.97245405  1
  O  O73  1  0.15079052  0.63893662  0.02754595  1
  O  O74  1  0.94721521  0.46138919  0.14459841  1
  O  O75  1  0.05278479  0.53861081  0.85540159  1
  O  O76  1  0.94871167  0.37177483  0.40304001  1
  O  O77  1  0.05128833  0.62822517  0.59695999  1
  O  O78  1  0.68406682  0.57005213  0.50394520  1
  O  O79  1  0.31593318  0.42994787  0.49605480  1
  O  O80  1  0.96326099  0.37097945  0.60377148  1
  O  O81  1  0.03673901  0.62902055  0.39622852  1
  O  O82  1  0.99454415  0.97994393  0.64396141  1
  O  O83  1  0.00545585  0.02005607  0.35603859  1
  O  O84  1  0.82948824  0.85557832  0.48771143  1
  O  O85  1  0.17051176  0.14442168  0.51228857  1
  O  O86  1  0.71564349  0.11789809  0.50699465  1
  O  O87  1  0.28435651  0.88210191  0.49300535  1
  O  O88  1  0.62968907  0.87736858  0.30382821  1
  O  O89  1  0.37031093  0.12263142  0.69617179  1
  O  O90  1  0.53414046  0.38448653  0.15527017  1
  O  O91  1  0.46585954  0.61551347  0.84472983  1
  O  O92  1  0.38313952  0.62988605  0.18992832  1
  O  O93  1  0.61686048  0.37011395  0.81007168  1
  O  O94  1  0.46356355  0.13775680  0.35208817  1
  O  O95  1  0.53643645  0.86224320  0.64791183  1
  F  F96  1  0.43962623  0.15535730  0.15303863  1
  F  F97  1  0.56037377  0.84464270  0.84696137  1
  F  F98  1  0.79074117  0.18147338  0.24084709  1
  F  F99  1  0.20925883  0.81852662  0.75915291  1
  F  F100  1  0.56270368  0.35609561  0.35113968  1
  F  F101  1  0.43729632  0.64390439  0.64886032  1
  F  F102  1  0.21297218  0.33036497  0.26015547  1
  F  F103  1  0.78702782  0.66963503  0.73984453  1
  F  F104  1  0.77123732  0.64262695  0.25686505  1
  F  F105  1  0.22876268  0.35737305  0.74313495  1
  F  F106  1  0.42415831  0.70033933  0.37419324  1
  F  F107  1  0.57584169  0.29966067  0.62580676  1
  F  F108  1  0.24070290  0.86410271  0.24309453  1
  F  F109  1  0.75929710  0.13589729  0.75690547  1
  F  F110  1  0.57973206  0.80101282  0.12256656  1
  F  F111  1  0.42026794  0.19898718  0.87743344  1
