# generated using pymatgen
data_K11Np2H9(S5O22)2
_symmetry_space_group_name_H-M   'P 1'
_cell_length_a   8.47160557
_cell_length_b   14.30260044
_cell_length_c   19.19115078
_cell_angle_alpha   107.37234839
_cell_angle_beta   90.00000000
_cell_angle_gamma   90.00000000
_symmetry_Int_Tables_number   1
_chemical_formula_structural   K11Np2H9(S5O22)2
_chemical_formula_sum   'K22 Np4 H18 S20 O88'
_cell_volume   2219.24446579
_cell_formula_units_Z   2
loop_
 _symmetry_equiv_pos_site_id
 _symmetry_equiv_pos_as_xyz
  1  'x, y, z'
loop_
 _atom_site_type_symbol
 _atom_site_label
 _atom_site_symmetry_multiplicity
 _atom_site_fract_x
 _atom_site_fract_y
 _atom_site_fract_z
 _atom_site_occupancy
  K  K0  1  0.50000000  0.00000000  0.50000000  1
  K  K1  1  -0.00000000  0.00000000  0.00000000  1
  K  K2  1  0.62996426  0.67806160  0.36345632  1
  K  K3  1  0.12996426  0.32193840  0.13654368  1
  K  K4  1  0.37003574  0.32193840  0.63654368  1
  K  K5  1  0.87003574  0.67806160  0.86345632  1
  K  K6  1  0.11384757  0.61486843  0.64601695  1
  K  K7  1  0.61384757  0.38513157  0.85398305  1
  K  K8  1  0.88615243  0.38513157  0.35398305  1
  K  K9  1  0.38615243  0.61486843  0.14601695  1
  K  K10  1  0.85814435  0.90605512  0.57220347  1
  K  K11  1  0.35814435  0.09394488  0.92779653  1
  K  K12  1  0.14185565  0.09394488  0.42779653  1
  K  K13  1  0.64185565  0.90605512  0.07220347  1
  K  K14  1  0.58619336  0.66075543  0.68225516  1
  K  K15  1  0.08619336  0.33924457  0.81774484  1
  K  K16  1  0.41380664  0.33924457  0.31774484  1
  K  K17  1  0.91380664  0.66075543  0.18225516  1
  K  K18  1  0.60581365  0.06025242  0.29431862  1
  K  K19  1  0.10581365  0.93974758  0.20568138  1
  K  K20  1  0.39418635  0.93974758  0.70568138  1
  K  K21  1  0.89418635  0.06025242  0.79431862  1
  Np  Np22  1  0.13612474  0.73581571  0.40038669  1
  Np  Np23  1  0.63612474  0.26418429  0.09961331  1
  Np  Np24  1  0.86387526  0.26418429  0.59961331  1
  Np  Np25  1  0.36387526  0.73581571  0.90038669  1
  H  H26  1  0.50000000  0.50000000  0.50000000  1
  H  H27  1  -0.00000000  0.50000000  0.00000000  1
  H  H28  1  0.62662760  0.42937089  0.54076817  1
  H  H29  1  0.12662760  0.57062911  0.95923183  1
  H  H30  1  0.37337240  0.57062911  0.45923183  1
  H  H31  1  0.87337240  0.42937089  0.04076817  1
  H  H32  1  0.70030414  0.52180377  0.51728823  1
  H  H33  1  0.20030414  0.47819623  0.98271177  1
  H  H34  1  0.29969586  0.47819623  0.48271177  1
  H  H35  1  0.79969586  0.52180377  0.01728823  1
  H  H36  1  0.86007363  0.81812046  0.70722014  1
  H  H37  1  0.36007363  0.18187954  0.79277986  1
  H  H38  1  0.13992637  0.18187954  0.29277986  1
  H  H39  1  0.63992637  0.81812046  0.20722014  1
  H  H40  1  0.71362439  0.87668119  0.74395639  1
  H  H41  1  0.21362439  0.12331881  0.75604361  1
  H  H42  1  0.28637561  0.12331881  0.25604361  1
  H  H43  1  0.78637561  0.87668119  0.24395639  1
  S  S44  1  0.35950865  0.77100396  0.53822555  1
  S  S45  1  0.85950865  0.22899604  0.96177445  1
  S  S46  1  0.64049135  0.22899604  0.46177445  1
  S  S47  1  0.14049135  0.77100396  0.03822555  1
  S  S48  1  0.35489359  0.83455970  0.30992716  1
  S  S49  1  0.85489359  0.16544030  0.19007284  1
  S  S50  1  0.64510641  0.16544030  0.69007284  1
  S  S51  1  0.14510641  0.83455970  0.80992716  1
  S  S52  1  0.91340309  0.64584985  0.49356886  1
  S  S53  1  0.41340309  0.35415015  0.00643114  1
  S  S54  1  0.08659691  0.35415015  0.50643114  1
  S  S55  1  0.58659691  0.64584985  0.99356886  1
  S  S56  1  0.89000176  0.89014547  0.37945063  1
  S  S57  1  0.39000176  0.10985453  0.12054937  1
  S  S58  1  0.10999824  0.10985453  0.62054937  1
  S  S59  1  0.60999824  0.89014547  0.87945063  1
  S  S60  1  0.15250357  0.53969798  0.28104812  1
  S  S61  1  0.65250357  0.46030202  0.21895188  1
  S  S62  1  0.84749643  0.46030202  0.71895188  1
  S  S63  1  0.34749643  0.53969798  0.78104812  1
  O  O64  1  0.38322301  0.69022756  0.46649455  1
  O  O65  1  0.88322301  0.30977244  0.03350545  1
  O  O66  1  0.61677699  0.30977244  0.53350545  1
  O  O67  1  0.11677699  0.69022756  0.96649455  1
  O  O68  1  0.20777859  0.81982457  0.52440459  1
  O  O69  1  0.70777859  0.18017543  0.97559541  1
  O  O70  1  0.79222141  0.18017543  0.47559541  1
  O  O71  1  0.29222141  0.81982457  0.02440459  1
  O  O72  1  0.34082454  0.73054478  0.59995929  1
  O  O73  1  0.84082454  0.26945522  0.90004071  1
  O  O74  1  0.65917546  0.26945522  0.40004071  1
  O  O75  1  0.15917546  0.73054478  0.09995929  1
  O  O76  1  0.48961301  0.84242863  0.55216341  1
  O  O77  1  0.98961301  0.15757137  0.94783659  1
  O  O78  1  0.51038699  0.15757137  0.44783659  1
  O  O79  1  0.01038699  0.84242863  0.05216341  1
  O  O80  1  0.37077553  0.82720858  0.38724000  1
  O  O81  1  0.87077553  0.17279142  0.11276000  1
  O  O82  1  0.62922447  0.17279142  0.61276000  1
  O  O83  1  0.12922447  0.82720858  0.88724000  1
  O  O84  1  0.19990215  0.78398372  0.28467519  1
  O  O85  1  0.69990215  0.21601628  0.21532481  1
  O  O86  1  0.80009785  0.21601628  0.71532481  1
  O  O87  1  0.30009785  0.78398372  0.78467519  1
  O  O88  1  0.34911564  0.93835731  0.31144795  1
  O  O89  1  0.84911564  0.06164269  0.18855205  1
  O  O90  1  0.65088436  0.06164269  0.68855205  1
  O  O91  1  0.15088436  0.93835731  0.81144795  1
  O  O92  1  0.48645158  0.78138330  0.26451815  1
  O  O93  1  0.98645158  0.21861670  0.23548185  1
  O  O94  1  0.51354842  0.21861670  0.73548185  1
  O  O95  1  0.01354842  0.78138330  0.76451815  1
  O  O96  1  0.88653585  0.73092689  0.46225321  1
  O  O97  1  0.38653585  0.26907311  0.03774679  1
  O  O98  1  0.11346415  0.26907311  0.53774679  1
  O  O99  1  0.61346415  0.73092689  0.96225321  1
  O  O100  1  0.07927426  0.61489173  0.46962357  1
  O  O101  1  0.57927426  0.38510827  0.03037643  1
  O  O102  1  0.92072574  0.38510827  0.53037643  1
  O  O103  1  0.42072574  0.61489173  0.96962357  1
  O  O104  1  0.79958169  0.56631627  0.45960340  1
  O  O105  1  0.29958169  0.43368373  0.04039660  1
  O  O106  1  0.20041831  0.43368373  0.54039660  1
  O  O107  1  0.70041831  0.56631627  0.95960340  1
  O  O108  1  0.89503246  0.67958034  0.57306704  1
  O  O109  1  0.39503246  0.32041966  0.92693296  1
  O  O110  1  0.10496754  0.32041966  0.42693296  1
  O  O111  1  0.60496754  0.67958034  0.07306704  1
  O  O112  1  0.03374510  0.90255657  0.42906945  1
  O  O113  1  0.53374510  0.09744343  0.07093055  1
  O  O114  1  0.96625490  0.09744343  0.57093055  1
  O  O115  1  0.46625490  0.90255657  0.92906945  1
  O  O116  1  0.89502352  0.78348851  0.33545710  1
  O  O117  1  0.39502352  0.21651149  0.16454290  1
  O  O118  1  0.10497648  0.21651149  0.66454290  1
  O  O119  1  0.60497648  0.78348851  0.83545710  1
  O  O120  1  0.90541945  0.95312766  0.33055843  1
  O  O121  1  0.40541945  0.04687234  0.16944157  1
  O  O122  1  0.09458055  0.04687234  0.66944157  1
  O  O123  1  0.59458055  0.95312766  0.83055843  1
  O  O124  1  0.74620952  0.91325133  0.42389250  1
  O  O125  1  0.24620952  0.08674867  0.07610750  1
  O  O126  1  0.25379048  0.08674867  0.57610750  1
  O  O127  1  0.75379048  0.91325133  0.92389250  1
  O  O128  1  0.00884977  0.60018490  0.31527007  1
  O  O129  1  0.50884977  0.39981510  0.18472993  1
  O  O130  1  0.99115023  0.39981510  0.68472993  1
  O  O131  1  0.49115023  0.60018490  0.81527007  1
  O  O132  1  0.28700441  0.60119501  0.32367893  1
  O  O133  1  0.78700441  0.39880499  0.17632107  1
  O  O134  1  0.71299559  0.39880499  0.67632107  1
  O  O135  1  0.21299559  0.60119501  0.82367893  1
  O  O136  1  0.15011114  0.44236043  0.29200487  1
  O  O137  1  0.65011114  0.55763957  0.20799513  1
  O  O138  1  0.84988886  0.55763957  0.70799513  1
  O  O139  1  0.34988886  0.44236043  0.79200487  1
  O  O140  1  0.15829012  0.53293249  0.20318642  1
  O  O141  1  0.65829012  0.46706751  0.29681358  1
  O  O142  1  0.84170988  0.46706751  0.79681358  1
  O  O143  1  0.34170988  0.53293249  0.70318642  1
  O  O144  1  0.60817470  0.49960569  0.54188562  1
  O  O145  1  0.10817470  0.50039431  0.95811438  1
  O  O146  1  0.39182530  0.50039431  0.45811438  1
  O  O147  1  0.89182530  0.49960569  0.04188562  1
  O  O148  1  0.76328316  0.84924595  0.69595110  1
  O  O149  1  0.26328316  0.15075405  0.80404890  1
  O  O150  1  0.23671684  0.15075405  0.30404890  1
  O  O151  1  0.73671684  0.84924595  0.19595110  1
