# generated using pymatgen
data_K5In(MoO4)4
_symmetry_space_group_name_H-M   'P 1'
_cell_length_a   9.68745037
_cell_length_b   9.68745037
_cell_length_c   10.70710016
_cell_angle_alpha   71.73105600
_cell_angle_beta   71.73105600
_cell_angle_gamma   79.07665964
_symmetry_Int_Tables_number   1
_chemical_formula_structural   K5In(MoO4)4
_chemical_formula_sum   'K10 In2 Mo8 O32'
_cell_volume   901.43452888
_cell_formula_units_Z   2
loop_
 _symmetry_equiv_pos_site_id
 _symmetry_equiv_pos_as_xyz
  1  'x, y, z'
loop_
 _atom_site_type_symbol
 _atom_site_label
 _atom_site_symmetry_multiplicity
 _atom_site_fract_x
 _atom_site_fract_y
 _atom_site_fract_z
 _atom_site_occupancy
  K  K0  1  0.60885485  0.38926025  0.75017465  1
  K  K1  1  0.38926025  0.60885485  0.25017465  1
  K  K2  1  0.07575170  0.33559911  0.43520094  1
  K  K3  1  0.33559911  0.07575170  0.93520094  1
  K  K4  1  0.61558715  0.82035875  0.44157191  1
  K  K5  1  0.82035875  0.61558715  0.94157191  1
  K  K6  1  0.93040833  0.65022558  0.57371437  1
  K  K7  1  0.65022558  0.93040833  0.07371437  1
  K  K8  1  0.38302168  0.18098395  0.56920180  1
  K  K9  1  0.18098395  0.38302168  0.06920180  1
  In  In10  1  0.11520855  0.88500210  0.75121063  1
  In  In11  1  0.88500210  0.11520855  0.25121063  1
  Mo  Mo12  1  0.26347078  0.53334126  0.66093692  1
  Mo  Mo13  1  0.53334126  0.26347078  0.16093692  1
  Mo  Mo14  1  0.78036043  0.04522603  0.63601474  1
  Mo  Mo15  1  0.04522603  0.78036043  0.13601474  1
  Mo  Mo16  1  0.73799518  0.46918829  0.34345507  1
  Mo  Mo17  1  0.46918829  0.73799518  0.84345507  1
  Mo  Mo18  1  0.21679978  0.95733417  0.37005510  1
  Mo  Mo19  1  0.95733417  0.21679978  0.87005510  1
  O  O20  1  0.42568688  0.62016143  0.57963105  1
  O  O21  1  0.62016143  0.42568688  0.07963105  1
  O  O22  1  0.29992164  0.36831843  0.78735470  1
  O  O23  1  0.36831843  0.29992164  0.28735470  1
  O  O24  1  0.21254620  0.47884844  0.53792138  1
  O  O25  1  0.47884844  0.21254620  0.03792138  1
  O  O26  1  0.12078213  0.66564404  0.73571241  1
  O  O27  1  0.66564404  0.12078213  0.23571241  1
  O  O28  1  0.84568340  0.21299400  0.60375944  1
  O  O29  1  0.21299400  0.84568340  0.10375944  1
  O  O30  1  0.80249042  0.01220724  0.47067668  1
  O  O31  1  0.01220724  0.80249042  0.97067668  1
  O  O32  1  0.88939814  0.90196732  0.73450801  1
  O  O33  1  0.90196732  0.88939814  0.23450801  1
  O  O34  1  0.59131775  0.06330300  0.72355515  1
  O  O35  1  0.06330300  0.59131775  0.22355515  1
  O  O36  1  0.57256460  0.38789817  0.42390340  1
  O  O37  1  0.38789817  0.57256460  0.92390340  1
  O  O38  1  0.70531751  0.63682273  0.21830788  1
  O  O39  1  0.63682273  0.70531751  0.71830788  1
  O  O40  1  0.79014498  0.51822788  0.46880082  1
  O  O41  1  0.51822788  0.79014498  0.96880082  1
  O  O42  1  0.87655930  0.33559435  0.26600943  1
  O  O43  1  0.33559435  0.87655930  0.76600943  1
  O  O44  1  0.15182844  0.78872340  0.40566146  1
  O  O45  1  0.78872340  0.15182844  0.90566146  1
  O  O46  1  0.19449851  0.99725545  0.53261086  1
  O  O47  1  0.99725545  0.19449851  0.03261086  1
  O  O48  1  0.10959879  0.10014716  0.26925103  1
  O  O49  1  0.10014716  0.10959879  0.76925103  1
  O  O50  1  0.40549734  0.94113303  0.28288017  1
  O  O51  1  0.94113303  0.40549734  0.78288017  1
