# generated using pymatgen
data_Cu2H10N4O17
_symmetry_space_group_name_H-M   'P 1'
_cell_length_a   5.03613074
_cell_length_b   11.52232721
_cell_length_c   12.36805827
_cell_angle_alpha   85.47066695
_cell_angle_beta   78.25278069
_cell_angle_gamma   77.37682775
_symmetry_Int_Tables_number   1
_chemical_formula_structural   Cu2H10N4O17
_chemical_formula_sum   'Cu4 H20 N8 O34'
_cell_volume   685.23019564
_cell_formula_units_Z   2
loop_
 _symmetry_equiv_pos_site_id
 _symmetry_equiv_pos_as_xyz
  1  'x, y, z'
loop_
 _atom_site_type_symbol
 _atom_site_label
 _atom_site_symmetry_multiplicity
 _atom_site_fract_x
 _atom_site_fract_y
 _atom_site_fract_z
 _atom_site_occupancy
  Cu  Cu0  1  0.88571650  0.73868941  0.51087236  1
  Cu  Cu1  1  0.86472173  0.23868941  0.01087236  1
  Cu  Cu2  1  0.11428350  0.26131059  0.48912764  1
  Cu  Cu3  1  0.13527827  0.76131059  0.98912764  1
  H  H4  1  0.85199886  0.89030401  0.64963316  1
  H  H5  1  0.60806398  0.39030401  0.14963316  1
  H  H6  1  0.14800114  0.10969599  0.35036684  1
  H  H7  1  0.39193602  0.60969599  0.85036684  1
  H  H8  1  0.54737652  0.86562029  0.66309325  1
  H  H9  1  0.92390994  0.36562029  0.16309325  1
  H  H10  1  0.45262348  0.13437971  0.33690675  1
  H  H11  1  0.07609006  0.63437971  0.83690675  1
  H  H12  1  0.08037989  0.56432109  0.38480569  1
  H  H13  1  0.97049333  0.06432109  0.88480569  1
  H  H14  1  0.91962011  0.43567891  0.61519431  1
  H  H15  1  0.02950667  0.93567891  0.11519431  1
  H  H16  1  0.20156036  0.67762455  0.32956352  1
  H  H17  1  0.79125157  0.17762455  0.82956352  1
  H  H18  1  0.79843964  0.32237545  0.67043648  1
  H  H19  1  0.20874843  0.82237545  0.17043648  1
  H  H20  1  0.49225772  0.20017022  0.70562460  1
  H  H21  1  0.60194746  0.70017022  0.20562460  1
  H  H22  1  0.50774228  0.79982978  0.29437540  1
  H  H23  1  0.39805254  0.29982978  0.79437540  1
  N  N24  1  0.80466581  0.94705032  0.38908196  1
  N  N25  1  0.85920190  0.44705032  0.88908196  1
  N  N26  1  0.19533419  0.05294968  0.61091804  1
  N  N27  1  0.14079810  0.55294968  0.11091804  1
  N  N28  1  0.67783459  0.88989272  0.91356858  1
  N  N29  1  0.51870412  0.38989272  0.41356858  1
  N  N30  1  0.32216541  0.11010728  0.08643142  1
  N  N31  1  0.48129588  0.61010728  0.58643142  1
  O  O32  1  0.84100711  0.04412115  0.34068810  1
  O  O33  1  0.77418364  0.54412115  0.84068810  1
  O  O34  1  0.15899289  0.95587885  0.65931190  1
  O  O35  1  0.22581636  0.45587885  0.15931190  1
  O  O36  1  0.00490962  0.88261343  0.43274863  1
  O  O37  1  0.67972832  0.38261343  0.93274863  1
  O  O38  1  0.99509038  0.11738657  0.56725137  1
  O  O39  1  0.32027168  0.61738657  0.06725137  1
  O  O40  1  0.58338869  0.91112838  0.39726872  1
  O  O41  1  0.10821422  0.41112838  0.89726872  1
  O  O42  1  0.41661131  0.08887162  0.60273128  1
  O  O43  1  0.89178578  0.58887162  0.10273128  1
  O  O44  1  0.52442894  0.97342660  0.87322723  1
  O  O45  1  0.62891723  0.47342660  0.37322723  1
  O  O46  1  0.47557106  0.02657340  0.12677277  1
  O  O47  1  0.37108277  0.52657340  0.62677277  1
  O  O48  1  0.61176278  0.79334738  0.95102501  1
  O  O49  1  0.64386483  0.29334738  0.45102501  1
  O  O50  1  0.38823722  0.20665262  0.04897499  1
  O  O51  1  0.35613517  0.70665262  0.54897499  1
  O  O52  1  0.92973462  0.90246623  0.91770726  1
  O  O53  1  0.25009189  0.40246623  0.41770726  1
  O  O54  1  0.07026538  0.09753377  0.08229274  1
  O  O55  1  0.74990811  0.59753377  0.58229274  1
  O  O56  1  0.74620706  0.82710245  0.65041470  1
  O  O57  1  0.77627579  0.32710245  0.15041470  1
  O  O58  1  0.25379294  0.17289755  0.34958530  1
  O  O59  1  0.22372421  0.67289755  0.84958530  1
  O  O60  1  0.03030120  0.65165005  0.37169530  1
  O  O61  1  0.94635345  0.15165005  0.87169530  1
  O  O62  1  0.96969880  0.34834995  0.62830470  1
  O  O63  1  0.05364655  0.84834995  0.12830470  1
  O  O64  1  0.56144267  0.25000000  0.75000000  1
  O  O65  1  0.43855733  0.75000000  0.25000000  1
