# generated using pymatgen
data_K7(FeS2)5
_symmetry_space_group_name_H-M   'P 1'
_cell_length_a   7.29943301
_cell_length_b   11.59809574
_cell_length_c   14.98369333
_cell_angle_alpha   112.76944588
_cell_angle_beta   102.04856808
_cell_angle_gamma   90.00000000
_symmetry_Int_Tables_number   1
_chemical_formula_structural   K7(FeS2)5
_chemical_formula_sum   'K14 Fe10 S20'
_cell_volume   1139.29058356
_cell_formula_units_Z   2
loop_
 _symmetry_equiv_pos_site_id
 _symmetry_equiv_pos_as_xyz
  1  'x, y, z'
loop_
 _atom_site_type_symbol
 _atom_site_label
 _atom_site_symmetry_multiplicity
 _atom_site_fract_x
 _atom_site_fract_y
 _atom_site_fract_z
 _atom_site_occupancy
  K  K0  1  0.25000000  0.10687110  -0.00000000  1
  K  K1  1  0.75000000  0.89312890  -0.00000000  1
  K  K2  1  0.06716962  0.32727046  0.84938990  1
  K  K3  1  0.43283038  0.47788056  0.15061010  1
  K  K4  1  0.93283038  0.67272954  0.15061010  1
  K  K5  1  0.56716962  0.52211944  0.84938990  1
  K  K6  1  0.98763043  0.88197157  0.70807858  1
  K  K7  1  0.51236957  0.17389299  0.29192142  1
  K  K8  1  0.01236957  0.11802843  0.29192142  1
  K  K9  1  0.48763043  0.82610701  0.70807858  1
  K  K10  1  0.03846764  0.82751678  0.43636053  1
  K  K11  1  0.46153236  0.39115625  0.56363947  1
  K  K12  1  0.96153236  0.17248322  0.56363947  1
  K  K13  1  0.53846764  0.60884375  0.43636053  1
  Fe  Fe14  1  0.25000000  0.76341279  -0.00000000  1
  Fe  Fe15  1  0.75000000  0.23658721  -0.00000000  1
  Fe  Fe16  1  0.43940258  0.83375687  0.20134554  1
  Fe  Fe17  1  0.06059742  0.63241133  0.79865446  1
  Fe  Fe18  1  0.56059742  0.16624313  0.79865446  1
  Fe  Fe19  1  0.93940258  0.36758867  0.20134554  1
  Fe  Fe20  1  0.49133973  0.07520304  0.60120233  1
  Fe  Fe21  1  0.00866027  0.47400071  0.39879767  1
  Fe  Fe22  1  0.50866027  0.92479696  0.39879767  1
  Fe  Fe23  1  0.99133973  0.52599929  0.60120233  1
  S  S24  1  0.49073949  0.30715378  0.93568078  1
  S  S25  1  0.00926051  0.37147300  0.06431922  1
  S  S26  1  0.50926051  0.69284622  0.06431922  1
  S  S27  1  0.99073949  0.62852700  0.93568078  1
  S  S28  1  0.21806863  0.93595932  0.13256264  1
  S  S29  1  0.28193137  0.80339668  0.86743736  1
  S  S30  1  0.78193137  0.06404068  0.86743736  1
  S  S31  1  0.71806863  0.19660332  0.13256264  1
  S  S32  1  0.32752989  0.74698677  0.29423161  1
  S  S33  1  0.17247011  0.45275516  0.70576839  1
  S  S34  1  0.67247011  0.25301323  0.70576839  1
  S  S35  1  0.82752989  0.54724484  0.29423161  1
  S  S36  1  0.28887204  0.06141773  0.69312655  1
  S  S37  1  0.21112796  0.36829118  0.30687345  1
  S  S38  1  0.71112796  0.93858227  0.30687345  1
  S  S39  1  0.78887204  0.63170882  0.69312655  1
  S  S40  1  0.33516486  0.09050075  0.45933209  1
  S  S41  1  0.16483514  0.63116866  0.54066791  1
  S  S42  1  0.66483514  0.90949925  0.54066791  1
  S  S43  1  0.83516486  0.36883134  0.45933209  1
