# generated using pymatgen
data_Cr3Te5Cl3O13
_symmetry_space_group_name_H-M   'P 1'
_cell_length_a   5.00988779
_cell_length_b   17.79458086
_cell_length_c   17.96969069
_cell_angle_alpha   90.00000000
_cell_angle_beta   90.00000000
_cell_angle_gamma   90.00000000
_symmetry_Int_Tables_number   1
_chemical_formula_structural   Cr3Te5Cl3O13
_chemical_formula_sum   'Cr12 Te20 Cl12 O52'
_cell_volume   1601.97732058
_cell_formula_units_Z   4
loop_
 _symmetry_equiv_pos_site_id
 _symmetry_equiv_pos_as_xyz
  1  'x, y, z'
loop_
 _atom_site_type_symbol
 _atom_site_label
 _atom_site_symmetry_multiplicity
 _atom_site_fract_x
 _atom_site_fract_y
 _atom_site_fract_z
 _atom_site_occupancy
  Cr  Cr0  1  0.97132569  0.59104852  0.68180993  1
  Cr  Cr1  1  0.52867431  0.40895148  0.18180993  1
  Cr  Cr2  1  0.47132569  0.90895148  0.31819007  1
  Cr  Cr3  1  0.02867431  0.09104852  0.81819007  1
  Cr  Cr4  1  0.47068369  0.81809829  0.79539512  1
  Cr  Cr5  1  0.02931631  0.18190171  0.29539512  1
  Cr  Cr6  1  0.97068369  0.68190171  0.20460488  1
  Cr  Cr7  1  0.52931631  0.31809829  0.70460488  1
  Cr  Cr8  1  0.47063124  0.67078770  0.72146163  1
  Cr  Cr9  1  0.02936876  0.32921230  0.22146163  1
  Cr  Cr10  1  0.97063124  0.82921230  0.27853837  1
  Cr  Cr11  1  0.52936876  0.17078770  0.77853837  1
  Te  Te12  1  0.97916845  0.68814223  0.86111928  1
  Te  Te13  1  0.52083155  0.31185777  0.36111928  1
  Te  Te14  1  0.47916845  0.81185777  0.13888072  1
  Te  Te15  1  0.02083155  0.18814223  0.63888072  1
  Te  Te16  1  0.48733145  0.58932807  0.54238767  1
  Te  Te17  1  0.01266855  0.41067193  0.04238767  1
  Te  Te18  1  0.98733145  0.91067193  0.45761233  1
  Te  Te19  1  0.51266855  0.08932807  0.95761233  1
  Te  Te20  1  0.91070013  0.92270381  0.90409476  1
  Te  Te21  1  0.58929987  0.07729619  0.40409476  1
  Te  Te22  1  0.41070013  0.57729619  0.09590524  1
  Te  Te23  1  0.08929987  0.42270381  0.59590524  1
  Te  Te24  1  0.55024233  0.98304553  0.72237441  1
  Te  Te25  1  0.94975767  0.01695447  0.22237441  1
  Te  Te26  1  0.05024233  0.51695447  0.27762559  1
  Te  Te27  1  0.44975767  0.48304553  0.77762559  1
  Te  Te28  1  0.96245636  0.79441435  0.64915789  1
  Te  Te29  1  0.53754364  0.20558565  0.14915789  1
  Te  Te30  1  0.46245636  0.70558565  0.35084211  1
  Te  Te31  1  0.03754364  0.29441435  0.85084211  1
  Cl  Cl32  1  0.96322992  0.85538350  0.03149822  1
  Cl  Cl33  1  0.53677008  0.14461650  0.53149822  1
  Cl  Cl34  1  0.46322992  0.64461650  0.96850178  1
  Cl  Cl35  1  0.03677008  0.35538350  0.46850178  1
  Cl  Cl36  1  0.12916411  0.97585715  0.61298317  1
  Cl  Cl37  1  0.37083589  0.02414285  0.11298317  1
  Cl  Cl38  1  0.62916411  0.52414285  0.38701683  1
  Cl  Cl39  1  0.87083589  0.47585715  0.88701683  1
  Cl  Cl40  1  0.53482842  0.81972484  0.53895458  1
  Cl  Cl41  1  0.96517158  0.18027516  0.03895458  1
  Cl  Cl42  1  0.03482842  0.68027516  0.46104542  1
  Cl  Cl43  1  0.46517158  0.31972484  0.96104542  1
  O  O44  1  0.77229365  0.84719706  0.72396338  1
  O  O45  1  0.72770635  0.15280294  0.22396338  1
  O  O46  1  0.27229365  0.65280294  0.27603662  1
  O  O47  1  0.22770635  0.34719706  0.77603662  1
  O  O48  1  0.79983450  0.69434276  0.66293036  1
  O  O49  1  0.70016550  0.30565724  0.16293036  1
  O  O50  1  0.29983450  0.80565724  0.33706964  1
  O  O51  1  0.20016550  0.19434276  0.83706964  1
  O  O52  1  0.78610408  0.54956934  0.59440460  1
  O  O53  1  0.71389592  0.45043066  0.09440460  1
  O  O54  1  0.28610408  0.95043066  0.40559540  1
  O  O55  1  0.21389592  0.04956934  0.90559540  1
  O  O56  1  0.35232867  0.07253931  0.75551147  1
  O  O57  1  0.14767133  0.92746069  0.25551147  1
  O  O58  1  0.85232867  0.42746069  0.24448853  1
  O  O59  1  0.64767133  0.57253931  0.74448853  1
  O  O60  1  0.14803507  0.63373747  0.77721082  1
  O  O61  1  0.35196493  0.36626253  0.27721082  1
  O  O62  1  0.64803507  0.86626253  0.22278918  1
  O  O63  1  0.85196493  0.13373747  0.72278918  1
  O  O64  1  0.29601869  0.63042072  0.62943707  1
  O  O65  1  0.20398131  0.36957928  0.12943707  1
  O  O66  1  0.79601869  0.86957928  0.37056293  1
  O  O67  1  0.70398131  0.13042072  0.87056293  1
  O  O68  1  0.70267758  0.99533581  0.96425371  1
  O  O69  1  0.79732242  0.00466419  0.46425371  1
  O  O70  1  0.20267758  0.50466419  0.03574629  1
  O  O71  1  0.29732242  0.49533581  0.53574629  1
  O  O72  1  0.32277764  0.91764437  0.77364556  1
  O  O73  1  0.17722236  0.08235563  0.27364556  1
  O  O74  1  0.82277764  0.58235563  0.22635444  1
  O  O75  1  0.67722236  0.41764437  0.72635444  1
  O  O76  1  0.14908121  0.78174618  0.85589674  1
  O  O77  1  0.35091879  0.21825382  0.35589674  1
  O  O78  1  0.64908121  0.71825382  0.14410326  1
  O  O79  1  0.85091879  0.28174618  0.64410326  1
  O  O80  1  0.64734027  0.71617996  0.81056695  1
  O  O81  1  0.85265973  0.28382004  0.31056695  1
  O  O82  1  0.14734027  0.78382004  0.18943305  1
  O  O83  1  0.35265973  0.21617996  0.68943305  1
  O  O84  1  0.62523847  0.85822315  0.88698123  1
  O  O85  1  0.87476153  0.14177685  0.38698123  1
  O  O86  1  0.12523847  0.64177685  0.11301877  1
  O  O87  1  0.37476153  0.35822315  0.61301877  1
  O  O88  1  0.28556716  0.76898521  0.70773363  1
  O  O89  1  0.21443284  0.23101479  0.20773363  1
  O  O90  1  0.78556716  0.73101479  0.29226637  1
  O  O91  1  0.71443284  0.26898521  0.79226637  1
  O  O92  1  0.82250360  0.99354578  0.80665229  1
  O  O93  1  0.67749640  0.00645422  0.30665229  1
  O  O94  1  0.32250360  0.50645422  0.19334771  1
  O  O95  1  0.17749640  0.49354578  0.69334771  1
