# generated using pymatgen
data_CsY(BH4)4
_symmetry_space_group_name_H-M   'P 1'
_cell_length_a   7.66923301
_cell_length_b   7.66923301
_cell_length_c   10.88884848
_cell_angle_alpha   110.61948531
_cell_angle_beta   110.61948531
_cell_angle_gamma   90.00000000
_symmetry_Int_Tables_number   1
_chemical_formula_structural   CsY(BH4)4
_chemical_formula_sum   'Cs2 Y2 B8 H32'
_cell_volume   555.37347003
_cell_formula_units_Z   2
loop_
 _symmetry_equiv_pos_site_id
 _symmetry_equiv_pos_as_xyz
  1  'x, y, z'
loop_
 _atom_site_type_symbol
 _atom_site_label
 _atom_site_symmetry_multiplicity
 _atom_site_fract_x
 _atom_site_fract_y
 _atom_site_fract_z
 _atom_site_occupancy
  Cs  Cs0  1  0.25000000  0.75000000  0.50000000  1
  Cs  Cs1  1  -0.00000000  0.00000000  0.00000000  1
  Y  Y2  1  0.75000000  0.25000000  0.50000000  1
  Y  Y3  1  0.50000000  0.50000000  0.00000000  1
  B  B4  1  0.92762088  0.06301257  0.35700156  1
  B  B5  1  0.42938068  0.29398899  0.35700156  1
  B  B6  1  0.82061932  0.45601101  0.14299844  1
  B  B7  1  0.32237912  0.68698743  0.14299844  1
  B  B8  1  0.70601101  0.07237912  0.64299844  1
  B  B9  1  0.93698743  0.57061932  0.64299844  1
  B  B10  1  0.31301257  0.17938068  0.85700156  1
  B  B11  1  0.54398899  0.67762088  0.85700156  1
  H  H12  1  0.83088293  0.95951630  0.38084776  1
  H  H13  1  0.54996483  0.42133145  0.38084776  1
  H  H14  1  0.70003517  0.32866855  0.11915224  1
  H  H15  1  0.41911707  0.79048370  0.11915224  1
  H  H16  1  0.57866855  0.16911707  0.61915224  1
  H  H17  1  0.04048370  0.45003517  0.61915224  1
  H  H18  1  0.20951630  0.29996483  0.88084776  1
  H  H19  1  0.67133145  0.58088293  0.88084776  1
  H  H20  1  0.81986846  0.15138825  0.29414491  1
  H  H21  1  0.47427645  0.14275665  0.29414491  1
  H  H22  1  0.77572355  0.60724335  0.20585509  1
  H  H23  1  0.43013154  0.59861175  0.20585509  1
  H  H24  1  0.85724335  0.18013154  0.70585509  1
  H  H25  1  0.84861175  0.52572355  0.70585509  1
  H  H26  1  0.40138825  0.22427645  0.79414491  1
  H  H27  1  0.39275665  0.56986846  0.79414491  1
  H  H28  1  0.03573322  0.17868495  0.47212456  1
  H  H29  1  0.43639134  0.29343960  0.47212456  1
  H  H30  1  0.81360866  0.45656040  0.02787544  1
  H  H31  1  0.21426678  0.57131505  0.02787544  1
  H  H32  1  0.70656040  0.96426678  0.52787544  1
  H  H33  1  0.82131505  0.56360866  0.52787544  1
  H  H34  1  0.42868495  0.18639134  0.97212456  1
  H  H35  1  0.54343960  0.78573322  0.97212456  1
  H  H36  1  0.01404211  0.97292898  0.28933954  1
  H  H37  1  0.27529742  0.31641056  0.28933954  1
  H  H38  1  0.97470258  0.43358944  0.21066046  1
  H  H39  1  0.23595789  0.77707102  0.21066046  1
  H  H40  1  0.68358944  0.98595789  0.71066046  1
  H  H41  1  0.02707102  0.72470258  0.71066046  1
  H  H42  1  0.22292898  0.02529742  0.78933954  1
  H  H43  1  0.56641056  0.76404211  0.78933954  1
