# generated using pymatgen
data_CuPb4(SO7)2
_symmetry_space_group_name_H-M   'P 1'
_cell_length_a   4.93900734
_cell_length_b   9.01227080
_cell_length_c   8.39862051
_cell_angle_alpha   114.12777220
_cell_angle_beta   101.11503883
_cell_angle_gamma   96.75971324
_symmetry_Int_Tables_number   1
_chemical_formula_structural   CuPb4(SO7)2
_chemical_formula_sum   'Cu1 Pb4 S2 O14'
_cell_volume   326.61750100
_cell_formula_units_Z   1
loop_
 _symmetry_equiv_pos_site_id
 _symmetry_equiv_pos_as_xyz
  1  'x, y, z'
loop_
 _atom_site_type_symbol
 _atom_site_label
 _atom_site_symmetry_multiplicity
 _atom_site_fract_x
 _atom_site_fract_y
 _atom_site_fract_z
 _atom_site_occupancy
  Cu  Cu0  1  -0.00000000  0.00000000  0.00000000  1
  Pb  Pb1  1  0.66864288  0.68394392  0.53908947  1
  Pb  Pb2  1  0.33135712  0.31605608  0.46091053  1
  Pb  Pb3  1  0.41416698  0.73146362  0.93805134  1
  Pb  Pb4  1  0.58583302  0.26853638  0.06194866  1
  S  S5  1  0.91540671  0.24234060  0.70848728  1
  S  S6  1  0.08459329  0.75765940  0.29151272  1
  O  O7  1  0.80971851  0.78835572  0.82838319  1
  O  O8  1  0.19028149  0.21164428  0.17161681  1
  O  O9  1  0.69889147  0.03020398  0.09893823  1
  O  O10  1  0.30110853  0.96979602  0.90106177  1
  O  O11  1  0.69031684  0.43064889  0.39073740  1
  O  O12  1  0.30968316  0.56935111  0.60926260  1
  O  O13  1  0.84193388  0.64403165  0.14054018  1
  O  O14  1  0.15806612  0.35596835  0.85945982  1
  O  O15  1  0.69185016  0.34334808  0.69589871  1
  O  O16  1  0.30814984  0.65665192  0.30410129  1
  O  O17  1  0.99907799  0.17796396  0.52930214  1
  O  O18  1  0.00092201  0.82203604  0.47069786  1
  O  O19  1  0.79257979  0.09662319  0.72846435  1
  O  O20  1  0.20742021  0.90337681  0.27153565  1
