# generated using pymatgen
data_ZrTe7SeCl6
_symmetry_space_group_name_H-M   'P 1'
_cell_length_a   11.77793941
_cell_length_b   11.98506694
_cell_length_c   15.67931443
_cell_angle_alpha   90.00000000
_cell_angle_beta   110.28419118
_cell_angle_gamma   90.00000000
_symmetry_Int_Tables_number   1
_chemical_formula_structural   ZrTe7SeCl6
_chemical_formula_sum   'Zr4 Te28 Se4 Cl24'
_cell_volume   2076.02494941
_cell_formula_units_Z   4
loop_
 _symmetry_equiv_pos_site_id
 _symmetry_equiv_pos_as_xyz
  1  'x, y, z'
loop_
 _atom_site_type_symbol
 _atom_site_label
 _atom_site_symmetry_multiplicity
 _atom_site_fract_x
 _atom_site_fract_y
 _atom_site_fract_z
 _atom_site_occupancy
  Zr  Zr0  1  0.20587078  0.28515143  0.09897507  1
  Zr  Zr1  1  0.79412922  0.71484857  0.90102493  1
  Zr  Zr2  1  0.79412922  0.78515143  0.40102493  1
  Zr  Zr3  1  0.20587078  0.21484857  0.59897507  1
  Te  Te4  1  0.15527665  0.78697873  0.16314449  1
  Te  Te5  1  0.84472335  0.21302127  0.83685551  1
  Te  Te6  1  0.84472335  0.28697873  0.33685551  1
  Te  Te7  1  0.15527665  0.71302127  0.66314449  1
  Te  Te8  1  0.26832287  0.01478965  0.35109517  1
  Te  Te9  1  0.73167713  0.98521035  0.64890483  1
  Te  Te10  1  0.73167713  0.51478965  0.14890483  1
  Te  Te11  1  0.26832287  0.48521035  0.85109517  1
  Te  Te12  1  0.12582912  0.66050585  0.30194717  1
  Te  Te13  1  0.87417088  0.33949415  0.69805283  1
  Te  Te14  1  0.87417088  0.16050585  0.19805283  1
  Te  Te15  1  0.12582912  0.83949415  0.80194717  1
  Te  Te16  1  0.62175849  0.36788934  0.23136512  1
  Te  Te17  1  0.37824151  0.63211066  0.76863488  1
  Te  Te18  1  0.37824151  0.86788934  0.26863488  1
  Te  Te19  1  0.62175849  0.13211066  0.73136512  1
  Te  Te20  1  0.80274046  0.35101887  0.05104178  1
  Te  Te21  1  0.19725954  0.64898113  0.94895822  1
  Te  Te22  1  0.19725954  0.85101887  0.44895822  1
  Te  Te23  1  0.80274046  0.14898113  0.55104178  1
  Te  Te24  1  0.65341986  0.05014912  0.14259489  1
  Te  Te25  1  0.34658014  0.94985088  0.85740511  1
  Te  Te26  1  0.34658014  0.55014912  0.35740511  1
  Te  Te27  1  0.65341986  0.44985088  0.64259489  1
  Te  Te28  1  0.35310830  0.56307895  0.53571350  1
  Te  Te29  1  0.64689170  0.43692105  0.46428650  1
  Te  Te30  1  0.64689170  0.06307895  0.96428650  1
  Te  Te31  1  0.35310830  0.93692105  0.03571350  1
  Se  Se32  1  0.59342273  0.22782439  0.46522076  1
  Se  Se33  1  0.40657727  0.77217561  0.53477924  1
  Se  Se34  1  0.40657727  0.72782439  0.03477924  1
  Se  Se35  1  0.59342273  0.27217561  0.96522076  1
  Cl  Cl36  1  0.07053916  0.11771564  0.45871839  1
  Cl  Cl37  1  0.92946084  0.88228436  0.54128161  1
  Cl  Cl38  1  0.92946084  0.61771564  0.04128161  1
  Cl  Cl39  1  0.07053916  0.38228436  0.95871839  1
  Cl  Cl40  1  0.31354879  0.29457682  0.50232687  1
  Cl  Cl41  1  0.68645121  0.70542318  0.49767313  1
  Cl  Cl42  1  0.68645121  0.79457682  0.99767313  1
  Cl  Cl43  1  0.31354879  0.20542318  0.00232687  1
  Cl  Cl44  1  0.07319467  0.12112607  0.07011490  1
  Cl  Cl45  1  0.92680533  0.87887393  0.92988510  1
  Cl  Cl46  1  0.92680533  0.62112607  0.42988510  1
  Cl  Cl47  1  0.07319467  0.37887393  0.57011490  1
  Cl  Cl48  1  0.08644769  0.36080713  0.19145415  1
  Cl  Cl49  1  0.91355231  0.63919287  0.80854585  1
  Cl  Cl50  1  0.91355231  0.86080713  0.30854585  1
  Cl  Cl51  1  0.08644769  0.13919287  0.69145415  1
  Cl  Cl52  1  0.35855877  0.19903380  0.23547567  1
  Cl  Cl53  1  0.64144123  0.80096620  0.76452433  1
  Cl  Cl54  1  0.64144123  0.69903380  0.26452433  1
  Cl  Cl55  1  0.35855877  0.30096620  0.73547567  1
  Cl  Cl56  1  0.33361370  0.45914951  0.13375552  1
  Cl  Cl57  1  0.66638630  0.54085049  0.86624448  1
  Cl  Cl58  1  0.66638630  0.95914951  0.36624448  1
  Cl  Cl59  1  0.33361370  0.04085049  0.63375552  1
