# generated using pymatgen
data_Hf2InNi2
_symmetry_space_group_name_H-M   'P 1'
_cell_length_a   3.32657780
_cell_length_b   7.17268623
_cell_length_c   7.17268623
_cell_angle_alpha   90.00000000
_cell_angle_beta   90.00000000
_cell_angle_gamma   90.00000000
_symmetry_Int_Tables_number   1
_chemical_formula_structural   Hf2InNi2
_chemical_formula_sum   'Hf4 In2 Ni4'
_cell_volume   171.14387103
_cell_formula_units_Z   2
loop_
 _symmetry_equiv_pos_site_id
 _symmetry_equiv_pos_as_xyz
  1  'x, y, z'
loop_
 _atom_site_type_symbol
 _atom_site_label
 _atom_site_symmetry_multiplicity
 _atom_site_fract_x
 _atom_site_fract_y
 _atom_site_fract_z
 _atom_site_occupancy
  Hf  Hf0  1  -0.00000000  0.33394402  0.66605598  1
  Hf  Hf1  1  -0.00000000  0.66605598  0.33394402  1
  Hf  Hf2  1  -0.00000000  0.16605598  0.16605598  1
  Hf  Hf3  1  -0.00000000  0.83394402  0.83394402  1
  In  In4  1  0.50000000  -0.00000000  0.50000000  1
  In  In5  1  0.50000000  0.50000000  0.00000000  1
  Ni  Ni6  1  0.50000000  0.12613962  0.87386038  1
  Ni  Ni7  1  0.50000000  0.87386038  0.12613962  1
  Ni  Ni8  1  0.50000000  0.37386038  0.37386038  1
  Ni  Ni9  1  0.50000000  0.62613962  0.62613962  1
