# generated using pymatgen
data_YFe3(BO3)4
_symmetry_space_group_name_H-M   'P 1'
_cell_length_a   6.12433264
_cell_length_b   6.12433264
_cell_length_c   6.12433289
_cell_angle_alpha   103.91920675
_cell_angle_beta   103.91920675
_cell_angle_gamma   103.91920253
_symmetry_Int_Tables_number   1
_chemical_formula_structural   YFe3(BO3)4
_chemical_formula_sum   'Y1 Fe3 B4 O12'
_cell_volume   205.27250359
_cell_formula_units_Z   1
loop_
 _symmetry_equiv_pos_site_id
 _symmetry_equiv_pos_as_xyz
  1  'x, y, z'
loop_
 _atom_site_type_symbol
 _atom_site_label
 _atom_site_symmetry_multiplicity
 _atom_site_fract_x
 _atom_site_fract_y
 _atom_site_fract_z
 _atom_site_occupancy
  Y  Y0  1  0.50000000  0.50000000  0.50000000  1
  Fe  Fe1  1  0.95331293  0.04668707  0.50000000  1
  Fe  Fe2  1  0.50000000  0.95331293  0.04668707  1
  Fe  Fe3  1  0.04668707  0.50000000  0.95331293  1
  B  B4  1  0.54763327  0.45236673  -0.00000000  1
  B  B5  1  0.00000000  0.54763327  0.45236673  1
  B  B6  1  0.45236673  1.00000000  0.54763327  1
  B  B7  1  0.00000000  0.00000000  -0.00000000  1
  O  O8  1  0.52528348  0.29782295  0.13076111  1
  O  O9  1  0.13076111  0.52528348  0.29782295  1
  O  O10  1  0.86923889  0.70217705  0.47471652  1
  O  O11  1  0.29782295  0.13076111  0.52528348  1
  O  O12  1  0.70217705  0.47471652  0.86923889  1
  O  O13  1  0.47471652  0.86923889  0.70217705  1
  O  O14  1  0.14335745  0.85664255  -0.00000000  1
  O  O15  1  1.00000000  0.14335745  0.85664255  1
  O  O16  1  0.85664255  0.00000000  0.14335745  1
  O  O17  1  0.40504337  0.59495663  -0.00000000  1
  O  O18  1  0.00000000  0.40504337  0.59495663  1
  O  O19  1  0.59495663  1.00000000  0.40504337  1
