# generated using pymatgen
data_NaLiTi3O7
_symmetry_space_group_name_H-M   'P 1'
_cell_length_a   5.77037216
_cell_length_b   10.06715288
_cell_length_c   10.06715288
_cell_angle_alpha   111.47462114
_cell_angle_beta   90.00000000
_cell_angle_gamma   90.00000000
_symmetry_Int_Tables_number   1
_chemical_formula_structural   NaLiTi3O7
_chemical_formula_sum   'Na4 Li4 Ti12 O28'
_cell_volume   544.21534126
_cell_formula_units_Z   4
loop_
 _symmetry_equiv_pos_site_id
 _symmetry_equiv_pos_as_xyz
  1  'x, y, z'
loop_
 _atom_site_type_symbol
 _atom_site_label
 _atom_site_symmetry_multiplicity
 _atom_site_fract_x
 _atom_site_fract_y
 _atom_site_fract_z
 _atom_site_occupancy
  Na  Na0  1  0.25532280  0.11932667  0.11932667  1
  Na  Na1  1  0.74467720  0.88067333  0.88067333  1
  Na  Na2  1  0.25532280  0.38067333  0.38067333  1
  Na  Na3  1  0.74467720  0.61932667  0.61932667  1
  Li  Li4  1  0.25953628  0.06652993  0.43347007  1
  Li  Li5  1  0.74046372  0.56652993  0.93347007  1
  Li  Li6  1  0.74046372  0.93347007  0.56652993  1
  Li  Li7  1  0.25953628  0.43347007  0.06652993  1
  Ti  Ti8  1  0.50000000  0.25000000  0.75000000  1
  Ti  Ti9  1  0.50000000  0.75000000  0.25000000  1
  Ti  Ti10  1  -0.00000000  0.25000000  0.75000000  1
  Ti  Ti11  1  0.00000000  0.75000000  0.25000000  1
  Ti  Ti12  1  0.75212834  0.26819032  0.48590875  1
  Ti  Ti13  1  0.24787166  0.51409125  0.73180968  1
  Ti  Ti14  1  0.75212834  0.01409125  0.23180968  1
  Ti  Ti15  1  0.24787166  0.76819032  0.98590875  1
  Ti  Ti16  1  0.24787166  0.73180968  0.51409125  1
  Ti  Ti17  1  0.75212834  0.48590875  0.26819032  1
  Ti  Ti18  1  0.24787166  0.98590875  0.76819032  1
  Ti  Ti19  1  0.75212834  0.23180968  0.01409125  1
  O  O20  1  0.25037416  0.85213975  0.38004849  1
  O  O21  1  0.74962584  0.61995151  0.14786025  1
  O  O22  1  0.25037416  0.11995151  0.64786025  1
  O  O23  1  0.74962584  0.35213975  0.88004849  1
  O  O24  1  0.74962584  0.14786025  0.61995151  1
  O  O25  1  0.25037416  0.38004849  0.85213975  1
  O  O26  1  0.74962584  0.88004849  0.35213975  1
  O  O27  1  0.25037416  0.64786025  0.11995151  1
  O  O28  1  0.50000000  0.36849138  0.63150862  1
  O  O29  1  0.50000000  0.86849138  0.13150862  1
  O  O30  1  0.50000000  0.63150862  0.36849138  1
  O  O31  1  0.50000000  0.13150862  0.86849138  1
  O  O32  1  0.00000000  0.13183076  0.86816924  1
  O  O33  1  0.00000000  0.63183076  0.36816924  1
  O  O34  1  0.00000000  0.86816924  0.13183076  1
  O  O35  1  0.00000000  0.36816924  0.63183076  1
  O  O36  1  0.52834819  0.14505828  0.35494172  1
  O  O37  1  0.47165181  0.64505828  0.85494172  1
  O  O38  1  0.47165181  0.85494172  0.64505828  1
  O  O39  1  0.52834819  0.35494172  0.14505828  1
  O  O40  1  0.75302443  0.41583279  0.41583279  1
  O  O41  1  0.24697557  0.58416721  0.58416721  1
  O  O42  1  0.75302443  0.08416721  0.08416721  1
  O  O43  1  0.24697557  0.91583279  0.91583279  1
  O  O44  1  0.02404025  0.85687534  0.64312466  1
  O  O45  1  0.97595975  0.35687534  0.14312466  1
  O  O46  1  0.97595975  0.14312466  0.35687534  1
  O  O47  1  0.02404025  0.64312466  0.85687534  1
