# generated using pymatgen
data_Zr6CoSn2
_symmetry_space_group_name_H-M   'P 1'
_cell_length_a   3.50353209
_cell_length_b   7.99777526
_cell_length_c   7.99777526
_cell_angle_alpha   119.99999603
_cell_angle_beta   90.00000000
_cell_angle_gamma   90.00000000
_symmetry_Int_Tables_number   1
_chemical_formula_structural   Zr6CoSn2
_chemical_formula_sum   'Zr6 Co1 Sn2'
_cell_volume   194.07747848
_cell_formula_units_Z   1
loop_
 _symmetry_equiv_pos_site_id
 _symmetry_equiv_pos_as_xyz
  1  'x, y, z'
loop_
 _atom_site_type_symbol
 _atom_site_label
 _atom_site_symmetry_multiplicity
 _atom_site_fract_x
 _atom_site_fract_y
 _atom_site_fract_z
 _atom_site_occupancy
  Zr  Zr0  1  0.50000000  0.75828226  0.75828226  1
  Zr  Zr1  1  0.50000000  0.00000000  0.24171774  1
  Zr  Zr2  1  0.50000000  0.24171774  0.00000000  1
  Zr  Zr3  1  0.00000000  0.39763112  0.39763112  1
  Zr  Zr4  1  0.00000000  1.00000000  0.60236888  1
  Zr  Zr5  1  -0.00000000  0.60236888  1.00000000  1
  Co  Co6  1  -0.00000000  -0.00000000  -0.00000000  1
  Sn  Sn7  1  0.50000000  0.66666700  0.33333300  1
  Sn  Sn8  1  0.50000000  0.33333300  0.66666700  1
