# generated using pymatgen
data_Ce2In8Ir
_symmetry_space_group_name_H-M   'P 1'
_cell_length_a   4.75736955
_cell_length_b   4.75736955
_cell_length_c   12.44027724
_cell_angle_alpha   90.00000000
_cell_angle_beta   90.00000000
_cell_angle_gamma   90.00000000
_symmetry_Int_Tables_number   1
_chemical_formula_structural   Ce2In8Ir
_chemical_formula_sum   'Ce2 In8 Ir1'
_cell_volume   281.55538369
_cell_formula_units_Z   1
loop_
 _symmetry_equiv_pos_site_id
 _symmetry_equiv_pos_as_xyz
  1  'x, y, z'
loop_
 _atom_site_type_symbol
 _atom_site_label
 _atom_site_symmetry_multiplicity
 _atom_site_fract_x
 _atom_site_fract_y
 _atom_site_fract_z
 _atom_site_occupancy
  Ce  Ce0  1  -0.00000000  0.00000000  0.30330485  1
  Ce  Ce1  1  0.00000000  0.00000000  0.69669515  1
  In  In2  1  0.00000000  0.50000000  0.12062304  1
  In  In3  1  -0.00000000  0.50000000  0.87937696  1
  In  In4  1  0.50000000  -0.00000000  0.12062304  1
  In  In5  1  0.50000000  -0.00000000  0.87937696  1
  In  In6  1  0.50000000  0.50000000  0.30717405  1
  In  In7  1  0.50000000  0.50000000  0.69282595  1
  In  In8  1  -0.00000000  0.50000000  0.50000000  1
  In  In9  1  0.50000000  0.00000000  0.50000000  1
  Ir  Ir10  1  -0.00000000  -0.00000000  0.00000000  1
