# generated using pymatgen
data_Sr2NiTeO6
_symmetry_space_group_name_H-M   'P 1'
_cell_length_a   5.61202743
_cell_length_b   5.68674181
_cell_length_c   5.68674181
_cell_angle_alpha   91.44215490
_cell_angle_beta   60.42423669
_cell_angle_gamma   60.42423669
_symmetry_Int_Tables_number   1
_chemical_formula_structural   Sr2NiTeO6
_chemical_formula_sum   'Sr2 Ni1 Te1 O6'
_cell_volume   128.31483238
_cell_formula_units_Z   1
loop_
 _symmetry_equiv_pos_site_id
 _symmetry_equiv_pos_as_xyz
  1  'x, y, z'
loop_
 _atom_site_type_symbol
 _atom_site_label
 _atom_site_symmetry_multiplicity
 _atom_site_fract_x
 _atom_site_fract_y
 _atom_site_fract_z
 _atom_site_occupancy
  Sr  Sr0  1  0.50000000  0.25004338  0.74995662  1
  Sr  Sr1  1  0.50000000  0.74995662  0.25004338  1
  Ni  Ni2  1  -0.00000000  -0.00000000  0.00000000  1
  Te  Te3  1  -0.00000000  0.50000000  0.50000000  1
  O  O4  1  -0.00000000  0.25972015  0.74027985  1
  O  O5  1  -0.00000000  0.74027985  0.25972015  1
  O  O6  1  0.48296804  0.21281969  0.21281969  1
  O  O7  1  0.51703196  0.78718031  0.78718031  1
  O  O8  1  0.09122486  0.69564840  0.69564840  1
  O  O9  1  0.90877514  0.30435160  0.30435160  1
