# generated using pymatgen
data_HgPt4
_symmetry_space_group_name_H-M   'P 1'
_cell_length_a   2.90570625
_cell_length_b   2.90570625
_cell_length_c   11.52702238
_cell_angle_alpha   82.75924560
_cell_angle_beta   90.00000000
_cell_angle_gamma   120.00000000
_symmetry_Int_Tables_number   1
_chemical_formula_structural   HgPt4
_chemical_formula_sum   'Hg1 Pt4'
_cell_volume   83.38777034
_cell_formula_units_Z   1
loop_
 _symmetry_equiv_pos_site_id
 _symmetry_equiv_pos_as_xyz
  1  'x, y, z'
loop_
 _atom_site_type_symbol
 _atom_site_label
 _atom_site_symmetry_multiplicity
 _atom_site_fract_x
 _atom_site_fract_y
 _atom_site_fract_z
 _atom_site_occupancy
  Hg  Hg0  1  -0.00000000  0.00000000  0.00000000  1
  Pt  Pt1  1  0.59695586  0.19391173  0.20913241  1
  Pt  Pt2  1  0.19867601  0.39735202  0.40397197  1
  Pt  Pt3  1  0.80132399  0.60264798  0.59602803  1
  Pt  Pt4  1  0.40304414  0.80608827  0.79086759  1
