# generated using pymatgen
data_YScSi2O7
_symmetry_space_group_name_H-M   'P 1'
_cell_length_a   4.74216888
_cell_length_b   5.54437734
_cell_length_c   5.54437734
_cell_angle_alpha   104.87566335
_cell_angle_beta   97.20711336
_cell_angle_gamma   97.20711336
_symmetry_Int_Tables_number   1
_chemical_formula_structural   YScSi2O7
_chemical_formula_sum   'Y1 Sc1 Si2 O7'
_cell_volume   137.87354723
_cell_formula_units_Z   1
loop_
 _symmetry_equiv_pos_site_id
 _symmetry_equiv_pos_as_xyz
  1  'x, y, z'
loop_
 _atom_site_type_symbol
 _atom_site_label
 _atom_site_symmetry_multiplicity
 _atom_site_fract_x
 _atom_site_fract_y
 _atom_site_fract_z
 _atom_site_occupancy
  Y  Y0  1  0.00000000  0.99884794  0.00115206  1
  Sc  Sc1  1  0.00000000  0.38465525  0.61534475  1
  Si  Si2  1  0.58817721  0.47931925  0.07972362  1
  Si  Si3  1  0.41182279  0.92027638  0.52068075  1
  O  O4  1  0.78727881  0.59447372  0.89877964  1
  O  O5  1  0.21272119  0.10122036  0.40552628  1
  O  O6  1  0.50000000  0.72894115  0.27105885  1
  O  O7  1  0.71767050  0.08294712  0.68663179  1
  O  O8  1  0.28232950  0.31336821  0.91705288  1
  O  O9  1  0.77678548  0.32437205  0.24031145  1
  O  O10  1  0.22321452  0.75968855  0.67562795  1
