# generated using pymatgen
data_Ho4FeS7
_symmetry_space_group_name_H-M   'P 1'
_cell_length_a   3.76706659
_cell_length_b   6.46141876
_cell_length_c   11.38245677
_cell_angle_alpha   103.94330366
_cell_angle_beta   89.99999995
_cell_angle_gamma   73.05194008
_symmetry_Int_Tables_number   1
_chemical_formula_structural   Ho4FeS7
_chemical_formula_sum   'Ho4 Fe1 S7'
_cell_volume   256.47681312
_cell_formula_units_Z   1
loop_
 _symmetry_equiv_pos_site_id
 _symmetry_equiv_pos_as_xyz
  1  'x, y, z'
loop_
 _atom_site_type_symbol
 _atom_site_label
 _atom_site_symmetry_multiplicity
 _atom_site_fract_x
 _atom_site_fract_y
 _atom_site_fract_z
 _atom_site_occupancy
  Ho  Ho0  1  0.69366095  0.61267810  0.20793743  1
  Ho  Ho1  1  0.30625264  0.38749473  0.80004323  1
  Ho  Ho2  1  0.99914768  0.00170463  0.00681438  1
  Ho  Ho3  1  0.11238586  0.77522828  0.56354276  1
  Fe  Fe4  1  0.88822844  0.22354311  0.42446447  1
  S  S5  1  0.74541584  0.50916833  0.63715384  1
  S  S6  1  0.27103174  0.45793653  0.35326190  1
  S  S7  1  0.33729663  0.32540675  0.05228729  1
  S  S8  1  0.66023278  0.67953445  0.94836326  1
  S  S9  1  0.03142147  0.93715707  0.22837581  1
  S  S10  1  0.96455015  0.07089969  0.78417385  1
  S  S11  1  0.49037583  0.01924834  0.49358179  1
