# generated using pymatgen
data_Sr2TlCl5
_symmetry_space_group_name_H-M   'P 1'
_cell_length_a   8.00188203
_cell_length_b   9.02516268
_cell_length_c   12.91674992
_cell_angle_alpha   90.15278474
_cell_angle_beta   90.00000000
_cell_angle_gamma   90.00000000
_symmetry_Int_Tables_number   1
_chemical_formula_structural   Sr2TlCl5
_chemical_formula_sum   'Sr8 Tl4 Cl20'
_cell_volume   932.82223633
_cell_formula_units_Z   4
loop_
 _symmetry_equiv_pos_site_id
 _symmetry_equiv_pos_as_xyz
  1  'x, y, z'
loop_
 _atom_site_type_symbol
 _atom_site_label
 _atom_site_symmetry_multiplicity
 _atom_site_fract_x
 _atom_site_fract_y
 _atom_site_fract_z
 _atom_site_occupancy
  Sr  Sr0  1  0.97633223  0.00210291  0.67743961  1
  Sr  Sr1  1  0.02366777  0.99789709  0.32256039  1
  Sr  Sr2  1  0.47633223  0.99789709  0.82256039  1
  Sr  Sr3  1  0.52366777  0.00210291  0.17743961  1
  Sr  Sr4  1  0.93276846  0.75341564  0.99461011  1
  Sr  Sr5  1  0.06723154  0.24658436  0.00538989  1
  Sr  Sr6  1  0.43276846  0.24658436  0.50538989  1
  Sr  Sr7  1  0.56723154  0.75341564  0.49461011  1
  Tl  Tl8  1  0.98204369  0.50436411  0.67411018  1
  Tl  Tl9  1  0.01795631  0.49563589  0.32588982  1
  Tl  Tl10  1  0.48204369  0.49563589  0.82588982  1
  Tl  Tl11  1  0.51795631  0.50436411  0.17411018  1
  Cl  Cl12  1  0.84057600  0.46776356  0.90977491  1
  Cl  Cl13  1  0.15942400  0.53223644  0.09022509  1
  Cl  Cl14  1  0.34057600  0.53223644  0.59022509  1
  Cl  Cl15  1  0.65942400  0.46776356  0.40977491  1
  Cl  Cl16  1  0.16311495  0.78761357  0.81597655  1
  Cl  Cl17  1  0.83688505  0.21238643  0.18402345  1
  Cl  Cl18  1  0.66311495  0.21238643  0.68402345  1
  Cl  Cl19  1  0.33688505  0.78761357  0.31597655  1
  Cl  Cl20  1  0.69387553  0.77753400  0.71405876  1
  Cl  Cl21  1  0.30612447  0.22246600  0.28594124  1
  Cl  Cl22  1  0.19387553  0.22246600  0.78594124  1
  Cl  Cl23  1  0.80612447  0.77753400  0.21405876  1
  Cl  Cl24  1  0.55125845  0.78786176  0.99707948  1
  Cl  Cl25  1  0.44874155  0.21213824  0.00292052  1
  Cl  Cl26  1  0.05125845  0.21213824  0.50292052  1
  Cl  Cl27  1  0.94874155  0.78786176  0.49707948  1
  Cl  Cl28  1  0.34084630  0.96053486  0.60150511  1
  Cl  Cl29  1  0.65915370  0.03946514  0.39849489  1
  Cl  Cl30  1  0.84084630  0.03946514  0.89849489  1
  Cl  Cl31  1  0.15915370  0.96053486  0.10150511  1
