# generated using pymatgen
data_TlMo2P3O13
_symmetry_space_group_name_H-M   'P 1'
_cell_length_a   6.49308330
_cell_length_b   9.95432730
_cell_length_c   19.71814581
_cell_angle_alpha   90.00000000
_cell_angle_beta   90.00000000
_cell_angle_gamma   107.26119525
_symmetry_Int_Tables_number   1
_chemical_formula_structural   TlMo2P3O13
_chemical_formula_sum   'Tl4 Mo8 P12 O52'
_cell_volume   1217.06857111
_cell_formula_units_Z   4
loop_
 _symmetry_equiv_pos_site_id
 _symmetry_equiv_pos_as_xyz
  1  'x, y, z'
loop_
 _atom_site_type_symbol
 _atom_site_label
 _atom_site_symmetry_multiplicity
 _atom_site_fract_x
 _atom_site_fract_y
 _atom_site_fract_z
 _atom_site_occupancy
  Tl  Tl0  1  0.26550110  0.49429290  0.59236425  1
  Tl  Tl1  1  0.73449890  0.50570710  0.09236425  1
  Tl  Tl2  1  0.71226956  0.13290717  0.91695950  1
  Tl  Tl3  1  0.28773044  0.86709283  0.41695950  1
  Mo  Mo4  1  0.64504563  0.57176116  0.42338073  1
  Mo  Mo5  1  0.35495437  0.42823884  0.92338073  1
  Mo  Mo6  1  0.06105769  0.87193306  0.96739647  1
  Mo  Mo7  1  0.93894231  0.12806694  0.46739647  1
  Mo  Mo8  1  0.85748278  0.44525016  0.75076588  1
  Mo  Mo9  1  0.14251722  0.55474984  0.25076588  1
  Mo  Mo10  1  0.56364963  0.89157714  0.71257316  1
  Mo  Mo11  1  0.43635037  0.10842286  0.21257316  1
  P  P12  1  0.01666938  0.79893487  0.67750204  1
  P  P13  1  0.98333062  0.20106513  0.17750204  1
  P  P14  1  0.76050646  0.80649230  0.55525780  1
  P  P15  1  0.23949354  0.19350770  0.05525780  1
  P  P16  1  0.90044643  0.52984058  0.91141598  1
  P  P17  1  0.09955357  0.47015942  0.41141598  1
  P  P18  1  0.74255713  0.20827058  0.62250719  1
  P  P19  1  0.25744287  0.79172942  0.12250719  1
  P  P20  1  0.51238300  0.78094273  0.00095445  1
  P  P21  1  0.48761700  0.21905727  0.50095445  1
  P  P22  1  0.40191187  0.54180586  0.76506979  1
  P  P23  1  0.59808813  0.45819414  0.26506979  1
  O  O24  1  0.67317896  0.43564110  0.93274133  1
  O  O25  1  0.32682104  0.56435890  0.43274133  1
  O  O26  1  0.78303443  0.29324620  0.79772200  1
  O  O27  1  0.21696557  0.70675380  0.29772200  1
  O  O28  1  0.45205535  0.68350052  0.72811075  1
  O  O29  1  0.54794465  0.31649948  0.22811075  1
  O  O30  1  0.83738253  0.92265238  0.50247220  1
  O  O31  1  0.16261747  0.07734762  0.00247220  1
  O  O32  1  0.25520226  0.88229484  0.68458996  1
  O  O33  1  0.74479774  0.11770516  0.18458996  1
  O  O34  1  0.05857701  0.92187425  0.88477421  1
  O  O35  1  0.94142299  0.07812575  0.38477421  1
  O  O36  1  0.96220478  0.64339820  0.69516884  1
  O  O37  1  0.03779522  0.35660180  0.19516884  1
  O  O38  1  0.59098080  0.82571934  0.60456727  1
  O  O39  1  0.40901920  0.17428066  0.10456727  1
  O  O40  1  0.56993008  0.94762192  0.79466670  1
  O  O41  1  0.43006992  0.05237808  0.29466670  1
  O  O42  1  0.87597554  0.87770147  0.71218980  1
  O  O43  1  0.12402446  0.12229853  0.21218980  1
  O  O44  1  0.90806361  0.18666018  0.57242093  1
  O  O45  1  0.09193639  0.81333982  0.07242093  1
  O  O46  1  0.82522356  0.54777578  0.24205121  1
  O  O47  1  0.17477644  0.45222422  0.74205121  1
  O  O48  1  0.75092340  0.86568847  0.99302403  1
  O  O49  1  0.24907660  0.13431153  0.49302403  1
  O  O50  1  0.45564284  0.62613083  0.98295676  1
  O  O51  1  0.54435716  0.37386917  0.48295676  1
  O  O52  1  0.95693402  0.66103109  0.95675390  1
  O  O53  1  0.04306598  0.33896891  0.45675390  1
  O  O54  1  0.68062568  0.66241205  0.51987602  1
  O  O55  1  0.31937432  0.33758795  0.01987602  1
  O  O56  1  0.95264115  0.56140796  0.43088780  1
  O  O57  1  0.04735885  0.43859204  0.93088780  1
  O  O58  1  0.66518942  0.09246776  0.67455067  1
  O  O59  1  0.33481058  0.90753224  0.17455067  1
  O  O60  1  0.52758571  0.21161557  0.58148859  1
  O  O61  1  0.47241429  0.78838443  0.08148859  1
  O  O62  1  0.97563833  0.80503988  0.59612243  1
  O  O63  1  0.02436167  0.19496012  0.09612243  1
  O  O64  1  0.41813496  0.56489606  0.84248456  1
  O  O65  1  0.58186504  0.43510394  0.34248456  1
  O  O66  1  0.82740584  0.35390632  0.65548617  1
  O  O67  1  0.17259416  0.64609368  0.15548617  1
  O  O68  1  0.71141778  0.72479707  0.37829762  1
  O  O69  1  0.28858222  0.27520293  0.87829762  1
  O  O70  1  0.37925938  0.86456910  0.96486680  1
  O  O71  1  0.62074062  0.13543090  0.46486680  1
  O  O72  1  0.55533809  0.46167063  0.73807308  1
  O  O73  1  0.44466191  0.53832937  0.23807308  1
  O  O74  1  0.91532952  0.57271834  0.83620913  1
  O  O75  1  0.08467048  0.42728166  0.33620913  1
