# generated using pymatgen
data_Tm2Fe17C3
_symmetry_space_group_name_H-M   'P 1'
_cell_length_a   8.32795816
_cell_length_b   8.59920279
_cell_length_c   8.59920279
_cell_angle_alpha   119.99999595
_cell_angle_beta   90.00000000
_cell_angle_gamma   90.00000000
_symmetry_Int_Tables_number   1
_chemical_formula_structural   Tm2Fe17C3
_chemical_formula_sum   'Tm4 Fe34 C6'
_cell_volume   533.31717009
_cell_formula_units_Z   2
loop_
 _symmetry_equiv_pos_site_id
 _symmetry_equiv_pos_as_xyz
  1  'x, y, z'
loop_
 _atom_site_type_symbol
 _atom_site_label
 _atom_site_symmetry_multiplicity
 _atom_site_fract_x
 _atom_site_fract_y
 _atom_site_fract_z
 _atom_site_occupancy
  Tm  Tm0  1  0.75000000  0.66666700  0.33333300  1
  Tm  Tm1  1  0.25000000  0.33333300  0.66666700  1
  Tm  Tm2  1  0.75000000  -0.00000000  -0.00000000  1
  Tm  Tm3  1  0.25000000  -0.00000000  -0.00000000  1
  Fe  Fe4  1  0.75000000  0.62203699  0.67418190  1
  Fe  Fe5  1  0.25000000  0.37796301  0.32581810  1
  Fe  Fe6  1  0.75000000  0.05214492  0.37796301  1
  Fe  Fe7  1  0.25000000  0.94785508  0.32581810  1
  Fe  Fe8  1  0.25000000  0.94785508  0.62203699  1
  Fe  Fe9  1  0.75000000  0.05214492  0.67418190  1
  Fe  Fe10  1  0.75000000  0.32581810  0.94785508  1
  Fe  Fe11  1  0.25000000  0.67418190  0.62203699  1
  Fe  Fe12  1  0.25000000  0.67418190  0.05214492  1
  Fe  Fe13  1  0.75000000  0.32581810  0.37796301  1
  Fe  Fe14  1  0.25000000  0.37796301  0.05214492  1
  Fe  Fe15  1  0.75000000  0.62203699  0.94785508  1
  Fe  Fe16  1  0.39321259  0.66666700  0.33333300  1
  Fe  Fe17  1  0.60678741  0.33333300  0.66666700  1
  Fe  Fe18  1  0.89321259  0.33333300  0.66666700  1
  Fe  Fe19  1  0.10678741  0.66666700  0.33333300  1
  Fe  Fe20  1  0.97999538  0.83205394  0.16794606  1
  Fe  Fe21  1  0.02000462  0.16794606  0.83205394  1
  Fe  Fe22  1  0.97999538  0.33589213  0.16794606  1
  Fe  Fe23  1  0.47999538  0.16794606  0.83205394  1
  Fe  Fe24  1  0.02000462  0.66410787  0.83205394  1
  Fe  Fe25  1  0.52000462  0.83205394  0.16794606  1
  Fe  Fe26  1  0.97999538  0.83205394  0.66410787  1
  Fe  Fe27  1  0.47999538  0.66410787  0.83205394  1
  Fe  Fe28  1  0.02000462  0.16794606  0.33589213  1
  Fe  Fe29  1  0.52000462  0.33589213  0.16794606  1
  Fe  Fe30  1  0.47999538  0.16794606  0.33589213  1
  Fe  Fe31  1  0.52000462  0.83205394  0.66410787  1
  Fe  Fe32  1  0.00000000  0.50000000  0.50000000  1
  Fe  Fe33  1  0.00000000  -0.00000000  0.50000000  1
  Fe  Fe34  1  0.50000000  0.50000000  0.50000000  1
  Fe  Fe35  1  0.00000000  0.50000000  -0.00000000  1
  Fe  Fe36  1  0.50000000  -0.00000000  0.50000000  1
  Fe  Fe37  1  0.50000000  0.50000000  -0.00000000  1
  C  C38  1  0.75000000  0.83454852  0.16545148  1
  C  C39  1  0.25000000  0.16545148  0.83454852  1
  C  C40  1  0.75000000  0.33090295  0.16545148  1
  C  C41  1  0.25000000  0.66909705  0.83454852  1
  C  C42  1  0.75000000  0.83454852  0.66909705  1
  C  C43  1  0.25000000  0.16545148  0.33090295  1
