# generated using pymatgen
data_Tb3(In3Pt)4
_symmetry_space_group_name_H-M   'P 1'
_cell_length_a   10.05153721
_cell_length_b   10.05153721
_cell_length_c   15.45614291
_cell_angle_alpha   90.00000000
_cell_angle_beta   90.00000000
_cell_angle_gamma   119.99999903
_symmetry_Int_Tables_number   1
_chemical_formula_structural   Tb3(In3Pt)4
_chemical_formula_sum   'Tb9 In36 Pt12'
_cell_volume   1352.37374326
_cell_formula_units_Z   3
loop_
 _symmetry_equiv_pos_site_id
 _symmetry_equiv_pos_as_xyz
  1  'x, y, z'
loop_
 _atom_site_type_symbol
 _atom_site_label
 _atom_site_symmetry_multiplicity
 _atom_site_fract_x
 _atom_site_fract_y
 _atom_site_fract_z
 _atom_site_occupancy
  Tb  Tb0  1  0.66666700  0.33333300  0.98641821  1
  Tb  Tb1  1  0.33333300  0.66666700  0.01358179  1
  Tb  Tb2  1  0.49260996  0.98521993  0.69473331  1
  Tb  Tb3  1  0.50739004  0.01478007  0.30526669  1
  Tb  Tb4  1  0.49260996  0.50739004  0.69473331  1
  Tb  Tb5  1  0.50739004  0.49260996  0.30526669  1
  Tb  Tb6  1  0.01478007  0.50739004  0.69473331  1
  Tb  Tb7  1  0.98521993  0.49260996  0.30526669  1
  Tb  Tb8  1  0.00000000  -0.00000000  0.50000000  1
  In  In9  1  0.66666700  0.33333300  0.61590980  1
  In  In10  1  0.33333300  0.66666700  0.38409020  1
  In  In11  1  0.78775811  0.57551621  0.81349550  1
  In  In12  1  0.21224189  0.42448379  0.18650450  1
  In  In13  1  0.78775811  0.21224189  0.81349550  1
  In  In14  1  0.21224189  0.78775811  0.18650450  1
  In  In15  1  0.42448379  0.21224189  0.81349550  1
  In  In16  1  0.57551621  0.78775811  0.18650450  1
  In  In17  1  0.22156228  0.44312455  0.83245801  1
  In  In18  1  0.77843772  0.55687545  0.16754199  1
  In  In19  1  0.22156228  0.77843772  0.83245801  1
  In  In20  1  0.77843772  0.22156228  0.16754199  1
  In  In21  1  0.55687545  0.77843772  0.83245801  1
  In  In22  1  0.44312455  0.22156228  0.16754199  1
  In  In23  1  0.66666700  0.33333300  0.41932527  1
  In  In24  1  0.33333300  0.66666700  0.58067473  1
  In  In25  1  0.71313495  0.71313495  0.00000000  1
  In  In26  1  0.28686505  0.28686505  -0.00000000  1
  In  In27  1  1.00000000  0.28686505  -0.00000000  1
  In  In28  1  0.00000000  0.71313495  0.00000000  1
  In  In29  1  0.28686505  1.00000000  -0.00000000  1
  In  In30  1  0.71313495  0.00000000  0.00000000  1
  In  In31  1  0.00000000  -0.00000000  0.87260033  1
  In  In32  1  0.00000000  -0.00000000  0.12739967  1
  In  In33  1  0.65020655  0.65020655  0.50000000  1
  In  In34  1  0.34979345  0.34979345  0.50000000  1
  In  In35  1  0.00000000  0.34979345  0.50000000  1
  In  In36  1  1.00000000  0.65020655  0.50000000  1
  In  In37  1  0.34979345  0.00000000  0.50000000  1
  In  In38  1  0.65020655  1.00000000  0.50000000  1
  In  In39  1  0.11863061  0.23726122  0.67859772  1
  In  In40  1  0.88136939  0.76273878  0.32140228  1
  In  In41  1  0.11863061  0.88136939  0.67859772  1
  In  In42  1  0.88136939  0.11863061  0.32140228  1
  In  In43  1  0.76273878  0.88136939  0.67859772  1
  In  In44  1  0.23726122  0.11863061  0.32140228  1
  Pt  Pt45  1  0.50537691  0.01075381  0.88898758  1
  Pt  Pt46  1  0.49462309  0.98924619  0.11101242  1
  Pt  Pt47  1  0.50537691  0.49462309  0.88898758  1
  Pt  Pt48  1  0.49462309  0.50537691  0.11101242  1
  Pt  Pt49  1  0.98924619  0.49462309  0.88898758  1
  Pt  Pt50  1  0.01075381  0.50537691  0.11101242  1
  Pt  Pt51  1  0.82751733  0.65503466  0.63862907  1
  Pt  Pt52  1  0.17248267  0.34496534  0.36137093  1
  Pt  Pt53  1  0.82751733  0.17248267  0.63862907  1
  Pt  Pt54  1  0.17248267  0.82751733  0.36137093  1
  Pt  Pt55  1  0.34496534  0.17248267  0.63862907  1
  Pt  Pt56  1  0.65503466  0.82751733  0.36137093  1
