# generated using pymatgen
data_Pr2(MoO4)3
_symmetry_space_group_name_H-M   'P 1'
_cell_length_a   10.73889374
_cell_length_b   10.76847122
_cell_length_c   11.07115721
_cell_angle_alpha   90.00000000
_cell_angle_beta   90.00000000
_cell_angle_gamma   90.00000000
_symmetry_Int_Tables_number   1
_chemical_formula_structural   Pr2(MoO4)3
_chemical_formula_sum   'Pr8 Mo12 O48'
_cell_volume   1280.28487415
_cell_formula_units_Z   4
loop_
 _symmetry_equiv_pos_site_id
 _symmetry_equiv_pos_as_xyz
  1  'x, y, z'
loop_
 _atom_site_type_symbol
 _atom_site_label
 _atom_site_symmetry_multiplicity
 _atom_site_fract_x
 _atom_site_fract_y
 _atom_site_fract_z
 _atom_site_occupancy
  Pr  Pr0  1  0.00739206  0.18903129  0.47457556  1
  Pr  Pr1  1  0.99260794  0.81096871  0.47457556  1
  Pr  Pr2  1  0.50739206  0.31096871  0.47457556  1
  Pr  Pr3  1  0.49260794  0.68903129  0.47457556  1
  Pr  Pr4  1  0.31051832  0.00499824  0.99977124  1
  Pr  Pr5  1  0.68948168  0.99500176  0.99977124  1
  Pr  Pr6  1  0.81051832  0.49500176  0.99977124  1
  Pr  Pr7  1  0.18948168  0.50499824  0.99977124  1
  Mo  Mo8  1  0.49662000  0.29310717  0.09465704  1
  Mo  Mo9  1  0.50338000  0.70689283  0.09465704  1
  Mo  Mo10  1  0.99662000  0.20689283  0.09465704  1
  Mo  Mo11  1  0.00338000  0.79310717  0.09465704  1
  Mo  Mo12  1  0.29393861  0.01146782  0.38016235  1
  Mo  Mo13  1  0.70606139  0.98853218  0.38016235  1
  Mo  Mo14  1  0.79393861  0.48853218  0.38016235  1
  Mo  Mo15  1  0.20606139  0.51146782  0.38016235  1
  Mo  Mo16  1  0.25737551  0.25668934  0.73749805  1
  Mo  Mo17  1  0.74262449  0.74331066  0.73749805  1
  Mo  Mo18  1  0.75737551  0.24331066  0.73749805  1
  Mo  Mo19  1  0.24262449  0.75668934  0.73749805  1
  O  O20  1  0.00632945  0.37000074  0.04823599  1
  O  O21  1  0.99367055  0.62999926  0.04823599  1
  O  O22  1  0.50632945  0.12999926  0.04823599  1
  O  O23  1  0.49367055  0.87000074  0.04823599  1
  O  O24  1  0.30709433  0.01094961  0.22040385  1
  O  O25  1  0.69290567  0.98905039  0.22040385  1
  O  O26  1  0.80709433  0.48905039  0.22040385  1
  O  O27  1  0.19290567  0.51094961  0.22040385  1
  O  O28  1  0.18312382  0.37215967  0.82923191  1
  O  O29  1  0.81687618  0.62784033  0.82923191  1
  O  O30  1  0.68312382  0.12784033  0.82923191  1
  O  O31  1  0.31687618  0.87215967  0.82923191  1
  O  O32  1  0.11586249  0.38801940  0.44330034  1
  O  O33  1  0.88413751  0.61198060  0.44330034  1
  O  O34  1  0.61586249  0.11198060  0.44330034  1
  O  O35  1  0.38413751  0.88801940  0.44330034  1
  O  O36  1  0.34232802  0.16159808  0.43096422  1
  O  O37  1  0.65767198  0.83840192  0.43096422  1
  O  O38  1  0.84232802  0.33840192  0.43096422  1
  O  O39  1  0.15767198  0.66159808  0.43096422  1
  O  O40  1  0.37392266  0.32845951  0.64520533  1
  O  O41  1  0.62607734  0.67154049  0.64520533  1
  O  O42  1  0.87392266  0.17154049  0.64520533  1
  O  O43  1  0.12607734  0.82845951  0.64520533  1
  O  O44  1  0.36936268  0.49398431  0.42542904  1
  O  O45  1  0.63063732  0.50601569  0.42542904  1
  O  O46  1  0.86936268  0.00601569  0.42542904  1
  O  O47  1  0.13063732  0.99398431  0.42542904  1
  O  O48  1  0.11407875  0.11788753  0.01973235  1
  O  O49  1  0.88592125  0.88211247  0.01973235  1
  O  O50  1  0.61407875  0.38211247  0.01973235  1
  O  O51  1  0.38592125  0.61788753  0.01973235  1
  O  O52  1  0.14640244  0.18153249  0.64105949  1
  O  O53  1  0.85359756  0.81846751  0.64105949  1
  O  O54  1  0.64640244  0.31846751  0.64105949  1
  O  O55  1  0.35359756  0.68153249  0.64105949  1
  O  O56  1  0.32929236  0.14441675  0.83424227  1
  O  O57  1  0.67070764  0.85558325  0.83424227  1
  O  O58  1  0.82929236  0.35558325  0.83424227  1
  O  O59  1  0.17070764  0.64441675  0.83424227  1
  O  O60  1  0.34338677  0.34428635  0.05663493  1
  O  O61  1  0.65661323  0.65571365  0.05663493  1
  O  O62  1  0.84338677  0.15571365  0.05663493  1
  O  O63  1  0.15661323  0.84428635  0.05663493  1
  O  O64  1  0.02007550  0.19477894  0.25323604  1
  O  O65  1  0.97992450  0.80522106  0.25323604  1
  O  O66  1  0.52007550  0.30522106  0.25323604  1
  O  O67  1  0.47992450  0.69477894  0.25323604  1
