# generated using pymatgen
data_Ti5Te8
_symmetry_space_group_name_H-M   'P 1'
_cell_length_a   7.50198070
_cell_length_b   7.50198070
_cell_length_c   7.82005784
_cell_angle_alpha   105.92253465
_cell_angle_beta   104.78543833
_cell_angle_gamma   116.61611804
_symmetry_Int_Tables_number   1
_chemical_formula_structural   Ti5Te8
_chemical_formula_sum   'Ti5 Te8'
_cell_volume   339.81759548
_cell_formula_units_Z   1
loop_
 _symmetry_equiv_pos_site_id
 _symmetry_equiv_pos_as_xyz
  1  'x, y, z'
loop_
 _atom_site_type_symbol
 _atom_site_label
 _atom_site_symmetry_multiplicity
 _atom_site_fract_x
 _atom_site_fract_y
 _atom_site_fract_z
 _atom_site_occupancy
  Ti  Ti0  1  0.28576234  0.78576234  0.50000000  1
  Ti  Ti1  1  0.71423766  0.21423766  0.50000000  1
  Ti  Ti2  1  0.25777211  0.76802135  0.02579345  1
  Ti  Ti3  1  0.74222789  0.23197865  0.97420655  1
  Ti  Ti4  1  -0.00000000  -0.00000000  0.00000000  1
  Te  Te5  1  0.55450219  0.77208041  0.32658260  1
  Te  Te6  1  0.44549781  0.22791959  0.67341740  1
  Te  Te7  1  0.46144931  0.22348295  0.17285487  1
  Te  Te8  1  0.53855069  0.77651705  0.82714513  1
  Te  Te9  1  0.05062808  0.28859444  0.82714513  1
  Te  Te10  1  0.94937192  0.71140556  0.17285487  1
  Te  Te11  1  0.03257095  0.30158197  0.33415292  1
  Te  Te12  1  0.96742905  0.69841803  0.66584708  1
