# generated using pymatgen
data_UMo4PbO16
_symmetry_space_group_name_H-M   'P 1'
_cell_length_a   6.84562880
_cell_length_b   8.71648522
_cell_length_c   11.68136169
_cell_angle_alpha   90.61008112
_cell_angle_beta   90.00000000
_cell_angle_gamma   90.00000000
_symmetry_Int_Tables_number   1
_chemical_formula_structural   UMo4PbO16
_chemical_formula_sum   'U2 Mo8 Pb2 O32'
_cell_volume   696.98526221
_cell_formula_units_Z   2
loop_
 _symmetry_equiv_pos_site_id
 _symmetry_equiv_pos_as_xyz
  1  'x, y, z'
loop_
 _atom_site_type_symbol
 _atom_site_label
 _atom_site_symmetry_multiplicity
 _atom_site_fract_x
 _atom_site_fract_y
 _atom_site_fract_z
 _atom_site_occupancy
  U  U0  1  0.69414667  0.75000000  0.75000000  1
  U  U1  1  0.30585333  0.25000000  0.25000000  1
  Mo  Mo2  1  0.16270971  0.20086068  0.90635079  1
  Mo  Mo3  1  0.83729029  0.79913932  0.09364921  1
  Mo  Mo4  1  0.16270971  0.29913932  0.59364921  1
  Mo  Mo5  1  0.83729029  0.70086068  0.40635079  1
  Mo  Mo6  1  0.16386263  0.79798169  0.59623354  1
  Mo  Mo7  1  0.83613737  0.20201831  0.40376646  1
  Mo  Mo8  1  0.16386263  0.70201831  0.90376646  1
  Mo  Mo9  1  0.83613737  0.29798169  0.09623354  1
  Pb  Pb10  1  0.68939002  0.25000000  0.75000000  1
  Pb  Pb11  1  0.31060998  0.75000000  0.25000000  1
  O  O12  1  0.14883875  0.25252430  0.07039667  1
  O  O13  1  0.85116125  0.74747570  0.92960333  1
  O  O14  1  0.14883875  0.24747570  0.42960333  1
  O  O15  1  0.85116125  0.75252430  0.57039667  1
  O  O16  1  0.05620156  0.75000000  0.75000000  1
  O  O17  1  0.94379844  0.25000000  0.25000000  1
  O  O18  1  0.07569741  0.25000000  0.75000000  1
  O  O19  1  0.92430259  0.75000000  0.25000000  1
  O  O20  1  0.15506776  0.99635247  0.59860961  1
  O  O21  1  0.84493224  0.00364753  0.40139039  1
  O  O22  1  0.15506776  0.50364753  0.90139039  1
  O  O23  1  0.84493224  0.49635247  0.09860961  1
  O  O24  1  0.14054064  0.75060230  0.44047816  1
  O  O25  1  0.85945936  0.24939770  0.55952184  1
  O  O26  1  0.14054064  0.74939770  0.05952184  1
  O  O27  1  0.85945936  0.25060230  0.94047816  1
  O  O28  1  0.41535951  0.75810304  0.63121266  1
  O  O29  1  0.58464049  0.24189696  0.36878734  1
  O  O30  1  0.41535951  0.74189696  0.86878734  1
  O  O31  1  0.58464049  0.25810304  0.13121266  1
  O  O32  1  0.41079113  0.24136486  0.88616792  1
  O  O33  1  0.58920887  0.75863514  0.11383208  1
  O  O34  1  0.41079113  0.25863514  0.61383208  1
  O  O35  1  0.58920887  0.74136486  0.38616792  1
  O  O36  1  0.69844395  0.95999050  0.75396012  1
  O  O37  1  0.30155605  0.04000950  0.24603988  1
  O  O38  1  0.69844395  0.54000950  0.74603988  1
  O  O39  1  0.30155605  0.45999050  0.25396012  1
  O  O40  1  0.15179113  0.00184753  0.90334045  1
  O  O41  1  0.84820887  0.99815247  0.09665955  1
  O  O42  1  0.15179113  0.49815247  0.59665955  1
  O  O43  1  0.84820887  0.50184753  0.40334045  1
