# generated using pymatgen
data_NaFe9Si6B3H3O31
_symmetry_space_group_name_H-M   'P 1'
_cell_length_a   7.67163762
_cell_length_b   9.85006880
_cell_length_c   9.85006871
_cell_angle_alpha   113.50949721
_cell_angle_beta   105.04714138
_cell_angle_gamma   105.04714126
_symmetry_Int_Tables_number   1
_chemical_formula_structural   NaFe9Si6B3H3O31
_chemical_formula_sum   'Na1 Fe9 Si6 B3 H3 O31'
_cell_volume   601.16403924
_cell_formula_units_Z   1
loop_
 _symmetry_equiv_pos_site_id
 _symmetry_equiv_pos_as_xyz
  1  'x, y, z'
loop_
 _atom_site_type_symbol
 _atom_site_label
 _atom_site_symmetry_multiplicity
 _atom_site_fract_x
 _atom_site_fract_y
 _atom_site_fract_z
 _atom_site_occupancy
  Na  Na0  1  0.53788156  1.00000000  1.00000000  1
  Fe  Fe1  1  0.42285643  0.56546935  0.22973535  1
  Fe  Fe2  1  0.85738708  0.66426600  0.43453065  1
  Fe  Fe3  1  0.85738708  0.43453065  0.66426600  1
  Fe  Fe4  1  0.19312108  0.77026465  0.33573400  1
  Fe  Fe5  1  0.19312108  0.33573400  0.77026465  1
  Fe  Fe6  1  0.42285643  0.22973535  0.56546935  1
  Fe  Fe7  1  0.18646403  1.00000000  0.18500773  1
  Fe  Fe8  1  0.18646403  0.18500773  1.00000000  1
  Fe  Fe9  1  0.00145630  0.81499227  0.81499227  1
  Si  Si10  1  0.58601982  0.81105294  0.62590228  1
  Si  Si11  1  0.77496688  0.81484934  0.18894706  1
  Si  Si12  1  0.77496688  0.18894706  0.81484934  1
  Si  Si13  1  0.96011753  0.37409772  0.18515066  1
  Si  Si14  1  0.96011753  0.18515066  0.37409772  1
  Si  Si15  1  0.58601982  0.62590228  0.81105294  1
  B  B16  1  0.20301623  1.00000000  0.67312549  1
  B  B17  1  0.20301623  0.67312549  1.00000000  1
  B  B18  1  0.52989073  0.32687451  0.32687451  1
  H  H19  1  0.50479013  0.00000000  0.36790736  1
  H  H20  1  0.50479013  0.36790736  0.00000000  1
  H  H21  1  0.13688277  0.63209264  0.63209264  1
  O  O22  1  0.38189568  1.00000000  0.37848823  1
  O  O23  1  0.38189568  0.37848823  1.00000000  1
  O  O24  1  0.00340745  0.62151177  0.62151177  1
  O  O25  1  0.59519625  0.46997051  0.32539875  1
  O  O26  1  0.12522574  0.85542824  0.53002949  1
  O  O27  1  0.12522574  0.53002949  0.85542824  1
  O  O28  1  0.26979750  0.67460125  0.14457176  1
  O  O29  1  0.26979750  0.14457176  0.67460125  1
  O  O30  1  0.59519625  0.32539875  0.46997051  1
  O  O31  1  0.79470257  0.80032488  0.62573270  1
  O  O32  1  0.99437770  0.82540782  0.19967512  1
  O  O33  1  0.99437770  0.19967512  0.82540782  1
  O  O34  1  0.16896987  0.37426730  0.17459218  1
  O  O35  1  0.16896987  0.17459218  0.37426730  1
  O  O36  1  0.79470257  0.62573270  0.80032488  1
  O  O37  1  0.77959222  0.00000000  0.27171396  1
  O  O38  1  0.77959222  0.27171396  0.00000000  1
  O  O39  1  0.50787826  0.72828604  0.72828604  1
  O  O40  1  0.69539625  0.71830503  0.27599291  1
  O  O41  1  0.97709122  0.55768788  0.28169497  1
  O  O42  1  0.97709122  0.28169497  0.55768788  1
  O  O43  1  0.41940334  0.72400709  0.44231212  1
  O  O44  1  0.41940334  0.44231212  0.72400709  1
  O  O45  1  0.69539625  0.27599291  0.71830503  1
  O  O46  1  0.61434817  0.00000000  0.72820544  1
  O  O47  1  0.61434817  0.72820544  0.00000000  1
  O  O48  1  0.88614273  0.27179456  0.27179456  1
  O  O49  1  0.00307128  0.00000000  0.00000000  1
  O  O50  1  0.21318778  1.00000000  0.81766590  1
  O  O51  1  0.21318778  0.81766590  1.00000000  1
  O  O52  1  0.39552188  0.18233410  0.18233410  1
