# generated using pymatgen
data_NaFe2PbF9
_symmetry_space_group_name_H-M   'P 1'
_cell_length_a   7.29744909
_cell_length_b   7.29744909
_cell_length_c   7.74486470
_cell_angle_alpha   91.70516943
_cell_angle_beta   91.70516943
_cell_angle_gamma   118.72636858
_symmetry_Int_Tables_number   1
_chemical_formula_structural   NaFe2PbF9
_chemical_formula_sum   'Na2 Fe4 Pb2 F18'
_cell_volume   361.05785690
_cell_formula_units_Z   2
loop_
 _symmetry_equiv_pos_site_id
 _symmetry_equiv_pos_as_xyz
  1  'x, y, z'
loop_
 _atom_site_type_symbol
 _atom_site_label
 _atom_site_symmetry_multiplicity
 _atom_site_fract_x
 _atom_site_fract_y
 _atom_site_fract_z
 _atom_site_occupancy
  Na  Na0  1  0.50000000  -0.00000000  0.50000000  1
  Na  Na1  1  -0.00000000  0.50000000  -0.00000000  1
  Fe  Fe2  1  -0.00000000  -0.00000000  -0.00000000  1
  Fe  Fe3  1  -0.00000000  -0.00000000  0.50000000  1
  Fe  Fe4  1  0.50000000  -0.00000000  -0.00000000  1
  Fe  Fe5  1  -0.00000000  0.50000000  0.50000000  1
  Pb  Pb6  1  0.47325964  0.52674036  0.75000000  1
  Pb  Pb7  1  0.52674036  0.47325964  0.25000000  1
  F  F8  1  0.19358403  0.88989462  0.96164132  1
  F  F9  1  0.80641597  0.11010538  0.03835868  1
  F  F10  1  0.11010538  0.80641597  0.53835868  1
  F  F11  1  0.88989462  0.19358403  0.46164132  1
  F  F12  1  0.97463069  0.02536931  0.75000000  1
  F  F13  1  0.02536931  0.97463069  0.25000000  1
  F  F14  1  0.51361005  0.89413358  0.76987873  1
  F  F15  1  0.48638995  0.10586642  0.23012127  1
  F  F16  1  0.10586642  0.48638995  0.73012127  1
  F  F17  1  0.89413358  0.51361005  0.26987873  1
  F  F18  1  0.56918836  0.27569641  0.92149018  1
  F  F19  1  0.43081164  0.72430359  0.07850982  1
  F  F20  1  0.72430359  0.43081164  0.57850982  1
  F  F21  1  0.27569641  0.56918836  0.42149018  1
  F  F22  1  0.70852709  0.78478935  0.47631937  1
  F  F23  1  0.29147291  0.21521065  0.52368063  1
  F  F24  1  0.21521065  0.29147291  0.02368063  1
  F  F25  1  0.78478935  0.70852709  0.97631937  1
