# generated using pymatgen
data_Ho2Ga4Fe13C2
_symmetry_space_group_name_H-M   'P 1'
_cell_length_a   6.50827649
_cell_length_b   6.52530717
_cell_length_c   6.61501962
_cell_angle_alpha   83.13481007
_cell_angle_beta   82.31938364
_cell_angle_gamma   82.34166522
_symmetry_Int_Tables_number   1
_chemical_formula_structural   Ho2Ga4Fe13C2
_chemical_formula_sum   'Ho2 Ga4 Fe13 C2'
_cell_volume   274.44249426
_cell_formula_units_Z   1
loop_
 _symmetry_equiv_pos_site_id
 _symmetry_equiv_pos_as_xyz
  1  'x, y, z'
loop_
 _atom_site_type_symbol
 _atom_site_label
 _atom_site_symmetry_multiplicity
 _atom_site_fract_x
 _atom_site_fract_y
 _atom_site_fract_z
 _atom_site_occupancy
  Ho  Ho0  1  0.66266442  0.66124862  0.66272600  1
  Ho  Ho1  1  0.33483582  0.33829665  0.33598988  1
  Ga  Ga2  1  0.85010678  0.32969079  0.32744369  1
  Ga  Ga3  1  0.64858837  0.65972051  0.13652588  1
  Ga  Ga4  1  0.65844732  0.14997407  0.67128500  1
  Ga  Ga5  1  0.16665789  0.66362013  0.66530174  1
  Fe  Fe6  1  0.71275874  0.99359308  0.28796700  1
  Fe  Fe7  1  0.00739985  0.28907800  0.71473550  1
  Fe  Fe8  1  0.28357465  0.71471169  0.00363562  1
  Fe  Fe9  1  0.00113393  0.71260343  0.28625750  1
  Fe  Fe10  1  0.71150678  0.28470255  0.99941777  1
  Fe  Fe11  1  0.29123800  0.00657347  0.71367573  1
  Fe  Fe12  1  0.90466966  0.90767943  0.90909430  1
  Fe  Fe13  1  0.09598425  0.09436486  0.09074161  1
  Fe  Fe14  1  0.00371182  0.50134267  0.99889544  1
  Fe  Fe15  1  0.49216798  0.00476690  0.00562030  1
  Fe  Fe16  1  0.00404446  0.99751491  0.49793743  1
  Fe  Fe17  1  0.34171166  0.34195118  0.86562067  1
  Fe  Fe18  1  0.34018615  0.85854829  0.33581872  1
  C  C19  1  0.49134299  0.98898340  0.49168485  1
  C  C20  1  0.99726850  0.50103537  0.49962537  1
