# generated using pymatgen
data_Lu2Mn17C3
_symmetry_space_group_name_H-M   'P 1'
_cell_length_a   8.30407542
_cell_length_b   8.46835017
_cell_length_c   8.46835017
_cell_angle_alpha   119.99999505
_cell_angle_beta   90.00000000
_cell_angle_gamma   90.00000000
_symmetry_Int_Tables_number   1
_chemical_formula_structural   Lu2Mn17C3
_chemical_formula_sum   'Lu4 Mn34 C6'
_cell_volume   515.72662614
_cell_formula_units_Z   2
loop_
 _symmetry_equiv_pos_site_id
 _symmetry_equiv_pos_as_xyz
  1  'x, y, z'
loop_
 _atom_site_type_symbol
 _atom_site_label
 _atom_site_symmetry_multiplicity
 _atom_site_fract_x
 _atom_site_fract_y
 _atom_site_fract_z
 _atom_site_occupancy
  Lu  Lu0  1  0.75000000  0.66666700  0.33333300  1
  Lu  Lu1  1  0.25000000  0.33333300  0.66666700  1
  Lu  Lu2  1  0.75000000  -0.00000000  -0.00000000  1
  Lu  Lu3  1  0.25000000  -0.00000000  -0.00000000  1
  Mn  Mn4  1  0.75000000  0.61269166  0.67186109  1
  Mn  Mn5  1  0.25000000  0.38730834  0.32813891  1
  Mn  Mn6  1  0.75000000  0.05916943  0.38730834  1
  Mn  Mn7  1  0.25000000  0.94083057  0.32813891  1
  Mn  Mn8  1  0.25000000  0.94083057  0.61269166  1
  Mn  Mn9  1  0.75000000  0.05916943  0.67186109  1
  Mn  Mn10  1  0.75000000  0.32813891  0.94083057  1
  Mn  Mn11  1  0.25000000  0.67186109  0.61269166  1
  Mn  Mn12  1  0.25000000  0.67186109  0.05916943  1
  Mn  Mn13  1  0.75000000  0.32813891  0.38730834  1
  Mn  Mn14  1  0.25000000  0.38730834  0.05916943  1
  Mn  Mn15  1  0.75000000  0.61269166  0.94083057  1
  Mn  Mn16  1  0.39243650  0.66666700  0.33333300  1
  Mn  Mn17  1  0.60756350  0.33333300  0.66666700  1
  Mn  Mn18  1  0.89243650  0.33333300  0.66666700  1
  Mn  Mn19  1  0.10756350  0.66666700  0.33333300  1
  Mn  Mn20  1  0.97572206  0.83100843  0.16899157  1
  Mn  Mn21  1  0.02427794  0.16899157  0.83100843  1
  Mn  Mn22  1  0.97572206  0.33798314  0.16899157  1
  Mn  Mn23  1  0.47572206  0.16899157  0.83100843  1
  Mn  Mn24  1  0.02427794  0.66201686  0.83100843  1
  Mn  Mn25  1  0.52427794  0.83100843  0.16899157  1
  Mn  Mn26  1  0.97572206  0.83100843  0.66201686  1
  Mn  Mn27  1  0.47572206  0.66201686  0.83100843  1
  Mn  Mn28  1  0.02427794  0.16899157  0.33798314  1
  Mn  Mn29  1  0.52427794  0.33798314  0.16899157  1
  Mn  Mn30  1  0.47572206  0.16899157  0.33798314  1
  Mn  Mn31  1  0.52427794  0.83100843  0.66201686  1
  Mn  Mn32  1  -0.00000000  0.50000000  0.50000000  1
  Mn  Mn33  1  -0.00000000  -0.00000000  0.50000000  1
  Mn  Mn34  1  0.50000000  0.50000000  0.50000000  1
  Mn  Mn35  1  -0.00000000  0.50000000  -0.00000000  1
  Mn  Mn36  1  0.50000000  -0.00000000  0.50000000  1
  Mn  Mn37  1  0.50000000  0.50000000  -0.00000000  1
  C  C38  1  0.75000000  0.83520824  0.16479176  1
  C  C39  1  0.25000000  0.16479176  0.83520824  1
  C  C40  1  0.75000000  0.32958351  0.16479176  1
  C  C41  1  0.25000000  0.67041649  0.83520824  1
  C  C42  1  0.75000000  0.83520824  0.67041649  1
  C  C43  1  0.25000000  0.16479176  0.32958351  1
