# generated using pymatgen
data_Na2ZrSi4H4O13
_symmetry_space_group_name_H-M   'P 1'
_cell_length_a   7.65795379
_cell_length_b   8.93193517
_cell_length_c   9.23589720
_cell_angle_alpha   90.00000000
_cell_angle_beta   112.85492221
_cell_angle_gamma   90.00000000
_symmetry_Int_Tables_number   1
_chemical_formula_structural   Na2ZrSi4H4O13
_chemical_formula_sum   'Na4 Zr2 Si8 H8 O26'
_cell_volume   582.14157588
_cell_formula_units_Z   2
loop_
 _symmetry_equiv_pos_site_id
 _symmetry_equiv_pos_as_xyz
  1  'x, y, z'
loop_
 _atom_site_type_symbol
 _atom_site_label
 _atom_site_symmetry_multiplicity
 _atom_site_fract_x
 _atom_site_fract_y
 _atom_site_fract_z
 _atom_site_occupancy
  Na  Na0  1  0.78939817  0.18812374  0.79124609  1
  Na  Na1  1  0.21060183  0.81187626  0.20875391  1
  Na  Na2  1  0.71060183  0.68812374  0.20875391  1
  Na  Na3  1  0.28939817  0.31187626  0.79124609  1
  Zr  Zr4  1  0.50000000  0.00000000  0.00000000  1
  Zr  Zr5  1  0.00000000  0.50000000  -0.00000000  1
  Si  Si6  1  0.80144540  0.84236718  0.83139711  1
  Si  Si7  1  0.19855460  0.15763282  0.16860289  1
  Si  Si8  1  0.69855460  0.34236718  0.16860289  1
  Si  Si9  1  0.30144540  0.65763282  0.83139711  1
  Si  Si10  1  0.58885865  0.55898734  0.68133992  1
  Si  Si11  1  0.41114135  0.44101266  0.31866008  1
  Si  Si12  1  0.91114135  0.05898734  0.31866008  1
  Si  Si13  1  0.08885865  0.94101266  0.68133992  1
  H  H14  1  0.58090382  0.80220917  0.48838301  1
  H  H15  1  0.41909618  0.19779083  0.51161699  1
  H  H16  1  0.91909618  0.30220917  0.51161699  1
  H  H17  1  0.08090382  0.69779083  0.48838301  1
  H  H18  1  0.90342927  0.39944725  0.65046822  1
  H  H19  1  0.09657073  0.60055275  0.34953178  1
  H  H20  1  0.59657073  0.89944725  0.34953178  1
  H  H21  1  0.40342927  0.10055275  0.65046822  1
  O  O22  1  0.93371066  0.73325299  0.97254487  1
  O  O23  1  0.06628934  0.26674701  0.02745513  1
  O  O24  1  0.56628934  0.23325299  0.02745513  1
  O  O25  1  0.43371066  0.76674701  0.97254487  1
  O  O26  1  0.68379162  0.96585210  0.88438397  1
  O  O27  1  0.31620838  0.03414790  0.11561603  1
  O  O28  1  0.81620838  0.46585210  0.11561603  1
  O  O29  1  0.18379162  0.53414790  0.88438397  1
  O  O30  1  0.77036338  0.45781575  0.78258898  1
  O  O31  1  0.22963662  0.54218425  0.21741102  1
  O  O32  1  0.72963662  0.95781575  0.21741102  1
  O  O33  1  0.27036338  0.04218425  0.78258898  1
  O  O34  1  0.97015799  0.31532648  0.62693954  1
  O  O35  1  0.02984201  0.68467352  0.37306046  1
  O  O36  1  0.52984201  0.81532648  0.37306046  1
  O  O37  1  0.47015799  0.18467352  0.62693954  1
  O  O38  1  0.65490558  0.73623761  0.68415643  1
  O  O39  1  0.34509442  0.26376239  0.31584357  1
  O  O40  1  0.84509442  0.23623761  0.31584357  1
  O  O41  1  0.15490558  0.76376239  0.68415643  1
  O  O42  1  0.92152358  0.94538145  0.75092300  1
  O  O43  1  0.07847642  0.05461855  0.24907700  1
  O  O44  1  0.57847642  0.44538145  0.24907700  1
  O  O45  1  0.42152358  0.55461855  0.75092300  1
  O  O46  1  0.00000000  0.00000000  0.50000000  1
  O  O47  1  0.50000000  0.50000000  0.50000000  1
