# generated using pymatgen
data_La3ZrGa5O14
_symmetry_space_group_name_H-M   'P 1'
_cell_length_a   5.21733905
_cell_length_b   8.35569863
_cell_length_c   8.35569863
_cell_angle_alpha   120.00000295
_cell_angle_beta   90.00000000
_cell_angle_gamma   90.00000000
_symmetry_Int_Tables_number   1
_chemical_formula_structural   La3ZrGa5O14
_chemical_formula_sum   'La3 Zr1 Ga5 O14'
_cell_volume   315.46066515
_cell_formula_units_Z   1
loop_
 _symmetry_equiv_pos_site_id
 _symmetry_equiv_pos_as_xyz
  1  'x, y, z'
loop_
 _atom_site_type_symbol
 _atom_site_label
 _atom_site_symmetry_multiplicity
 _atom_site_fract_x
 _atom_site_fract_y
 _atom_site_fract_z
 _atom_site_occupancy
  La  La0  1  -0.00000000  0.42645226  0.42645226  1
  La  La1  1  -0.00000000  0.00000000  0.57354774  1
  La  La2  1  0.00000000  0.57354774  0.00000000  1
  Zr  Zr3  1  -0.00000000  -0.00000000  -0.00000000  1
  Ga  Ga4  1  0.46983199  0.66666700  0.33333300  1
  Ga  Ga5  1  0.53016801  0.33333300  0.66666700  1
  Ga  Ga6  1  0.50000000  0.75430189  0.75430189  1
  Ga  Ga7  1  0.50000000  1.00000000  0.24569811  1
  Ga  Ga8  1  0.50000000  0.24569811  1.00000000  1
  O  O9  1  0.75462045  0.85027286  0.07992781  1
  O  O10  1  0.75462045  0.22965495  0.14972714  1
  O  O11  1  0.24537955  0.77034505  0.92007219  1
  O  O12  1  0.75462045  0.92007219  0.77034505  1
  O  O13  1  0.24537955  0.07992781  0.85027286  1
  O  O14  1  0.24537955  0.14972714  0.22965495  1
  O  O15  1  0.81900249  0.66666700  0.33333300  1
  O  O16  1  0.18099751  0.33333300  0.66666700  1
  O  O17  1  0.69917129  0.54153323  0.68799236  1
  O  O18  1  0.69917129  0.14645913  0.45846677  1
  O  O19  1  0.30082871  0.85354087  0.31200764  1
  O  O20  1  0.69917129  0.31200764  0.85354087  1
  O  O21  1  0.30082871  0.68799236  0.54153323  1
  O  O22  1  0.30082871  0.45846677  0.14645913  1
