# generated using pymatgen
data_La3(Al2Si3)2
_symmetry_space_group_name_H-M   'P 1'
_cell_length_a   4.20332124
_cell_length_b   4.20332124
_cell_length_c   18.48114200
_cell_angle_alpha   90.00000000
_cell_angle_beta   90.00000000
_cell_angle_gamma   120.00000532
_symmetry_Int_Tables_number   1
_chemical_formula_structural   La3(Al2Si3)2
_chemical_formula_sum   'La3 Al4 Si6'
_cell_volume   282.77732162
_cell_formula_units_Z   1
loop_
 _symmetry_equiv_pos_site_id
 _symmetry_equiv_pos_as_xyz
  1  'x, y, z'
loop_
 _atom_site_type_symbol
 _atom_site_label
 _atom_site_symmetry_multiplicity
 _atom_site_fract_x
 _atom_site_fract_y
 _atom_site_fract_z
 _atom_site_occupancy
  La  La0  1  0.00000000  -0.00000000  0.88779991  1
  La  La1  1  -0.00000000  0.00000000  0.11220009  1
  La  La2  1  0.00000000  0.00000000  0.50000000  1
  Al  Al3  1  0.66666700  0.33333300  0.25615557  1
  Al  Al4  1  0.33333300  0.66666700  0.74384443  1
  Al  Al5  1  0.66666700  0.33333300  0.64217129  1
  Al  Al6  1  0.33333300  0.66666700  0.35782871  1
  Si  Si7  1  0.66666700  0.33333300  0.39554332  1
  Si  Si8  1  0.33333300  0.66666700  0.60445668  1
  Si  Si9  1  0.66666700  0.33333300  0.00319833  1
  Si  Si10  1  0.33333300  0.66666700  0.99680167  1
  Si  Si11  1  0.66666700  0.33333300  0.77987371  1
  Si  Si12  1  0.33333300  0.66666700  0.22012629  1
