# generated using pymatgen
data_KLiErF5
_symmetry_space_group_name_H-M   'P 1'
_cell_length_a   6.45586828
_cell_length_b   6.30894403
_cell_length_c   11.81239197
_cell_angle_alpha   90.00000000
_cell_angle_beta   90.00000000
_cell_angle_gamma   113.96729844
_symmetry_Int_Tables_number   1
_chemical_formula_structural   KLiErF5
_chemical_formula_sum   'K4 Li4 Er4 F20'
_cell_volume   439.63233080
_cell_formula_units_Z   4
loop_
 _symmetry_equiv_pos_site_id
 _symmetry_equiv_pos_as_xyz
  1  'x, y, z'
loop_
 _atom_site_type_symbol
 _atom_site_label
 _atom_site_symmetry_multiplicity
 _atom_site_fract_x
 _atom_site_fract_y
 _atom_site_fract_z
 _atom_site_occupancy
  K  K0  1  0.94685483  0.96260406  0.35000545  1
  K  K1  1  0.05314517  0.03739594  0.64999455  1
  K  K2  1  0.05314517  0.53739594  0.85000545  1
  K  K3  1  0.94685483  0.46260406  0.14999455  1
  Li  Li4  1  0.55799359  0.96185162  0.74572946  1
  Li  Li5  1  0.44200641  0.03814838  0.25427054  1
  Li  Li6  1  0.44200641  0.53814838  0.24572946  1
  Li  Li7  1  0.55799359  0.46185162  0.75427054  1
  Er  Er8  1  0.68142649  0.81971013  0.99789234  1
  Er  Er9  1  0.31857351  0.18028987  0.00210766  1
  Er  Er10  1  0.31857351  0.68028987  0.49789234  1
  Er  Er11  1  0.68142649  0.31971013  0.50210766  1
  F  F12  1  0.72118247  0.77776249  0.80712395  1
  F  F13  1  0.27881753  0.22223751  0.19287605  1
  F  F14  1  0.27881753  0.72223751  0.30712395  1
  F  F15  1  0.72118247  0.27776249  0.69287605  1
  F  F16  1  0.66441936  0.95303049  0.53110702  1
  F  F17  1  0.33558064  0.04696951  0.46889298  1
  F  F18  1  0.33558064  0.54696951  0.03110702  1
  F  F19  1  0.66441936  0.45303049  0.96889298  1
  F  F20  1  0.95509214  0.67141361  0.50674762  1
  F  F21  1  0.04490786  0.32858639  0.49325238  1
  F  F22  1  0.04490786  0.82858639  0.00674762  1
  F  F23  1  0.95509214  0.17141361  0.99325238  1
  F  F24  1  0.46452726  0.96622839  0.89616034  1
  F  F25  1  0.53547274  0.03377161  0.10383966  1
  F  F26  1  0.53547274  0.53377161  0.39616034  1
  F  F27  1  0.46452726  0.46622839  0.60383966  1
  F  F28  1  0.28624632  0.77617816  0.67308991  1
  F  F29  1  0.71375368  0.22382184  0.32691009  1
  F  F30  1  0.71375368  0.72382184  0.17308991  1
  F  F31  1  0.28624632  0.27617816  0.82691009  1
