# generated using pymatgen
data_Er2(Ga3Ru)3
_symmetry_space_group_name_H-M   'P 1'
_cell_length_a   7.47061448
_cell_length_b   7.47061448
_cell_length_c   9.69421401
_cell_angle_alpha   90.00000000
_cell_angle_beta   90.00000000
_cell_angle_gamma   119.51936035
_symmetry_Int_Tables_number   1
_chemical_formula_structural   Er2(Ga3Ru)3
_chemical_formula_sum   'Er4 Ga18 Ru6'
_cell_volume   470.80272771
_cell_formula_units_Z   2
loop_
 _symmetry_equiv_pos_site_id
 _symmetry_equiv_pos_as_xyz
  1  'x, y, z'
loop_
 _atom_site_type_symbol
 _atom_site_label
 _atom_site_symmetry_multiplicity
 _atom_site_fract_x
 _atom_site_fract_y
 _atom_site_fract_z
 _atom_site_occupancy
  Er  Er0  1  0.66905631  0.99691044  0.25000000  1
  Er  Er1  1  0.33094369  0.00308956  0.75000000  1
  Er  Er2  1  0.99691044  0.66905631  0.25000000  1
  Er  Er3  1  0.00308956  0.33094369  0.75000000  1
  Ga  Ga4  1  0.12521343  0.12521343  0.25000000  1
  Ga  Ga5  1  0.87478657  0.87478657  0.75000000  1
  Ga  Ga6  1  0.33517169  0.00470431  0.07611115  1
  Ga  Ga7  1  0.66482831  0.99529569  0.92388885  1
  Ga  Ga8  1  0.66482831  0.99529569  0.57611115  1
  Ga  Ga9  1  0.00470431  0.33517169  0.42388885  1
  Ga  Ga10  1  0.33517169  0.00470431  0.42388885  1
  Ga  Ga11  1  0.99529569  0.66482831  0.57611115  1
  Ga  Ga12  1  0.99529569  0.66482831  0.92388885  1
  Ga  Ga13  1  0.00470431  0.33517169  0.07611115  1
  Ga  Ga14  1  0.33661349  0.33661349  0.56039654  1
  Ga  Ga15  1  0.66338651  0.66338651  0.43960346  1
  Ga  Ga16  1  0.66338651  0.66338651  0.06039654  1
  Ga  Ga17  1  0.33661349  0.33661349  0.93960346  1
  Ga  Ga18  1  0.54787468  0.33663102  0.25000000  1
  Ga  Ga19  1  0.45212532  0.66336898  0.75000000  1
  Ga  Ga20  1  0.33663102  0.54787468  0.25000000  1
  Ga  Ga21  1  0.66336898  0.45212532  0.75000000  1
  Ru  Ru22  1  0.32591279  0.67408721  0.00000000  1
  Ru  Ru23  1  0.67408721  0.32591279  0.00000000  1
  Ru  Ru24  1  0.67408721  0.32591279  0.50000000  1
  Ru  Ru25  1  0.32591279  0.67408721  0.50000000  1
  Ru  Ru26  1  0.00000000  0.00000000  0.00000000  1
  Ru  Ru27  1  0.00000000  0.00000000  0.50000000  1
