# generated using pymatgen
data_Eu2HgO4
_symmetry_space_group_name_H-M   'P 1'
_cell_length_a   3.77679951
_cell_length_b   7.22487760
_cell_length_c   9.08256493
_cell_angle_alpha   77.30956224
_cell_angle_beta   77.99982023
_cell_angle_gamma   74.84835985
_symmetry_Int_Tables_number   1
_chemical_formula_structural   Eu2HgO4
_chemical_formula_sum   'Eu4 Hg2 O8'
_cell_volume   230.37619195
_cell_formula_units_Z   2
loop_
 _symmetry_equiv_pos_site_id
 _symmetry_equiv_pos_as_xyz
  1  'x, y, z'
loop_
 _atom_site_type_symbol
 _atom_site_label
 _atom_site_symmetry_multiplicity
 _atom_site_fract_x
 _atom_site_fract_y
 _atom_site_fract_z
 _atom_site_occupancy
  Eu  Eu0  1  0.62058465  0.21567507  0.54315564  1
  Eu  Eu1  1  0.37941535  0.78432493  0.45684436  1
  Eu  Eu2  1  0.83712460  0.52760653  0.79814426  1
  Eu  Eu3  1  0.16287540  0.47239347  0.20185574  1
  Hg  Hg4  1  0.88544137  0.06673434  0.16238292  1
  Hg  Hg5  1  0.11455863  0.93326566  0.83761708  1
  O  O6  1  0.96510272  0.78890440  0.28089016  1
  O  O7  1  0.03489728  0.21109560  0.71910984  1
  O  O8  1  0.58169549  0.48576997  0.35083905  1
  O  O9  1  0.41830451  0.51423003  0.64916095  1
  O  O10  1  0.79332857  0.35233394  0.06100893  1
  O  O11  1  0.20667143  0.64766606  0.93899107  1
  O  O12  1  0.76752263  0.85209235  0.61286239  1
  O  O13  1  0.23247737  0.14790765  0.38713761  1
