# generated using pymatgen
data_Ba3CoO5
_symmetry_space_group_name_H-M   'P 1'
_cell_length_a   7.37993837
_cell_length_b   7.37993837
_cell_length_c   7.84864260
_cell_angle_alpha   118.04345373
_cell_angle_beta   118.04345373
_cell_angle_gamma   90.00000000
_symmetry_Int_Tables_number   1
_chemical_formula_structural   Ba3CoO5
_chemical_formula_sum   'Ba6 Co2 O10'
_cell_volume   319.29471692
_cell_formula_units_Z   2
loop_
 _symmetry_equiv_pos_site_id
 _symmetry_equiv_pos_as_xyz
  1  'x, y, z'
loop_
 _atom_site_type_symbol
 _atom_site_label
 _atom_site_symmetry_multiplicity
 _atom_site_fract_x
 _atom_site_fract_y
 _atom_site_fract_z
 _atom_site_occupancy
  Ba  Ba0  1  0.25000000  0.25000000  0.50000000  1
  Ba  Ba1  1  0.75000000  0.75000000  0.50000000  1
  Ba  Ba2  1  0.67466891  0.17466891  -0.00000000  1
  Ba  Ba3  1  0.32533109  0.82533109  0.00000000  1
  Ba  Ba4  1  0.82533109  0.67466891  -0.00000000  1
  Ba  Ba5  1  0.17466891  0.32533109  0.00000000  1
  Co  Co6  1  0.25000000  0.75000000  0.50000000  1
  Co  Co7  1  0.75000000  0.25000000  0.50000000  1
  O  O8  1  0.29327450  0.79327450  0.31252673  1
  O  O9  1  0.70672550  0.20672550  0.68747327  1
  O  O10  1  0.01925223  0.51925223  0.31252673  1
  O  O11  1  0.51925223  0.29327450  0.31252673  1
  O  O12  1  0.20672550  0.98074777  0.68747327  1
  O  O13  1  0.98074777  0.48074777  0.68747327  1
  O  O14  1  0.48074777  0.70672550  0.68747327  1
  O  O15  1  0.79327450  0.01925223  0.31252673  1
  O  O16  1  -0.00000000  -0.00000000  0.00000000  1
  O  O17  1  0.50000000  0.50000000  -0.00000000  1
