# generated using pymatgen
data_Li6P6H8O23
_symmetry_space_group_name_H-M   'P 1'
_cell_length_a   8.23667680
_cell_length_b   8.18196659
_cell_length_c   9.90158034
_cell_angle_alpha   115.52721670
_cell_angle_beta   115.64949576
_cell_angle_gamma   70.61953631
_symmetry_Int_Tables_number   1
_chemical_formula_structural   Li6P6H8O23
_chemical_formula_sum   'Li6 P6 H8 O23'
_cell_volume   534.08312766
_cell_formula_units_Z   1
loop_
 _symmetry_equiv_pos_site_id
 _symmetry_equiv_pos_as_xyz
  1  'x, y, z'
loop_
 _atom_site_type_symbol
 _atom_site_label
 _atom_site_symmetry_multiplicity
 _atom_site_fract_x
 _atom_site_fract_y
 _atom_site_fract_z
 _atom_site_occupancy
  Li  Li0  1  0.22289697  0.59722729  0.67735965  1
  Li  Li1  1  0.77832490  0.40123150  0.32523654  1
  Li  Li2  1  0.14175495  0.01860534  0.84845896  1
  Li  Li3  1  0.86324996  0.97792047  0.15069129  1
  Li  Li4  1  0.09243205  0.58421061  0.93950305  1
  Li  Li5  1  0.90281276  0.41366093  0.05895655  1
  P  P6  1  0.17670500  0.21795321  0.41734396  1
  P  P7  1  0.82289948  0.78264902  0.58132825  1
  P  P8  1  0.71405402  0.10490577  0.83573224  1
  P  P9  1  0.28496619  0.89706093  0.16367898  1
  P  P10  1  0.31063192  0.25942955  0.76092977  1
  P  P11  1  0.68897624  0.74040366  0.23847211  1
  H  H12  1  0.81476558  0.52638733  0.71351477  1
  H  H13  1  0.17465737  0.46962558  0.27765164  1
  H  H14  1  0.48657216  0.70021666  0.70058018  1
  H  H15  1  0.48312852  0.33305020  0.29870972  1
  H  H16  1  0.84114242  0.38155439  0.79223071  1
  H  H17  1  0.15450242  0.61749037  0.20655006  1
  H  H18  1  0.53584066  0.72939843  0.88119142  1
  H  H19  1  0.47754898  0.26028237  0.12415655  1
  O  O20  1  0.68298080  0.93691755  0.66690508  1
  O  O21  1  0.31795290  0.06222697  0.33438216  1
  O  O22  1  0.01733258  0.80851886  0.68285866  1
  O  O23  1  0.98301795  0.19129281  0.31472118  1
  O  O24  1  0.85789630  0.50626229  0.81582412  1
  O  O25  1  0.13893814  0.49027450  0.17661934  1
  O  O26  1  0.86102922  0.20095232  0.86339108  1
  O  O27  1  0.13691405  0.80073027  0.13282898  1
  O  O28  1  0.23040051  0.15871440  0.56984541  1
  O  O29  1  0.76717613  0.84343477  0.42945876  1
  O  O30  1  0.44874129  0.68451062  0.77438723  1
  O  O31  1  0.55589459  0.30808446  0.23462806  1
  O  O32  1  0.22352708  0.40326314  0.46622930  1
  O  O33  1  0.77548688  0.59775803  0.53225139  1
  O  O34  1  0.76666776  0.53708359  0.20035802  1
  O  O35  1  0.23244061  0.46262758  0.80110188  1
  O  O36  1  0.52405317  0.24463047  0.79187262  1
  O  O37  1  0.47475773  0.75603683  0.20549656  1
  O  O38  1  0.73396075  0.04001157  0.96154980  1
  O  O39  1  0.26580892  0.96713287  0.04089211  1
  O  O40  1  0.71729353  0.84228715  0.15946561  1
  O  O41  1  0.28536887  0.15395510  0.83845338  1
  O  O42  1  0.34649767  0.71903024  0.48420287  1
