# generated using pymatgen
data_BaAlCdF7
_symmetry_space_group_name_H-M   'P 1'
_cell_length_a   5.38590746
_cell_length_b   7.52163293
_cell_length_c   15.03544550
_cell_angle_alpha   91.66325848
_cell_angle_beta   90.00000000
_cell_angle_gamma   110.97912947
_symmetry_Int_Tables_number   1
_chemical_formula_structural   BaAlCdF7
_chemical_formula_sum   'Ba4 Al4 Cd4 F28'
_cell_volume   568.44678570
_cell_formula_units_Z   4
loop_
 _symmetry_equiv_pos_site_id
 _symmetry_equiv_pos_as_xyz
  1  'x, y, z'
loop_
 _atom_site_type_symbol
 _atom_site_label
 _atom_site_symmetry_multiplicity
 _atom_site_fract_x
 _atom_site_fract_y
 _atom_site_fract_z
 _atom_site_occupancy
  Ba  Ba0  1  0.65282726  0.38082736  0.62263777  1
  Ba  Ba1  1  0.34717274  0.61917264  0.37736223  1
  Ba  Ba2  1  0.27199990  0.61917264  0.87736223  1
  Ba  Ba3  1  0.72800010  0.38082736  0.12263777  1
  Al  Al4  1  0.38530595  0.75494048  0.62458959  1
  Al  Al5  1  0.61469405  0.24505952  0.37541041  1
  Al  Al6  1  0.63036547  0.24505952  0.87541041  1
  Al  Al7  1  0.36963453  0.75494048  0.12458959  1
  Cd  Cd8  1  -0.00000000  -0.00000000  -0.00000000  1
  Cd  Cd9  1  -0.00000000  -0.00000000  0.50000000  1
  Cd  Cd10  1  0.94853394  1.00000000  0.75000000  1
  Cd  Cd11  1  0.05146606  0.00000000  0.25000000  1
  F  F12  1  0.42845371  0.17281033  0.97481255  1
  F  F13  1  0.57154629  0.82718967  0.02518745  1
  F  F14  1  0.25564338  0.82718967  0.52518745  1
  F  F15  1  0.74435662  0.17281033  0.47481255  1
  F  F16  1  0.68903697  0.49115226  0.90759561  1
  F  F17  1  0.31096303  0.50884774  0.09240439  1
  F  F18  1  0.19788472  0.50884774  0.59240439  1
  F  F19  1  0.80211528  0.49115226  0.40759561  1
  F  F20  1  0.54325545  0.67486145  0.71752728  1
  F  F21  1  0.45674455  0.32513855  0.28247272  1
  F  F22  1  0.86839400  0.32513855  0.78247272  1
  F  F23  1  0.13160600  0.67486145  0.21752728  1
  F  F24  1  0.60111334  0.00115683  0.84667726  1
  F  F25  1  0.39888666  0.99884317  0.15332274  1
  F  F26  1  0.59995651  0.99884317  0.65332274  1
  F  F27  1  0.40004349  0.00115683  0.34667726  1
  F  F28  1  0.35864391  0.24106127  0.80329411  1
  F  F29  1  0.64135609  0.75893873  0.19670589  1
  F  F30  1  0.11758264  0.75893873  0.69670589  1
  F  F31  1  0.88241736  0.24106127  0.30329411  1
  F  F32  1  0.65609150  0.73294658  0.55152608  1
  F  F33  1  0.34390850  0.26705342  0.44847392  1
  F  F34  1  0.92314492  0.26705342  0.94847392  1
  F  F35  1  0.07685508  0.73294658  0.05152608  1
  F  F36  1  0.84262002  0.86552681  0.37033756  1
  F  F37  1  0.15737998  0.13447319  0.62966244  1
  F  F38  1  0.97709322  0.13447319  0.12966244  1
  F  F39  1  0.02290678  0.86552681  0.87033756  1
