# generated using pymatgen
data_Cs2Mn2Cr3O12
_symmetry_space_group_name_H-M   'P 1'
_cell_length_a   10.85157786
_cell_length_b   10.85157786
_cell_length_c   10.85157786
_cell_angle_alpha   90.00000000
_cell_angle_beta   90.00000000
_cell_angle_gamma   90.00000000
_symmetry_Int_Tables_number   1
_chemical_formula_structural   Cs2Mn2Cr3O12
_chemical_formula_sum   'Cs8 Mn8 Cr12 O48'
_cell_volume   1277.84645491
_cell_formula_units_Z   4
loop_
 _symmetry_equiv_pos_site_id
 _symmetry_equiv_pos_as_xyz
  1  'x, y, z'
loop_
 _atom_site_type_symbol
 _atom_site_label
 _atom_site_symmetry_multiplicity
 _atom_site_fract_x
 _atom_site_fract_y
 _atom_site_fract_z
 _atom_site_occupancy
  Cs  Cs0  1  0.05023228  0.05023228  0.05023228  1
  Cs  Cs1  1  0.44976772  0.94976772  0.55023228  1
  Cs  Cs2  1  0.94976772  0.55023228  0.44976772  1
  Cs  Cs3  1  0.55023228  0.44976772  0.94976772  1
  Cs  Cs4  1  0.81830746  0.81830746  0.81830746  1
  Cs  Cs5  1  0.68169254  0.18169254  0.31830746  1
  Cs  Cs6  1  0.18169254  0.31830746  0.68169254  1
  Cs  Cs7  1  0.31830746  0.68169254  0.18169254  1
  Mn  Mn8  1  0.33634254  0.33634254  0.33634254  1
  Mn  Mn9  1  0.16365746  0.66365746  0.83634254  1
  Mn  Mn10  1  0.66365746  0.83634254  0.16365746  1
  Mn  Mn11  1  0.83634254  0.16365746  0.66365746  1
  Mn  Mn12  1  0.60110260  0.60110260  0.60110260  1
  Mn  Mn13  1  0.89889740  0.39889740  0.10110260  1
  Mn  Mn14  1  0.39889740  0.10110260  0.89889740  1
  Mn  Mn15  1  0.10110260  0.89889740  0.39889740  1
  Cr  Cr16  1  0.01991237  0.21435610  0.37671067  1
  Cr  Cr17  1  0.48008763  0.78564390  0.87671067  1
  Cr  Cr18  1  0.98008763  0.71435610  0.12328933  1
  Cr  Cr19  1  0.37671067  0.01991237  0.21435610  1
  Cr  Cr20  1  0.51991237  0.28564390  0.62328933  1
  Cr  Cr21  1  0.87671067  0.48008763  0.78564390  1
  Cr  Cr22  1  0.12328933  0.98008763  0.71435610  1
  Cr  Cr23  1  0.62328933  0.51991237  0.28564390  1
  Cr  Cr24  1  0.21435610  0.37671067  0.01991237  1
  Cr  Cr25  1  0.71435610  0.12328933  0.98008763  1
  Cr  Cr26  1  0.28564390  0.62328933  0.51991237  1
  Cr  Cr27  1  0.78564390  0.87671067  0.48008763  1
  O  O28  1  0.01723470  0.06677728  0.33289942  1
  O  O29  1  0.48276530  0.93322272  0.83289942  1
  O  O30  1  0.98276530  0.56677728  0.16710058  1
  O  O31  1  0.33289942  0.01723470  0.06677728  1
  O  O32  1  0.51723470  0.43322272  0.66710058  1
  O  O33  1  0.83289942  0.48276530  0.93322272  1
  O  O34  1  0.16710058  0.98276530  0.56677728  1
  O  O35  1  0.66710058  0.51723470  0.43322272  1
  O  O36  1  0.06677728  0.33289942  0.01723470  1
  O  O37  1  0.56677728  0.16710058  0.98276530  1
  O  O38  1  0.43322272  0.66710058  0.51723470  1
  O  O39  1  0.93322272  0.83289942  0.48276530  1
  O  O40  1  0.26860669  0.49318342  0.43878941  1
  O  O41  1  0.23139331  0.50681658  0.93878941  1
  O  O42  1  0.73139331  0.99318342  0.06121059  1
  O  O43  1  0.43878941  0.26860669  0.49318342  1
  O  O44  1  0.76860669  0.00681658  0.56121059  1
  O  O45  1  0.93878941  0.23139331  0.50681658  1
  O  O46  1  0.06121059  0.73139331  0.99318342  1
  O  O47  1  0.56121059  0.76860669  0.00681658  1
  O  O48  1  0.49318342  0.43878941  0.26860669  1
  O  O49  1  0.99318342  0.06121059  0.73139331  1
  O  O50  1  0.00681658  0.56121059  0.76860669  1
  O  O51  1  0.50681658  0.93878941  0.23139331  1
  O  O52  1  0.04491624  0.80176884  0.23220822  1
  O  O53  1  0.45508376  0.19823116  0.73220822  1
  O  O54  1  0.95508376  0.30176884  0.26779178  1
  O  O55  1  0.23220822  0.04491624  0.80176884  1
  O  O56  1  0.54491624  0.69823116  0.76779178  1
  O  O57  1  0.73220822  0.45508376  0.19823116  1
  O  O58  1  0.26779178  0.95508376  0.30176884  1
  O  O59  1  0.76779178  0.54491624  0.69823116  1
  O  O60  1  0.80176884  0.23220822  0.04491624  1
  O  O61  1  0.30176884  0.26779178  0.95508376  1
  O  O62  1  0.69823116  0.76779178  0.54491624  1
  O  O63  1  0.19823116  0.73220822  0.45508376  1
  O  O64  1  0.16436104  0.26026426  0.39952513  1
  O  O65  1  0.33563896  0.73973574  0.89952513  1
  O  O66  1  0.83563896  0.76026426  0.10047487  1
  O  O67  1  0.39952513  0.16436104  0.26026426  1
  O  O68  1  0.66436104  0.23973574  0.60047487  1
  O  O69  1  0.89952513  0.33563896  0.73973574  1
  O  O70  1  0.10047487  0.83563896  0.76026426  1
  O  O71  1  0.60047487  0.66436104  0.23973574  1
  O  O72  1  0.26026426  0.39952513  0.16436104  1
  O  O73  1  0.76026426  0.10047487  0.83563896  1
  O  O74  1  0.23973574  0.60047487  0.66436104  1
  O  O75  1  0.73973574  0.89952513  0.33563896  1
