# generated using pymatgen
data_HoAlB4
_symmetry_space_group_name_H-M   'P 1'
_cell_length_a   3.54600294
_cell_length_b   5.94540595
_cell_length_c   11.52672392
_cell_angle_alpha   90.00000000
_cell_angle_beta   90.00000000
_cell_angle_gamma   90.00000000
_symmetry_Int_Tables_number   1
_chemical_formula_structural   HoAlB4
_chemical_formula_sum   'Ho4 Al4 B16'
_cell_volume   243.01131534
_cell_formula_units_Z   4
loop_
 _symmetry_equiv_pos_site_id
 _symmetry_equiv_pos_as_xyz
  1  'x, y, z'
loop_
 _atom_site_type_symbol
 _atom_site_label
 _atom_site_symmetry_multiplicity
 _atom_site_fract_x
 _atom_site_fract_y
 _atom_site_fract_z
 _atom_site_occupancy
  Ho  Ho0  1  0.50000000  0.37231898  0.15027926  1
  Ho  Ho1  1  0.50000000  0.62768102  0.84972074  1
  Ho  Ho2  1  0.50000000  0.12768102  0.65027926  1
  Ho  Ho3  1  0.50000000  0.87231898  0.34972074  1
  Al  Al4  1  0.50000000  0.36303891  0.41013358  1
  Al  Al5  1  0.50000000  0.63696109  0.58986642  1
  Al  Al6  1  0.50000000  0.13696109  0.91013358  1
  Al  Al7  1  0.50000000  0.86303891  0.08986642  1
  B  B8  1  0.00000000  0.11427192  0.04670962  1
  B  B9  1  0.00000000  0.88572808  0.95329038  1
  B  B10  1  -0.00000000  0.38572808  0.54670962  1
  B  B11  1  -0.00000000  0.61427192  0.45329038  1
  B  B12  1  0.00000000  0.13376417  0.46925297  1
  B  B13  1  -0.00000000  0.86623583  0.53074703  1
  B  B14  1  0.00000000  0.36623583  0.96925297  1
  B  B15  1  0.00000000  0.63376417  0.03074703  1
  B  B16  1  0.00000000  0.02831923  0.19250892  1
  B  B17  1  -0.00000000  0.97168077  0.80749108  1
  B  B18  1  -0.00000000  0.47168077  0.69250892  1
  B  B19  1  0.00000000  0.52831923  0.30749108  1
  B  B20  1  0.00000000  0.21222522  0.31239675  1
  B  B21  1  -0.00000000  0.78777478  0.68760325  1
  B  B22  1  0.00000000  0.28777478  0.81239675  1
  B  B23  1  0.00000000  0.71222522  0.18760325  1
