# generated using pymatgen
data_CoH40C10Br2(N2O)10
_symmetry_space_group_name_H-M   'P 1'
_cell_length_a   7.46593155
_cell_length_b   9.94651159
_cell_length_c   24.18484625
_cell_angle_alpha   95.20059803
_cell_angle_beta   90.00000000
_cell_angle_gamma   90.00000000
_symmetry_Int_Tables_number   1
_chemical_formula_structural   CoH40C10Br2(N2O)10
_chemical_formula_sum   'Co2 H80 C20 Br4 N40 O20'
_cell_volume   1788.57289098
_cell_formula_units_Z   2
loop_
 _symmetry_equiv_pos_site_id
 _symmetry_equiv_pos_as_xyz
  1  'x, y, z'
loop_
 _atom_site_type_symbol
 _atom_site_label
 _atom_site_symmetry_multiplicity
 _atom_site_fract_x
 _atom_site_fract_y
 _atom_site_fract_z
 _atom_site_occupancy
  Co  Co0  1  -0.00000000  0.00000000  0.00000000  1
  Co  Co1  1  0.50000000  0.00000000  0.50000000  1
  H  H2  1  0.62853496  0.31152910  0.95014615  1
  H  H3  1  0.37146504  0.68847090  0.04985385  1
  H  H4  1  0.12853496  0.68847090  0.54985385  1
  H  H5  1  0.87146504  0.31152910  0.45014615  1
  H  H6  1  0.64111848  0.56979018  0.93139308  1
  H  H7  1  0.35888152  0.43020982  0.06860692  1
  H  H8  1  0.14111848  0.43020982  0.56860692  1
  H  H9  1  0.85888152  0.56979018  0.43139308  1
  H  H10  1  0.70378406  0.26399459  0.85234171  1
  H  H11  1  0.29621594  0.73600541  0.14765829  1
  H  H12  1  0.20378406  0.73600541  0.64765829  1
  H  H13  1  0.79621594  0.26399459  0.35234171  1
  H  H14  1  0.42629700  0.86277579  0.83704973  1
  H  H15  1  0.57370300  0.13722421  0.16295027  1
  H  H16  1  0.92629700  0.13722421  0.66295027  1
  H  H17  1  0.07370300  0.86277579  0.33704973  1
  H  H18  1  0.55520497  0.87415110  0.74558776  1
  H  H19  1  0.44479503  0.12584890  0.25441224  1
  H  H20  1  0.05520497  0.12584890  0.75441224  1
  H  H21  1  0.94479503  0.87415110  0.24558776  1
  H  H22  1  0.83638939  0.61848647  0.50292758  1
  H  H23  1  0.16361061  0.38151353  0.49707242  1
  H  H24  1  0.33638939  0.38151353  0.99707242  1
  H  H25  1  0.66361061  0.61848647  0.00292758  1
  H  H26  1  0.97926457  0.71839695  0.75898530  1
  H  H27  1  0.02073543  0.28160305  0.24101470  1
  H  H28  1  0.47926457  0.28160305  0.74101470  1
  H  H29  1  0.52073543  0.71839695  0.25898530  1
  H  H30  1  0.49258620  0.56413486  0.61887749  1
  H  H31  1  0.50741380  0.43586514  0.38112251  1
  H  H32  1  0.99258620  0.43586514  0.88112251  1
  H  H33  1  0.00741380  0.56413486  0.11887749  1
  H  H34  1  0.10068395  0.86999950  0.75929367  1
  H  H35  1  0.89931605  0.13000050  0.24070633  1
  H  H36  1  0.60068395  0.13000050  0.74070633  1
  H  H37  1  0.39931605  0.86999950  0.25929367  1
  H  H38  1  0.56966127  0.63521984  0.55952966  1
  H  H39  1  0.43033873  0.36478016  0.44047034  1
  H  H40  1  0.06966127  0.36478016  0.94047034  1
  H  H41  1  0.93033873  0.63521984  0.05952966  1
  H  H42  1  0.90997692  0.90679783  0.62278680  1
  H  H43  1  0.09002308  0.09320217  0.37721320  1
  H  H44  1  0.40997692  0.09320217  0.87721320  1
  H  H45  1  0.59002308  0.90679783  0.12278680  1
  H  H46  1  0.90222671  0.85047176  0.89450396  1
  H  H47  1  0.09777329  0.14952824  0.10549604  1
  H  H48  1  0.40222671  0.14952824  0.60549604  1
  H  H49  1  0.59777329  0.85047176  0.39450396  1
  H  H50  1  0.74990942  0.22391969  0.99788345  1
  H  H51  1  0.25009058  0.77608031  0.00211655  1
  H  H52  1  0.24990942  0.77608031  0.50211655  1
  H  H53  1  0.75009058  0.22391969  0.49788345  1
  H  H54  1  0.66877714  0.72111673  0.75430166  1
  H  H55  1  0.33122286  0.27888327  0.24569834  1
  H  H56  1  0.16877714  0.27888327  0.74569834  1
  H  H57  1  0.83122286  0.72111673  0.25430166  1
  H  H58  1  0.30258574  0.88960180  0.66597376  1
  H  H59  1  0.69741426  0.11039820  0.33402624  1
  H  H60  1  0.80258574  0.11039820  0.83402624  1
  H  H61  1  0.19741426  0.88960180  0.16597376  1
  H  H62  1  0.77468569  0.87031040  0.56376680  1
  H  H63  1  0.22531431  0.12968960  0.43623320  1
  H  H64  1  0.27468569  0.12968960  0.93623320  1
  H  H65  1  0.72531431  0.87031040  0.06376680  1
  H  H66  1  0.80548586  0.69466467  0.86929721  1
  H  H67  1  0.19451414  0.30533533  0.13070279  1
  H  H68  1  0.30548586  0.30533533  0.63070279  1
  H  H69  1  0.69451414  0.69466467  0.36929721  1
  H  H70  1  0.69419325  0.49322592  0.68214892  1
  H  H71  1  0.30580675  0.50677408  0.31785108  1
  H  H72  1  0.19419325  0.50677408  0.81785108  1
  H  H73  1  0.80580675  0.49322592  0.18214892  1
  H  H74  1  0.92052445  0.50041043  0.66955793  1
  H  H75  1  0.07947555  0.49958957  0.33044207  1
  H  H76  1  0.42052445  0.49958957  0.83044207  1
  H  H77  1  0.57947555  0.50041043  0.16955793  1
  H  H78  1  0.31481087  0.74013014  0.87110558  1
  H  H79  1  0.68518913  0.25986986  0.12889442  1
  H  H80  1  0.81481087  0.25986986  0.62889442  1
  H  H81  1  0.18518913  0.74013014  0.37110558  1
  C  C82  1  0.28554943  0.93117577  0.90842881  1
  C  C83  1  0.71445057  0.06882423  0.09157119  1
  C  C84  1  0.78554943  0.06882423  0.59157119  1
  C  C85  1  0.21445057  0.93117577  0.40842881  1
  C  C86  1  0.76752266  0.55993790  0.60662603  1
  C  C87  1  0.23247734  0.44006210  0.39337397  1
  C  C88  1  0.26752266  0.44006210  0.89337397  1
  C  C89  1  0.73247734  0.55993790  0.10662603  1
  C  C90  1  0.79131688  0.74336922  0.95360350  1
  C  C91  1  0.20868312  0.25663078  0.04639650  1
  C  C92  1  0.29131688  0.25663078  0.54639650  1
  C  C93  1  0.70868312  0.74336922  0.45360350  1
  C  C94  1  0.28790018  0.84365046  0.58280793  1
  C  C95  1  0.71209982  0.15634954  0.41719207  1
  C  C96  1  0.78790018  0.15634954  0.91719207  1
  C  C97  1  0.21209982  0.84365046  0.08280793  1
  C  C98  1  0.82796370  0.89204305  0.75518297  1
  C  C99  1  0.17203630  0.10795695  0.24481703  1
  C  C100  1  0.32796370  0.10795695  0.74481703  1
  C  C101  1  0.67203630  0.89204305  0.25518297  1
  Br  Br102  1  0.76864906  0.49127540  0.80583735  1
  Br  Br103  1  0.23135094  0.50872460  0.19416265  1
  Br  Br104  1  0.26864906  0.50872460  0.69416265  1
  Br  Br105  1  0.73135094  0.49127540  0.30583735  1
  N  N106  1  0.81756586  0.93698281  0.59581755  1
  N  N107  1  0.18243414  0.06301719  0.40418245  1
  N  N108  1  0.31756586  0.06301719  0.90418245  1
  N  N109  1  0.68243414  0.93698281  0.09581755  1
  N  N110  1  0.23736788  0.82905117  0.63607121  1
  N  N111  1  0.76263212  0.17094883  0.36392879  1
  N  N112  1  0.73736788  0.17094883  0.86392879  1
  N  N113  1  0.26263212  0.82905117  0.13607121  1
  N  N114  1  0.82982858  0.76701565  0.90117972  1
  N  N115  1  0.17017142  0.23298435  0.09882028  1
  N  N116  1  0.32982858  0.23298435  0.59882028  1
  N  N117  1  0.67017142  0.76701565  0.40117972  1
  N  N118  1  0.35228559  0.83806745  0.86976624  1
  N  N119  1  0.64771441  0.16193255  0.13023376  1
  N  N120  1  0.85228559  0.16193255  0.63023376  1
  N  N121  1  0.14771441  0.83806745  0.36976624  1
  N  N122  1  0.69486069  0.63252051  0.96256143  1
  N  N123  1  0.30513931  0.36747949  0.03743857  1
  N  N124  1  0.19486069  0.36747949  0.53743857  1
  N  N125  1  0.80513931  0.63252051  0.46256143  1
  N  N126  1  0.67134436  0.82273670  0.75177265  1
  N  N127  1  0.32865564  0.17726330  0.24822735  1
  N  N128  1  0.17134436  0.17726330  0.74822735  1
  N  N129  1  0.82865564  0.82273670  0.25177265  1
  N  N130  1  0.98076162  0.82086373  0.76072207  1
  N  N131  1  0.01923838  0.17913627  0.23927793  1
  N  N132  1  0.48076162  0.17913627  0.73927793  1
  N  N133  1  0.51923838  0.82086373  0.26072207  1
  N  N134  1  0.73080300  0.24835844  0.95801116  1
  N  N135  1  0.26919700  0.75164156  0.04198884  1
  N  N136  1  0.23080300  0.75164156  0.54198884  1
  N  N137  1  0.76919700  0.24835844  0.45801116  1
  N  N138  1  0.79406943  0.49351746  0.65339232  1
  N  N139  1  0.20593057  0.50648254  0.34660768  1
  N  N140  1  0.29406943  0.50648254  0.84660768  1
  N  N141  1  0.70593057  0.49351746  0.15339232  1
  N  N142  1  0.59612131  0.58632983  0.59357855  1
  N  N143  1  0.40387869  0.41367017  0.40642145  1
  N  N144  1  0.09612131  0.41367017  0.90642145  1
  N  N145  1  0.90387869  0.58632983  0.09357855  1
  O  O146  1  0.33137122  0.98031491  0.74595998  1
  O  O147  1  0.66862878  0.01968509  0.25404002  1
  O  O148  1  0.83137122  0.01968509  0.75404002  1
  O  O149  1  0.16862878  0.98031491  0.24595998  1
  O  O150  1  0.19110599  0.89156868  0.94790526  1
  O  O151  1  0.80889401  0.10843132  0.05209474  1
  O  O152  1  0.69110599  0.10843132  0.55209474  1
  O  O153  1  0.30889401  0.89156868  0.44790526  1
  O  O154  1  0.89806478  0.58920311  0.57662077  1
  O  O155  1  0.10193522  0.41079689  0.42337923  1
  O  O156  1  0.39806478  0.41079689  0.92337923  1
  O  O157  1  0.60193522  0.58920311  0.07662077  1
  O  O158  1  0.84271930  0.82144791  0.99575165  1
  O  O159  1  0.15728070  0.17855209  0.00424835  1
  O  O160  1  0.34271930  0.17855209  0.50424835  1
  O  O161  1  0.65728070  0.82144791  0.49575165  1
  O  O162  1  0.38535798  0.94329194  0.57312063  1
  O  O163  1  0.61464202  0.05670806  0.42687937  1
  O  O164  1  0.88535798  0.05670806  0.92687937  1
  O  O165  1  0.11464202  0.94329194  0.07312063  1
