# generated using pymatgen
data_Ho3Al2(Ni3H4)2
_symmetry_space_group_name_H-M   'P 1'
_cell_length_a   7.84505247
_cell_length_b   7.84505247
_cell_length_c   7.84505247
_cell_angle_alpha   71.06103475
_cell_angle_beta   71.06103475
_cell_angle_gamma   110.54105759
_symmetry_Int_Tables_number   1
_chemical_formula_structural   Ho3Al2(Ni3H4)2
_chemical_formula_sum   'Ho6 Al4 Ni12 H16'
_cell_volume   371.57958558
_cell_formula_units_Z   2
loop_
 _symmetry_equiv_pos_site_id
 _symmetry_equiv_pos_as_xyz
  1  'x, y, z'
loop_
 _atom_site_type_symbol
 _atom_site_label
 _atom_site_symmetry_multiplicity
 _atom_site_fract_x
 _atom_site_fract_y
 _atom_site_fract_z
 _atom_site_occupancy
  Ho  Ho0  1  0.29220282  0.29220282  0.00000000  1
  Ho  Ho1  1  0.26980477  -0.00000000  0.73019523  1
  Ho  Ho2  1  -0.00000000  0.26980477  0.73019523  1
  Ho  Ho3  1  0.70779718  0.70779718  -0.00000000  1
  Ho  Ho4  1  0.73019523  0.00000000  0.26980477  1
  Ho  Ho5  1  0.00000000  0.73019523  0.26980477  1
  Al  Al6  1  0.50000000  0.50000000  0.50000000  1
  Al  Al7  1  0.50000000  0.00000000  -0.00000000  1
  Al  Al8  1  0.00000000  0.50000000  -0.00000000  1
  Al  Al9  1  0.00000000  0.00000000  0.50000000  1
  Ni  Ni10  1  0.32642472  0.32642472  0.34715056  1
  Ni  Ni11  1  0.34390788  0.68371484  0.66019304  1
  Ni  Ni12  1  0.68371484  0.34390788  0.66019304  1
  Ni  Ni13  1  0.67357528  0.32642472  0.00000000  1
  Ni  Ni14  1  0.65609212  0.99589909  0.66019304  1
  Ni  Ni15  1  0.31628516  0.65609212  0.33980696  1
  Ni  Ni16  1  0.32642472  0.67357528  -0.00000000  1
  Ni  Ni17  1  0.65609212  0.31628516  0.33980696  1
  Ni  Ni18  1  0.99589909  0.65609212  0.66019304  1
  Ni  Ni19  1  0.67357528  0.67357528  0.65284944  1
  Ni  Ni20  1  0.34390788  0.00410091  0.33980696  1
  Ni  Ni21  1  0.00410091  0.34390788  0.33980696  1
  H  H22  1  0.74918938  0.74918938  0.23957134  1
  H  H23  1  0.25081062  0.01123928  -0.00000000  1
  H  H24  1  0.01123928  0.25081062  0.00000000  1
  H  H25  1  0.98876072  0.98876072  0.76042866  1
  H  H26  1  0.25081062  0.25081062  0.76042866  1
  H  H27  1  0.74918938  0.98876072  0.00000000  1
  H  H28  1  0.98876072  0.74918938  -0.00000000  1
  H  H29  1  0.01123928  0.01123928  0.23957134  1
  H  H30  1  0.50000000  0.72379410  0.77620590  1
  H  H31  1  0.75000000  0.25000000  0.50000000  1
  H  H32  1  0.27620590  0.50000000  0.22379410  1
  H  H33  1  0.50000000  0.27620590  0.22379410  1
  H  H34  1  0.72379410  0.50000000  0.77620590  1
  H  H35  1  0.25000000  0.75000000  0.50000000  1
  H  H36  1  0.50000000  0.00000000  0.50000000  1
  H  H37  1  0.00000000  0.50000000  0.50000000  1
