# generated using pymatgen
data_Zn2Ag2(MoO4)3
_symmetry_space_group_name_H-M   'P 1'
_cell_length_a   7.10981119
_cell_length_b   8.88506939
_cell_length_c   10.46521642
_cell_angle_alpha   106.91992273
_cell_angle_beta   105.22539899
_cell_angle_gamma   103.91422721
_symmetry_Int_Tables_number   1
_chemical_formula_structural   Zn2Ag2(MoO4)3
_chemical_formula_sum   'Zn4 Ag4 Mo6 O24'
_cell_volume   573.19583319
_cell_formula_units_Z   2
loop_
 _symmetry_equiv_pos_site_id
 _symmetry_equiv_pos_as_xyz
  1  'x, y, z'
loop_
 _atom_site_type_symbol
 _atom_site_label
 _atom_site_symmetry_multiplicity
 _atom_site_fract_x
 _atom_site_fract_y
 _atom_site_fract_z
 _atom_site_occupancy
  Zn  Zn0  1  0.87251800  0.45925926  0.10418252  1
  Zn  Zn1  1  0.12682986  0.54070183  0.89453893  1
  Zn  Zn2  1  0.46364119  0.29945367  0.48032932  1
  Zn  Zn3  1  0.53717453  0.70159139  0.52124180  1
  Ag  Ag4  1  0.81800371  0.82946608  0.33021180  1
  Ag  Ag5  1  0.18227657  0.16997928  0.67109242  1
  Ag  Ag6  1  0.49720815  0.99993721  0.99885841  1
  Ag  Ag7  1  0.99279730  0.02558578  0.05685425  1
  Mo  Mo8  1  0.28675859  0.83555782  0.23849265  1
  Mo  Mo9  1  0.71338429  0.16400485  0.76155783  1
  Mo  Mo10  1  0.90764283  0.24876980  0.36629138  1
  Mo  Mo11  1  0.09296178  0.75226755  0.63446869  1
  Mo  Mo12  1  0.61971992  0.59219158  0.83415662  1
  Mo  Mo13  1  0.38075609  0.40850297  0.16624459  1
  O  O14  1  0.33377964  0.05368343  0.32328812  1
  O  O15  1  0.66454920  0.94683129  0.67539236  1
  O  O16  1  0.03281076  0.72337672  0.22888012  1
  O  O17  1  0.96654298  0.27640487  0.77053299  1
  O  O18  1  0.17517942  0.47793280  0.08179149  1
  O  O19  1  0.82470371  0.52234427  0.91854878  1
  O  O20  1  0.74973680  0.31149030  0.46427233  1
  O  O21  1  0.24996898  0.68818169  0.53582786  1
  O  O22  1  0.61707260  0.50329069  0.14612290  1
  O  O23  1  0.38340143  0.49625529  0.85369425  1
  O  O24  1  0.28299298  0.79396234  0.05702531  1
  O  O25  1  0.71863207  0.20590501  0.94420129  1
  O  O26  1  0.94088051  0.36406352  0.25455676  1
  O  O27  1  0.05968181  0.63541475  0.74517051  1
  O  O28  1  0.30255268  0.18695661  0.07499709  1
  O  O29  1  0.69455406  0.81245057  0.92728918  1
  O  O30  1  0.84152120  0.73221991  0.51490397  1
  O  O31  1  0.15792418  0.26797424  0.48498239  1
  O  O32  1  0.77327550  0.03304561  0.24460719  1
  O  O33  1  0.22996385  0.96672414  0.75367740  1
  O  O34  1  0.47717937  0.77183479  0.34292759  1
  O  O35  1  0.52320892  0.22804017  0.65680654  1
  O  O36  1  0.42322800  0.44399629  0.35278957  1
  O  O37  1  0.57648655  0.55575165  0.64709280  1
