# generated using pymatgen
data_ZrAl5Cu7
_symmetry_space_group_name_H-M   'P 1'
_cell_length_a   5.01456795
_cell_length_b   6.52859727
_cell_length_c   6.52859727
_cell_angle_alpha   98.77929196
_cell_angle_beta   112.58454487
_cell_angle_gamma   67.41545513
_symmetry_Int_Tables_number   1
_chemical_formula_structural   ZrAl5Cu7
_chemical_formula_sum   'Zr1 Al5 Cu7'
_cell_volume   182.20659335
_cell_formula_units_Z   1
loop_
 _symmetry_equiv_pos_site_id
 _symmetry_equiv_pos_as_xyz
  1  'x, y, z'
loop_
 _atom_site_type_symbol
 _atom_site_label
 _atom_site_symmetry_multiplicity
 _atom_site_fract_x
 _atom_site_fract_y
 _atom_site_fract_z
 _atom_site_occupancy
  Zr  Zr0  1  0.99971946  0.00028054  0.99971946  1
  Al  Al1  1  0.65954536  0.34045464  0.65954536  1
  Al  Al2  1  0.34587232  0.65412768  0.34587232  1
  Al  Al3  1  0.00502876  0.33507949  0.34513701  1
  Al  Al4  1  0.00502876  0.65486299  0.66492051  1
  Al  Al5  1  0.69880219  0.80119781  0.19880219  1
  Cu  Cu6  1  0.50211154  0.99696711  0.50001797  1
  Cu  Cu7  1  0.00093932  0.99696711  0.50001797  1
  Cu  Cu8  1  0.50211154  0.49998203  0.00303289  1
  Cu  Cu9  1  0.00093932  0.49998203  0.00303289  1
  Cu  Cu10  1  0.28208629  0.21791371  0.78208629  1
  Cu  Cu11  1  0.49890757  0.78067840  0.77849354  1
  Cu  Cu12  1  0.49890757  0.22150646  0.21932160  1
