# generated using pymatgen
data_ZnCoTe3O8
_symmetry_space_group_name_H-M   'P 1'
_cell_length_a   5.29153786
_cell_length_b   6.96934355
_cell_length_c   11.92103510
_cell_angle_alpha   99.00523190
_cell_angle_beta   90.00000000
_cell_angle_gamma   67.68925589
_symmetry_Int_Tables_number   1
_chemical_formula_structural   ZnCoTe3O8
_chemical_formula_sum   'Zn2 Co2 Te6 O16'
_cell_volume   400.85554012
_cell_formula_units_Z   2
loop_
 _symmetry_equiv_pos_site_id
 _symmetry_equiv_pos_as_xyz
  1  'x, y, z'
loop_
 _atom_site_type_symbol
 _atom_site_label
 _atom_site_symmetry_multiplicity
 _atom_site_fract_x
 _atom_site_fract_y
 _atom_site_fract_z
 _atom_site_occupancy
  Zn  Zn0  1  0.52024635  0.54191355  0.15649680  1
  Zn  Zn1  1  0.06215990  0.45808645  0.34350320  1
  Co  Co2  1  0.47881355  0.45883831  0.84580897  1
  Co  Co3  1  0.93765186  0.54116169  0.65419103  1
  Te  Te4  1  0.83048644  0.72525172  0.94560477  1
  Te  Te5  1  0.55573816  0.27474828  0.55439523  1
  Te  Te6  1  0.16993568  0.27413628  0.05244982  1
  Te  Te7  1  0.44407196  0.72586372  0.44755018  1
  Te  Te8  1  0.35998604  1.00000000  0.75000000  1
  Te  Te9  1  0.63835674  0.00000000  0.25000000  1
  O  O10  1  0.49894005  0.83578346  0.14441730  1
  O  O11  1  0.33472351  0.16421654  0.35558270  1
  O  O12  1  0.49921197  0.16474958  0.85555250  1
  O  O13  1  0.66396155  0.83525042  0.64444750  1
  O  O14  1  0.22266129  0.53005898  0.03646213  1
  O  O15  1  0.75272027  0.46994102  0.46353787  1
  O  O16  1  0.78103370  0.46801460  0.96090054  1
  O  O17  1  0.24904830  0.53198540  0.53909946  1
  O  O18  1  0.07495548  0.61066341  0.81181026  1
  O  O19  1  0.68561889  0.38933659  0.68818974  1
  O  O20  1  0.92597058  0.39051560  0.18679952  1
  O  O21  1  0.31648618  0.60948440  0.31320048  1
  O  O22  1  0.49734706  0.77418623  0.86026704  1
  O  O23  1  0.27153329  0.22581377  0.63973296  1
  O  O24  1  0.50235637  0.22362846  0.13846703  1
  O  O25  1  0.72598483  0.77637154  0.36153297  1
