# generated using pymatgen
data_Zr8AgPd3
_symmetry_space_group_name_H-M   'P 1'
_cell_length_a   3.32718298
_cell_length_b   3.32718298
_cell_length_c   22.32482420
_cell_angle_alpha   90.00000000
_cell_angle_beta   90.00000000
_cell_angle_gamma   90.00000000
_symmetry_Int_Tables_number   1
_chemical_formula_structural   Zr8AgPd3
_chemical_formula_sum   'Zr8 Ag1 Pd3'
_cell_volume   247.13907632
_cell_formula_units_Z   1
loop_
 _symmetry_equiv_pos_site_id
 _symmetry_equiv_pos_as_xyz
  1  'x, y, z'
loop_
 _atom_site_type_symbol
 _atom_site_label
 _atom_site_symmetry_multiplicity
 _atom_site_fract_x
 _atom_site_fract_y
 _atom_site_fract_z
 _atom_site_occupancy
  Zr  Zr0  1  0.50000000  0.50000000  0.08452976  1
  Zr  Zr1  1  0.00000000  0.00000000  0.32921461  1
  Zr  Zr2  1  0.50000000  0.50000000  0.57834414  1
  Zr  Zr3  1  -0.00000000  -0.00000000  0.82503800  1
  Zr  Zr4  1  -0.00000000  0.00000000  0.17496200  1
  Zr  Zr5  1  0.50000000  0.50000000  0.42165586  1
  Zr  Zr6  1  -0.00000000  -0.00000000  0.67078539  1
  Zr  Zr7  1  0.50000000  0.50000000  0.91547024  1
  Ag  Ag8  1  -0.00000000  -0.00000000  -0.00000000  1
  Pd  Pd9  1  0.50000000  0.50000000  0.25057370  1
  Pd  Pd10  1  -0.00000000  -0.00000000  0.50000000  1
  Pd  Pd11  1  0.50000000  0.50000000  0.74942630  1
