# generated using pymatgen
data_YbZr3F15
_symmetry_space_group_name_H-M   'P 1'
_cell_length_a   8.24665298
_cell_length_b   8.24665298
_cell_length_c   8.17210704
_cell_angle_alpha   99.65884515
_cell_angle_beta   99.65884515
_cell_angle_gamma   99.27386560
_symmetry_Int_Tables_number   1
_chemical_formula_structural   YbZr3F15
_chemical_formula_sum   'Yb2 Zr6 F30'
_cell_volume   529.77205789
_cell_formula_units_Z   2
loop_
 _symmetry_equiv_pos_site_id
 _symmetry_equiv_pos_as_xyz
  1  'x, y, z'
loop_
 _atom_site_type_symbol
 _atom_site_label
 _atom_site_symmetry_multiplicity
 _atom_site_fract_x
 _atom_site_fract_y
 _atom_site_fract_z
 _atom_site_occupancy
  Yb  Yb0  1  0.68061923  0.81938077  0.25000000  1
  Yb  Yb1  1  0.31938077  0.18061923  0.75000000  1
  Zr  Zr2  1  0.25189578  0.24810422  0.25000000  1
  Zr  Zr3  1  0.74810422  0.75189578  0.75000000  1
  Zr  Zr4  1  0.81865074  0.25220872  0.67784066  1
  Zr  Zr5  1  0.24779128  0.68134926  0.82215934  1
  Zr  Zr6  1  0.18134926  0.74779128  0.32215934  1
  Zr  Zr7  1  0.75220872  0.31865074  0.17784066  1
  F  F8  1  0.96443521  0.53556479  0.25000000  1
  F  F9  1  0.54704550  0.25520888  0.97377706  1
  F  F10  1  0.24479112  0.95295450  0.52622294  1
  F  F11  1  0.45295450  0.74479112  0.02622294  1
  F  F12  1  0.75520888  0.04704550  0.47377706  1
  F  F13  1  0.03556479  0.46443521  0.75000000  1
  F  F14  1  0.21980537  0.22774340  0.99759892  1
  F  F15  1  0.22465983  0.99306743  0.22041055  1
  F  F16  1  0.99330949  0.22860491  0.22563314  1
  F  F17  1  0.72860491  0.49330949  0.72563314  1
  F  F18  1  0.49306743  0.72465983  0.72041055  1
  F  F19  1  0.72774340  0.71980537  0.49759892  1
  F  F20  1  0.78019463  0.77225660  0.00240108  1
  F  F21  1  0.77534017  0.00693257  0.77958945  1
  F  F22  1  0.00669051  0.77139509  0.77436686  1
  F  F23  1  0.27139509  0.50669051  0.27436686  1
  F  F24  1  0.50693257  0.27534017  0.27958945  1
  F  F25  1  0.27225660  0.28019463  0.50240108  1
  F  F26  1  0.15188011  0.68509292  0.05123805  1
  F  F27  1  0.68674376  0.06541183  0.15190511  1
  F  F28  1  0.03415393  0.15784162  0.68183502  1
  F  F29  1  0.65784162  0.53415393  0.18183502  1
  F  F30  1  0.56541183  0.18674376  0.65190511  1
  F  F31  1  0.18509292  0.65188011  0.55123805  1
  F  F32  1  0.84811989  0.31490708  0.94876195  1
  F  F33  1  0.31325624  0.93458817  0.84809489  1
  F  F34  1  0.96584607  0.84215838  0.31816498  1
  F  F35  1  0.34215838  0.46584607  0.81816498  1
  F  F36  1  0.43458817  0.81325624  0.34809489  1
  F  F37  1  0.81490708  0.34811989  0.44876195  1
