# generated using pymatgen
data_Ba2TmCl7
_symmetry_space_group_name_H-M   'P 1'
_cell_length_a   6.91818900
_cell_length_b   10.66926369
_cell_length_c   15.73731353
_cell_angle_alpha   90.00000000
_cell_angle_beta   90.00000000
_cell_angle_gamma   90.70786587
_symmetry_Int_Tables_number   1
_chemical_formula_structural   Ba2TmCl7
_chemical_formula_sum   'Ba8 Tm4 Cl28'
_cell_volume   1161.51366473
_cell_formula_units_Z   4
loop_
 _symmetry_equiv_pos_site_id
 _symmetry_equiv_pos_as_xyz
  1  'x, y, z'
loop_
 _atom_site_type_symbol
 _atom_site_label
 _atom_site_symmetry_multiplicity
 _atom_site_fract_x
 _atom_site_fract_y
 _atom_site_fract_z
 _atom_site_occupancy
  Ba  Ba0  1  0.23477754  0.95097344  0.77975598  1
  Ba  Ba1  1  0.76522246  0.04902656  0.22024402  1
  Ba  Ba2  1  0.76522246  0.54902656  0.27975598  1
  Ba  Ba3  1  0.23477754  0.45097344  0.72024402  1
  Ba  Ba4  1  0.76574052  0.67613278  0.93920063  1
  Ba  Ba5  1  0.23425948  0.32386722  0.06079937  1
  Ba  Ba6  1  0.23425948  0.82386722  0.43920063  1
  Ba  Ba7  1  0.76574052  0.17613278  0.56079937  1
  Tm  Tm8  1  0.71590486  0.71803583  0.62685813  1
  Tm  Tm9  1  0.28409514  0.28196417  0.37314187  1
  Tm  Tm10  1  0.28409514  0.78196417  0.12685813  1
  Tm  Tm11  1  0.71590486  0.21803583  0.87314187  1
  Cl  Cl12  1  0.37376815  0.62446878  0.57117414  1
  Cl  Cl13  1  0.62623185  0.37553122  0.42882586  1
  Cl  Cl14  1  0.62623185  0.87553122  0.07117414  1
  Cl  Cl15  1  0.37376815  0.12446878  0.92882586  1
  Cl  Cl16  1  0.98475907  0.91240157  0.60517006  1
  Cl  Cl17  1  0.01524093  0.08759843  0.39482994  1
  Cl  Cl18  1  0.01524093  0.58759843  0.10517006  1
  Cl  Cl19  1  0.98475907  0.41240157  0.89482994  1
  Cl  Cl20  1  0.79364436  0.71286474  0.46159755  1
  Cl  Cl21  1  0.20635564  0.28713526  0.53840245  1
  Cl  Cl22  1  0.20635564  0.78713526  0.96159755  1
  Cl  Cl23  1  0.79364436  0.21286474  0.03840245  1
  Cl  Cl24  1  0.79001787  0.97433019  0.86073134  1
  Cl  Cl25  1  0.20998213  0.02566981  0.13926866  1
  Cl  Cl26  1  0.20998213  0.52566981  0.36073134  1
  Cl  Cl27  1  0.79001787  0.47433019  0.63926866  1
  Cl  Cl28  1  0.98637305  0.69858555  0.75624768  1
  Cl  Cl29  1  0.01362695  0.30141445  0.24375232  1
  Cl  Cl30  1  0.01362695  0.80141445  0.25624768  1
  Cl  Cl31  1  0.98637305  0.19858555  0.74375232  1
  Cl  Cl32  1  0.50297762  0.70544980  0.77102327  1
  Cl  Cl33  1  0.49702238  0.29455020  0.22897673  1
  Cl  Cl34  1  0.49702238  0.79455020  0.27102327  1
  Cl  Cl35  1  0.50297762  0.20544980  0.72897673  1
  Cl  Cl36  1  0.50138306  0.92725181  0.60463369  1
  Cl  Cl37  1  0.49861694  0.07274819  0.39536631  1
  Cl  Cl38  1  0.49861694  0.57274819  0.10463369  1
  Cl  Cl39  1  0.50138306  0.42725181  0.89536631  1
