# generated using pymatgen
data_YZr3F15
_symmetry_space_group_name_H-M   'P 1'
_cell_length_a   8.20983626
_cell_length_b   8.20983626
_cell_length_c   8.21378354
_cell_angle_alpha   100.16183204
_cell_angle_beta   100.16183204
_cell_angle_gamma   100.28491513
_symmetry_Int_Tables_number   1
_chemical_formula_structural   YZr3F15
_chemical_formula_sum   'Y2 Zr6 F30'
_cell_volume   523.67733348
_cell_formula_units_Z   2
loop_
 _symmetry_equiv_pos_site_id
 _symmetry_equiv_pos_as_xyz
  1  'x, y, z'
loop_
 _atom_site_type_symbol
 _atom_site_label
 _atom_site_symmetry_multiplicity
 _atom_site_fract_x
 _atom_site_fract_y
 _atom_site_fract_z
 _atom_site_occupancy
  Y  Y0  1  0.67739981  0.82260019  0.25000000  1
  Y  Y1  1  0.32260019  0.17739981  0.75000000  1
  Zr  Zr2  1  0.25035168  0.24964832  0.25000000  1
  Zr  Zr3  1  0.74964832  0.75035168  0.75000000  1
  Zr  Zr4  1  0.82286933  0.25042292  0.67575878  1
  Zr  Zr5  1  0.24957708  0.67713067  0.82424122  1
  Zr  Zr6  1  0.17713067  0.74957708  0.32424122  1
  Zr  Zr7  1  0.75042292  0.32286933  0.17575878  1
  F  F8  1  0.15284792  0.68467373  0.05287658  1
  F  F9  1  0.68595409  0.06438202  0.15142323  1
  F  F10  1  0.03903879  0.15432856  0.68269004  1
  F  F11  1  0.65432856  0.53903879  0.18269004  1
  F  F12  1  0.56438202  0.18595409  0.65142323  1
  F  F13  1  0.18467373  0.65284792  0.55287658  1
  F  F14  1  0.84715208  0.31532627  0.94712342  1
  F  F15  1  0.31404591  0.93561798  0.84857677  1
  F  F16  1  0.96096121  0.84567144  0.31730996  1
  F  F17  1  0.34567144  0.46096121  0.81730996  1
  F  F18  1  0.43561798  0.81404591  0.34857677  1
  F  F19  1  0.81532627  0.34715208  0.44712342  1
  F  F20  1  0.21939120  0.22469153  0.99695785  1
  F  F21  1  0.22380111  0.99286374  0.22106103  1
  F  F22  1  0.99229063  0.22346984  0.22352488  1
  F  F23  1  0.72346984  0.49229063  0.72352488  1
  F  F24  1  0.49286374  0.72380111  0.72106103  1
  F  F25  1  0.72469153  0.71939120  0.49695785  1
  F  F26  1  0.78060880  0.77530847  0.00304215  1
  F  F27  1  0.77619889  0.00713626  0.77893897  1
  F  F28  1  0.00770937  0.77653016  0.77647512  1
  F  F29  1  0.27653016  0.50770937  0.27647512  1
  F  F30  1  0.50713626  0.27619889  0.27893897  1
  F  F31  1  0.27530847  0.28060880  0.50304215  1
  F  F32  1  0.96562100  0.53437900  0.25000000  1
  F  F33  1  0.54458378  0.25275809  0.97255743  1
  F  F34  1  0.24724191  0.95541622  0.52744257  1
  F  F35  1  0.45541622  0.74724191  0.02744257  1
  F  F36  1  0.75275809  0.04458378  0.47255743  1
  F  F37  1  0.03437900  0.46562100  0.75000000  1
