# generated using pymatgen
data_YUTe6
_symmetry_space_group_name_H-M   'P 1'
_cell_length_a   4.37063016
_cell_length_b   4.37496009
_cell_length_c   12.94428827
_cell_angle_alpha   90.00000000
_cell_angle_beta   80.28050799
_cell_angle_gamma   90.00000000
_symmetry_Int_Tables_number   1
_chemical_formula_structural   YUTe6
_chemical_formula_sum   'Y1 U1 Te6'
_cell_volume   243.95927513
_cell_formula_units_Z   1
loop_
 _symmetry_equiv_pos_site_id
 _symmetry_equiv_pos_as_xyz
  1  'x, y, z'
loop_
 _atom_site_type_symbol
 _atom_site_label
 _atom_site_symmetry_multiplicity
 _atom_site_fract_x
 _atom_site_fract_y
 _atom_site_fract_z
 _atom_site_occupancy
  Y  Y0  1  0.83230078  0.75000000  0.33539844  1
  U  U1  1  0.16706710  0.25000000  0.66586581  1
  Te  Te2  1  0.42736826  0.75000000  0.14526347  1
  Te  Te3  1  0.57417907  0.25000000  0.85164186  1
  Te  Te4  1  0.70391695  0.75000000  0.59216611  1
  Te  Te5  1  0.29313326  0.25000000  0.41373349  1
  Te  Te6  1  0.07421946  0.75000000  0.85156107  1
  Te  Te7  1  0.92781512  0.25000000  0.14436975  1
