# generated using pymatgen
data_V12Ga(GeS12)2
_symmetry_space_group_name_H-M   'P 1'
_cell_length_a   6.87196793
_cell_length_b   9.70562615
_cell_length_c   11.89055305
_cell_angle_alpha   114.08700485
_cell_angle_beta   106.79615474
_cell_angle_gamma   90.00000000
_symmetry_Int_Tables_number   1
_chemical_formula_structural   V12Ga(GeS12)2
_chemical_formula_sum   'V12 Ga1 Ge2 S24'
_cell_volume   686.78053956
_cell_formula_units_Z   1
loop_
 _symmetry_equiv_pos_site_id
 _symmetry_equiv_pos_as_xyz
  1  'x, y, z'
loop_
 _atom_site_type_symbol
 _atom_site_label
 _atom_site_symmetry_multiplicity
 _atom_site_fract_x
 _atom_site_fract_y
 _atom_site_fract_z
 _atom_site_occupancy
  V  V0  1  0.54183611  0.72963370  0.66692984  1
  V  V1  1  0.20747337  0.39494680  -0.00000000  1
  V  V2  1  0.87490727  0.06270486  0.33307016  1
  V  V3  1  0.26406645  0.86770267  0.52813190  1
  V  V4  1  0.93070814  0.53560397  0.86141728  1
  V  V5  1  0.59665793  0.20089603  0.19331586  1
  V  V6  1  0.40334207  0.00758017  0.80668414  1
  V  V7  1  0.06929186  0.67418769  0.13858272  1
  V  V8  1  0.73593355  0.33956977  0.47186810  1
  V  V9  1  0.12509273  0.72963370  0.66692984  1
  V  V10  1  0.79252663  0.39494680  -0.00000000  1
  V  V11  1  0.45816389  0.06270486  0.33307016  1
  Ga  Ga12  1  -0.00000000  0.00044347  -0.00000000  1
  Ge  Ge13  1  0.66662421  0.66643111  0.33324741  1
  Ge  Ge14  1  0.33337579  0.33318270  0.66675259  1
  S  S15  1  0.06086982  0.46953327  0.66642624  1
  S  S16  1  0.72550513  0.13760876  0.00000000  1
  S  S17  1  0.39444458  0.80310803  0.33357376  1
  S  S18  1  0.75748085  0.62100578  0.51496069  1
  S  S19  1  0.42411689  0.28837811  0.84823477  1
  S  S20  1  0.09174431  0.95396180  0.18348861  1
  S  S21  1  0.90825569  0.77047319  0.81651139  1
  S  S22  1  0.57588311  0.44014434  0.15176523  1
  S  S23  1  0.24251915  0.10604409  0.48503931  1
  S  S24  1  0.60555542  0.46953327  0.66642624  1
  S  S25  1  0.27449487  0.13760876  -0.00000000  1
  S  S26  1  0.93913018  0.80310803  0.33357376  1
  S  S27  1  0.74117008  0.62835631  -0.00000000  1
  S  S28  1  0.40815861  0.29547956  0.33294926  1
  S  S29  1  0.07520836  0.96252930  0.66705074  1
  S  S30  1  0.08636221  0.45787699  0.17272542  1
  S  S31  1  0.75270306  0.12343546  0.50540611  1
  S  S32  1  0.41955482  0.79060461  0.83910863  1
  S  S33  1  0.91363779  0.28515257  0.82727458  1
  S  S34  1  0.58044518  0.95149497  0.16089137  1
  S  S35  1  0.24729694  0.61802935  0.49459389  1
  S  S36  1  0.25882992  0.62835631  -0.00000000  1
  S  S37  1  0.92479164  0.29547956  0.33294926  1
  S  S38  1  0.59184139  0.96252930  0.66705074  1
