# generated using pymatgen
data_Y4Fe28BC
_symmetry_space_group_name_H-M   'P 1'
_cell_length_a   8.73566054
_cell_length_b   8.73566054
_cell_length_c   11.83898594
_cell_angle_alpha   90.00000000
_cell_angle_beta   90.00000000
_cell_angle_gamma   89.99553160
_symmetry_Int_Tables_number   1
_chemical_formula_structural   Y4Fe28BC
_chemical_formula_sum   'Y8 Fe56 B2 C2'
_cell_volume   903.45391028
_cell_formula_units_Z   2
loop_
 _symmetry_equiv_pos_site_id
 _symmetry_equiv_pos_as_xyz
  1  'x, y, z'
loop_
 _atom_site_type_symbol
 _atom_site_label
 _atom_site_symmetry_multiplicity
 _atom_site_fract_x
 _atom_site_fract_y
 _atom_site_fract_z
 _atom_site_occupancy
  Y  Y0  1  0.23382479  0.76617521  0.50000000  1
  Y  Y1  1  0.76617521  0.23382479  0.50000000  1
  Y  Y2  1  0.26067804  0.26067804  0.00000000  1
  Y  Y3  1  0.73932196  0.73932196  0.00000000  1
  Y  Y4  1  0.64238645  0.64238645  0.50000000  1
  Y  Y5  1  0.35761355  0.35761355  0.50000000  1
  Y  Y6  1  0.85759461  0.14240539  -0.00000000  1
  Y  Y7  1  0.14240539  0.85759461  -0.00000000  1
  Fe  Fe8  1  0.50000000  0.50000000  0.10807093  1
  Fe  Fe9  1  0.00000000  -0.00000000  0.61583380  1
  Fe  Fe10  1  0.50000000  0.50000000  0.89192907  1
  Fe  Fe11  1  0.00000000  -0.00000000  0.38416620  1
  Fe  Fe12  1  0.40247978  0.59752022  0.29498749  1
  Fe  Fe13  1  0.59752022  0.40247978  0.29498749  1
  Fe  Fe14  1  0.09710749  0.09710749  0.79984581  1
  Fe  Fe15  1  0.90289251  0.90289251  0.79984581  1
  Fe  Fe16  1  0.59752022  0.40247978  0.70501251  1
  Fe  Fe17  1  0.40247978  0.59752022  0.70501251  1
  Fe  Fe18  1  0.90289251  0.90289251  0.20015419  1
  Fe  Fe19  1  0.09710749  0.09710749  0.20015419  1
  Fe  Fe20  1  0.18363716  0.81636284  0.25304990  1
  Fe  Fe21  1  0.81636284  0.18363716  0.25304990  1
  Fe  Fe22  1  0.31761647  0.31761647  0.75539737  1
  Fe  Fe23  1  0.68238353  0.68238353  0.75539737  1
  Fe  Fe24  1  0.81636284  0.18363716  0.74695010  1
  Fe  Fe25  1  0.18363716  0.81636284  0.74695010  1
  Fe  Fe26  1  0.68238353  0.68238353  0.24460263  1
  Fe  Fe27  1  0.31761647  0.31761647  0.24460263  1
  Fe  Fe28  1  0.00000000  0.50000000  0.50000000  1
  Fe  Fe29  1  0.50000000  -0.00000000  -0.00000000  1
  Fe  Fe30  1  0.50000000  -0.00000000  0.50000000  1
  Fe  Fe31  1  0.00000000  0.50000000  -0.00000000  1
  Fe  Fe32  1  0.93406273  0.72408552  0.37348982  1
  Fe  Fe33  1  0.06593727  0.27591448  0.37348982  1
  Fe  Fe34  1  0.56570627  0.22550438  0.87986032  1
  Fe  Fe35  1  0.43429373  0.77449562  0.87986032  1
  Fe  Fe36  1  0.06593727  0.27591448  0.62651018  1
  Fe  Fe37  1  0.93406273  0.72408552  0.62651018  1
  Fe  Fe38  1  0.43429373  0.77449562  0.12013968  1
  Fe  Fe39  1  0.56570627  0.22550438  0.12013968  1
  Fe  Fe40  1  0.72408552  0.93406273  0.37348982  1
  Fe  Fe41  1  0.27591448  0.06593727  0.37348982  1
  Fe  Fe42  1  0.22550438  0.56570627  0.87986032  1
  Fe  Fe43  1  0.77449562  0.43429373  0.87986032  1
  Fe  Fe44  1  0.27591448  0.06593727  0.62651018  1
  Fe  Fe45  1  0.72408552  0.93406273  0.62651018  1
  Fe  Fe46  1  0.77449562  0.43429373  0.12013968  1
  Fe  Fe47  1  0.22550438  0.56570627  0.12013968  1
  Fe  Fe48  1  0.14192231  0.53725110  0.32391142  1
  Fe  Fe49  1  0.85807769  0.46274890  0.32391142  1
  Fe  Fe50  1  0.35935808  0.03678618  0.82523890  1
  Fe  Fe51  1  0.64064192  0.96321382  0.82523890  1
  Fe  Fe52  1  0.85807769  0.46274890  0.67608858  1
  Fe  Fe53  1  0.14192231  0.53725110  0.67608858  1
  Fe  Fe54  1  0.64064192  0.96321382  0.17476110  1
  Fe  Fe55  1  0.35935808  0.03678618  0.17476110  1
  Fe  Fe56  1  0.53725110  0.14192231  0.32391142  1
  Fe  Fe57  1  0.46274890  0.85807769  0.32391142  1
  Fe  Fe58  1  0.03678618  0.35935808  0.82523890  1
  Fe  Fe59  1  0.96321382  0.64064192  0.82523890  1
  Fe  Fe60  1  0.46274890  0.85807769  0.67608858  1
  Fe  Fe61  1  0.53725110  0.14192231  0.67608858  1
  Fe  Fe62  1  0.96321382  0.64064192  0.17476110  1
  Fe  Fe63  1  0.03678618  0.35935808  0.17476110  1
  B  B64  1  0.87313639  0.87313639  0.50000000  1
  B  B65  1  0.12686361  0.12686361  0.50000000  1
  C  C66  1  0.62742444  0.37257556  -0.00000000  1
  C  C67  1  0.37257556  0.62742444  -0.00000000  1
