# generated using pymatgen
data_Ti4CN3
_symmetry_space_group_name_H-M   'P 1'
_cell_length_a   3.02096721
_cell_length_b   3.02096721
_cell_length_c   10.04474835
_cell_angle_alpha   81.35131460
_cell_angle_beta   98.64868540
_cell_angle_gamma   120.00000000
_symmetry_Int_Tables_number   1
_chemical_formula_structural   Ti4CN3
_chemical_formula_sum   'Ti4 C1 N3'
_cell_volume   78.18328559
_cell_formula_units_Z   1
loop_
 _symmetry_equiv_pos_site_id
 _symmetry_equiv_pos_as_xyz
  1  'x, y, z'
loop_
 _atom_site_type_symbol
 _atom_site_label
 _atom_site_symmetry_multiplicity
 _atom_site_fract_x
 _atom_site_fract_y
 _atom_site_fract_z
 _atom_site_occupancy
  Ti  Ti0  1  0.24935132  0.75064868  0.74805396  1
  Ti  Ti1  1  0.50064868  0.49935132  0.50194604  1
  Ti  Ti2  1  0.00014934  0.99985066  0.00044801  1
  Ti  Ti3  1  0.74985066  0.25014934  0.24955199  1
  C  C4  1  0.37500000  0.62500000  0.12500000  1
  N  N5  1  0.12601660  0.87398340  0.37804979  1
  N  N6  1  0.87500000  0.12500000  0.62500000  1
  N  N7  1  0.62398340  0.37601660  0.87195021  1
