# generated using pymatgen
data_VCu13Sn(AsS8)2
_symmetry_space_group_name_H-M   'P 1'
_cell_length_a   10.69849979
_cell_length_b   10.69849979
_cell_length_c   10.70930674
_cell_angle_alpha   90.00313401
_cell_angle_beta   90.00313401
_cell_angle_gamma   89.98436576
_symmetry_Int_Tables_number   1
_chemical_formula_structural   VCu13Sn(AsS8)2
_chemical_formula_sum   'V2 Cu26 Sn2 As4 S32'
_cell_volume   1225.76468718
_cell_formula_units_Z   2
loop_
 _symmetry_equiv_pos_site_id
 _symmetry_equiv_pos_as_xyz
  1  'x, y, z'
loop_
 _atom_site_type_symbol
 _atom_site_label
 _atom_site_symmetry_multiplicity
 _atom_site_fract_x
 _atom_site_fract_y
 _atom_site_fract_z
 _atom_site_occupancy
  V  V0  1  0.49970767  0.50031198  0.50002389  1
  V  V1  1  0.00031198  0.99970767  0.00002389  1
  Cu  Cu2  1  0.74944843  0.24873401  0.24840292  1
  Cu  Cu3  1  0.24948229  0.24991786  0.75211139  1
  Cu  Cu4  1  0.24907830  0.75082083  0.24899409  1
  Cu  Cu5  1  0.75016456  0.75192635  0.75054158  1
  Cu  Cu6  1  0.74873401  0.24944843  0.74840292  1
  Cu  Cu7  1  0.74991786  0.74948229  0.25211139  1
  Cu  Cu8  1  0.25082083  0.74907830  0.74899409  1
  Cu  Cu9  1  0.25192635  0.25016456  0.25054158  1
  Cu  Cu10  1  0.50012781  0.24366315  0.50009540  1
  Cu  Cu11  1  0.75573959  0.50060020  0.49956939  1
  Cu  Cu12  1  0.49932091  0.49948607  0.24429952  1
  Cu  Cu13  1  0.24437646  0.50062920  0.50040272  1
  Cu  Cu14  1  0.49950397  0.50026890  0.75567764  1
  Cu  Cu15  1  0.50010067  0.75620467  0.49988190  1
  Cu  Cu16  1  0.74366315  0.00012781  0.00009540  1
  Cu  Cu17  1  0.00060020  0.25573959  0.99956939  1
  Cu  Cu18  1  0.99948607  0.99932091  0.74429952  1
  Cu  Cu19  1  0.00062920  0.74437646  0.00040272  1
  Cu  Cu20  1  0.00026890  0.99950397  0.25567764  1
  Cu  Cu21  1  0.25620467  0.00010067  0.99988190  1
  Cu  Cu22  1  0.49960861  0.24943551  0.00090871  1
  Cu  Cu23  1  0.74943551  0.99960861  0.50090871  1
  Cu  Cu24  1  0.99953197  0.50158380  0.25015122  1
  Cu  Cu25  1  0.25058555  0.99954165  0.49912705  1
  Cu  Cu26  1  0.00158380  0.49953197  0.75015122  1
  Cu  Cu27  1  0.49954165  0.75058555  0.99912705  1
  Sn  Sn28  1  0.99990147  0.25009701  0.49971339  1
  Sn  Sn29  1  0.75009701  0.49990147  0.99971339  1
  As  As30  1  0.50051976  0.99967031  0.24999449  1
  As  As31  1  0.25000281  0.49998090  0.00042754  1
  As  As32  1  0.49967031  0.00051976  0.74999449  1
  As  As33  1  -0.00001910  0.75000281  0.50042754  1
  S  S34  1  0.86530257  0.12028871  0.37033764  1
  S  S35  1  0.87894828  0.36974436  0.13499014  1
  S  S36  1  0.62201887  0.12778827  0.12812849  1
  S  S37  1  0.13487127  0.12082529  0.63059759  1
  S  S38  1  0.12843256  0.37711756  0.87179290  1
  S  S39  1  0.37738344  0.12643651  0.87193577  1
  S  S40  1  0.12764122  0.87174194  0.37680310  1
  S  S41  1  0.12836249  0.62347981  0.12695611  1
  S  S42  1  0.37643599  0.87327428  0.12854937  1
  S  S43  1  0.87261043  0.87208740  0.62231065  1
  S  S44  1  0.87902472  0.63105812  0.86591155  1
  S  S45  1  0.62289897  0.87210616  0.87140753  1
  S  S46  1  0.62028871  0.36530257  0.87033764  1
  S  S47  1  0.86974436  0.37894828  0.63499014  1
  S  S48  1  0.62778827  0.12201887  0.62812849  1
  S  S49  1  0.62082529  0.63487127  0.13059759  1
  S  S50  1  0.87711756  0.62843256  0.37179290  1
  S  S51  1  0.62643651  0.87738344  0.37193577  1
  S  S52  1  0.37174194  0.62764122  0.87680310  1
  S  S53  1  0.12347981  0.62836249  0.62695611  1
  S  S54  1  0.37327428  0.87643599  0.62854937  1
  S  S55  1  0.37208740  0.37261043  0.12231065  1
  S  S56  1  0.13105812  0.37902472  0.36591155  1
  S  S57  1  0.37210616  0.12289897  0.37140753  1
  S  S58  1  0.62076409  0.37948146  0.37925887  1
  S  S59  1  0.37889916  0.37957814  0.62011970  1
  S  S60  1  0.37937881  0.62088911  0.37989325  1
  S  S61  1  0.62016591  0.62089084  0.62068449  1
  S  S62  1  0.87948146  0.12076409  0.87925887  1
  S  S63  1  0.87957814  0.87889916  0.12011970  1
  S  S64  1  0.12088911  0.87937881  0.87989325  1
  S  S65  1  0.12089084  0.12016591  0.12068449  1
