# generated using pymatgen
data_Tl3V(SeS)2
_symmetry_space_group_name_H-M   'P 1'
_cell_length_a   6.74181488
_cell_length_b   6.77598179
_cell_length_c   6.77598179
_cell_angle_alpha   70.36058417
_cell_angle_beta   70.51059691
_cell_angle_gamma   109.48940309
_symmetry_Int_Tables_number   1
_chemical_formula_structural   Tl3V(SeS)2
_chemical_formula_sum   'Tl3 V1 Se2 S2'
_cell_volume   237.68259959
_cell_formula_units_Z   1
loop_
 _symmetry_equiv_pos_site_id
 _symmetry_equiv_pos_as_xyz
  1  'x, y, z'
loop_
 _atom_site_type_symbol
 _atom_site_label
 _atom_site_symmetry_multiplicity
 _atom_site_fract_x
 _atom_site_fract_y
 _atom_site_fract_z
 _atom_site_occupancy
  Tl  Tl0  1  0.50000000  0.49459363  0.00540637  1
  Tl  Tl1  1  0.50000000  0.99459363  0.50540637  1
  Tl  Tl2  1  0.00000000  0.50470037  0.49529963  1
  V  V3  1  0.00000000  0.99415363  0.00584637  1
  Se  Se4  1  0.00000000  0.33819345  0.00096942  1
  Se  Se5  1  -0.00000000  0.99903058  0.66180655  1
  S  S6  1  0.67844285  0.67658877  0.32341123  1
  S  S7  1  0.32155715  0.99814592  0.00185408  1
