# generated using pymatgen
data_GdCu5Se4
_symmetry_space_group_name_H-M   'P 1'
_cell_length_a   4.05065862
_cell_length_b   7.81769146
_cell_length_c   6.91697868
_cell_angle_alpha   62.63720879
_cell_angle_beta   90.00000886
_cell_angle_gamma   74.98511990
_symmetry_Int_Tables_number   1
_chemical_formula_structural   GdCu5Se4
_chemical_formula_sum   'Gd1 Cu5 Se4'
_cell_volume   186.07057340
_cell_formula_units_Z   1
loop_
 _symmetry_equiv_pos_site_id
 _symmetry_equiv_pos_as_xyz
  1  'x, y, z'
loop_
 _atom_site_type_symbol
 _atom_site_label
 _atom_site_symmetry_multiplicity
 _atom_site_fract_x
 _atom_site_fract_y
 _atom_site_fract_z
 _atom_site_occupancy
  Gd  Gd0  1  0.50000000  0.00000000  0.50000000  1
  Cu  Cu1  1  -0.00000000  0.00000000  -0.00000000  1
  Cu  Cu2  1  0.81005563  0.37988873  0.47685289  1
  Cu  Cu3  1  0.31093084  0.37813833  0.97772020  1
  Cu  Cu4  1  0.18994437  0.62011127  0.52314711  1
  Cu  Cu5  1  0.68906916  0.62186167  0.02227980  1
  Se  Se6  1  0.12475157  0.75049687  0.80010622  1
  Se  Se7  1  0.61874240  0.76251519  0.27549379  1
  Se  Se8  1  0.87524843  0.24950313  0.19989378  1
  Se  Se9  1  0.38125760  0.23748481  0.72450621  1
