# generated using pymatgen
data_VCd2PO7
_symmetry_space_group_name_H-M   'P 1'
_cell_length_a   4.84954604
_cell_length_b   5.75495575
_cell_length_c   11.01285371
_cell_angle_alpha   90.00000000
_cell_angle_beta   90.00000000
_cell_angle_gamma   97.45443986
_symmetry_Int_Tables_number   1
_chemical_formula_structural   VCd2PO7
_chemical_formula_sum   'V2 Cd4 P2 O14'
_cell_volume   304.75920873
_cell_formula_units_Z   2
loop_
 _symmetry_equiv_pos_site_id
 _symmetry_equiv_pos_as_xyz
  1  'x, y, z'
loop_
 _atom_site_type_symbol
 _atom_site_label
 _atom_site_symmetry_multiplicity
 _atom_site_fract_x
 _atom_site_fract_y
 _atom_site_fract_z
 _atom_site_occupancy
  V  V0  1  0.64149037  0.85278612  0.89264499  1
  V  V1  1  0.35850963  0.64721388  0.39264499  1
  Cd  Cd2  1  0.10898058  0.91035123  0.65115167  1
  Cd  Cd3  1  0.89101942  0.58964877  0.15115167  1
  Cd  Cd4  1  0.88826949  0.09551404  0.34687900  1
  Cd  Cd5  1  0.11173051  0.40448596  0.84687900  1
  P  P6  1  0.35123656  0.15443491  0.11204658  1
  P  P7  1  0.64876344  0.34556509  0.61204658  1
  O  O8  1  0.89323072  0.03727001  0.81774369  1
  O  O9  1  0.10676928  0.46272999  0.31774369  1
  O  O10  1  0.13171393  0.97722661  0.17637442  1
  O  O11  1  0.86828607  0.52277339  0.67637442  1
  O  O12  1  0.79632246  0.62615431  0.95518542  1
  O  O13  1  0.20367754  0.87384569  0.45518542  1
  O  O14  1  0.21955896  0.35263967  0.04773378  1
  O  O15  1  0.78044104  0.14736033  0.54773378  1
  O  O16  1  0.48596231  0.01203920  0.00880094  1
  O  O17  1  0.51403769  0.48796080  0.50880094  1
  O  O18  1  0.38301359  0.73921572  0.79443639  1
  O  O19  1  0.61698641  0.76078428  0.29443639  1
  O  O20  1  0.59118507  0.25394428  0.19700311  1
  O  O21  1  0.40881493  0.24605572  0.69700311  1
