# generated using pymatgen
data_TmUTe6
_symmetry_space_group_name_H-M   'P 1'
_cell_length_a   4.35853029
_cell_length_b   4.36746056
_cell_length_c   13.09233693
_cell_angle_alpha   90.00000000
_cell_angle_beta   80.41831624
_cell_angle_gamma   90.00000000
_symmetry_Int_Tables_number   1
_chemical_formula_structural   TmUTe6
_chemical_formula_sum   'Tm1 U1 Te6'
_cell_volume   245.74509728
_cell_formula_units_Z   1
loop_
 _symmetry_equiv_pos_site_id
 _symmetry_equiv_pos_as_xyz
  1  'x, y, z'
loop_
 _atom_site_type_symbol
 _atom_site_label
 _atom_site_symmetry_multiplicity
 _atom_site_fract_x
 _atom_site_fract_y
 _atom_site_fract_z
 _atom_site_occupancy
  Tm  Tm0  1  0.16882917  0.25000000  0.66234165  1
  U  U1  1  0.83112496  0.75000000  0.33775008  1
  Te  Te2  1  0.42392460  0.75000000  0.15215080  1
  Te  Te3  1  0.57591075  0.25000000  0.84817850  1
  Te  Te4  1  0.70636885  0.75000000  0.58726230  1
  Te  Te5  1  0.29432536  0.25000000  0.41134928  1
  Te  Te6  1  0.07534440  0.75000000  0.84931120  1
  Te  Te7  1  0.92417191  0.25000000  0.15165619  1
