# generated using pymatgen
data_Y3HoFe4(Ge2O7)4
_symmetry_space_group_name_H-M   'P 1'
_cell_length_a   6.75551488
_cell_length_b   8.65185073
_cell_length_c   9.82039747
_cell_angle_alpha   90.00471898
_cell_angle_beta   100.54749140
_cell_angle_gamma   89.99680685
_symmetry_Int_Tables_number   1
_chemical_formula_structural   Y3HoFe4(Ge2O7)4
_chemical_formula_sum   'Y3 Ho1 Fe4 Ge8 O28'
_cell_volume   564.28146793
_cell_formula_units_Z   1
loop_
 _symmetry_equiv_pos_site_id
 _symmetry_equiv_pos_as_xyz
  1  'x, y, z'
loop_
 _atom_site_type_symbol
 _atom_site_label
 _atom_site_symmetry_multiplicity
 _atom_site_fract_x
 _atom_site_fract_y
 _atom_site_fract_z
 _atom_site_occupancy
  Y  Y0  1  0.24474282  0.04107348  0.25282457  1
  Y  Y1  1  0.75515314  0.54118556  0.74714602  1
  Y  Y2  1  0.75520295  0.95848108  0.74727064  1
  Ho  Ho3  1  0.24490550  0.45727395  0.25276290  1
  Fe  Fe4  1  0.74418086  0.94407480  0.24805509  1
  Fe  Fe5  1  0.25580641  0.44431271  0.75197503  1
  Fe  Fe6  1  0.25584131  0.05574266  0.75194955  1
  Fe  Fe7  1  0.74431687  0.55551390  0.24807180  1
  Ge  Ge8  1  0.45415014  0.74996603  0.96691593  1
  Ge  Ge9  1  0.54578079  0.25016108  0.03325519  1
  Ge  Ge10  1  0.95434622  0.25017330  0.46980626  1
  Ge  Ge11  1  0.04571780  0.74993393  0.53001892  1
  Ge  Ge12  1  0.51843718  0.74959198  0.44700397  1
  Ge  Ge13  1  0.48072677  0.25023130  0.55256977  1
  Ge  Ge14  1  0.97953038  0.74952157  0.05034986  1
  Ge  Ge15  1  0.02098964  0.25025535  0.95018511  1
  O  O16  1  0.96765566  0.57367662  0.14030325  1
  O  O17  1  0.03454480  0.07413904  0.86111639  1
  O  O18  1  0.03461988  0.42611238  0.86091440  1
  O  O19  1  0.96554112  0.92589803  0.13935792  1
  O  O20  1  0.95493848  0.08542955  0.36100376  1
  O  O21  1  0.04496396  0.58545720  0.63885682  1
  O  O22  1  0.04472856  0.91439033  0.63900840  1
  O  O23  1  0.95682777  0.41434936  0.36055699  1
  O  O24  1  0.64631573  0.74979991  0.61839187  1
  O  O25  1  0.35239236  0.25095190  0.38082691  1
  O  O26  1  0.52693492  0.92758398  0.35996571  1
  O  O27  1  0.47284791  0.42776479  0.63976886  1
  O  O28  1  0.47308781  0.07244109  0.63959089  1
  O  O29  1  0.52482570  0.57219396  0.35893847  1
  O  O30  1  0.46266372  0.58451581  0.86114625  1
  O  O31  1  0.53728319  0.08454306  0.13905571  1
  O  O32  1  0.53612712  0.41539493  0.13937203  1
  O  O33  1  0.46289735  0.91536218  0.86097685  1
  O  O34  1  0.64740749  0.74952956  0.11912920  1
  O  O35  1  0.35363688  0.24996004  0.88070909  1
  O  O36  1  0.24910745  0.75095247  0.05933457  1
  O  O37  1  0.75152481  0.25053106  0.94140148  1
  O  O38  1  0.83968150  0.74942650  0.38493565  1
  O  O39  1  0.15962662  0.24991912  0.61507437  1
  O  O40  1  0.84331219  0.74969373  0.88125994  1
  O  O41  1  0.15743205  0.25099595  0.11962148  1
  O  O42  1  0.24310365  0.75093438  0.43042519  1
  O  O43  1  0.75614254  0.25056040  0.56879694  1
