# generated using pymatgen
data_Ti5CN4
_symmetry_space_group_name_H-M   'P 1'
_cell_length_a   3.02198506
_cell_length_b   3.02198506
_cell_length_c   12.43769002
_cell_angle_alpha   90.00000000
_cell_angle_beta   96.97781281
_cell_angle_gamma   120.00000000
_symmetry_Int_Tables_number   1
_chemical_formula_structural   Ti5CN4
_chemical_formula_sum   'Ti5 C1 N4'
_cell_volume   97.39559875
_cell_formula_units_Z   1
loop_
 _symmetry_equiv_pos_site_id
 _symmetry_equiv_pos_as_xyz
  1  'x, y, z'
loop_
 _atom_site_type_symbol
 _atom_site_label
 _atom_site_symmetry_multiplicity
 _atom_site_fract_x
 _atom_site_fract_y
 _atom_site_fract_z
 _atom_site_occupancy
  Ti  Ti0  1  0.19944030  0.59972015  0.79916044  1
  Ti  Ti1  1  0.40000000  0.20000000  0.60000000  1
  Ti  Ti2  1  0.60055970  0.80027985  0.40083956  1
  Ti  Ti3  1  0.00046810  0.00023405  0.00070214  1
  Ti  Ti4  1  0.79953190  0.39976595  0.19929786  1
  C  C5  1  0.40000000  0.70000000  0.10000000  1
  N  N6  1  0.20144292  0.10072146  0.30216438  1
  N  N7  1  0.99995099  0.49997550  0.49992649  1
  N  N8  1  0.80004901  0.90002450  0.70007351  1
  N  N9  1  0.59855708  0.29927854  0.89783562  1
