# generated using pymatgen
data_Tb4YNi10(B2C)5
_symmetry_space_group_name_H-M   'P 1'
_cell_length_a   3.55372140
_cell_length_b   3.55372140
_cell_length_c   26.31558719
_cell_angle_alpha   93.87162693
_cell_angle_beta   93.87162693
_cell_angle_gamma   90.00000000
_symmetry_Int_Tables_number   1
_chemical_formula_structural   Tb4YNi10(B2C)5
_chemical_formula_sum   'Tb4 Y1 Ni10 B10 C5'
_cell_volume   330.81922427
_cell_formula_units_Z   1
loop_
 _symmetry_equiv_pos_site_id
 _symmetry_equiv_pos_as_xyz
  1  'x, y, z'
loop_
 _atom_site_type_symbol
 _atom_site_label
 _atom_site_symmetry_multiplicity
 _atom_site_fract_x
 _atom_site_fract_y
 _atom_site_fract_z
 _atom_site_occupancy
  Tb  Tb0  1  0.10000069  0.10000069  0.20000137  1
  Tb  Tb1  1  0.69997374  0.69997374  0.39994749  1
  Tb  Tb2  1  0.30002626  0.30002626  0.60005251  1
  Tb  Tb3  1  0.89999931  0.89999931  0.79999863  1
  Y  Y4  1  0.50000000  0.50000000  -0.00000000  1
  Ni  Ni5  1  0.05000219  0.55000219  0.10000437  1
  Ni  Ni6  1  0.65001022  0.15001022  0.30002045  1
  Ni  Ni7  1  0.25000000  0.75000000  0.50000000  1
  Ni  Ni8  1  0.84998978  0.34998978  0.69997955  1
  Ni  Ni9  1  0.44999781  0.94999781  0.89999563  1
  Ni  Ni10  1  0.55000219  0.05000219  0.10000437  1
  Ni  Ni11  1  0.15001022  0.65001022  0.30002045  1
  Ni  Ni12  1  0.75000000  0.25000000  0.50000000  1
  Ni  Ni13  1  0.34998978  0.84998978  0.69997955  1
  Ni  Ni14  1  0.94999781  0.44999781  0.89999563  1
  B  B15  1  0.57152770  0.57152770  0.14305541  1
  B  B16  1  0.17148648  0.17148648  0.34297296  1
  B  B17  1  0.77146205  0.77146205  0.54292411  1
  B  B18  1  0.37148490  0.37148490  0.74296980  1
  B  B19  1  0.97148972  0.97148972  0.94297944  1
  B  B20  1  0.02851028  0.02851028  0.05702056  1
  B  B21  1  0.62851510  0.62851510  0.25703020  1
  B  B22  1  0.22853795  0.22853795  0.45707589  1
  B  B23  1  0.82851352  0.82851352  0.65702704  1
  B  B24  1  0.42847230  0.42847230  0.85694459  1
  C  C25  1  -0.00000000  -0.00000000  -0.00000000  1
  C  C26  1  0.60003346  0.60003346  0.20006693  1
  C  C27  1  0.19999022  0.19999022  0.39998045  1
  C  C28  1  0.80000978  0.80000978  0.60001955  1
  C  C29  1  0.39996654  0.39996654  0.79993307  1
