# generated using pymatgen
data_Th2Si3Os
_symmetry_space_group_name_H-M   'P 1'
_cell_length_a   4.10294190
_cell_length_b   4.20397822
_cell_length_c   7.79467602
_cell_angle_alpha   74.35537807
_cell_angle_beta   74.74064491
_cell_angle_gamma   90.00000000
_symmetry_Int_Tables_number   1
_chemical_formula_structural   Th2Si3Os
_chemical_formula_sum   'Th2 Si3 Os1'
_cell_volume   124.53746828
_cell_formula_units_Z   1
loop_
 _symmetry_equiv_pos_site_id
 _symmetry_equiv_pos_as_xyz
  1  'x, y, z'
loop_
 _atom_site_type_symbol
 _atom_site_label
 _atom_site_symmetry_multiplicity
 _atom_site_fract_x
 _atom_site_fract_y
 _atom_site_fract_z
 _atom_site_occupancy
  Th  Th0  1  0.75239218  0.25239218  0.49521565  1
  Th  Th1  1  0.99764330  0.99764330  0.00471341  1
  Si  Si2  1  0.41731574  0.41731574  0.16536853  1
  Si  Si3  1  0.16810652  0.66810652  0.66378696  1
  Si  Si4  1  0.58190350  0.58190350  0.83619299  1
  Os  Os5  1  0.33263877  0.83263877  0.33472246  1
