# generated using pymatgen
data_H6I3NO9
_symmetry_space_group_name_H-M   'P 1'
_cell_length_a   8.41909371
_cell_length_b   8.44249456
_cell_length_c   8.51601047
_cell_angle_alpha   86.43693993
_cell_angle_beta   65.60576080
_cell_angle_gamma   61.02181830
_symmetry_Int_Tables_number   1
_chemical_formula_structural   H6I3NO9
_chemical_formula_sum   'H12 I6 N2 O18'
_cell_volume   474.96418503
_cell_formula_units_Z   2
loop_
 _symmetry_equiv_pos_site_id
 _symmetry_equiv_pos_as_xyz
  1  'x, y, z'
loop_
 _atom_site_type_symbol
 _atom_site_label
 _atom_site_symmetry_multiplicity
 _atom_site_fract_x
 _atom_site_fract_y
 _atom_site_fract_z
 _atom_site_occupancy
  H  H0  1  0.05366120  0.78776209  0.10111114  1
  H  H1  1  0.94721940  0.21086474  0.89775024  1
  H  H2  1  0.10076428  0.70659761  0.27100752  1
  H  H3  1  0.89929938  0.29392516  0.72845269  1
  H  H4  1  0.87676389  0.89259755  0.31350769  1
  H  H5  1  0.12422041  0.10713394  0.68487312  1
  H  H6  1  0.22894456  0.13579118  0.01965419  1
  H  H7  1  0.77210474  0.86474858  0.97736454  1
  H  H8  1  0.92794741  0.68539850  0.23529727  1
  H  H9  1  0.07145065  0.31375921  0.76588465  1
  H  H10  1  0.48790842  0.47484048  0.01970602  1
  H  H11  1  0.98925247  0.53290322  0.52047951  1
  I  I12  1  0.94668859  0.31347964  0.31220324  1
  I  I13  1  0.06698427  0.69382023  0.69118962  1
  I  I14  1  0.40914127  0.80290827  0.30302627  1
  I  I15  1  0.59127937  0.19151294  0.69395867  1
  I  I16  1  0.52615735  0.25637324  0.23498059  1
  I  I17  1  0.47223008  0.73940055  0.77859065  1
  N  N18  1  0.98932367  0.76842329  0.22872544  1
  N  N19  1  0.01102540  0.23097282  0.77048798  1
  O  O20  1  0.21772817  0.76696594  0.85787971  1
  O  O21  1  0.77474516  0.23370471  0.14118436  1
  O  O22  1  0.40932512  0.97244064  0.84316562  1
  O  O23  1  0.58410321  0.03116568  0.15592283  1
  O  O24  1  0.53091002  0.63181038  0.95707003  1
  O  O25  1  0.45647415  0.36887547  0.05058663  1
  O  O26  1  0.13042793  0.27107773  0.07029648  1
  O  O27  1  0.87256832  0.73029476  0.92604166  1
  O  O28  1  0.66590471  0.36876322  0.63807882  1
  O  O29  1  0.33207307  0.62514007  0.36582067  1
  O  O30  1  0.78562406  0.55408749  0.31145344  1
  O  O31  1  0.21686173  0.45055219  0.68628374  1
  O  O32  1  0.34568658  0.89758275  0.52146809  1
  O  O33  1  0.65185127  0.10135241  0.47370411  1
  O  O34  1  0.91234368  0.66522323  0.59090459  1
  O  O35  1  0.08927850  0.34596345  0.41041200  1
  O  O36  1  0.18601046  0.97017014  0.27582486  1
  O  O37  1  0.81551704  0.02251647  0.72025134  1
