# generated using pymatgen
data_Tb5Co19P12
_symmetry_space_group_name_H-M   'P 1'
_cell_length_a   3.67571611
_cell_length_b   11.98729800
_cell_length_c   11.98713796
_cell_angle_alpha   120.00044618
_cell_angle_beta   89.99964244
_cell_angle_gamma   90.00071520
_symmetry_Int_Tables_number   1
_chemical_formula_structural   Tb5Co19P12
_chemical_formula_sum   'Tb5 Co19 P12'
_cell_volume   457.41188681
_cell_formula_units_Z   1
loop_
 _symmetry_equiv_pos_site_id
 _symmetry_equiv_pos_as_xyz
  1  'x, y, z'
loop_
 _atom_site_type_symbol
 _atom_site_label
 _atom_site_symmetry_multiplicity
 _atom_site_fract_x
 _atom_site_fract_y
 _atom_site_fract_z
 _atom_site_occupancy
  Tb  Tb0  1  0.00010500  0.33335757  0.66662924  1
  Tb  Tb1  1  0.00010500  0.66672833  0.33337076  1
  Tb  Tb2  1  0.50294678  0.81235932  1.00000000  1
  Tb  Tb3  1  0.50296402  0.18763648  0.18765728  1
  Tb  Tb4  1  0.50296402  0.99997920  0.81234272  1
  Co  Co5  1  0.00086953  0.17774040  0.37803071  1
  Co  Co6  1  0.00088181  0.20017205  0.82216328  1
  Co  Co7  1  0.00089189  0.62204620  0.79978372  1
  Co  Co8  1  0.00086953  0.79970970  0.62196929  1
  Co  Co9  1  0.00088181  0.37800878  0.17783672  1
  Co  Co10  1  0.00089189  0.82226247  0.20021628  1
  Co  Co11  1  0.00061232  0.44740013  0.00000000  1
  Co  Co12  1  0.00060170  0.55243304  0.55254820  1
  Co  Co13  1  0.00060170  0.99988483  0.44745180  1
  Co  Co14  1  0.50036660  0.35854375  0.48368252  1
  Co  Co15  1  0.50037759  0.12520206  0.64148664  1
  Co  Co16  1  0.50036745  0.51633395  0.87478384  1
  Co  Co17  1  0.50036660  0.87486123  0.51631748  1
  Co  Co18  1  0.50037759  0.48371542  0.35851336  1
  Co  Co19  1  0.50036745  0.64155011  0.12521616  1
  Co  Co20  1  0.50229746  0.28527199  0.00000000  1
  Co  Co21  1  0.50229417  0.71469672  0.71469848  1
  Co  Co22  1  0.50229417  0.99999824  0.28530152  1
  Co  Co23  1  0.00755384  0.99998501  0.00000000  1
  P  P24  1  0.00075017  0.63119452  1.00000000  1
  P  P25  1  0.00074840  0.36880614  0.36877583  1
  P  P26  1  0.00074840  0.00003031  0.63122417  1
  P  P27  1  0.50037544  0.16551284  0.47954114  1
  P  P28  1  0.50038515  0.31402245  0.83449639  1
  P  P29  1  0.50037822  0.52045825  0.68597618  1
  P  P30  1  0.50037544  0.68597170  0.52045886  1
  P  P31  1  0.50038515  0.47952606  0.16550361  1
  P  P32  1  0.50037822  0.83448207  0.31402382  1
  P  P33  1  0.00320228  0.18124900  0.00000000  1
  P  P34  1  0.00321161  0.81876127  0.81875287  1
  P  P35  1  0.00321161  0.00000840  0.18124713  1
