# generated using pymatgen
data_TiBi8W(BrO8)2
_symmetry_space_group_name_H-M   'P 1'
_cell_length_a   5.54212093
_cell_length_b   5.60749237
_cell_length_c   15.21690354
_cell_angle_alpha   79.38246806
_cell_angle_beta   80.04403268
_cell_angle_gamma   90.00000000
_symmetry_Int_Tables_number   1
_chemical_formula_structural   TiBi8W(BrO8)2
_chemical_formula_sum   'Ti1 Bi8 W1 Br2 O16'
_cell_volume   457.55779884
_cell_formula_units_Z   1
loop_
 _symmetry_equiv_pos_site_id
 _symmetry_equiv_pos_as_xyz
  1  'x, y, z'
loop_
 _atom_site_type_symbol
 _atom_site_label
 _atom_site_symmetry_multiplicity
 _atom_site_fract_x
 _atom_site_fract_y
 _atom_site_fract_z
 _atom_site_occupancy
  Ti  Ti0  1  0.50000000  0.61424297  1.00000000  1
  Bi  Bi1  1  0.31414491  0.43248573  0.35497068  1
  Bi  Bi2  1  0.68585509  0.78745641  0.64502932  1
  Bi  Bi3  1  0.16707918  0.28982132  0.64554531  1
  Bi  Bi4  1  0.83292082  0.93536663  0.35445469  1
  Bi  Bi5  1  0.42737525  0.96770225  0.17614385  1
  Bi  Bi6  1  0.57262475  0.14384611  0.82385615  1
  Bi  Bi7  1  0.12172754  0.66263065  0.81863150  1
  Bi  Bi8  1  0.87827246  0.48126215  0.18136850  1
  W  W9  1  0.00000000  0.13955583  1.00000000  1
  Br  Br10  1  0.24881509  0.87016931  0.49928217  1
  Br  Br11  1  0.75118491  0.36945148  0.50071783  1
  O  O12  1  0.52480894  0.62418726  0.12518378  1
  O  O13  1  0.47519106  0.74937104  0.87481622  1
  O  O14  1  0.15282406  0.24743106  0.87245829  1
  O  O15  1  0.84717594  0.11988936  0.12754171  1
  O  O16  1  0.90028054  0.50976084  0.71984633  1
  O  O17  1  0.09971946  0.22960717  0.28015367  1
  O  O18  1  0.11754735  0.72870316  0.27711159  1
  O  O19  1  0.88245265  0.00581475  0.72288841  1
  O  O20  1  0.60275579  0.22414026  0.28307045  1
  O  O21  1  0.39724421  0.50721071  0.71692955  1
  O  O22  1  0.38531520  0.00420563  0.71867239  1
  O  O23  1  0.61468480  0.72287802  0.28132761  1
  O  O24  1  0.77177776  0.93455633  0.97135860  1
  O  O25  1  0.22822224  0.90591493  0.02864140  1
  O  O26  1  0.23473911  0.39635788  0.02562288  1
  O  O27  1  0.76526089  0.42198077  0.97437712  1
