# generated using pymatgen
data_Ti2MnNiO6
_symmetry_space_group_name_H-M   'P 1'
_cell_length_a   5.13468017
_cell_length_b   5.13468017
_cell_length_c   5.58848720
_cell_angle_alpha   89.99999867
_cell_angle_beta   117.34826654
_cell_angle_gamma   59.99999653
_symmetry_Int_Tables_number   1
_chemical_formula_structural   Ti2MnNiO6
_chemical_formula_sum   'Ti2 Mn1 Ni1 O6'
_cell_volume   108.16747195
_cell_formula_units_Z   1
loop_
 _symmetry_equiv_pos_site_id
 _symmetry_equiv_pos_as_xyz
  1  'x, y, z'
loop_
 _atom_site_type_symbol
 _atom_site_label
 _atom_site_symmetry_multiplicity
 _atom_site_fract_x
 _atom_site_fract_y
 _atom_site_fract_z
 _atom_site_occupancy
  Ti  Ti0  1  0.71234959  0.14382521  0.56852438  1
  Ti  Ti1  1  0.29092689  0.85453656  0.43639033  1
  Mn  Mn2  1  0.71372764  0.64313618  0.07059146  1
  Ni  Ni3  1  0.29674536  0.35162732  0.94511803  1
  O  O4  1  0.22349673  0.21338575  0.26026651  1
  O  O5  1  0.47365226  0.56311753  0.26026651  1
  O  O6  1  0.82338404  0.96323021  0.26026651  1
  O  O7  1  0.79297027  0.77017784  0.73285875  1
  O  O8  1  0.50303660  0.43685189  0.73285875  1
  O  O9  1  0.16971064  0.06011152  0.73285875  1
