# generated using pymatgen
data_Ti3Bi6WO18
_symmetry_space_group_name_H-M   'P 1'
_cell_length_a   5.40778997
_cell_length_b   5.45382862
_cell_length_c   13.06682653
_cell_angle_alpha   89.59035752
_cell_angle_beta   78.21046480
_cell_angle_gamma   89.93184629
_symmetry_Int_Tables_number   1
_chemical_formula_structural   Ti3Bi6WO18
_chemical_formula_sum   'Ti3 Bi6 W1 O18'
_cell_volume   377.24260500
_cell_formula_units_Z   1
loop_
 _symmetry_equiv_pos_site_id
 _symmetry_equiv_pos_as_xyz
  1  'x, y, z'
loop_
 _atom_site_type_symbol
 _atom_site_label
 _atom_site_symmetry_multiplicity
 _atom_site_fract_x
 _atom_site_fract_y
 _atom_site_fract_z
 _atom_site_occupancy
  Ti  Ti0  1  0.66443168  0.04239999  0.17594590  1
  Ti  Ti1  1  0.84238957  0.04606215  0.82219593  1
  Ti  Ti2  1  0.33783753  0.55116030  0.81920658  1
  Bi  Bi3  1  0.42319942  0.00123005  0.60180647  1
  Bi  Bi4  1  0.01996358  0.01202143  0.39800247  1
  Bi  Bi5  1  0.56565352  0.50687509  0.39966837  1
  Bi  Bi6  1  0.96988630  0.50366392  0.60219426  1
  Bi  Bi7  1  0.75609659  0.49140522  0.98346345  1
  Bi  Bi8  1  0.27132226  0.00388990  0.98401746  1
  W  W9  1  0.16815714  0.55279642  0.17093335  1
  O  O10  1  0.25437339  0.27136213  0.49855893  1
  O  O11  1  0.75221918  0.27120708  0.50256253  1
  O  O12  1  0.74303267  0.76948237  0.50152923  1
  O  O13  1  0.24312941  0.76978551  0.49853919  1
  O  O14  1  0.63254021  0.36820022  0.83302917  1
  O  O15  1  0.45355463  0.36104822  0.17862066  1
  O  O16  1  0.36347118  0.85773271  0.17908583  1
  O  O17  1  0.53112740  0.86527788  0.83331734  1
  O  O18  1  0.67366671  0.08737800  0.00400139  1
  O  O19  1  0.31659010  0.58782215  0.01008388  1
  O  O20  1  0.09757776  0.28629847  0.86771536  1
  O  O21  1  0.97108734  0.28799254  0.13599312  1
  O  O22  1  0.89963770  0.78134446  0.13894367  1
  O  O23  1  0.03729660  0.78302587  0.86443307  1
  O  O24  1  0.66219977  0.06401136  0.31459184  1
  O  O25  1  0.96793712  0.05890630  0.68455939  1
  O  O26  1  0.35082052  0.55571904  0.68205537  1
  O  O27  1  0.03080074  0.55490122  0.31494579  1
