# generated using pymatgen
data_Ti3TePb4O13
_symmetry_space_group_name_H-M   'P 1'
_cell_length_a   7.42415602
_cell_length_b   7.37835057
_cell_length_c   7.42415602
_cell_angle_alpha   90.00000000
_cell_angle_beta   59.59222841
_cell_angle_gamma   119.79611420
_symmetry_Int_Tables_number   1
_chemical_formula_structural   Ti3TePb4O13
_chemical_formula_sum   'Ti3 Te1 Pb4 O13'
_cell_volume   286.66996458
_cell_formula_units_Z   1
loop_
 _symmetry_equiv_pos_site_id
 _symmetry_equiv_pos_as_xyz
  1  'x, y, z'
loop_
 _atom_site_type_symbol
 _atom_site_label
 _atom_site_symmetry_multiplicity
 _atom_site_fract_x
 _atom_site_fract_y
 _atom_site_fract_z
 _atom_site_occupancy
  Ti  Ti0  1  0.50133564  0.00176448  0.49957115  1
  Ti  Ti1  1  0.50133564  0.49957115  0.49957115  1
  Ti  Ti2  1  0.99914231  0.49957115  0.00176448  1
  Te  Te3  1  0.99969672  0.49984836  0.49984836  1
  Pb  Pb4  1  0.50443508  0.50701775  0.99741734  1
  Pb  Pb5  1  0.50443508  0.99741734  0.99741734  1
  Pb  Pb6  1  0.99483468  0.99741734  0.50701775  1
  Pb  Pb7  1  0.99637926  0.99818963  0.99818963  1
  O  O8  1  0.63641691  0.81820846  0.43442868  1
  O  O9  1  0.85994378  0.42997189  0.81393921  1
  O  O10  1  0.25263713  0.81820846  0.81820846  1
  O  O11  1  0.24391110  0.42997189  0.42997189  1
  O  O12  1  0.25263713  0.43442868  0.81820846  1
  O  O13  1  0.24391110  0.81393921  0.42997189  1
  O  O14  1  0.36959861  0.18479931  0.56184555  1
  O  O15  1  0.13442708  0.56721354  0.18774844  1
  O  O16  1  0.74664485  0.18479931  0.18479931  1
  O  O17  1  0.75496198  0.56721354  0.56721354  1
  O  O18  1  0.74664485  0.56184555  0.18479931  1
  O  O19  1  0.75496198  0.18774844  0.56721354  1
  O  O20  1  0.25170909  0.12585455  0.12585455  1
