# generated using pymatgen
data_ThUBe26
_symmetry_space_group_name_H-M   'P 1'
_cell_length_a   7.24416744
_cell_length_b   7.24416744
_cell_length_c   7.24416744
_cell_angle_alpha   90.00000000
_cell_angle_beta   60.00000000
_cell_angle_gamma   120.00000000
_symmetry_Int_Tables_number   1
_chemical_formula_structural   ThUBe26
_chemical_formula_sum   'Th1 U1 Be26'
_cell_volume   268.81310774
_cell_formula_units_Z   1
loop_
 _symmetry_equiv_pos_site_id
 _symmetry_equiv_pos_as_xyz
  1  'x, y, z'
loop_
 _atom_site_type_symbol
 _atom_site_label
 _atom_site_symmetry_multiplicity
 _atom_site_fract_x
 _atom_site_fract_y
 _atom_site_fract_z
 _atom_site_occupancy
  Th  Th0  1  0.50000000  0.75000000  0.75000000  1
  U  U1  1  0.50000000  0.25000000  0.25000000  1
  Be  Be2  1  0.64932251  0.21229244  0.79265302  1
  Be  Be3  1  0.35067749  0.79265302  0.21229244  1
  Be  Be4  1  0.64932251  0.43703007  0.55802446  1
  Be  Be5  1  0.35067749  0.55802446  0.43703007  1
  Be  Be6  1  0.77031690  0.70734698  0.28770756  1
  Be  Be7  1  0.22968310  0.28770756  0.70734698  1
  Be  Be8  1  0.77031690  0.06296993  0.94197554  1
  Be  Be9  1  0.22968310  0.94197554  0.06296993  1
  Be  Be10  1  0.00494546  0.79265302  0.43703007  1
  Be  Be11  1  0.00494546  0.21229244  0.55802446  1
  Be  Be12  1  0.99505454  0.55802446  0.21229244  1
  Be  Be13  1  0.99505454  0.43703007  0.79265302  1
  Be  Be14  1  0.99505454  0.28770756  0.06296993  1
  Be  Be15  1  0.99505454  0.70734698  0.94197554  1
  Be  Be16  1  0.00494546  0.94197554  0.70734698  1
  Be  Be17  1  0.00494546  0.06296993  0.28770756  1
  Be  Be18  1  0.22968310  0.43703007  0.21229244  1
  Be  Be19  1  0.77031690  0.55802446  0.79265302  1
  Be  Be20  1  0.77031690  0.21229244  0.43703007  1
  Be  Be21  1  0.22968310  0.79265302  0.55802446  1
  Be  Be22  1  0.35067749  0.06296993  0.70734698  1
  Be  Be23  1  0.64932251  0.94197554  0.28770756  1
  Be  Be24  1  0.64932251  0.70734698  0.06296993  1
  Be  Be25  1  0.35067749  0.28770756  0.94197554  1
  Be  Be26  1  0.00000000  0.50000000  0.50000000  1
  Be  Be27  1  0.00000000  0.00000000  0.00000000  1
