# generated using pymatgen
data_SrLa3Mn4O12
_symmetry_space_group_name_H-M   'P 1'
_cell_length_a   5.53635189
_cell_length_b   7.87603537
_cell_length_c   5.60184391
_cell_angle_alpha   89.99999709
_cell_angle_beta   90.00000512
_cell_angle_gamma   90.91086415
_symmetry_Int_Tables_number   1
_chemical_formula_structural   SrLa3Mn4O12
_chemical_formula_sum   'Sr1 La3 Mn4 O12'
_cell_volume   244.23475508
_cell_formula_units_Z   1
loop_
 _symmetry_equiv_pos_site_id
 _symmetry_equiv_pos_as_xyz
  1  'x, y, z'
loop_
 _atom_site_type_symbol
 _atom_site_label
 _atom_site_symmetry_multiplicity
 _atom_site_fract_x
 _atom_site_fract_y
 _atom_site_fract_z
 _atom_site_occupancy
  Sr  Sr0  1  0.50000000  0.25000000  0.00303204  1
  La  La1  1  0.00000000  0.75000000  0.49663619  1
  La  La2  1  0.50000000  0.75000000  0.00005695  1
  La  La3  1  1.00000000  0.25000000  0.50062346  1
  Mn  Mn4  1  0.00003407  0.49949401  0.00018749  1
  Mn  Mn5  1  0.50028347  0.00061975  0.49983280  1
  Mn  Mn6  1  -0.00003407  0.00050599  0.00018749  1
  Mn  Mn7  1  0.49971653  0.49938025  0.49983280  1
  O  O8  1  0.22092664  0.53183042  0.72105320  1
  O  O9  1  0.72720025  0.02035021  0.22703036  1
  O  O10  1  0.27279975  0.47964979  0.22703036  1
  O  O11  1  0.77907336  0.96816958  0.72105320  1
  O  O12  1  0.00000000  0.75000000  0.05764783  1
  O  O13  1  0.50000000  0.25000000  0.54827661  1
  O  O14  1  0.72379054  0.53775221  0.77577664  1
  O  O15  1  0.21511348  0.02427944  0.28557581  1
  O  O16  1  0.00000000  0.25000000  0.93589356  1
  O  O17  1  0.50000000  0.75000000  0.43892074  1
  O  O18  1  0.78488652  0.47572056  0.28557581  1
  O  O19  1  0.27620946  0.96224779  0.77577664  1
