# generated using pymatgen
data_SrLaNiO4
_symmetry_space_group_name_H-M   'P 1'
_cell_length_a   5.44383947
_cell_length_b   5.45848143
_cell_length_c   6.85393188
_cell_angle_alpha   90.00000000
_cell_angle_beta   66.60095087
_cell_angle_gamma   90.00000000
_symmetry_Int_Tables_number   1
_chemical_formula_structural   SrLaNiO4
_chemical_formula_sum   'Sr2 La2 Ni2 O8'
_cell_volume   186.91606617
_cell_formula_units_Z   2
loop_
 _symmetry_equiv_pos_site_id
 _symmetry_equiv_pos_as_xyz
  1  'x, y, z'
loop_
 _atom_site_type_symbol
 _atom_site_label
 _atom_site_symmetry_multiplicity
 _atom_site_fract_x
 _atom_site_fract_y
 _atom_site_fract_z
 _atom_site_occupancy
  Sr  Sr0  1  0.64283154  0.00000000  0.71433692  1
  Sr  Sr1  1  0.85716846  0.50000000  0.28566308  1
  La  La2  1  0.13686268  0.50000000  0.72627464  1
  La  La3  1  0.36313732  0.00000000  0.27372536  1
  Ni  Ni4  1  0.50074338  0.50000000  0.99851323  1
  Ni  Ni5  1  0.99925662  0.00000000  0.00148677  1
  O  O6  1  0.32635390  0.50000000  0.34729220  1
  O  O7  1  0.83825095  0.00000000  0.32349810  1
  O  O8  1  0.17364610  0.00000000  0.65270780  1
  O  O9  1  0.66174905  0.50000000  0.67650190  1
  O  O10  1  0.25000000  0.75000000  -0.00000000  1
  O  O11  1  0.75000000  0.25000000  -0.00000000  1
  O  O12  1  0.25000000  0.25000000  -0.00000000  1
  O  O13  1  0.75000000  0.75000000  -0.00000000  1
