# generated using pymatgen
data_TaV(Cu3S4)2
_symmetry_space_group_name_H-M   'P 1'
_cell_length_a   5.49987110
_cell_length_b   7.76443757
_cell_length_c   7.76443757
_cell_angle_alpha   90.00000000
_cell_angle_beta   90.00000000
_cell_angle_gamma   90.00000000
_symmetry_Int_Tables_number   1
_chemical_formula_structural   TaV(Cu3S4)2
_chemical_formula_sum   'Ta1 V1 Cu6 S8'
_cell_volume   331.56792861
_cell_formula_units_Z   1
loop_
 _symmetry_equiv_pos_site_id
 _symmetry_equiv_pos_as_xyz
  1  'x, y, z'
loop_
 _atom_site_type_symbol
 _atom_site_label
 _atom_site_symmetry_multiplicity
 _atom_site_fract_x
 _atom_site_fract_y
 _atom_site_fract_z
 _atom_site_occupancy
  Ta  Ta0  1  -0.00000000  -0.00000000  0.00000000  1
  V  V1  1  -0.00000000  0.50000000  0.50000000  1
  Cu  Cu2  1  -0.00000000  0.25383217  0.25383217  1
  Cu  Cu3  1  -0.00000000  0.74616783  0.74616783  1
  Cu  Cu4  1  -0.00000000  0.25383217  0.74616783  1
  Cu  Cu5  1  -0.00000000  0.74616783  0.25383217  1
  Cu  Cu6  1  0.50000000  -0.00000000  0.00000000  1
  Cu  Cu7  1  0.50000000  0.50000000  0.50000000  1
  S  S8  1  0.76585828  0.50000000  0.73277487  1
  S  S9  1  0.75665005  0.00000000  0.24426298  1
  S  S10  1  0.76585828  0.50000000  0.26722513  1
  S  S11  1  0.75665005  0.00000000  0.75573702  1
  S  S12  1  0.24334995  0.75573702  -0.00000000  1
  S  S13  1  0.23414172  0.26722513  0.50000000  1
  S  S14  1  0.24334995  0.24426298  0.00000000  1
  S  S15  1  0.23414172  0.73277487  0.50000000  1
