# generated using pymatgen
data_Ta3C2
_symmetry_space_group_name_H-M   'P 1'
_cell_length_a   3.13766099
_cell_length_b   3.13766099
_cell_length_c   30.32656910
_cell_angle_alpha   90.00000000
_cell_angle_beta   90.00000000
_cell_angle_gamma   119.99999988
_symmetry_Int_Tables_number   1
_chemical_formula_structural   Ta3C2
_chemical_formula_sum   'Ta12 C8'
_cell_volume   258.56274480
_cell_formula_units_Z   4
loop_
 _symmetry_equiv_pos_site_id
 _symmetry_equiv_pos_as_xyz
  1  'x, y, z'
loop_
 _atom_site_type_symbol
 _atom_site_label
 _atom_site_symmetry_multiplicity
 _atom_site_fract_x
 _atom_site_fract_y
 _atom_site_fract_z
 _atom_site_occupancy
  Ta  Ta0  1  0.00000000  -0.00000000  0.87551707  1
  Ta  Ta1  1  0.66666700  0.33333300  0.20694334  1
  Ta  Ta2  1  0.33333300  0.66666700  0.54076706  1
  Ta  Ta3  1  0.33333300  0.66666700  0.79305666  1
  Ta  Ta4  1  -0.00000000  -0.00000000  0.12448293  1
  Ta  Ta5  1  0.66666700  0.33333300  0.45923294  1
  Ta  Ta6  1  0.00000000  -0.00000000  0.71066699  1
  Ta  Ta7  1  0.66666700  0.33333300  0.04243897  1
  Ta  Ta8  1  0.33333300  0.66666700  0.37716650  1
  Ta  Ta9  1  0.33333300  0.66666700  0.95756103  1
  Ta  Ta10  1  -0.00000000  0.00000000  0.28933301  1
  Ta  Ta11  1  0.66666700  0.33333300  0.62283350  1
  C  C12  1  0.66666700  0.33333300  0.91578246  1
  C  C13  1  0.33333300  0.66666700  0.24689080  1
  C  C14  1  -0.00000000  0.00000000  0.58035403  1
  C  C15  1  0.66666700  0.33333300  0.75310920  1
  C  C16  1  0.33333300  0.66666700  0.08421754  1
  C  C17  1  0.00000000  -0.00000000  0.41964597  1
  C  C18  1  0.66666700  0.33333300  0.33330098  1
  C  C19  1  0.33333300  0.66666700  0.66669902  1
