# generated using pymatgen
data_Sr2VAs2O9
_symmetry_space_group_name_H-M   'P 1'
_cell_length_a   7.01112922
_cell_length_b   7.28432795
_cell_length_c   9.10983081
_cell_angle_alpha   103.50311046
_cell_angle_beta   102.24093490
_cell_angle_gamma   115.60599566
_symmetry_Int_Tables_number   1
_chemical_formula_structural   Sr2VAs2O9
_chemical_formula_sum   'Sr4 V2 As4 O18'
_cell_volume   381.09558875
_cell_formula_units_Z   2
loop_
 _symmetry_equiv_pos_site_id
 _symmetry_equiv_pos_as_xyz
  1  'x, y, z'
loop_
 _atom_site_type_symbol
 _atom_site_label
 _atom_site_symmetry_multiplicity
 _atom_site_fract_x
 _atom_site_fract_y
 _atom_site_fract_z
 _atom_site_occupancy
  Sr  Sr0  1  0.29443722  0.04318327  0.08860774  1
  Sr  Sr1  1  0.70582948  0.95457553  0.91139226  1
  Sr  Sr2  1  0.87499883  0.62497795  0.24793120  1
  Sr  Sr3  1  0.12706763  0.37704675  0.75206880  1
  V  V4  1  0.49423695  0.46922229  0.49138828  1
  V  V5  1  0.50284866  0.97783400  0.50861172  1
  As  As6  1  0.67260373  0.42177968  0.84524542  1
  As  As7  1  0.32735831  0.57653425  0.15475458  1
  As  As8  1  0.08737880  0.83738633  0.67590653  1
  As  As9  1  0.91147227  0.16147980  0.32409347  1
  O  O10  1  0.71240806  0.22748749  0.72296633  1
  O  O11  1  0.51314866  0.49442391  0.72098902  1
  O  O12  1  0.29215964  0.77343489  0.27901098  1
  O  O13  1  0.48944173  0.50452116  0.27703367  1
  O  O14  1  0.45733965  0.21161107  0.42577280  1
  O  O15  1  0.53156685  0.78583827  0.57422720  1
  O  O16  1  0.92366949  0.65245111  0.96050023  1
  O  O17  1  0.53602329  0.30738279  0.96051478  1
  O  O18  1  0.07550852  0.34686801  0.03948522  1
  O  O19  1  0.46316926  0.69195088  0.03949977  1
  O  O20  1  0.16695654  0.39383027  0.45582436  1
  O  O21  1  0.79483878  0.06321273  0.45879186  1
  O  O22  1  0.83604692  0.60442087  0.54120814  1
  O  O23  1  0.21113219  0.93800591  0.54417564  1
  O  O24  1  0.96360776  0.98568363  0.20155368  1
  O  O25  1  0.73715691  0.21606218  0.20281713  1
  O  O26  1  0.03433979  0.01324505  0.79718287  1
  O  O27  1  0.26205408  0.78412995  0.79844632  1
