# generated using pymatgen
data_Sr2VP2O9
_symmetry_space_group_name_H-M   'P 1'
_cell_length_a   6.83337771
_cell_length_b   7.07333503
_cell_length_c   8.82211688
_cell_angle_alpha   76.39114315
_cell_angle_beta   77.53297877
_cell_angle_gamma   115.31376358
_symmetry_Int_Tables_number   1
_chemical_formula_structural   Sr2VP2O9
_chemical_formula_sum   'Sr4 V2 P4 O18'
_cell_volume   349.49830784
_cell_formula_units_Z   2
loop_
 _symmetry_equiv_pos_site_id
 _symmetry_equiv_pos_as_xyz
  1  'x, y, z'
loop_
 _atom_site_type_symbol
 _atom_site_label
 _atom_site_symmetry_multiplicity
 _atom_site_fract_x
 _atom_site_fract_y
 _atom_site_fract_z
 _atom_site_occupancy
  Sr  Sr0  1  0.20875737  0.95738868  0.08303896  1
  Sr  Sr1  1  0.79179633  0.04042764  0.91696104  1
  Sr  Sr2  1  0.62686065  0.37665987  0.24839669  1
  Sr  Sr3  1  0.37525733  0.62505656  0.75160331  1
  V  V4  1  0.00286177  0.98277958  0.49299038  1
  V  V5  1  0.99585215  0.47576996  0.50700962  1
  P  P6  1  0.82808288  0.57706178  0.84420929  1
  P  P7  1  0.17229217  0.42127107  0.15579071  1
  P  P8  1  0.41320876  0.16304726  0.67244650  1
  P  P9  1  0.58565526  0.83549376  0.32755350  1
  O  O10  1  0.95185784  0.68766794  0.95113783  1
  O  O11  1  0.59635554  0.36070781  0.95131764  1
  O  O12  1  0.04767317  0.31202545  0.04868236  1
  O  O13  1  0.40299568  0.63880577  0.04886217  1
  O  O14  1  0.74615704  0.78303439  0.21355884  1
  O  O15  1  0.53823769  0.00197128  0.21484077  1
  O  O16  1  0.25307846  0.21681205  0.78515923  1
  O  O17  1  0.45971588  0.99659323  0.78644116  1
  O  O18  1  0.98316022  0.51570937  0.72735720  1
  O  O19  1  0.79211124  0.75595812  0.72574305  1
  O  O20  1  0.01785429  0.48170117  0.27425695  1
  O  O21  1  0.21051743  0.24306658  0.27264280  1
  O  O22  1  0.70536083  0.93045224  0.44733577  1
  O  O23  1  0.34853414  0.62015494  0.44898660  1
  O  O24  1  0.29752074  0.06914154  0.55101340  1
  O  O25  1  0.65269661  0.37778802  0.55266423  1
  O  O26  1  0.03751452  0.78826724  0.41835946  1
  O  O27  1  0.95587398  0.20662670  0.58164054  1
