# generated using pymatgen
data_Tb3Al3NiPd2
_symmetry_space_group_name_H-M   'P 1'
_cell_length_a   4.04580690
_cell_length_b   7.10486776
_cell_length_c   7.10486711
_cell_angle_alpha   59.98688042
_cell_angle_beta   90.00000000
_cell_angle_gamma   90.00000000
_symmetry_Int_Tables_number   1
_chemical_formula_structural   Tb3Al3NiPd2
_chemical_formula_sum   'Tb3 Al3 Ni1 Pd2'
_cell_volume   176.84399248
_cell_formula_units_Z   1
loop_
 _symmetry_equiv_pos_site_id
 _symmetry_equiv_pos_as_xyz
  1  'x, y, z'
loop_
 _atom_site_type_symbol
 _atom_site_label
 _atom_site_symmetry_multiplicity
 _atom_site_fract_x
 _atom_site_fract_y
 _atom_site_fract_z
 _atom_site_occupancy
  Tb  Tb0  1  0.50000000  0.58753066  0.41246934  1
  Tb  Tb1  1  0.50000000  0.41241232  0.00004423  1
  Tb  Tb2  1  0.50000000  0.99995577  0.58758768  1
  Al  Al3  1  -0.00000000  0.22833558  0.77166442  1
  Al  Al4  1  -0.00000000  0.77167940  0.00000367  1
  Al  Al5  1  -0.00000000  -0.00000367  0.22832060  1
  Ni  Ni6  1  0.50000000  0.00002885  -0.00002885  1
  Pd  Pd7  1  0.00000000  0.33330468  0.33334359  1
  Pd  Pd8  1  0.00000000  0.66665641  0.66669532  1
