# generated using pymatgen
data_SrLa2Mn3O9
_symmetry_space_group_name_H-M   'P 1'
_cell_length_a   5.53647301
_cell_length_b   13.64001245
_cell_length_c   9.60299252
_cell_angle_alpha   90.94204267
_cell_angle_beta   90.00000000
_cell_angle_gamma   90.00000000
_symmetry_Int_Tables_number   1
_chemical_formula_structural   SrLa2Mn3O9
_chemical_formula_sum   'Sr4 La8 Mn12 O36'
_cell_volume   725.09655203
_cell_formula_units_Z   4
loop_
 _symmetry_equiv_pos_site_id
 _symmetry_equiv_pos_as_xyz
  1  'x, y, z'
loop_
 _atom_site_type_symbol
 _atom_site_label
 _atom_site_symmetry_multiplicity
 _atom_site_fract_x
 _atom_site_fract_y
 _atom_site_fract_z
 _atom_site_occupancy
  Sr  Sr0  1  0.49226485  0.91645080  0.32963132  1
  Sr  Sr1  1  0.99226485  0.41688220  0.83703568  1
  Sr  Sr2  1  0.50773515  0.41688220  0.33703568  1
  Sr  Sr3  1  0.00773515  0.91645080  0.82963132  1
  La  La4  1  0.49071329  0.24952368  0.00312112  1
  La  La5  1  0.49154421  0.58212250  0.67030946  1
  La  La6  1  0.99154421  0.75121150  0.49635654  1
  La  La7  1  0.99071329  0.08380932  0.16354588  1
  La  La8  1  0.50928671  0.08380932  0.66354588  1
  La  La9  1  0.50845579  0.75121150  0.99635654  1
  La  La10  1  0.00928671  0.24952368  0.50312112  1
  La  La11  1  0.00845579  0.58212250  0.17030946  1
  Mn  Mn12  1  0.50000000  0.66666700  0.33333300  1
  Mn  Mn13  1  0.49929402  0.99867317  0.99883713  1
  Mn  Mn14  1  0.50070598  0.33465983  0.66782987  1
  Mn  Mn15  1  -0.00000000  0.66666700  0.83333300  1
  Mn  Mn16  1  0.00070598  0.99867317  0.49883713  1
  Mn  Mn17  1  0.99929402  0.33465983  0.16782987  1
  Mn  Mn18  1  0.49947213  0.83384671  0.66600944  1
  Mn  Mn19  1  0.50000000  0.16666700  0.33333300  1
  Mn  Mn20  1  0.50052787  0.49948629  0.00065756  1
  Mn  Mn21  1  0.99947213  0.49948629  0.50065756  1
  Mn  Mn22  1  0.00052787  0.83384671  0.16600944  1
  Mn  Mn23  1  -0.00000000  0.16666700  0.83333300  1
  O  O24  1  0.50347192  0.39423474  0.85665368  1
  O  O25  1  0.50190814  0.72636403  0.52253670  1
  O  O26  1  0.50245016  0.06704584  0.18256656  1
  O  O27  1  0.00190814  0.60696897  0.64413030  1
  O  O28  1  0.00347192  0.93909926  0.31001232  1
  O  O29  1  0.00245016  0.26628716  0.98410044  1
  O  O30  1  0.49652808  0.93909926  0.81001232  1
  O  O31  1  0.49754984  0.26628716  0.48410044  1
  O  O32  1  0.49809186  0.60696897  0.14413030  1
  O  O33  1  0.99809186  0.72636403  0.02253670  1
  O  O34  1  0.99754984  0.06704584  0.68256656  1
  O  O35  1  0.99652808  0.39423474  0.35665368  1
  O  O36  1  0.73630249  0.43245169  0.60112782  1
  O  O37  1  0.74519514  0.76046975  0.26925968  1
  O  O38  1  0.73456919  0.10025133  0.93325107  1
  O  O39  1  0.24519514  0.57286325  0.89740732  1
  O  O40  1  0.23630249  0.90088231  0.56553818  1
  O  O41  1  0.23456919  0.23308167  0.23341593  1
  O  O42  1  0.26583931  0.75271893  0.77592421  1
  O  O43  1  0.26226744  0.09356622  0.44306366  1
  O  O44  1  0.25803104  0.42490514  0.10659592  1
  O  O45  1  0.75803104  0.90842786  0.06007108  1
  O  O46  1  0.76226744  0.23976678  0.72360334  1
  O  O47  1  0.76583931  0.58061507  0.39074179  1
  O  O48  1  0.26369751  0.90088231  0.06553818  1
  O  O49  1  0.26543081  0.23308167  0.73341593  1
  O  O50  1  0.25480486  0.57286325  0.39740732  1
  O  O51  1  0.75480486  0.76046975  0.76925968  1
  O  O52  1  0.76543081  0.10025133  0.43325107  1
  O  O53  1  0.76369751  0.43245169  0.10112782  1
  O  O54  1  0.73416069  0.58061507  0.89074179  1
  O  O55  1  0.74196896  0.90842786  0.56007108  1
  O  O56  1  0.73773256  0.23976678  0.22360334  1
  O  O57  1  0.24196896  0.42490514  0.60659592  1
  O  O58  1  0.23416069  0.75271893  0.27592421  1
  O  O59  1  0.23773256  0.09356622  0.94306366  1
