# generated using pymatgen
data_K7Fe5O16
_symmetry_space_group_name_H-M   'P 1'
_cell_length_a   5.67290104
_cell_length_b   9.64908359
_cell_length_c   10.80296181
_cell_angle_alpha   88.94429202
_cell_angle_beta   90.00000000
_cell_angle_gamma   90.00000000
_symmetry_Int_Tables_number   1
_chemical_formula_structural   K7Fe5O16
_chemical_formula_sum   'K7 Fe5 O16'
_cell_volume   591.23534812
_cell_formula_units_Z   1
loop_
 _symmetry_equiv_pos_site_id
 _symmetry_equiv_pos_as_xyz
  1  'x, y, z'
loop_
 _atom_site_type_symbol
 _atom_site_label
 _atom_site_symmetry_multiplicity
 _atom_site_fract_x
 _atom_site_fract_y
 _atom_site_fract_z
 _atom_site_occupancy
  K  K0  1  0.75000000  0.52382804  0.16137722  1
  K  K1  1  0.75000000  0.02972736  0.34225261  1
  K  K2  1  0.25000000  0.51030595  0.91153378  1
  K  K3  1  0.25000000  0.98211048  0.65678354  1
  K  K4  1  0.25000000  0.35169260  0.43070342  1
  K  K5  1  0.75000000  0.12949372  0.93876276  1
  K  K6  1  0.75000000  0.65133164  0.58736910  1
  Fe  Fe7  1  0.25000000  0.78203893  0.39173397  1
  Fe  Fe8  1  0.25000000  0.22034319  0.10410887  1
  Fe  Fe9  1  0.75000000  0.24643834  0.57852801  1
  Fe  Fe10  1  0.75000000  0.75321857  0.90664399  1
  Fe  Fe11  1  0.25000000  0.85883471  0.06938928  1
  O  O12  1  0.25000000  0.85693148  0.24460626  1
  O  O13  1  0.25000000  0.17411508  0.25303181  1
  O  O14  1  0.75000000  0.26311568  0.72935434  1
  O  O15  1  0.75000000  0.60156489  0.82851630  1
  O  O16  1  0.25000000  0.61218758  0.38167662  1
  O  O17  1  0.25000000  0.04262012  0.02282306  1
  O  O18  1  0.75000000  0.39964211  0.50308003  1
  O  O19  1  0.75000000  0.88755448  0.80310065  1
  O  O20  1  0.01526418  0.83517944  0.46874804  1
  O  O21  1  0.48560899  0.31895600  0.06225185  1
  O  O22  1  0.51607161  0.15853825  0.53155517  1
  O  O23  1  0.00191998  0.74877885  0.01475714  1
  O  O24  1  0.98392839  0.15853825  0.53155517  1
  O  O25  1  0.49808002  0.74877885  0.01475714  1
  O  O26  1  0.48473582  0.83517944  0.46874804  1
  O  O27  1  0.01439101  0.31895600  0.06225185  1
