# generated using pymatgen
data_Rb6Mn2CrCl12
_symmetry_space_group_name_H-M   'P 1'
_cell_length_a   5.09784066
_cell_length_b   5.09784066
_cell_length_c   24.63199475
_cell_angle_alpha   84.06039654
_cell_angle_beta   84.06039654
_cell_angle_gamma   90.00000000
_symmetry_Int_Tables_number   1
_chemical_formula_structural   Rb6Mn2CrCl12
_chemical_formula_sum   'Rb6 Mn2 Cr1 Cl12'
_cell_volume   633.24402080
_cell_formula_units_Z   1
loop_
 _symmetry_equiv_pos_site_id
 _symmetry_equiv_pos_as_xyz
  1  'x, y, z'
loop_
 _atom_site_type_symbol
 _atom_site_label
 _atom_site_symmetry_multiplicity
 _atom_site_fract_x
 _atom_site_fract_y
 _atom_site_fract_z
 _atom_site_occupancy
  Rb  Rb0  1  0.45349528  0.45349528  0.09301044  1
  Rb  Rb1  1  0.78600035  0.78600035  0.42799930  1
  Rb  Rb2  1  0.11895676  0.11895676  0.76208549  1
  Rb  Rb3  1  0.88104324  0.88104324  0.23791451  1
  Rb  Rb4  1  0.21399965  0.21399965  0.57200070  1
  Rb  Rb5  1  0.54650472  0.54650472  0.90698956  1
  Mn  Mn6  1  0.33334714  0.33334714  0.33330472  1
  Mn  Mn7  1  0.66665286  0.66665286  0.66669528  1
  Cr  Cr8  1  -0.00000000  -0.00000000  0.00000000  1
  Cl  Cl9  1  0.38510314  0.38510314  0.22979271  1
  Cl  Cl10  1  0.71833777  0.71833777  0.56332545  1
  Cl  Cl11  1  0.05018415  0.05018415  0.89963171  1
  Cl  Cl12  1  0.94981585  0.94981585  0.10036829  1
  Cl  Cl13  1  0.28166223  0.28166223  0.43667455  1
  Cl  Cl14  1  0.61489686  0.61489686  0.77020729  1
  Cl  Cl15  1  0.50000000  -0.00000000  0.00000000  1
  Cl  Cl16  1  0.83338083  0.33338083  0.33323735  1
  Cl  Cl17  1  0.16661917  0.66661917  0.66676265  1
  Cl  Cl18  1  0.33338083  0.83338083  0.33323735  1
  Cl  Cl19  1  0.66661917  0.16661917  0.66676265  1
  Cl  Cl20  1  -0.00000000  0.50000000  0.00000000  1
