# generated using pymatgen
data_GdTiFe9Si2
_symmetry_space_group_name_H-M   'P 1'
_cell_length_a   4.80649222
_cell_length_b   6.30130391
_cell_length_c   6.38260669
_cell_angle_alpha   98.35505528
_cell_angle_beta   112.11894267
_cell_angle_gamma   67.58026776
_symmetry_Int_Tables_number   1
_chemical_formula_structural   GdTiFe9Si2
_chemical_formula_sum   'Gd1 Ti1 Fe9 Si2'
_cell_volume   165.54774521
_cell_formula_units_Z   1
loop_
 _symmetry_equiv_pos_site_id
 _symmetry_equiv_pos_as_xyz
  1  'x, y, z'
loop_
 _atom_site_type_symbol
 _atom_site_label
 _atom_site_symmetry_multiplicity
 _atom_site_fract_x
 _atom_site_fract_y
 _atom_site_fract_z
 _atom_site_occupancy
  Gd  Gd0  1  0.00086638  0.00327980  0.00501257  1
  Ti  Ti1  1  0.99636567  0.63067084  0.62340217  1
  Fe  Fe2  1  0.71233626  0.78738256  0.21205508  1
  Fe  Fe3  1  0.28307535  0.21761332  0.78376401  1
  Fe  Fe4  1  0.50064385  0.77432072  0.77560842  1
  Fe  Fe5  1  0.50182222  0.22521042  0.22885486  1
  Fe  Fe6  1  0.49687797  0.00404908  0.50143662  1
  Fe  Fe7  1  0.00050956  0.00404908  0.50143662  1
  Fe  Fe8  1  0.64408404  0.36150521  0.64967330  1
  Fe  Fe9  1  0.35831729  0.64003844  0.35667301  1
  Fe  Fe10  1  0.99558156  0.35747195  0.34863507  1
  Si  Si11  1  0.50605218  0.49720428  0.00672413  1
  Si  Si12  1  0.00346767  0.49720428  0.00672413  1
