# generated using pymatgen
data_Sr7Mn4O15
_symmetry_space_group_name_H-M   'P 1'
_cell_length_a   6.89448528
_cell_length_b   9.77042834
_cell_length_c   10.58891321
_cell_angle_alpha   90.00000000
_cell_angle_beta   91.60002090
_cell_angle_gamma   90.00000000
_symmetry_Int_Tables_number   1
_chemical_formula_structural   Sr7Mn4O15
_chemical_formula_sum   'Sr14 Mn8 O30'
_cell_volume   713.01304979
_cell_formula_units_Z   2
loop_
 _symmetry_equiv_pos_site_id
 _symmetry_equiv_pos_as_xyz
  1  'x, y, z'
loop_
 _atom_site_type_symbol
 _atom_site_label
 _atom_site_symmetry_multiplicity
 _atom_site_fract_x
 _atom_site_fract_y
 _atom_site_fract_z
 _atom_site_occupancy
  Sr  Sr0  1  0.17915533  0.50080190  0.33383622  1
  Sr  Sr1  1  0.82246082  0.99821167  0.16757505  1
  Sr  Sr2  1  0.82246082  0.50178833  0.66757505  1
  Sr  Sr3  1  0.17915533  0.99919810  0.83383622  1
  Sr  Sr4  1  0.99887773  0.31318537  0.96390165  1
  Sr  Sr5  1  0.00226812  0.81485869  0.53557574  1
  Sr  Sr6  1  0.00226812  0.68514131  0.03557574  1
  Sr  Sr7  1  0.99887773  0.18681463  0.46390165  1
  Sr  Sr8  1  0.49925555  0.49405915  0.00498402  1
  Sr  Sr9  1  0.49925555  0.00594085  0.50498402  1
  Sr  Sr10  1  0.35173591  0.35113115  0.69586691  1
  Sr  Sr11  1  0.64788975  0.84764263  0.80398291  1
  Sr  Sr12  1  0.64788975  0.65235737  0.30398291  1
  Sr  Sr13  1  0.35173591  0.14886885  0.19586691  1
  Mn  Mn14  1  0.78082513  0.33033347  0.21906064  1
  Mn  Mn15  1  0.22057819  0.83344226  0.27951262  1
  Mn  Mn16  1  0.22057819  0.66655774  0.77951262  1
  Mn  Mn17  1  0.78082513  0.16966653  0.71906064  1
  Mn  Mn18  1  0.57628231  0.33345268  0.42399434  1
  Mn  Mn19  1  0.42419750  0.83200627  0.07401708  1
  Mn  Mn20  1  0.42419750  0.66799373  0.57401708  1
  Mn  Mn21  1  0.57628231  0.16654732  0.92399434  1
  O  O22  1  0.68266315  0.28031719  0.58336437  1
  O  O23  1  0.31563659  0.77482938  0.91615755  1
  O  O24  1  0.31563659  0.72517062  0.41615755  1
  O  O25  1  0.68266315  0.21968281  0.08336437  1
  O  O26  1  0.33717366  0.25367694  0.45324481  1
  O  O27  1  0.66420351  0.75272045  0.04697044  1
  O  O28  1  0.66420351  0.74727955  0.54697044  1
  O  O29  1  0.33717366  0.24632306  0.95324481  1
  O  O30  1  0.83994402  0.41704268  0.38125384  1
  O  O31  1  0.15970807  0.91782317  0.11611095  1
  O  O32  1  0.15970807  0.58217683  0.61611095  1
  O  O33  1  0.83994402  0.08295732  0.88125384  1
  O  O34  1  0.67940192  0.32527812  0.83730578  1
  O  O35  1  0.32142505  0.82492231  0.66316689  1
  O  O36  1  0.32142505  0.67507769  0.16316689  1
  O  O37  1  0.67940192  0.17472188  0.33730578  1
  O  O38  1  0.02601013  0.24963815  0.20777338  1
  O  O39  1  0.97446321  0.75227557  0.29101637  1
  O  O40  1  0.97446321  0.74772443  0.79101637  1
  O  O41  1  0.02601013  0.25036185  0.70777338  1
  O  O42  1  0.50755298  0.39905583  0.25180956  1
  O  O43  1  0.49260427  0.90163961  0.24288658  1
  O  O44  1  0.49260427  0.59836039  0.74288658  1
  O  O45  1  0.50755298  0.10094417  0.75180956  1
  O  O46  1  0.84164354  0.48049649  0.12010624  1
  O  O47  1  0.16059601  0.98338444  0.37873836  1
  O  O48  1  0.16059601  0.51661556  0.87873836  1
  O  O49  1  0.84164354  0.01950351  0.62010624  1
  O  O50  1  0.49644757  0.50252341  0.49378769  1
  O  O51  1  0.49644757  0.99747659  0.99378769  1
