# generated using pymatgen
data_Sr3CaAl8H24(C2O11)4
_symmetry_space_group_name_H-M   'P 1'
_cell_length_a   5.67317192
_cell_length_b   9.14614613
_cell_length_c   16.15802914
_cell_angle_alpha   89.89307170
_cell_angle_beta   90.00000000
_cell_angle_gamma   90.00000000
_symmetry_Int_Tables_number   1
_chemical_formula_structural   Sr3CaAl8H24(C2O11)4
_chemical_formula_sum   'Sr3 Ca1 Al8 H24 C8 O44'
_cell_volume   838.40085259
_cell_formula_units_Z   1
loop_
 _symmetry_equiv_pos_site_id
 _symmetry_equiv_pos_as_xyz
  1  'x, y, z'
loop_
 _atom_site_type_symbol
 _atom_site_label
 _atom_site_symmetry_multiplicity
 _atom_site_fract_x
 _atom_site_fract_y
 _atom_site_fract_z
 _atom_site_occupancy
  Sr  Sr0  1  0.75000000  0.47598355  0.41418358  1
  Sr  Sr1  1  0.25000000  0.97665992  0.08509421  1
  Sr  Sr2  1  0.25000000  0.52384549  0.58591896  1
  Ca  Ca3  1  0.75000000  0.01972261  0.91183372  1
  Al  Al4  1  0.50199479  0.82847795  0.70450512  1
  Al  Al5  1  0.99807820  0.67217093  0.20381634  1
  Al  Al6  1  0.00165480  0.17180493  0.29545156  1
  Al  Al7  1  0.49823443  0.32617385  0.79681382  1
  Al  Al8  1  0.49834520  0.17180493  0.29545156  1
  Al  Al9  1  0.00176557  0.32617385  0.79681382  1
  Al  Al10  1  0.99800521  0.82847795  0.70450512  1
  Al  Al11  1  0.50192180  0.67217093  0.20381634  1
  H  H12  1  0.75000000  0.63125606  0.78038046  1
  H  H13  1  0.75000000  0.86848783  0.28007478  1
  H  H14  1  0.25000000  0.36863773  0.21962963  1
  H  H15  1  0.25000000  0.13126682  0.71980407  1
  H  H16  1  0.25000000  0.96608014  0.60620644  1
  H  H17  1  0.25000000  0.53366099  0.10593311  1
  H  H18  1  0.75000000  0.03384593  0.39397068  1
  H  H19  1  0.75000000  0.46565783  0.89405986  1
  H  H20  1  0.25000000  0.61255860  0.75616723  1
  H  H21  1  0.25000000  0.88717673  0.25576853  1
  H  H22  1  0.75000000  0.38739841  0.24394080  1
  H  H23  1  0.75000000  0.11176879  0.74515646  1
  H  H24  1  0.75000000  0.01601771  0.63230523  1
  H  H25  1  0.75000000  0.48409880  0.13240898  1
  H  H26  1  0.25000000  0.98405980  0.36747825  1
  H  H27  1  0.25000000  0.51579789  0.86758292  1
  H  H28  1  0.61231837  0.34080129  0.02986848  1
  H  H29  1  0.88795141  0.15901353  0.52989814  1
  H  H30  1  0.11248262  0.65920224  0.97010156  1
  H  H31  1  0.38792618  0.84099866  0.47007882  1
  H  H32  1  0.38751738  0.65920224  0.97010156  1
  H  H33  1  0.11207382  0.84099866  0.47007882  1
  H  H34  1  0.88768163  0.34080129  0.02986848  1
  H  H35  1  0.61204859  0.15901353  0.52989814  1
  C  C36  1  0.75000000  0.75147105  0.05026821  1
  C  C37  1  0.75000000  0.75208551  0.55105484  1
  C  C38  1  0.25000000  0.24988211  0.94936906  1
  C  C39  1  0.25000000  0.24791413  0.44902459  1
  C  C40  1  0.25000000  0.92087325  0.85516458  1
  C  C41  1  0.25000000  0.58164530  0.35378098  1
  C  C42  1  0.75000000  0.08190864  0.14419375  1
  C  C43  1  0.75000000  0.41781487  0.64647323  1
  O  O44  1  0.75000000  0.71452125  0.74187574  1
  O  O45  1  0.75000000  0.78572155  0.24133729  1
  O  O46  1  0.25000000  0.28556731  0.25825610  1
  O  O47  1  0.25000000  0.21434835  0.75821499  1
  O  O48  1  0.25000000  0.69552120  0.71514193  1
  O  O49  1  0.25000000  0.80533578  0.21414882  1
  O  O50  1  0.75000000  0.30518937  0.28549388  1
  O  O51  1  0.75000000  0.19060510  0.78858877  1
  O  O52  1  0.45066280  0.90464026  0.81676764  1
  O  O53  1  0.05043115  0.59821886  0.31527257  1
  O  O54  1  0.94915229  0.09787812  0.18330263  1
  O  O55  1  0.55067458  0.40068361  0.68507672  1
  O  O56  1  0.55084771  0.09787812  0.18330263  1
  O  O57  1  0.94932542  0.40068361  0.68507672  1
  O  O58  1  0.04933720  0.90464026  0.81676764  1
  O  O59  1  0.44956885  0.59821886  0.31527257  1
  O  O60  1  0.75000000  0.40299783  0.04081351  1
  O  O61  1  0.75000000  0.09709353  0.54095103  1
  O  O62  1  0.25000000  0.59713678  0.95902162  1
  O  O63  1  0.25000000  0.90295320  0.45907819  1
  O  O64  1  0.54902502  0.76014018  0.59113715  1
  O  O65  1  0.95065771  0.73987821  0.09009358  1
  O  O66  1  0.04904636  0.23983343  0.40895570  1
  O  O67  1  0.45136446  0.25642841  0.90915273  1
  O  O68  1  0.45095364  0.23983343  0.40895570  1
  O  O69  1  0.04863554  0.25642841  0.90915273  1
  O  O70  1  0.95097498  0.76014018  0.59113715  1
  O  O71  1  0.54934229  0.73987821  0.09009358  1
  O  O72  1  0.75000000  0.96599385  0.68778138  1
  O  O73  1  0.75000000  0.53419320  0.18774897  1
  O  O74  1  0.25000000  0.03409013  0.31201933  1
  O  O75  1  0.25000000  0.46490062  0.81255137  1
  O  O76  1  0.25000000  0.95550729  0.93182562  1
  O  O77  1  0.25000000  0.54618052  0.43069247  1
  O  O78  1  0.75000000  0.04763983  0.06688944  1
  O  O79  1  0.75000000  0.45393511  0.56965710  1
  O  O80  1  0.75000000  0.77447174  0.97223037  1
  O  O81  1  0.75000000  0.73561020  0.47277574  1
  O  O82  1  0.25000000  0.23633645  0.02765835  1
  O  O83  1  0.25000000  0.26445536  0.52728916  1
  O  O84  1  0.25000000  0.95231947  0.66615803  1
  O  O85  1  0.25000000  0.54799309  0.16577321  1
  O  O86  1  0.75000000  0.04760783  0.33402829  1
  O  O87  1  0.75000000  0.45150865  0.83418705  1
