# generated using pymatgen
data_Sm2Ga3Cu
_symmetry_space_group_name_H-M   'P 1'
_cell_length_a   4.42737909
_cell_length_b   4.42737909
_cell_length_c   7.45314286
_cell_angle_alpha   89.98907787
_cell_angle_beta   90.01092213
_cell_angle_gamma   120.07874738
_symmetry_Int_Tables_number   1
_chemical_formula_structural   Sm2Ga3Cu
_chemical_formula_sum   'Sm2 Ga3 Cu1'
_cell_volume   126.42073773
_cell_formula_units_Z   1
loop_
 _symmetry_equiv_pos_site_id
 _symmetry_equiv_pos_as_xyz
  1  'x, y, z'
loop_
 _atom_site_type_symbol
 _atom_site_label
 _atom_site_symmetry_multiplicity
 _atom_site_fract_x
 _atom_site_fract_y
 _atom_site_fract_z
 _atom_site_occupancy
  Sm  Sm0  1  0.00000882  -0.00000882  0.73256420  1
  Sm  Sm1  1  0.00000957  -0.00000957  0.26177966  1
  Ga  Ga2  1  0.33336278  0.66663722  0.48093710  1
  Ga  Ga3  1  0.33340658  0.66659342  0.04273118  1
  Ga  Ga4  1  0.66660666  0.33339334  0.95308324  1
  Cu  Cu5  1  0.66660559  0.33339441  0.52890462  1
