# generated using pymatgen
data_SmNi3Sn2
_symmetry_space_group_name_H-M   'P 1'
_cell_length_a   4.26517941
_cell_length_b   9.33809755
_cell_length_c   9.33809785
_cell_angle_alpha   59.97377840
_cell_angle_beta   90.00000000
_cell_angle_gamma   90.00000000
_symmetry_Int_Tables_number   1
_chemical_formula_structural   SmNi3Sn2
_chemical_formula_sum   'Sm3 Ni9 Sn6'
_cell_volume   322.01043841
_cell_formula_units_Z   3
loop_
 _symmetry_equiv_pos_site_id
 _symmetry_equiv_pos_as_xyz
  1  'x, y, z'
loop_
 _atom_site_type_symbol
 _atom_site_label
 _atom_site_symmetry_multiplicity
 _atom_site_fract_x
 _atom_site_fract_y
 _atom_site_fract_z
 _atom_site_occupancy
  Sm  Sm0  1  0.50000000  0.33345518  0.33355809  1
  Sm  Sm1  1  0.50000000  0.66644191  0.66654482  1
  Sm  Sm2  1  0.00000000  0.99986501  0.00013499  1
  Ni  Ni3  1  0.00000000  0.20597739  0.16671979  1
  Ni  Ni4  1  0.00000000  0.16657871  0.62782909  1
  Ni  Ni5  1  -0.00000000  0.62747432  0.20602270  1
  Ni  Ni6  1  0.00000000  0.83328021  0.79402261  1
  Ni  Ni7  1  0.00000000  0.37217091  0.83342129  1
  Ni  Ni8  1  0.00000000  0.79397730  0.37252568  1
  Ni  Ni9  1  0.50000000  0.29456222  0.70543778  1
  Ni  Ni10  1  0.50000000  0.70575391  0.99991521  1
  Ni  Ni11  1  0.50000000  0.00008479  0.29424609  1
  Sn  Sn12  1  0.50000000  0.74409460  0.25590540  1
  Sn  Sn13  1  0.50000000  0.25609824  0.99988030  1
  Sn  Sn14  1  0.50000000  0.00011970  0.74390176  1
  Sn  Sn15  1  0.00000000  0.47047902  0.52952098  1
  Sn  Sn16  1  -0.00000000  0.52944161  -0.00004496  1
  Sn  Sn17  1  -0.00000000  0.00004496  0.47055839  1
