# generated using pymatgen
data_Sr20P12Br(ClO16)3
_symmetry_space_group_name_H-M   'P 1'
_cell_length_a   10.03987236
_cell_length_b   10.03981478
_cell_length_c   14.54701337
_cell_angle_alpha   90.00001864
_cell_angle_beta   89.99996111
_cell_angle_gamma   60.00055158
_symmetry_Int_Tables_number   1
_chemical_formula_structural   Sr20P12Br(ClO16)3
_chemical_formula_sum   'Sr20 P12 Br1 Cl3 O48'
_cell_volume   1269.87442310
_cell_formula_units_Z   1
loop_
 _symmetry_equiv_pos_site_id
 _symmetry_equiv_pos_as_xyz
  1  'x, y, z'
loop_
 _atom_site_type_symbol
 _atom_site_label
 _atom_site_symmetry_multiplicity
 _atom_site_fract_x
 _atom_site_fract_y
 _atom_site_fract_z
 _atom_site_occupancy
  Sr  Sr0  1  0.33332340  0.33332350  0.25037385  1
  Sr  Sr1  1  0.33332515  0.33332258  0.75033611  1
  Sr  Sr2  1  0.66667579  0.66667507  0.00037392  1
  Sr  Sr3  1  0.66667533  0.66667525  0.50034999  1
  Sr  Sr4  1  0.66667660  0.66667650  0.24962615  1
  Sr  Sr5  1  0.66667485  0.66667742  0.74966389  1
  Sr  Sr6  1  0.33332421  0.33332493  0.49962608  1
  Sr  Sr7  1  0.33332467  0.33332475  0.99965001  1
  Sr  Sr8  1  0.00661539  0.74222830  0.37501635  1
  Sr  Sr9  1  0.00685450  0.73985676  0.87608555  1
  Sr  Sr10  1  0.25116628  0.00659313  0.37501608  1
  Sr  Sr11  1  0.25329835  0.00682858  0.87608507  1
  Sr  Sr12  1  0.74221825  0.25117454  0.37501707  1
  Sr  Sr13  1  0.73985032  0.25330781  0.87608487  1
  Sr  Sr14  1  0.99338461  0.25777170  0.12498365  1
  Sr  Sr15  1  0.99314550  0.26014324  0.62391445  1
  Sr  Sr16  1  0.74883372  0.99340687  0.12498392  1
  Sr  Sr17  1  0.74670165  0.99317142  0.62391493  1
  Sr  Sr18  1  0.25778175  0.74882546  0.12498293  1
  Sr  Sr19  1  0.26014968  0.74669219  0.62391513  1
  P  P20  1  0.40729784  0.62643772  0.37491036  1
  P  P21  1  0.40720993  0.62660150  0.87496580  1
  P  P22  1  0.96626570  0.40729558  0.37491021  1
  P  P23  1  0.96618909  0.40720653  0.87496556  1
  P  P24  1  0.62643893  0.96626617  0.37490982  1
  P  P25  1  0.62660317  0.96618973  0.87496592  1
  P  P26  1  0.59270216  0.37356228  0.12508964  1
  P  P27  1  0.59279007  0.37339850  0.62503420  1
  P  P28  1  0.03373430  0.59270442  0.12508979  1
  P  P29  1  0.03381091  0.59279347  0.62503444  1
  P  P30  1  0.37356107  0.03373383  0.12509018  1
  P  P31  1  0.37339683  0.03381027  0.62503408  1
  Br  Br32  1  -0.00000000  -0.00000000  0.75000000  1
  Cl  Cl33  1  -0.00000004  -0.00000006  0.00053735  1
  Cl  Cl34  1  0.00000004  0.00000006  0.49946265  1
  Cl  Cl35  1  -0.00000000  -0.00000000  0.25000000  1
  O  O36  1  0.58749056  0.53457595  0.37499230  1
  O  O37  1  0.58746935  0.53479871  0.87514027  1
  O  O38  1  0.87794833  0.58749024  0.37499262  1
  O  O39  1  0.87774709  0.58746884  0.87514040  1
  O  O40  1  0.53456691  0.87794198  0.37499273  1
  O  O41  1  0.53478924  0.87774212  0.87513990  1
  O  O42  1  0.41250944  0.46542405  0.12500770  1
  O  O43  1  0.41253065  0.46520129  0.62485973  1
  O  O44  1  0.12205167  0.41250976  0.12500738  1
  O  O45  1  0.12225291  0.41253116  0.62485960  1
  O  O46  1  0.46543309  0.12205802  0.12500727  1
  O  O47  1  0.46521076  0.12225788  0.62486010  1
  O  O48  1  0.35387698  0.73143791  0.28846094  1
  O  O49  1  0.35462881  0.73095032  0.78835357  1
  O  O50  1  0.91468472  0.35387998  0.28845900  1
  O  O51  1  0.91442072  0.35463147  0.78835210  1
  O  O52  1  0.73143630  0.91468363  0.28845977  1
  O  O53  1  0.73094931  0.91441812  0.78835207  1
  O  O54  1  0.64601497  0.26857247  0.03861311  1
  O  O55  1  0.64610061  0.26859285  0.53845746  1
  O  O56  1  0.08541339  0.64601273  0.03861067  1
  O  O57  1  0.08530690  0.64609878  0.53845500  1
  O  O58  1  0.26857314  0.08541611  0.03861099  1
  O  O59  1  0.26859384  0.08530925  0.53845589  1
  O  O60  1  0.64612302  0.26856209  0.21153906  1
  O  O61  1  0.64537119  0.26904968  0.71164643  1
  O  O62  1  0.08531528  0.64612002  0.21154100  1
  O  O63  1  0.08557928  0.64536853  0.71164790  1
  O  O64  1  0.26856370  0.08531637  0.21154023  1
  O  O65  1  0.26905069  0.08558188  0.71164793  1
  O  O66  1  0.35398503  0.73142753  0.46138689  1
  O  O67  1  0.35389939  0.73140715  0.96154254  1
  O  O68  1  0.91458661  0.35398727  0.46138933  1
  O  O69  1  0.91469310  0.35390122  0.96154500  1
  O  O70  1  0.73142686  0.91458389  0.46138901  1
  O  O71  1  0.73140616  0.91469075  0.96154411  1
  O  O72  1  0.34194135  0.51438924  0.37500167  1
  O  O73  1  0.34205687  0.51429518  0.87507565  1
  O  O74  1  0.14366809  0.34193632  0.37500187  1
  O  O75  1  0.14364672  0.34204933  0.87507590  1
  O  O76  1  0.51439034  0.14367021  0.37500184  1
  O  O77  1  0.51429718  0.14364795  0.87507575  1
  O  O78  1  0.65805865  0.48561076  0.12499833  1
  O  O79  1  0.65794313  0.48570482  0.62492435  1
  O  O80  1  0.85633191  0.65806368  0.12499813  1
  O  O81  1  0.85635328  0.65795067  0.62492410  1
  O  O82  1  0.48560966  0.85632979  0.12499816  1
  O  O83  1  0.48570282  0.85635205  0.62492425  1
