# generated using pymatgen
data_Rb3Ti4Tl(PO5)4
_symmetry_space_group_name_H-M   'P 1'
_cell_length_a   6.57544395
_cell_length_b   10.68823654
_cell_length_c   13.12518206
_cell_angle_alpha   90.00000000
_cell_angle_beta   90.09646852
_cell_angle_gamma   90.00000000
_symmetry_Int_Tables_number   1
_chemical_formula_structural   Rb3Ti4Tl(PO5)4
_chemical_formula_sum   'Rb6 Ti8 Tl2 P8 O40'
_cell_volume   922.43517910
_cell_formula_units_Z   2
loop_
 _symmetry_equiv_pos_site_id
 _symmetry_equiv_pos_as_xyz
  1  'x, y, z'
loop_
 _atom_site_type_symbol
 _atom_site_label
 _atom_site_symmetry_multiplicity
 _atom_site_fract_x
 _atom_site_fract_y
 _atom_site_fract_z
 _atom_site_occupancy
  Rb  Rb0  1  0.30476344  0.57515387  0.89437763  1
  Rb  Rb1  1  0.69523656  0.07515387  0.10562237  1
  Rb  Rb2  1  0.71708829  0.32569198  0.88318371  1
  Rb  Rb3  1  0.28291171  0.82569198  0.11681629  1
  Rb  Rb4  1  0.21577568  0.82645245  0.61614038  1
  Rb  Rb5  1  0.78422432  0.32645245  0.38385962  1
  Ti  Ti6  1  0.00137118  0.00220984  0.87128234  1
  Ti  Ti7  1  0.99862882  0.50220984  0.12871766  1
  Ti  Ti8  1  0.50184893  0.50205886  0.62913557  1
  Ti  Ti9  1  0.49815107  0.00205886  0.37086443  1
  Ti  Ti10  1  0.23454135  0.25381309  0.74688941  1
  Ti  Ti11  1  0.76545865  0.75381309  0.25311059  1
  Ti  Ti12  1  0.73532353  0.75373142  0.75297253  1
  Ti  Ti13  1  0.26467647  0.25373142  0.24702747  1
  Tl  Tl14  1  0.80079391  0.07515251  0.60492131  1
  Tl  Tl15  1  0.19920609  0.57515251  0.39507869  1
  P  P16  1  0.99761882  0.51212877  0.68022834  1
  P  P17  1  0.00238118  0.01212877  0.31977166  1
  P  P18  1  0.49819129  0.01206214  0.81961675  1
  P  P19  1  0.50180871  0.51206214  0.18038325  1
  P  P20  1  0.16538073  0.25908174  0.99963326  1
  P  P21  1  0.83461927  0.75908174  0.00036674  1
  P  P22  1  0.66499940  0.75930583  0.50003034  1
  P  P23  1  0.33500060  0.25930583  0.49996966  1
  O  O24  1  0.02024594  0.14780860  0.98607547  1
  O  O25  1  0.97975406  0.64780860  0.01392453  1
  O  O26  1  0.51884438  0.64769757  0.51304803  1
  O  O27  1  0.48115562  0.14769757  0.48695197  1
  O  O28  1  0.30404561  0.23791739  0.09511686  1
  O  O29  1  0.69595439  0.73791739  0.90488314  1
  O  O30  1  0.80288000  0.73852876  0.40465638  1
  O  O31  1  0.19712000  0.23852876  0.59534362  1
  O  O32  1  0.80803611  0.48335535  0.61403979  1
  O  O33  1  0.19196389  0.98335535  0.38596021  1
  O  O34  1  0.30882813  0.98336224  0.88584999  1
  O  O35  1  0.69117187  0.48336224  0.11415001  1
  O  O36  1  0.95553302  0.62697461  0.75099407  1
  O  O37  1  0.04446698  0.12697461  0.24900593  1
  O  O38  1  0.45549225  0.12697627  0.74873558  1
  O  O39  1  0.54450775  0.62697627  0.25126442  1
  O  O40  1  0.45153890  0.38813730  0.72298200  1
  O  O41  1  0.54846110  0.88813730  0.27701800  1
  O  O42  1  0.95129508  0.88767212  0.77743650  1
  O  O43  1  0.04870492  0.38767212  0.22256350  1
  O  O44  1  0.54021328  0.64143330  0.72065203  1
  O  O45  1  0.45978672  0.14143330  0.27934797  1
  O  O46  1  0.03946703  0.14162633  0.77907823  1
  O  O47  1  0.96053297  0.64162633  0.22092177  1
  O  O48  1  0.04218025  0.39892077  0.75133871  1
  O  O49  1  0.95781975  0.89892077  0.24866129  1
  O  O50  1  0.54185799  0.89864795  0.74857163  1
  O  O51  1  0.45814201  0.39864795  0.25142837  1
  O  O52  1  0.03891914  0.38174620  0.01432518  1
  O  O53  1  0.96108086  0.88174620  0.98567482  1
  O  O54  1  0.53880939  0.88207083  0.48577800  1
  O  O55  1  0.46119061  0.38207083  0.51422200  1
  O  O56  1  0.18732743  0.54242001  0.61480990  1
  O  O57  1  0.81267257  0.04242001  0.38519010  1
  O  O58  1  0.68729475  0.04243396  0.88539019  1
  O  O59  1  0.31270525  0.54243396  0.11460981  1
  O  O60  1  0.29697555  0.28062510  0.90247970  1
  O  O61  1  0.70302445  0.78062510  0.09752030  1
  O  O62  1  0.79608945  0.77972284  0.59750354  1
  O  O63  1  0.20391055  0.27972284  0.40249646  1
