# generated using pymatgen
data_Sm3YS4
_symmetry_space_group_name_H-M   'P 1'
_cell_length_a   3.93299044
_cell_length_b   6.95420169
_cell_length_c   6.96491101
_cell_angle_alpha   100.39175423
_cell_angle_beta   106.40010374
_cell_angle_gamma   90.00000000
_symmetry_Int_Tables_number   1
_chemical_formula_structural   Sm3YS4
_chemical_formula_sum   'Sm3 Y1 S4'
_cell_volume   179.48582964
_cell_formula_units_Z   1
loop_
 _symmetry_equiv_pos_site_id
 _symmetry_equiv_pos_as_xyz
  1  'x, y, z'
loop_
 _atom_site_type_symbol
 _atom_site_label
 _atom_site_symmetry_multiplicity
 _atom_site_fract_x
 _atom_site_fract_y
 _atom_site_fract_z
 _atom_site_occupancy
  Sm  Sm0  1  0.75161431  0.25388750  0.50322862  1
  Sm  Sm1  1  0.50000000  0.50000000  0.00000000  1
  Sm  Sm2  1  0.24838569  0.74611250  0.49677138  1
  Y  Y3  1  0.00000000  -0.00000000  0.00000000  1
  S  S4  1  0.37802407  0.12031029  0.75604815  1
  S  S5  1  0.12314081  0.36845954  0.24628162  1
  S  S6  1  0.87685919  0.63154046  0.75371838  1
  S  S7  1  0.62197593  0.87968971  0.24395185  1
