# generated using pymatgen
data_Rb3Ti4Tl(PO5)4
_symmetry_space_group_name_H-M   'P 1'
_cell_length_a   6.57320499
_cell_length_b   10.68921620
_cell_length_c   13.13227198
_cell_angle_alpha   90.00000000
_cell_angle_beta   90.03892458
_cell_angle_gamma   90.00000000
_symmetry_Int_Tables_number   1
_chemical_formula_structural   Rb3Ti4Tl(PO5)4
_chemical_formula_sum   'Rb6 Ti8 Tl2 P8 O40'
_cell_volume   922.70485523
_cell_formula_units_Z   2
loop_
 _symmetry_equiv_pos_site_id
 _symmetry_equiv_pos_as_xyz
  1  'x, y, z'
loop_
 _atom_site_type_symbol
 _atom_site_label
 _atom_site_symmetry_multiplicity
 _atom_site_fract_x
 _atom_site_fract_y
 _atom_site_fract_z
 _atom_site_occupancy
  Rb  Rb0  1  0.21700418  0.82588386  0.61669284  1
  Rb  Rb1  1  0.78299582  0.32588386  0.38330716  1
  Rb  Rb2  1  0.80464071  0.07523424  0.60565436  1
  Rb  Rb3  1  0.19535929  0.57523424  0.39434564  1
  Rb  Rb4  1  0.30584347  0.57533789  0.89479176  1
  Rb  Rb5  1  0.69415653  0.07533789  0.10520824  1
  Ti  Ti6  1  0.00227119  0.00209889  0.87131912  1
  Ti  Ti7  1  0.99772881  0.50209889  0.12868088  1
  Ti  Ti8  1  0.50183827  0.50226372  0.62877639  1
  Ti  Ti9  1  0.49816173  0.00226372  0.37122361  1
  Ti  Ti10  1  0.23534646  0.25348659  0.74721879  1
  Ti  Ti11  1  0.76465354  0.75348659  0.25278121  1
  Ti  Ti12  1  0.73505601  0.75368551  0.75297293  1
  Ti  Ti13  1  0.26494399  0.25368551  0.24702707  1
  Tl  Tl14  1  0.71770963  0.32568018  0.88229597  1
  Tl  Tl15  1  0.28229037  0.82568018  0.11770403  1
  P  P16  1  0.99751395  0.51216834  0.68045152  1
  P  P17  1  0.00248605  0.01216834  0.31954848  1
  P  P18  1  0.49782129  0.01211297  0.81957061  1
  P  P19  1  0.50217871  0.51211297  0.18042939  1
  P  P20  1  0.16583432  0.25902093  0.99958235  1
  P  P21  1  0.83416568  0.75902093  0.00041765  1
  P  P22  1  0.66590229  0.75913776  0.50029129  1
  P  P23  1  0.33409771  0.25913776  0.49970871  1
  O  O24  1  0.01986783  0.14755266  0.98597922  1
  O  O25  1  0.98013217  0.64755266  0.01402078  1
  O  O26  1  0.51989179  0.64763926  0.51387759  1
  O  O27  1  0.48010821  0.14763926  0.48612241  1
  O  O28  1  0.30335758  0.23825986  0.09512545  1
  O  O29  1  0.69664242  0.73825986  0.90487455  1
  O  O30  1  0.80378797  0.73802413  0.40499038  1
  O  O31  1  0.19621203  0.23802413  0.59500962  1
  O  O32  1  0.80833556  0.48334979  0.61379381  1
  O  O33  1  0.19166444  0.98334979  0.38620619  1
  O  O34  1  0.30813656  0.98360182  0.88563047  1
  O  O35  1  0.69186344  0.48360182  0.11436953  1
  O  O36  1  0.95543312  0.62713962  0.75090927  1
  O  O37  1  0.04456688  0.12713962  0.24909073  1
  O  O38  1  0.45520759  0.12675133  0.74875278  1
  O  O39  1  0.54479241  0.62675133  0.25124722  1
  O  O40  1  0.45308999  0.38789642  0.72326207  1
  O  O41  1  0.54691001  0.88789642  0.27673793  1
  O  O42  1  0.95187055  0.88819981  0.77719228  1
  O  O43  1  0.04812945  0.38819981  0.22280772  1
  O  O44  1  0.53994237  0.64154688  0.72045895  1
  O  O45  1  0.46005763  0.14154688  0.27954105  1
  O  O46  1  0.03945882  0.14168469  0.77923345  1
  O  O47  1  0.96054118  0.64168469  0.22076655  1
  O  O48  1  0.04137372  0.39873779  0.75150769  1
  O  O49  1  0.95862628  0.89873779  0.24849231  1
  O  O50  1  0.54204798  0.89882560  0.74869892  1
  O  O51  1  0.45795202  0.39882560  0.25130108  1
  O  O52  1  0.03905358  0.38185398  0.01412676  1
  O  O53  1  0.96094642  0.88185398  0.98587324  1
  O  O54  1  0.53886796  0.88168837  0.48560202  1
  O  O55  1  0.46113204  0.38168837  0.51439798  1
  O  O56  1  0.18716163  0.54222576  0.61503381  1
  O  O57  1  0.81283837  0.04222576  0.38496619  1
  O  O58  1  0.68747056  0.04273870  0.88512475  1
  O  O59  1  0.31252944  0.54273870  0.11487525  1
  O  O60  1  0.29648732  0.28035633  0.90229697  1
  O  O61  1  0.70351268  0.78035633  0.09770303  1
  O  O62  1  0.79694201  0.78073634  0.59750295  1
  O  O63  1  0.20305799  0.28073634  0.40249705  1
