# generated using pymatgen
data_Rb3H(SO4)2
_symmetry_space_group_name_H-M   'P 1'
_cell_length_a   5.95857659
_cell_length_b   8.48130527
_cell_length_c   10.31028880
_cell_angle_alpha   101.21736779
_cell_angle_beta   90.00000000
_cell_angle_gamma   69.43455198
_symmetry_Int_Tables_number   1
_chemical_formula_structural   Rb3H(SO4)2
_chemical_formula_sum   'Rb6 H2 S4 O16'
_cell_volume   477.19444392
_cell_formula_units_Z   2
loop_
 _symmetry_equiv_pos_site_id
 _symmetry_equiv_pos_as_xyz
  1  'x, y, z'
loop_
 _atom_site_type_symbol
 _atom_site_label
 _atom_site_symmetry_multiplicity
 _atom_site_fract_x
 _atom_site_fract_y
 _atom_site_fract_z
 _atom_site_occupancy
  Rb  Rb0  1  0.73637257  0.01106946  0.75076091  1
  Rb  Rb1  1  0.25255797  0.01106946  0.25076091  1
  Rb  Rb2  1  0.53949725  0.36945283  0.15029716  1
  Rb  Rb3  1  0.91559123  0.61774096  0.34811151  1
  Rb  Rb4  1  0.46666782  0.61774096  0.84811151  1
  Rb  Rb5  1  0.09104991  0.36945283  0.65029716  1
  H  H6  1  0.03952488  0.99508419  0.51139136  1
  H  H7  1  0.96539093  0.99508419  0.01139136  1
  S  S8  1  0.34022885  0.76400504  0.53600038  1
  S  S9  1  0.10182381  0.22599263  0.96480311  1
  S  S10  1  0.67218357  0.22599263  0.46480311  1
  S  S11  1  0.89576611  0.76400504  0.03600038  1
  O  O12  1  0.38189829  0.70107034  0.39132073  1
  O  O13  1  0.08045611  0.30057210  0.10957708  1
  O  O14  1  0.61897179  0.30057210  0.60957708  1
  O  O15  1  0.91703137  0.70107034  0.89132073  1
  O  O16  1  0.56218994  0.74207767  0.60371121  1
  O  O17  1  0.30396195  0.24853424  0.89634567  1
  O  O18  1  0.44750381  0.24853424  0.39634567  1
  O  O19  1  0.69573239  0.74207767  0.10371121  1
  O  O20  1  0.20546345  0.96769815  0.55824567  1
  O  O21  1  0.15280231  0.03310177  0.94846868  1
  O  O22  1  0.81409593  0.03310177  0.44846868  1
  O  O23  1  0.82683840  0.96769815  0.05824567  1
  O  O24  1  0.17545293  0.69885398  0.59608429  1
  O  O25  1  0.87153231  0.30274664  0.90488225  1
  O  O26  1  0.82572105  0.30274664  0.40488225  1
  O  O27  1  0.12569309  0.69885398  0.09608429  1
