# generated using pymatgen
data_PrYMg6
_symmetry_space_group_name_H-M   'P 1'
_cell_length_a   5.20912351
_cell_length_b   5.20912351
_cell_length_c   9.06505450
_cell_angle_alpha   73.30248328
_cell_angle_beta   90.00000000
_cell_angle_gamma   120.00000000
_symmetry_Int_Tables_number   1
_chemical_formula_structural   PrYMg6
_chemical_formula_sum   'Pr1 Y1 Mg6'
_cell_volume   200.95942468
_cell_formula_units_Z   1
loop_
 _symmetry_equiv_pos_site_id
 _symmetry_equiv_pos_as_xyz
  1  'x, y, z'
loop_
 _atom_site_type_symbol
 _atom_site_label
 _atom_site_symmetry_multiplicity
 _atom_site_fract_x
 _atom_site_fract_y
 _atom_site_fract_z
 _atom_site_occupancy
  Pr  Pr0  1  0.50000000  0.00000000  0.50000000  1
  Y  Y1  1  0.00000000  0.00000000  0.00000000  1
  Mg  Mg2  1  0.62562862  0.25125725  0.12311413  1
  Mg  Mg3  1  0.12394741  0.24789481  0.62815778  1
  Mg  Mg4  1  0.87605259  0.75210519  0.37184222  1
  Mg  Mg5  1  0.37437138  0.74874275  0.87688587  1
  Mg  Mg6  1  0.25057459  0.50114917  0.24827624  1
  Mg  Mg7  1  0.74942541  0.49885083  0.75172376  1
