# generated using pymatgen
data_Rb(WO3)4
_symmetry_space_group_name_H-M   'P 1'
_cell_length_a   7.52295084
_cell_length_b   10.79571781
_cell_length_c   10.79568239
_cell_angle_alpha   88.32937725
_cell_angle_beta   110.39066524
_cell_angle_gamma   69.60882904
_symmetry_Int_Tables_number   1
_chemical_formula_structural   Rb(WO3)4
_chemical_formula_sum   'Rb3 W12 O36'
_cell_volume   758.94465844
_cell_formula_units_Z   3
loop_
 _symmetry_equiv_pos_site_id
 _symmetry_equiv_pos_as_xyz
  1  'x, y, z'
loop_
 _atom_site_type_symbol
 _atom_site_label
 _atom_site_symmetry_multiplicity
 _atom_site_fract_x
 _atom_site_fract_y
 _atom_site_fract_z
 _atom_site_occupancy
  Rb  Rb0  1  0.00000000  0.75000000  0.75000000  1
  Rb  Rb1  1  0.99995162  0.00963175  0.00963175  1
  Rb  Rb2  1  0.00004838  0.49036825  0.49036825  1
  W  W3  1  0.49750860  0.87521225  0.87521225  1
  W  W4  1  0.49727670  0.37438942  0.37438942  1
  W  W5  1  0.00032800  0.62582140  0.12385888  1
  W  W6  1  0.99968114  0.12660883  0.62306570  1
  W  W7  1  0.50322427  0.62306570  0.12660883  1
  W  W8  1  0.50229051  0.12385888  0.62582140  1
  W  W9  1  0.50249140  0.62478775  0.62478775  1
  W  W10  1  0.50272330  0.12561058  0.12561058  1
  W  W11  1  0.00031886  0.37339117  0.87693430  1
  W  W12  1  0.99967200  0.87417860  0.37614112  1
  W  W13  1  0.49770949  0.37614112  0.87417860  1
  W  W14  1  0.49677573  0.87693430  0.37339117  1
  O  O15  1  0.78808142  0.58859653  0.16323944  1
  O  O16  1  0.79087953  0.08473231  0.66492548  1
  O  O17  1  0.42092806  0.76946152  0.98023161  1
  O  O18  1  0.42450511  0.26937480  0.48242252  1
  O  O19  1  0.78868364  0.77008127  0.97945372  1
  O  O20  1  0.78701750  0.27020928  0.48174975  1
  O  O21  1  0.21068636  0.66492548  0.08473231  1
  O  O22  1  0.21343851  0.16323944  0.58859653  1
  O  O23  1  0.21145739  0.48242252  0.26937480  1
  O  O24  1  0.21015797  0.98023161  0.76946152  1
  O  O25  1  0.57547704  0.48174975  0.27020928  1
  O  O26  1  0.57931119  0.97945372  0.77008127  1
  O  O27  1  0.20912047  0.41526769  0.83507452  1
  O  O28  1  0.21191858  0.91140347  0.33676056  1
  O  O29  1  0.57549489  0.23062520  0.01757748  1
  O  O30  1  0.57907194  0.73053848  0.51976839  1
  O  O31  1  0.21298250  0.22979072  0.01825025  1
  O  O32  1  0.21131636  0.72991873  0.52054628  1
  O  O33  1  0.78656149  0.33676056  0.91140347  1
  O  O34  1  0.78931364  0.83507452  0.41526769  1
  O  O35  1  0.78984203  0.51976839  0.73053848  1
  O  O36  1  0.78854261  0.01757748  0.23062520  1
  O  O37  1  0.42068881  0.52054628  0.72991873  1
  O  O38  1  0.42452296  0.01825025  0.22979072  1
  O  O39  1  0.49913030  0.50040291  0.99963922  1
  O  O40  1  0.50086970  0.99959709  0.50036078  1
  O  O41  1  0.50000000  0.75000000  0.75000000  1
  O  O42  1  0.50000000  0.25000000  0.25000000  1
  O  O43  1  0.00010601  0.50036078  0.99959709  1
  O  O44  1  0.99989399  0.99963922  0.50040291  1
  O  O45  1  0.50000000  0.75000000  0.25000000  1
  O  O46  1  0.50000000  0.25000000  0.75000000  1
  O  O47  1  0.49965610  0.50022490  0.50022490  1
  O  O48  1  0.50034390  0.99977510  0.99977510  1
  O  O49  1  0.00000000  0.25000000  0.75000000  1
  O  O50  1  0.00000000  0.75000000  0.25000000  1
