# generated using pymatgen
data_GaCu4
_symmetry_space_group_name_H-M   'P 1'
_cell_length_a   2.65392236
_cell_length_b   2.65392236
_cell_length_c   10.49622086
_cell_angle_alpha   97.26292961
_cell_angle_beta   82.73707039
_cell_angle_gamma   120.00000000
_symmetry_Int_Tables_number   1
_chemical_formula_structural   GaCu4
_chemical_formula_sum   'Ga1 Cu4'
_cell_volume   63.33773481
_cell_formula_units_Z   1
loop_
 _symmetry_equiv_pos_site_id
 _symmetry_equiv_pos_as_xyz
  1  'x, y, z'
loop_
 _atom_site_type_symbol
 _atom_site_label
 _atom_site_symmetry_multiplicity
 _atom_site_fract_x
 _atom_site_fract_y
 _atom_site_fract_z
 _atom_site_occupancy
  Ga  Ga0  1  -0.00000000  -0.00000000  -0.00000000  1
  Cu  Cu1  1  0.59848856  0.40151144  0.20453432  1
  Cu  Cu2  1  0.19951702  0.80048298  0.40144894  1
  Cu  Cu3  1  0.80048298  0.19951702  0.59855106  1
  Cu  Cu4  1  0.40151144  0.59848856  0.79546568  1
