# generated using pymatgen
data_Pr5Se6N
_symmetry_space_group_name_H-M   'P 1'
_cell_length_a   7.83143308
_cell_length_b   12.66539679
_cell_length_c   26.56294766
_cell_angle_alpha   76.20767011
_cell_angle_beta   89.28574607
_cell_angle_gamma   90.00000000
_symmetry_Int_Tables_number   1
_chemical_formula_structural   Pr5Se6N
_chemical_formula_sum   'Pr40 Se48 N8'
_cell_volume   2558.55106160
_cell_formula_units_Z   8
loop_
 _symmetry_equiv_pos_site_id
 _symmetry_equiv_pos_as_xyz
  1  'x, y, z'
loop_
 _atom_site_type_symbol
 _atom_site_label
 _atom_site_symmetry_multiplicity
 _atom_site_fract_x
 _atom_site_fract_y
 _atom_site_fract_z
 _atom_site_occupancy
  Pr  Pr0  1  0.25427640  0.56778082  0.99883896  1
  Pr  Pr1  1  0.75427640  0.43338021  0.99883896  1
  Pr  Pr2  1  0.37041504  0.45160952  0.58895553  1
  Pr  Pr3  1  0.12938226  0.03984837  0.41202462  1
  Pr  Pr4  1  0.62938226  0.54812700  0.41202462  1
  Pr  Pr5  1  0.87041504  0.95943495  0.58895553  1
  Pr  Pr6  1  0.21839167  0.69772189  0.44899446  1
  Pr  Pr7  1  0.28138212  0.14661879  0.55165313  1
  Pr  Pr8  1  0.78138212  0.30172807  0.55165313  1
  Pr  Pr9  1  0.71839167  0.85328365  0.44899446  1
  Pr  Pr10  1  0.16774690  0.43337846  0.41124756  1
  Pr  Pr11  1  0.33246432  0.84494568  0.58964954  1
  Pr  Pr12  1  0.83246432  0.56540479  0.58964954  1
  Pr  Pr13  1  0.66774690  0.15537398  0.41124756  1
  Pr  Pr14  1  0.36488476  0.69986036  0.31189419  1
  Pr  Pr15  1  0.13371444  0.01156061  0.68895623  1
  Pr  Pr16  1  0.63371444  0.29948316  0.68895623  1
  Pr  Pr17  1  0.86488476  0.98824545  0.31189419  1
  Pr  Pr18  1  0.17639034  0.54660541  0.16544852  1
  Pr  Pr19  1  0.32402375  0.71442017  0.83465161  1
  Pr  Pr20  1  0.82402375  0.45092822  0.83465161  1
  Pr  Pr21  1  0.67639034  0.28794607  0.16544852  1
  Pr  Pr22  1  0.17072672  0.32539386  0.73187673  1
  Pr  Pr23  1  0.32665387  0.05896610  0.26827131  1
  Pr  Pr24  1  0.82665387  0.67276260  0.26827131  1
  Pr  Pr25  1  0.67072672  0.94272942  0.73187673  1
  Pr  Pr26  1  0.47022039  0.56809462  0.71039447  1
  Pr  Pr27  1  0.02882119  0.27874521  0.29041171  1
  Pr  Pr28  1  0.52882119  0.43084308  0.29041171  1
  Pr  Pr29  1  0.97022039  0.72151091  0.71039447  1
  Pr  Pr30  1  0.34411694  0.86738937  0.15009021  1
  Pr  Pr31  1  0.16056015  0.01780718  0.85206421  1
  Pr  Pr32  1  0.66056015  0.13012860  0.85206421  1
  Pr  Pr33  1  0.84411694  0.98252042  0.15009021  1
  Pr  Pr34  1  0.31478897  0.35549851  0.89166815  1
  Pr  Pr35  1  0.17431152  0.25479780  0.11002745  1
  Pr  Pr36  1  0.67431152  0.63517476  0.11002745  1
  Pr  Pr37  1  0.81478897  0.75283334  0.89166815  1
  Pr  Pr38  1  0.00634294  0.85155521  0.02181936  1
  Pr  Pr39  1  0.50634294  0.12662543  0.02181936  1
  Se  Se40  1  0.30594226  0.71474964  0.07124934  1
  Se  Se41  1  0.18558846  0.78655748  0.93147170  1
  Se  Se42  1  0.68558846  0.28197083  0.93147170  1
  Se  Se43  1  0.80594226  0.21400101  0.07124934  1
  Se  Se44  1  0.26241748  0.31671342  0.00258155  1
  Se  Se45  1  0.76241748  0.68070503  0.00258155  1
  Se  Se46  1  0.17696623  0.63268927  0.62758244  1
  Se  Se47  1  0.32274554  0.26016620  0.37167069  1
  Se  Se48  1  0.82274554  0.36816311  0.37167069  1
  Se  Se49  1  0.67696623  0.73972830  0.62758244  1
  Se  Se50  1  0.01893473  0.52750419  0.91518134  1
  Se  Se51  1  0.48115354  0.44583571  0.08703382  1
  Se  Se52  1  0.98115354  0.46713047  0.08703382  1
  Se  Se53  1  0.51893473  0.55731447  0.91518134  1
  Se  Se54  1  0.18188824  0.53665050  0.78776720  1
  Se  Se55  1  0.31814171  0.32220912  0.21265061  1
  Se  Se56  1  0.81814171  0.46514027  0.21265061  1
  Se  Se57  1  0.68188824  0.67558231  0.78776720  1
  Se  Se58  1  0.10640138  0.26292096  0.62350797  1
  Se  Se59  1  0.39343356  0.88649713  0.37567984  1
  Se  Se60  1  0.89343356  0.73782303  0.37567984  1
  Se  Se61  1  0.60640138  0.11357106  0.62350797  1
  Se  Se62  1  0.15407543  0.52236837  0.29028779  1
  Se  Se63  1  0.34580601  0.81300395  0.70909571  1
  Se  Se64  1  0.84580601  0.47790034  0.70909571  1
  Se  Se65  1  0.65407543  0.18734384  0.29028779  1
  Se  Se66  1  0.99892529  0.50054872  0.49960052  1
  Se  Se67  1  0.49892529  0.99985076  0.49960052  1
  Se  Se68  1  0.11862585  0.87585142  0.24370944  1
  Se  Se69  1  0.38027886  0.12120668  0.75498171  1
  Se  Se70  1  0.88027886  0.12381161  0.75498171  1
  Se  Se71  1  0.61862585  0.88043914  0.24370944  1
  Se  Se72  1  0.03019057  0.25383134  0.84440519  1
  Se  Se73  1  0.46509415  0.10011240  0.15075971  1
  Se  Se74  1  0.96509415  0.74912789  0.15075971  1
  Se  Se75  1  0.53019057  0.90176347  0.84440519  1
  Se  Se76  1  0.46908041  0.34749604  0.48845578  1
  Se  Se77  1  0.03214142  0.83725139  0.51050196  1
  Se  Se78  1  0.53214142  0.65224664  0.51050196  1
  Se  Se79  1  0.96908041  0.16404818  0.48845578  1
  Se  Se80  1  0.36015319  0.10147904  0.92494486  1
  Se  Se81  1  0.14800347  0.02450915  0.07217439  1
  Se  Se82  1  0.64800347  0.90331647  0.07217439  1
  Se  Se83  1  0.86015319  0.97357610  0.92494486  1
  Se  Se84  1  0.47559364  0.64877737  0.20231721  1
  Se  Se85  1  0.02368188  0.85066614  0.79901107  1
  Se  Se86  1  0.52368188  0.35032279  0.79901107  1
  Se  Se87  1  0.97559364  0.14890542  0.20231721  1
  N  N88  1  0.39344942  0.41347680  0.67952754  1
  N  N89  1  0.10694261  0.09227918  0.32064183  1
  N  N90  1  0.60694261  0.58707899  0.32064183  1
  N  N91  1  0.89344942  0.90699566  0.67952754  1
  N  N92  1  0.33132344  0.58987897  0.39951122  1
  N  N93  1  0.16850653  0.98963914  0.60053964  1
  N  N94  1  0.66850653  0.40982122  0.60053964  1
  N  N95  1  0.83132344  0.01060982  0.39951122  1
