# generated using pymatgen
data_Rb3Ag9(SbS3)4
_symmetry_space_group_name_H-M   'P 1'
_cell_length_a   9.85931407
_cell_length_b   9.85931407
_cell_length_c   9.85931407
_cell_angle_alpha   68.75844943
_cell_angle_beta   68.75844943
_cell_angle_gamma   105.98578253
_symmetry_Int_Tables_number   1
_chemical_formula_structural   Rb3Ag9(SbS3)4
_chemical_formula_sum   'Rb3 Ag9 Sb4 S12'
_cell_volume   735.73367567
_cell_formula_units_Z   1
loop_
 _symmetry_equiv_pos_site_id
 _symmetry_equiv_pos_as_xyz
  1  'x, y, z'
loop_
 _atom_site_type_symbol
 _atom_site_label
 _atom_site_symmetry_multiplicity
 _atom_site_fract_x
 _atom_site_fract_y
 _atom_site_fract_z
 _atom_site_occupancy
  Rb  Rb0  1  -0.00000000  0.00000000  -0.00000000  1
  Rb  Rb1  1  0.67175077  0.67175077  -0.00000000  1
  Rb  Rb2  1  0.32824923  0.32824923  0.00000000  1
  Ag  Ag3  1  0.75000000  0.25000000  0.50000000  1
  Ag  Ag4  1  0.84058540  0.99304351  0.49371635  1
  Ag  Ag5  1  0.48675987  0.33430176  0.50628365  1
  Ag  Ag6  1  0.33219333  0.83689116  0.16934773  1
  Ag  Ag7  1  0.00623890  0.50154106  0.83065227  1
  Ag  Ag8  1  0.16310884  0.99376110  0.50469784  1
  Ag  Ag9  1  0.49845894  0.66780667  0.49530216  1
  Ag  Ag10  1  0.66569824  0.15941460  0.84754189  1
  Ag  Ag11  1  0.00695649  0.51324013  0.15245811  1
  Sb  Sb12  1  0.37975014  0.86649192  0.74093247  1
  Sb  Sb13  1  0.60742439  0.12068262  0.25906753  1
  Sb  Sb14  1  0.13350808  0.39257561  0.48674177  1
  Sb  Sb15  1  0.87931738  0.62024986  0.51325823  1
  S  S16  1  0.43003880  0.10682322  0.78126017  1
  S  S17  1  0.88808339  0.21129897  0.21873983  1
  S  S18  1  0.21223976  0.41823240  0.68986168  1
  S  S19  1  0.10809409  0.90210144  0.31013832  1
  S  S20  1  0.58176760  0.89190591  0.20599264  1
  S  S21  1  0.09789856  0.78776024  0.79400736  1
  S  S22  1  0.78870103  0.56996120  0.32321559  1
  S  S23  1  0.89317678  0.11191661  0.67678441  1
  S  S24  1  0.31329920  0.66830974  0.02322538  1
  S  S25  1  0.69153513  0.33652458  0.97677462  1
  S  S26  1  0.33169026  0.30846487  0.35501055  1
  S  S27  1  0.66347542  0.68670080  0.64498945  1
