# generated using pymatgen
data_Rb2CrBrCl3
_symmetry_space_group_name_H-M   'P 1'
_cell_length_a   7.24100331
_cell_length_b   7.24316805
_cell_length_c   9.03994055
_cell_angle_alpha   90.00000000
_cell_angle_beta   66.39051850
_cell_angle_gamma   90.00000000
_symmetry_Int_Tables_number   1
_chemical_formula_structural   Rb2CrBrCl3
_chemical_formula_sum   'Rb4 Cr2 Br2 Cl6'
_cell_volume   434.43908791
_cell_formula_units_Z   2
loop_
 _symmetry_equiv_pos_site_id
 _symmetry_equiv_pos_as_xyz
  1  'x, y, z'
loop_
 _atom_site_type_symbol
 _atom_site_label
 _atom_site_symmetry_multiplicity
 _atom_site_fract_x
 _atom_site_fract_y
 _atom_site_fract_z
 _atom_site_occupancy
  Rb  Rb0  1  0.86387760  0.50000000  0.27224479  1
  Rb  Rb1  1  0.36387760  -0.00000000  0.27224479  1
  Rb  Rb2  1  0.13937839  0.50000000  0.72124321  1
  Rb  Rb3  1  0.63937839  -0.00000000  0.72124321  1
  Cr  Cr4  1  0.49653518  0.50000000  0.00692964  1
  Cr  Cr5  1  0.99653518  -0.00000000  0.00692964  1
  Br  Br6  1  0.65544287  0.50000000  0.68911426  1
  Br  Br7  1  0.15544287  -0.00000000  0.68911426  1
  Cl  Cl8  1  0.34818031  0.50000000  0.30363937  1
  Cl  Cl9  1  0.84818031  -0.00000000  0.30363937  1
  Cl  Cl10  1  0.73975921  0.26019737  0.00341436  1
  Cl  Cl11  1  0.25682642  0.73980263  0.00341436  1
  Cl  Cl12  1  0.75682642  0.76019737  0.00341436  1
  Cl  Cl13  1  0.23975921  0.23980263  0.00341436  1
