# generated using pymatgen
data_Nb2Tc
_symmetry_space_group_name_H-M   'P 1'
_cell_length_a   2.84748178
_cell_length_b   2.84748178
_cell_length_c   6.93688448
_cell_angle_alpha   97.57869622
_cell_angle_beta   97.57869622
_cell_angle_gamma   110.94083420
_symmetry_Int_Tables_number   1
_chemical_formula_structural   Nb2Tc
_chemical_formula_sum   'Nb2 Tc1'
_cell_volume   51.08858917
_cell_formula_units_Z   1
loop_
 _symmetry_equiv_pos_site_id
 _symmetry_equiv_pos_as_xyz
  1  'x, y, z'
loop_
 _atom_site_type_symbol
 _atom_site_label
 _atom_site_symmetry_multiplicity
 _atom_site_fract_x
 _atom_site_fract_y
 _atom_site_fract_z
 _atom_site_occupancy
  Nb  Nb0  1  0.66104130  0.66104130  0.32208161  1
  Nb  Nb1  1  0.33895870  0.33895870  0.67791839  1
  Tc  Tc2  1  -0.00000000  -0.00000000  0.00000000  1
