# generated using pymatgen
data_Pb12BrCl7O8
_symmetry_space_group_name_H-M   'P 1'
_cell_length_a   5.93870540
_cell_length_b   9.79589740
_cell_length_c   12.09774727
_cell_angle_alpha   90.09633016
_cell_angle_beta   90.00000000
_cell_angle_gamma   90.00000000
_symmetry_Int_Tables_number   1
_chemical_formula_structural   Pb12BrCl7O8
_chemical_formula_sum   'Pb12 Br1 Cl7 O8'
_cell_volume   703.78483351
_cell_formula_units_Z   1
loop_
 _symmetry_equiv_pos_site_id
 _symmetry_equiv_pos_as_xyz
  1  'x, y, z'
loop_
 _atom_site_type_symbol
 _atom_site_label
 _atom_site_symmetry_multiplicity
 _atom_site_fract_x
 _atom_site_fract_y
 _atom_site_fract_z
 _atom_site_occupancy
  Pb  Pb0  1  0.25000000  0.70692566  0.93578515  1
  Pb  Pb1  1  0.25000000  0.79298652  0.43808575  1
  Pb  Pb2  1  0.75000000  0.29161455  0.06096533  1
  Pb  Pb3  1  0.75000000  0.20680535  0.56203436  1
  Pb  Pb4  1  0.25000000  0.12720381  0.21799472  1
  Pb  Pb5  1  0.25000000  0.36601198  0.71703387  1
  Pb  Pb6  1  0.75000000  0.86632664  0.78306069  1
  Pb  Pb7  1  0.75000000  0.63360484  0.28352956  1
  Pb  Pb8  1  0.25000000  0.07955332  0.91974871  1
  Pb  Pb9  1  0.25000000  0.42007854  0.42039028  1
  Pb  Pb10  1  0.75000000  0.91944419  0.08034394  1
  Pb  Pb11  1  0.75000000  0.57971127  0.58077399  1
  Br  Br12  1  0.25000000  0.42758287  0.13204235  1
  Cl  Cl13  1  0.25000000  0.80974990  0.19091140  1
  Cl  Cl14  1  0.25000000  0.69170759  0.69010017  1
  Cl  Cl15  1  0.75000000  0.19150515  0.80947461  1
  Cl  Cl16  1  0.75000000  0.30776270  0.30999133  1
  Cl  Cl17  1  0.25000000  0.08351440  0.63481943  1
  Cl  Cl18  1  0.75000000  0.58339926  0.86513844  1
  Cl  Cl19  1  0.75000000  0.91699282  0.36523262  1
  O  O20  1  0.99553228  0.11087782  0.08055142  1
  O  O21  1  0.50526972  0.38738349  0.58044909  1
  O  O22  1  0.49537860  0.88781232  0.91976413  1
  O  O23  1  0.00498389  0.61268569  0.42050701  1
  O  O24  1  0.00462140  0.88781232  0.91976413  1
  O  O25  1  0.49501611  0.61268569  0.42050701  1
  O  O26  1  0.50446772  0.11087782  0.08055142  1
  O  O27  1  0.99473028  0.38738349  0.58044909  1
