# generated using pymatgen
data_Co(MoS2)2
_symmetry_space_group_name_H-M   'P 1'
_cell_length_a   6.43469903
_cell_length_b   6.75321179
_cell_length_c   11.70020309
_cell_angle_alpha   79.35060940
_cell_angle_beta   74.03903675
_cell_angle_gamma   61.54830452
_symmetry_Int_Tables_number   1
_chemical_formula_structural   Co(MoS2)2
_chemical_formula_sum   'Co4 Mo8 S16'
_cell_volume   428.91811228
_cell_formula_units_Z   4
loop_
 _symmetry_equiv_pos_site_id
 _symmetry_equiv_pos_as_xyz
  1  'x, y, z'
loop_
 _atom_site_type_symbol
 _atom_site_label
 _atom_site_symmetry_multiplicity
 _atom_site_fract_x
 _atom_site_fract_y
 _atom_site_fract_z
 _atom_site_occupancy
  Co  Co0  1  0.53884316  0.71699432  0.45278882  1
  Co  Co1  1  0.29137370  0.21699432  0.95278882  1
  Co  Co2  1  0.79358712  0.20925813  0.95307057  1
  Co  Co3  1  0.04408418  0.70925813  0.45307057  1
  Mo  Mo4  1  0.88062583  0.77044418  0.70992124  1
  Mo  Mo5  1  0.63900875  0.27044418  0.20992124  1
  Mo  Mo6  1  0.45879497  0.16160873  0.68995028  1
  Mo  Mo7  1  0.68964602  0.66160873  0.18995028  1
  Mo  Mo8  1  0.94186395  0.15860354  0.68929257  1
  Mo  Mo9  1  0.21023994  0.65860354  0.18929257  1
  Mo  Mo10  1  0.38546469  0.77695912  0.71101230  1
  Mo  Mo11  1  0.12656389  0.27695912  0.21101230  1
  S  S12  1  0.82986388  0.04262111  0.54617651  1
  S  S13  1  0.58133851  0.54262111  0.04617651  1
  S  S14  1  0.50564329  0.88924638  0.85297810  1
  S  S15  1  0.75213222  0.38924638  0.35297810  1
  S  S16  1  0.03226847  0.36931499  0.81599977  1
  S  S17  1  0.78241677  0.86931499  0.31599977  1
  S  S18  1  0.30476489  0.56188528  0.58305479  1
  S  S19  1  0.55029503  0.06188528  0.08305479  1
  S  S20  1  0.53032680  0.37288796  0.81957284  1
  S  S21  1  0.27721240  0.87288796  0.31957284  1
  S  S22  1  0.80132825  0.55931002  0.58152531  1
  S  S23  1  0.05783642  0.05931002  0.08152531  1
  S  S24  1  0.32407001  0.05207794  0.55097487  1
  S  S25  1  0.07287717  0.55207794  0.05097487  1
  S  S26  1  0.00652627  0.88338831  0.85108202  1
  S  S27  1  0.25900340  0.38338831  0.35108202  1
