# generated using pymatgen
data_FeSiW
_symmetry_space_group_name_H-M   'P 1'
_cell_length_a   4.79070613
_cell_length_b   4.79048035
_cell_length_c   7.54937856
_cell_angle_alpha   90.00000000
_cell_angle_beta   90.00000000
_cell_angle_gamma   60.39979876
_symmetry_Int_Tables_number   1
_chemical_formula_structural   FeSiW
_chemical_formula_sum   'Fe4 Si4 W4'
_cell_volume   150.64543831
_cell_formula_units_Z   4
loop_
 _symmetry_equiv_pos_site_id
 _symmetry_equiv_pos_as_xyz
  1  'x, y, z'
loop_
 _atom_site_type_symbol
 _atom_site_label
 _atom_site_symmetry_multiplicity
 _atom_site_fract_x
 _atom_site_fract_y
 _atom_site_fract_z
 _atom_site_occupancy
  Fe  Fe0  1  0.99817253  0.99819370  0.49147751  1
  Fe  Fe1  1  0.99817253  0.99819370  0.00852249  1
  Fe  Fe2  1  0.83009178  0.34633838  0.75000000  1
  Fe  Fe3  1  0.34630383  0.83011484  0.75000000  1
  Si  Si4  1  0.83537375  0.83535641  0.75000000  1
  Si  Si5  1  0.16735097  0.66181478  0.25000000  1
  Si  Si6  1  0.66181554  0.16734794  0.25000000  1
  Si  Si7  1  0.16728989  0.16728359  0.25000000  1
  W  W8  1  0.33205140  0.33204093  0.56092531  1
  W  W9  1  0.66566320  0.66563740  0.43040037  1
  W  W10  1  0.66566320  0.66563740  0.06959963  1
  W  W11  1  0.33205140  0.33204093  0.93907469  1
