# generated using pymatgen
data_Na4SrTa5O15
_symmetry_space_group_name_H-M   'P 1'
_cell_length_a   6.89710072
_cell_length_b   8.88353356
_cell_length_c   11.28529245
_cell_angle_alpha   71.29628008
_cell_angle_beta   90.47769097
_cell_angle_gamma   75.46769349
_symmetry_Int_Tables_number   1
_chemical_formula_structural   Na4SrTa5O15
_chemical_formula_sum   'Na8 Sr2 Ta10 O30'
_cell_volume   631.00620794
_cell_formula_units_Z   2
loop_
 _symmetry_equiv_pos_site_id
 _symmetry_equiv_pos_as_xyz
  1  'x, y, z'
loop_
 _atom_site_type_symbol
 _atom_site_label
 _atom_site_symmetry_multiplicity
 _atom_site_fract_x
 _atom_site_fract_y
 _atom_site_fract_z
 _atom_site_occupancy
  Na  Na0  1  0.50004879  0.00072041  0.99962764  1
  Na  Na1  1  0.09928898  0.19981741  0.19949161  1
  Na  Na2  1  0.70071102  0.40018259  0.40050839  1
  Na  Na3  1  0.29995121  0.59927959  0.60037236  1
  Na  Na4  1  0.90000000  0.80000000  0.80000000  1
  Na  Na5  1  0.09981098  0.19991479  0.70042626  1
  Na  Na6  1  0.70018902  0.40008521  0.89957374  1
  Na  Na7  1  0.90000000  0.80000000  0.30000000  1
  Sr  Sr8  1  0.29954231  0.59987143  0.09968294  1
  Sr  Sr9  1  0.50045769  0.00012857  0.50031706  1
  Ta  Ta10  1  0.99879830  0.99965146  0.50030282  1
  Ta  Ta11  1  0.80120170  0.60034854  0.09969718  1
  Ta  Ta12  1  0.40000000  0.80000000  0.30000000  1
  Ta  Ta13  1  0.60092398  0.20156857  0.70196906  1
  Ta  Ta14  1  0.19907602  0.39843143  0.89803094  1
  Ta  Ta15  1  0.40000000  0.80000000  0.80000000  1
  Ta  Ta16  1  0.19752672  0.40108691  0.40208784  1
  Ta  Ta17  1  0.80190064  0.59675861  0.60118580  1
  Ta  Ta18  1  0.99809936  0.00324139  0.99881420  1
  Ta  Ta19  1  0.60247328  0.19891309  0.19791216  1
  O  O20  1  0.13039127  0.18464050  0.47267778  1
  O  O21  1  0.93067952  0.78478234  0.07262836  1
  O  O22  1  0.53034249  0.98489085  0.27288820  1
  O  O23  1  0.72997818  0.38498864  0.67243003  1
  O  O24  1  0.33003159  0.58495492  0.87288628  1
  O  O25  1  0.86932048  0.81521766  0.52737164  1
  O  O26  1  0.66960873  0.41535950  0.12732222  1
  O  O27  1  0.26965751  0.61510915  0.32711180  1
  O  O28  1  0.46996841  0.01504508  0.72711372  1
  O  O29  1  0.07002182  0.21501136  0.92756997  1
  O  O30  1  0.81206434  0.12850418  0.34380212  1
  O  O31  1  0.61203508  0.72841289  0.94410570  1
  O  O32  1  0.21538614  0.92667242  0.14222753  1
  O  O33  1  0.41555931  0.32670299  0.54234696  1
  O  O34  1  0.01491162  0.52968398  0.74249692  1
  O  O35  1  0.78508838  0.07031602  0.85750308  1
  O  O36  1  0.58461386  0.67332758  0.45777247  1
  O  O37  1  0.18796492  0.87158711  0.65589430  1
  O  O38  1  0.38444069  0.27329701  0.05765304  1
  O  O39  1  0.98793566  0.47149582  0.25619788  1
  O  O40  1  0.40000000  0.30000000  0.80000000  1
  O  O41  1  0.00298811  0.50107662  0.00063949  1
  O  O42  1  0.59733097  0.69851735  0.19924730  1
  O  O43  1  0.20266903  0.90148265  0.40075270  1
  O  O44  1  0.79701189  0.09892338  0.59936051  1
  O  O45  1  0.20060127  0.89701209  0.90182541  1
  O  O46  1  0.80033933  0.09994171  0.09985231  1
  O  O47  1  0.40000000  0.30000000  0.30000000  1
  O  O48  1  0.99966067  0.50005829  0.50014769  1
  O  O49  1  0.59939873  0.70298791  0.69817459  1
