# generated using pymatgen
data_Na5U5O18
_symmetry_space_group_name_H-M   'P 1'
_cell_length_a   6.89542646
_cell_length_b   11.70118050
_cell_length_c   11.70118050
_cell_angle_alpha   115.80916684
_cell_angle_beta   95.83529414
_cell_angle_gamma   95.83529414
_symmetry_Int_Tables_number   1
_chemical_formula_structural   Na5U5O18
_chemical_formula_sum   'Na10 U10 O36'
_cell_volume   834.22527580
_cell_formula_units_Z   2
loop_
 _symmetry_equiv_pos_site_id
 _symmetry_equiv_pos_as_xyz
  1  'x, y, z'
loop_
 _atom_site_type_symbol
 _atom_site_label
 _atom_site_symmetry_multiplicity
 _atom_site_fract_x
 _atom_site_fract_y
 _atom_site_fract_z
 _atom_site_occupancy
  Na  Na0  1  0.75757808  0.55178044  0.44880376  1
  Na  Na1  1  0.25757808  0.44880376  0.55178044  1
  Na  Na2  1  0.25030611  0.05580512  0.94283946  1
  Na  Na3  1  0.75030611  0.94283946  0.05580512  1
  Na  Na4  1  0.75100380  0.13993334  0.85960828  1
  Na  Na5  1  0.25100380  0.85960828  0.13993334  1
  Na  Na6  1  0.25362783  0.24996566  0.74897750  1
  Na  Na7  1  0.75362783  0.74897750  0.24996566  1
  Na  Na8  1  0.27506695  0.63351955  0.34637275  1
  Na  Na9  1  0.77506695  0.34637275  0.63351955  1
  U  U10  1  0.53053964  0.39681553  0.09134381  1
  U  U11  1  0.97105958  0.90777276  0.60227494  1
  U  U12  1  0.47105958  0.60227494  0.90777276  1
  U  U13  1  0.03053964  0.09134381  0.39681553  1
  U  U14  1  0.00071395  0.49877619  0.99909652  1
  U  U15  1  0.50071395  0.99909652  0.49877619  1
  U  U16  1  0.99338137  0.29199097  0.20446556  1
  U  U17  1  0.50778224  0.79463587  0.70702561  1
  U  U18  1  0.00778224  0.70702561  0.79463587  1
  U  U19  1  0.49338137  0.20446556  0.29199097  1
  O  O20  1  0.67066824  0.31027157  0.21121541  1
  O  O21  1  0.83085871  0.78878626  0.68989192  1
  O  O22  1  0.33085871  0.68989192  0.78878626  1
  O  O23  1  0.17066824  0.21121541  0.31027157  1
  O  O24  1  0.57682599  0.55242060  0.24481894  1
  O  O25  1  0.91898684  0.75527031  0.44746284  1
  O  O26  1  0.41898684  0.44746284  0.75527031  1
  O  O27  1  0.07682599  0.24481894  0.55242060  1
  O  O28  1  0.05168009  0.45348694  0.35334667  1
  O  O29  1  0.45296796  0.64508352  0.54605288  1
  O  O30  1  0.95296796  0.54605288  0.64508352  1
  O  O31  1  0.55168009  0.35334667  0.45348694  1
  O  O32  1  0.47653207  0.24119391  0.93618096  1
  O  O33  1  0.02517472  0.06297665  0.75774101  1
  O  O34  1  0.52517472  0.75774101  0.06297665  1
  O  O35  1  0.97653207  0.93618096  0.24119391  1
  O  O36  1  0.28812140  0.32073178  0.15908345  1
  O  O37  1  0.21275525  0.83983358  0.67940771  1
  O  O38  1  0.71275525  0.67940771  0.83983358  1
  O  O39  1  0.78812140  0.15908345  0.32073178  1
  O  O40  1  0.88290525  0.37443180  0.07564163  1
  O  O41  1  0.61721313  0.92289858  0.62394263  1
  O  O42  1  0.11721313  0.62394263  0.92289858  1
  O  O43  1  0.38290525  0.07564163  0.37443180  1
  O  O44  1  0.93380568  0.13068913  0.05773097  1
  O  O45  1  0.56705600  0.94181985  0.86811525  1
  O  O46  1  0.06705600  0.86811525  0.94181985  1
  O  O47  1  0.43380568  0.05773097  0.13068913  1
  O  O48  1  0.94221784  0.35979720  0.83120740  1
  O  O49  1  0.56189470  0.16753887  0.63699326  1
  O  O50  1  0.06189470  0.63699326  0.16753887  1
  O  O51  1  0.44221784  0.83120740  0.35979720  1
  O  O52  1  0.68953459  0.52425000  0.99671789  1
  O  O53  1  0.81254200  0.00282826  0.47473675  1
  O  O54  1  0.31254200  0.47473675  0.00282826  1
  O  O55  1  0.18953459  0.99671789  0.52425000  1
