# generated using pymatgen
data_Na8Al3Ga3Si6(ClO12)2
_symmetry_space_group_name_H-M   'P 1'
_cell_length_a   9.01574680
_cell_length_b   9.01574680
_cell_length_c   9.01574680
_cell_angle_alpha   90.01074835
_cell_angle_beta   89.98925165
_cell_angle_gamma   89.98925165
_symmetry_Int_Tables_number   1
_chemical_formula_structural   Na8Al3Ga3Si6(ClO12)2
_chemical_formula_sum   'Na8 Al3 Ga3 Si6 Cl2 O24'
_cell_volume   732.83313242
_cell_formula_units_Z   1
loop_
 _symmetry_equiv_pos_site_id
 _symmetry_equiv_pos_as_xyz
  1  'x, y, z'
loop_
 _atom_site_type_symbol
 _atom_site_label
 _atom_site_symmetry_multiplicity
 _atom_site_fract_x
 _atom_site_fract_y
 _atom_site_fract_z
 _atom_site_occupancy
  Na  Na0  1  0.67565594  0.32434406  0.32434406  1
  Na  Na1  1  0.32487215  0.32346373  0.67635092  1
  Na  Na2  1  0.32364908  0.67512785  0.32346373  1
  Na  Na3  1  0.67653627  0.67635092  0.67512785  1
  Na  Na4  1  0.82333910  0.17554292  0.82476034  1
  Na  Na5  1  0.82445708  0.82476034  0.17666090  1
  Na  Na6  1  0.17624412  0.82375588  0.82375588  1
  Na  Na7  1  0.17523966  0.17666090  0.17554292  1
  Al  Al8  1  0.24999660  0.50046536  0.99961260  1
  Al  Al9  1  0.49953464  0.99961260  0.75000340  1
  Al  Al10  1  0.00038740  0.75000340  0.50046536  1
  Ga  Ga11  1  0.00018398  0.25000436  0.50041936  1
  Ga  Ga12  1  0.74999564  0.50041936  -0.00018398  1
  Ga  Ga13  1  0.49958064  -0.00018398  0.25000436  1
  Si  Si14  1  0.49755997  0.25001902  0.99821999  1
  Si  Si15  1  0.74998098  0.99821999  0.50244003  1
  Si  Si16  1  0.00178001  0.50244003  0.25001902  1
  Si  Si17  1  0.24998442  0.99758168  0.50174332  1
  Si  Si18  1  0.00241832  0.50174332  0.75001558  1
  Si  Si19  1  0.49825668  0.75001558  0.99758168  1
  Cl  Cl20  1  0.49989558  0.50010442  0.50010442  1
  Cl  Cl21  1  0.00011645  0.99988355  0.99988355  1
  O  O22  1  0.63664189  0.34500382  0.06853974  1
  O  O23  1  0.65499618  0.06853974  0.36335811  1
  O  O24  1  0.93146026  0.36335811  0.34500382  1
  O  O25  1  0.36176253  0.35351121  0.93461124  1
  O  O26  1  0.35096682  0.06161478  0.63911492  1
  O  O27  1  0.07279962  0.36467906  0.65244317  1
  O  O28  1  0.36088508  0.64903318  0.06161478  1
  O  O29  1  0.34755683  0.92720038  0.36467906  1
  O  O30  1  0.06538876  0.63823747  0.35351121  1
  O  O31  1  0.63532094  0.65244317  0.92720038  1
  O  O32  1  0.64648879  0.93461124  0.63823747  1
  O  O33  1  0.93838522  0.63911492  0.64903318  1
  O  O34  1  0.84756953  0.13549290  0.57262561  1
  O  O35  1  0.56144431  0.14891365  0.86054959  1
  O  O36  1  0.86356171  0.43129922  0.84496093  1
  O  O37  1  0.85108635  0.86054959  0.43855569  1
  O  O38  1  0.56870078  0.84496093  0.13643829  1
  O  O39  1  0.86450710  0.57262561  0.15243047  1
  O  O40  1  0.14658863  0.86207170  0.56556821  1
  O  O41  1  0.43443179  0.85341137  0.86207170  1
  O  O42  1  0.13792830  0.56556821  0.85341137  1
  O  O43  1  0.15503907  0.13643829  0.43129922  1
  O  O44  1  0.42737439  0.15243047  0.13549290  1
  O  O45  1  0.13945041  0.43855569  0.14891365  1
