# generated using pymatgen
data_Na3CaMgCr3(SiO3)8
_symmetry_space_group_name_H-M   'P 1'
_cell_length_a   5.33028043
_cell_length_b   9.63825126
_cell_length_c   8.88071968
_cell_angle_alpha   90.00000000
_cell_angle_beta   90.00000000
_cell_angle_gamma   104.73185463
_symmetry_Int_Tables_number   1
_chemical_formula_structural   Na3CaMgCr3(SiO3)8
_chemical_formula_sum   'Na3 Ca1 Mg1 Cr3 Si8 O24'
_cell_volume   441.24495972
_cell_formula_units_Z   1
loop_
 _symmetry_equiv_pos_site_id
 _symmetry_equiv_pos_as_xyz
  1  'x, y, z'
loop_
 _atom_site_type_symbol
 _atom_site_label
 _atom_site_symmetry_multiplicity
 _atom_site_fract_x
 _atom_site_fract_y
 _atom_site_fract_z
 _atom_site_occupancy
  Na  Na0  1  0.25000000  0.50000000  0.79776070  1
  Na  Na1  1  0.75000000  0.00000000  0.30320732  1
  Na  Na2  1  0.25000000  0.00000000  0.69683137  1
  Ca  Ca3  1  0.75000000  0.50000000  0.20226607  1
  Mg  Mg4  1  0.25000000  0.50000000  0.41177874  1
  Cr  Cr5  1  0.75000000  0.00000000  0.90334922  1
  Cr  Cr6  1  0.75000000  0.50000000  0.59325424  1
  Cr  Cr7  1  0.25000000  0.00000000  0.09547148  1
  Si  Si8  1  0.44056401  0.71128083  0.09045094  1
  Si  Si9  1  0.93932336  0.20955121  0.59198776  1
  Si  Si10  1  0.05943599  0.28871917  0.09045094  1
  Si  Si11  1  0.56067664  0.79044879  0.59198776  1
  Si  Si12  1  0.55832805  0.28965810  0.90597669  1
  Si  Si13  1  0.05840186  0.79237428  0.41052455  1
  Si  Si14  1  0.94167195  0.71034190  0.90597669  1
  Si  Si15  1  0.44159814  0.20762572  0.41052455  1
  O  O16  1  0.45189550  0.63925038  0.25153160  1
  O  O17  1  0.94500274  0.13907635  0.75654899  1
  O  O18  1  0.04810450  0.36074962  0.25153160  1
  O  O19  1  0.55499726  0.86092365  0.75654899  1
  O  O20  1  0.55261362  0.36051094  0.74345226  1
  O  O21  1  0.05538350  0.85936244  0.24382651  1
  O  O22  1  0.94738638  0.63948906  0.74345226  1
  O  O23  1  0.44461650  0.14063756  0.24382651  1
  O  O24  1  0.52347464  0.88741193  0.07774307  1
  O  O25  1  0.01652998  0.38466151  0.58442042  1
  O  O26  1  0.97652536  0.11258807  0.07774307  1
  O  O27  1  0.48347002  0.61533849  0.58442042  1
  O  O28  1  0.47598804  0.11367686  0.92049840  1
  O  O29  1  0.96693104  0.61593072  0.41718520  1
  O  O30  1  0.02401196  0.88632314  0.92049840  1
  O  O31  1  0.53306896  0.38406928  0.41718520  1
  O  O32  1  0.14888560  0.64873014  0.01331446  1
  O  O33  1  0.65208992  0.14605686  0.51191256  1
  O  O34  1  0.35111440  0.35126986  0.01331446  1
  O  O35  1  0.84791008  0.85394314  0.51191256  1
  O  O36  1  0.84451942  0.35142346  0.98943959  1
  O  O37  1  0.34678849  0.85025253  0.48922743  1
  O  O38  1  0.65548058  0.64857654  0.98943959  1
  O  O39  1  0.15321151  0.14974747  0.48922743  1
