# generated using pymatgen
data_Na4Al2GaSi3BrO12
_symmetry_space_group_name_H-M   'P 1'
_cell_length_a   9.05893061
_cell_length_b   9.05893794
_cell_length_c   9.05627612
_cell_angle_alpha   90.00157118
_cell_angle_beta   90.00158863
_cell_angle_gamma   89.99147406
_symmetry_Int_Tables_number   1
_chemical_formula_structural   Na4Al2GaSi3BrO12
_chemical_formula_sum   'Na8 Al4 Ga2 Si6 Br2 O24'
_cell_volume   743.19686231
_cell_formula_units_Z   2
loop_
 _symmetry_equiv_pos_site_id
 _symmetry_equiv_pos_as_xyz
  1  'x, y, z'
loop_
 _atom_site_type_symbol
 _atom_site_label
 _atom_site_symmetry_multiplicity
 _atom_site_fract_x
 _atom_site_fract_y
 _atom_site_fract_z
 _atom_site_occupancy
  Na  Na0  1  0.68378328  0.31450076  0.31597724  1
  Na  Na1  1  0.31658960  0.31465329  0.68502001  1
  Na  Na2  1  0.31554097  0.68507240  0.31515827  1
  Na  Na3  1  0.68473565  0.68521747  0.68386464  1
  Na  Na4  1  0.81450039  0.18378372  0.81597844  1
  Na  Na5  1  0.81465478  0.81659059  0.18501956  1
  Na  Na6  1  0.18507049  0.81553958  0.81515788  1
  Na  Na7  1  0.18521641  0.18473347  0.18386554  1
  Al  Al8  1  0.49958158  0.99961089  0.25000213  1
  Al  Al9  1  0.25082224  0.50041901  -0.00003544  1
  Al  Al10  1  0.49961103  0.99958129  0.75000202  1
  Al  Al11  1  0.00041877  0.75082257  0.49996449  1
  Ga  Ga12  1  0.00031449  0.24915496  0.50016209  1
  Ga  Ga13  1  0.74915527  0.50031467  0.00016182  1
  Si  Si14  1  0.49778974  0.24776881  0.00026599  1
  Si  Si15  1  0.74776875  0.99778935  0.50026567  1
  Si  Si16  1  0.00192070  0.50244762  0.25001333  1
  Si  Si17  1  0.25221153  0.99781247  0.49972226  1
  Si  Si18  1  0.00244713  0.50192080  0.75001333  1
  Si  Si19  1  0.49781231  0.75221193  0.99972225  1
  Br  Br20  1  0.49986381  0.50014516  0.49998056  1
  Br  Br21  1  0.00014528  0.99986428  0.99998104  1
  O  O22  1  0.63779246  0.34342148  0.06518455  1
  O  O23  1  0.64995232  0.05671239  0.35947266  1
  O  O24  1  0.93561690  0.36147727  0.34344879  1
  O  O25  1  0.35988703  0.34970672  0.94188856  1
  O  O26  1  0.34996055  0.05690026  0.64024335  1
  O  O27  1  0.06861950  0.36264412  0.65412250  1
  O  O28  1  0.36016951  0.65038331  0.05827633  1
  O  O29  1  0.35232136  0.93885994  0.36089429  1
  O  O30  1  0.06150287  0.63966961  0.35204450  1
  O  O31  1  0.63762595  0.65661243  0.93464667  1
  O  O32  1  0.64760627  0.93905956  0.63936237  1
  O  O33  1  0.94266288  0.64088017  0.65028365  1
  O  O34  1  0.84342137  0.13779287  0.56518494  1
  O  O35  1  0.55671256  0.14995221  0.85947221  1
  O  O36  1  0.86147806  0.43561652  0.84344942  1
  O  O37  1  0.84970657  0.85988726  0.44188873  1
  O  O38  1  0.55689914  0.84996055  0.14024338  1
  O  O39  1  0.86264441  0.56861938  0.15412281  1
  O  O40  1  0.15038363  0.86016925  0.55827645  1
  O  O41  1  0.43885975  0.85232088  0.86089434  1
  O  O42  1  0.13966942  0.56150195  0.85204504  1
  O  O43  1  0.15661248  0.13762679  0.43464603  1
  O  O44  1  0.43906005  0.14760689  0.13936226  1
  O  O45  1  0.14088078  0.44266311  0.15028306  1
