# generated using pymatgen
data_Na4Sc3In(SiO3)8
_symmetry_space_group_name_H-M   'P 1'
_cell_length_a   5.41349420
_cell_length_b   9.85549058
_cell_length_c   9.18031262
_cell_angle_alpha   90.00000000
_cell_angle_beta   90.00000000
_cell_angle_gamma   104.33311923
_symmetry_Int_Tables_number   1
_chemical_formula_structural   Na4Sc3In(SiO3)8
_chemical_formula_sum   'Na4 Sc3 In1 Si8 O24'
_cell_volume   474.54800804
_cell_formula_units_Z   1
loop_
 _symmetry_equiv_pos_site_id
 _symmetry_equiv_pos_as_xyz
  1  'x, y, z'
loop_
 _atom_site_type_symbol
 _atom_site_label
 _atom_site_symmetry_multiplicity
 _atom_site_fract_x
 _atom_site_fract_y
 _atom_site_fract_z
 _atom_site_occupancy
  Na  Na0  1  0.25000000  0.50000000  0.80407293  1
  Na  Na1  1  0.75000000  0.00000000  0.30254064  1
  Na  Na2  1  0.75000000  0.50000000  0.19678725  1
  Na  Na3  1  0.25000000  0.00000000  0.69725967  1
  Sc  Sc4  1  0.75000000  0.00000000  0.89442954  1
  Sc  Sc5  1  0.75000000  0.50000000  0.60818131  1
  Sc  Sc6  1  0.25000000  0.00000000  0.10579013  1
  In  In7  1  0.25000000  0.50000000  0.39611028  1
  Si  Si8  1  0.45358971  0.71013611  0.08547727  1
  Si  Si9  1  0.95237689  0.20843706  0.58687663  1
  Si  Si10  1  0.04641029  0.28986389  0.08547727  1
  Si  Si11  1  0.54762311  0.79156294  0.58687663  1
  Si  Si12  1  0.54704849  0.29031206  0.91289299  1
  Si  Si13  1  0.04650942  0.79136434  0.41294965  1
  Si  Si14  1  0.95295151  0.70968794  0.91289299  1
  Si  Si15  1  0.45349058  0.20863566  0.41294965  1
  O  O16  1  0.45843581  0.64454674  0.24509601  1
  O  O17  1  0.94678993  0.13893085  0.74657165  1
  O  O18  1  0.04156419  0.35545326  0.24509601  1
  O  O19  1  0.55321007  0.86106915  0.74657165  1
  O  O20  1  0.55293552  0.36049370  0.75367454  1
  O  O21  1  0.05376993  0.86139756  0.25336730  1
  O  O22  1  0.94706448  0.63950630  0.75367454  1
  O  O23  1  0.44623007  0.13860244  0.25336730  1
  O  O24  1  0.52641006  0.88231631  0.07721286  1
  O  O25  1  0.02475896  0.38061685  0.58186290  1
  O  O26  1  0.97358994  0.11768369  0.07721286  1
  O  O27  1  0.47524104  0.61938315  0.58186290  1
  O  O28  1  0.47343909  0.11833768  0.92131529  1
  O  O29  1  0.96541932  0.61963594  0.42218841  1
  O  O30  1  0.02656091  0.88166232  0.92131529  1
  O  O31  1  0.53458068  0.38036406  0.42218841  1
  O  O32  1  0.16910838  0.65052717  0.00735276  1
  O  O33  1  0.66906053  0.14977941  0.50791631  1
  O  O34  1  0.33089162  0.34947283  0.00735276  1
  O  O35  1  0.83093947  0.85022059  0.50791631  1
  O  O36  1  0.83089291  0.34926143  0.99066142  1
  O  O37  1  0.33052240  0.84916879  0.49199814  1
  O  O38  1  0.66910709  0.65073857  0.99066142  1
  O  O39  1  0.16947760  0.15083121  0.49199814  1
