# generated using pymatgen
data_Na4ScIn3(SiO3)8
_symmetry_space_group_name_H-M   'P 1'
_cell_length_a   7.73250201
_cell_length_b   7.73250201
_cell_length_c   9.61276162
_cell_angle_alpha   76.71939539
_cell_angle_beta   110.12002339
_cell_angle_gamma   73.33429455
_symmetry_Int_Tables_number   1
_chemical_formula_structural   Na4ScIn3(SiO3)8
_chemical_formula_sum   'Na4 Sc1 In3 Si8 O24'
_cell_volume   481.33712192
_cell_formula_units_Z   1
loop_
 _symmetry_equiv_pos_site_id
 _symmetry_equiv_pos_as_xyz
  1  'x, y, z'
loop_
 _atom_site_type_symbol
 _atom_site_label
 _atom_site_symmetry_multiplicity
 _atom_site_fract_x
 _atom_site_fract_y
 _atom_site_fract_z
 _atom_site_occupancy
  Na  Na0  1  0.69769300  0.42730700  0.87500000  1
  Na  Na1  1  0.69685021  0.92814979  0.37500000  1
  Na  Na2  1  0.30356685  0.07275978  0.62491317  1
  Na  Na3  1  0.30232706  0.57134632  0.12508683  1
  Sc  Sc4  1  0.10897448  0.01602552  0.87500000  1
  In  In5  1  0.10600490  0.51899510  0.37500000  1
  In  In6  1  0.89450595  0.47896757  0.62633560  1
  In  In7  1  0.89469683  0.98182964  0.12366440  1
  Si  Si8  1  0.62069117  0.71435287  0.08078160  1
  Si  Si9  1  0.62346220  0.21276169  0.58256058  1
  Si  Si10  1  0.20486553  0.71009042  0.66921840  1
  Si  Si11  1  0.20467773  0.20909839  0.16743942  1
  Si  Si12  1  0.37737731  0.78753387  0.41872277  1
  Si  Si13  1  0.37640413  0.28675938  0.91808692  1
  Si  Si14  1  0.79515370  0.79168278  0.83191308  1
  Si  Si15  1  0.79374336  0.29134546  0.33127723  1
  O  O16  1  0.39254473  0.84020828  0.04305269  1
  O  O17  1  0.39898574  0.33562085  0.55231809  1
  O  O18  1  0.11673903  0.90050796  0.70694731  1
  O  O19  1  0.11206106  0.40333235  0.19768191  1
  O  O20  1  0.60114444  0.66432982  0.44793102  1
  O  O21  1  0.60077118  0.16459447  0.94772930  1
  O  O22  1  0.88767623  0.59695812  0.80227070  1
  O  O23  1  0.88773916  0.09678659  0.30206898  1
  O  O24  1  0.64127363  0.75182160  0.91072538  1
  O  O25  1  0.64080853  0.25164048  0.41068089  1
  O  O26  1  0.33745302  0.51945175  0.83927462  1
  O  O27  1  0.33767863  0.01987237  0.33931911  1
  O  O28  1  0.35779753  0.75019527  0.58967083  1
  O  O29  1  0.35947560  0.24904039  0.08982601  1
  O  O30  1  0.66113360  0.98035041  0.66017399  1
  O  O31  1  0.66013390  0.48187330  0.16032917  1
  O  O32  1  0.79885298  0.75487485  0.20612205  1
  O  O33  1  0.80440112  0.24932692  0.70806715  1
  O  O34  1  0.03900310  0.65726907  0.54387795  1
  O  O35  1  0.04260593  0.15366603  0.04193285  1
  O  O36  1  0.19955930  0.74623167  0.29339397  1
  O  O37  1  0.19915549  0.24102327  0.79733942  1
  O  O38  1  0.96163731  0.84818393  0.95266058  1
  O  O39  1  0.96037436  0.34383467  0.45660603  1
