# generated using pymatgen
data_NaMoAsO6
_symmetry_space_group_name_H-M   'P 1'
_cell_length_a   6.65170187
_cell_length_b   7.59924559
_cell_length_c   10.28866899
_cell_angle_alpha   90.00000000
_cell_angle_beta   90.00000000
_cell_angle_gamma   90.00000000
_symmetry_Int_Tables_number   1
_chemical_formula_structural   NaMoAsO6
_chemical_formula_sum   'Na4 Mo4 As4 O24'
_cell_volume   520.07077690
_cell_formula_units_Z   4
loop_
 _symmetry_equiv_pos_site_id
 _symmetry_equiv_pos_as_xyz
  1  'x, y, z'
loop_
 _atom_site_type_symbol
 _atom_site_label
 _atom_site_symmetry_multiplicity
 _atom_site_fract_x
 _atom_site_fract_y
 _atom_site_fract_z
 _atom_site_occupancy
  Na  Na0  1  0.01345276  0.62114130  0.01216037  1
  Na  Na1  1  0.48654724  0.87885870  0.51216037  1
  Na  Na2  1  0.51345276  0.37885870  0.98783963  1
  Na  Na3  1  0.98654724  0.12114130  0.48783963  1
  Mo  Mo4  1  0.24505506  0.05126897  0.82322401  1
  Mo  Mo5  1  0.25494494  0.44873103  0.32322401  1
  Mo  Mo6  1  0.74505506  0.94873103  0.17677599  1
  Mo  Mo7  1  0.75494494  0.55126897  0.67677599  1
  As  As8  1  0.25234795  0.45978869  0.66018437  1
  As  As9  1  0.24765205  0.04021131  0.16018437  1
  As  As10  1  0.75234795  0.54021131  0.33981563  1
  As  As11  1  0.74765205  0.95978869  0.83981563  1
  O  O12  1  0.25632835  0.16489742  0.02279708  1
  O  O13  1  0.24367165  0.33510258  0.52279708  1
  O  O14  1  0.75632835  0.83510258  0.97720292  1
  O  O15  1  0.74367165  0.66489742  0.47720292  1
  O  O16  1  0.04757999  0.60230508  0.66510921  1
  O  O17  1  0.45242001  0.89769492  0.16510921  1
  O  O18  1  0.54757999  0.39769492  0.33489079  1
  O  O19  1  0.95242001  0.10230508  0.83489079  1
  O  O20  1  0.95403957  0.39595688  0.33922081  1
  O  O21  1  0.54596043  0.10404312  0.83922081  1
  O  O22  1  0.45403957  0.60404312  0.66077919  1
  O  O23  1  0.04596043  0.89595688  0.16077919  1
  O  O24  1  0.24359238  0.84114366  0.89126586  1
  O  O25  1  0.25640762  0.65885634  0.39126586  1
  O  O26  1  0.74359238  0.15885634  0.10873414  1
  O  O27  1  0.75640762  0.34114366  0.60873414  1
  O  O28  1  0.25034987  0.49231674  0.15583021  1
  O  O29  1  0.24965013  0.00768326  0.65583021  1
  O  O30  1  0.75034987  0.50768326  0.84416979  1
  O  O31  1  0.74965013  0.99231674  0.34416979  1
  O  O32  1  0.25520017  0.34072659  0.80153099  1
  O  O33  1  0.24479983  0.15927341  0.30153099  1
  O  O34  1  0.75520017  0.65927341  0.19846901  1
  O  O35  1  0.74479983  0.84072659  0.69846901  1
