# generated using pymatgen
data_Na3YC2(O3F)2
_symmetry_space_group_name_H-M   'P 1'
_cell_length_a   7.13273821
_cell_length_b   7.25713460
_cell_length_c   15.06434932
_cell_angle_alpha   90.00000000
_cell_angle_beta   90.00000000
_cell_angle_gamma   113.20293396
_symmetry_Int_Tables_number   1
_chemical_formula_structural   Na3YC2(O3F)2
_chemical_formula_sum   'Na12 Y4 C8 O24 F8'
_cell_volume   716.70720820
_cell_formula_units_Z   4
loop_
 _symmetry_equiv_pos_site_id
 _symmetry_equiv_pos_as_xyz
  1  'x, y, z'
loop_
 _atom_site_type_symbol
 _atom_site_label
 _atom_site_symmetry_multiplicity
 _atom_site_fract_x
 _atom_site_fract_y
 _atom_site_fract_z
 _atom_site_occupancy
  Na  Na0  1  -0.00000000  0.50000000  0.50000000  1
  Na  Na1  1  0.50000000  -0.00000000  0.00000000  1
  Na  Na2  1  0.01226286  0.75662114  0.99311054  1
  Na  Na3  1  0.51226286  0.25662114  0.50688946  1
  Na  Na4  1  0.98773714  0.24337886  0.00688946  1
  Na  Na5  1  0.48773714  0.74337886  0.49311054  1
  Na  Na6  1  -0.00000000  -0.00000000  0.50000000  1
  Na  Na7  1  0.50000000  0.50000000  0.00000000  1
  Na  Na8  1  0.25159000  0.62693104  0.81260225  1
  Na  Na9  1  0.75159000  0.12693104  0.68739775  1
  Na  Na10  1  0.74841000  0.37306896  0.18739775  1
  Na  Na11  1  0.24841000  0.87306896  0.31260225  1
  Y  Y12  1  0.25263117  0.12921263  0.78653066  1
  Y  Y13  1  0.75263117  0.62921263  0.71346934  1
  Y  Y14  1  0.74736883  0.87078737  0.21346934  1
  Y  Y15  1  0.24736883  0.37078737  0.28653066  1
  C  C16  1  0.25142407  0.60788905  0.13218902  1
  C  C17  1  0.75142407  0.10788905  0.36781098  1
  C  C18  1  0.74857593  0.39211095  0.86781098  1
  C  C19  1  0.24857593  0.89211095  0.63218902  1
  C  C20  1  0.75648583  0.86821968  0.86365680  1
  C  C21  1  0.25648583  0.36821968  0.63634320  1
  C  C22  1  0.24351417  0.13178032  0.13634320  1
  C  C23  1  0.74351417  0.63178032  0.36365680  1
  O  O24  1  0.78482343  0.92699888  0.94376219  1
  O  O25  1  0.28482343  0.42699888  0.55623781  1
  O  O26  1  0.21517657  0.07300112  0.05623781  1
  O  O27  1  0.71517657  0.57300112  0.44376219  1
  O  O28  1  0.39027309  0.45399367  0.70009424  1
  O  O29  1  0.89027309  0.95399367  0.79990576  1
  O  O30  1  0.60972691  0.54600633  0.29990576  1
  O  O31  1  0.10972691  0.04600633  0.20009424  1
  O  O32  1  0.90844129  0.54475284  0.84048333  1
  O  O33  1  0.40844129  0.04475284  0.65951667  1
  O  O34  1  0.09155871  0.45524716  0.15951667  1
  O  O35  1  0.59155871  0.95524716  0.34048333  1
  O  O36  1  0.61498113  0.29657797  0.80606035  1
  O  O37  1  0.11498113  0.79657797  0.69393965  1
  O  O38  1  0.38501887  0.70342203  0.19393965  1
  O  O39  1  0.88501887  0.20342203  0.30606035  1
  O  O40  1  0.27813014  0.65520239  0.04987654  1
  O  O41  1  0.77813014  0.15520239  0.45012346  1
  O  O42  1  0.72186986  0.34479761  0.95012346  1
  O  O43  1  0.22186986  0.84479761  0.54987654  1
  O  O44  1  0.59617487  0.71307453  0.83869219  1
  O  O45  1  0.09617487  0.21307453  0.66130781  1
  O  O46  1  0.40382513  0.28692547  0.16130781  1
  O  O47  1  0.90382513  0.78692547  0.33869219  1
  F  F48  1  0.22688894  0.33408226  0.88878978  1
  F  F49  1  0.72688894  0.83408226  0.61121022  1
  F  F50  1  0.77311106  0.66591774  0.11121022  1
  F  F51  1  0.27311106  0.16591774  0.38878978  1
  F  F52  1  0.27582082  0.91379171  0.88202028  1
  F  F53  1  0.77582082  0.41379171  0.61797972  1
  F  F54  1  0.72417918  0.08620829  0.11797972  1
  F  F55  1  0.22417918  0.58620829  0.38202028  1
