# generated using pymatgen
data_MnZn4(IO3)10
_symmetry_space_group_name_H-M   'P 1'
_cell_length_a   5.30504086
_cell_length_b   27.94536068
_cell_length_c   9.57409392
_cell_angle_alpha   90.45955224
_cell_angle_beta   90.06573192
_cell_angle_gamma   90.04647944
_symmetry_Int_Tables_number   1
_chemical_formula_structural   MnZn4(IO3)10
_chemical_formula_sum   'Mn2 Zn8 I20 O60'
_cell_volume   1419.32461451
_cell_formula_units_Z   2
loop_
 _symmetry_equiv_pos_site_id
 _symmetry_equiv_pos_as_xyz
  1  'x, y, z'
loop_
 _atom_site_type_symbol
 _atom_site_label
 _atom_site_symmetry_multiplicity
 _atom_site_fract_x
 _atom_site_fract_y
 _atom_site_fract_z
 _atom_site_occupancy
  Mn  Mn0  1  0.15774572  0.34648270  0.74475338  1
  Mn  Mn1  1  0.15689496  0.54700016  0.74471722  1
  Zn  Zn2  1  0.66578289  0.05315572  0.25427531  1
  Zn  Zn3  1  0.66830074  0.25295913  0.25429792  1
  Zn  Zn4  1  0.66943655  0.45325944  0.25441628  1
  Zn  Zn5  1  0.66692636  0.65346594  0.25445950  1
  Zn  Zn6  1  0.66575034  0.85318434  0.25430774  1
  Zn  Zn7  1  0.16519569  0.14665616  0.74545288  1
  Zn  Zn8  1  0.16476998  0.74710319  0.74525001  1
  Zn  Zn9  1  0.16574164  0.94683810  0.74566129  1
  I  I10  1  0.25795240  0.15385658  0.39998008  1
  I  I11  1  0.26039484  0.35375027  0.39567911  1
  I  I12  1  0.26059842  0.55395218  0.39575067  1
  I  I13  1  0.25811439  0.75406416  0.40000214  1
  I  I14  1  0.25841130  0.95399193  0.40011104  1
  I  I15  1  0.75832374  0.04596064  0.59975106  1
  I  I16  1  0.75477704  0.24468537  0.59860518  1
  I  I17  1  0.75203401  0.44589061  0.59734766  1
  I  I18  1  0.75536557  0.64719302  0.59860712  1
  I  I19  1  0.75822871  0.84599292  0.59976536  1
  I  I20  1  0.73590908  0.15230019  0.06718225  1
  I  I21  1  0.73354328  0.35241206  0.06974140  1
  I  I22  1  0.73319494  0.55276124  0.06966224  1
  I  I23  1  0.73572630  0.75266166  0.06703253  1
  I  I24  1  0.73558465  0.95248525  0.06689484  1
  I  I25  1  0.23552021  0.04747199  0.93305348  1
  I  I26  1  0.23762863  0.24654306  0.93569354  1
  I  I27  1  0.24074631  0.44771664  0.93700110  1
  I  I28  1  0.23866648  0.64866903  0.93437970  1
  I  I29  1  0.23564201  0.84753639  0.93300642  1
  O  O30  1  0.44892438  0.11824194  0.27572030  1
  O  O31  1  0.45070062  0.31832714  0.27023925  1
  O  O32  1  0.44988750  0.51848887  0.27020966  1
  O  O33  1  0.44804626  0.71842129  0.27575354  1
  O  O34  1  0.44855496  0.91829301  0.27579885  1
  O  O35  1  0.94860866  0.08167708  0.72431228  1
  O  O36  1  0.94285548  0.28015654  0.72378229  1
  O  O37  1  0.94320530  0.48047207  0.72327625  1
  O  O38  1  0.94903221  0.68195840  0.72383354  1
  O  O39  1  0.94858695  0.88172575  0.72424809  1
  O  O40  1  0.94586505  0.16889679  0.92127581  1
  O  O41  1  0.94208787  0.36923808  0.92397912  1
  O  O42  1  0.94130127  0.56939860  0.92387611  1
  O  O43  1  0.94519388  0.76904145  0.92110167  1
  O  O44  1  0.94558773  0.96892625  0.92114905  1
  O  O45  1  0.44565922  0.03104678  0.07889253  1
  O  O46  1  0.44631351  0.22949651  0.08155279  1
  O  O47  1  0.44615250  0.43014834  0.08379800  1
  O  O48  1  0.44545675  0.63172296  0.08115360  1
  O  O49  1  0.44565821  0.83106768  0.07885846  1
  O  O50  1  0.37613575  0.13016404  0.56652754  1
  O  O51  1  0.38084295  0.32949871  0.56065643  1
  O  O52  1  0.38061526  0.52954196  0.56078373  1
  O  O53  1  0.37595569  0.73020999  0.56660695  1
  O  O54  1  0.37589470  0.93018252  0.56669694  1
  O  O55  1  0.87598273  0.06980947  0.43336132  1
  O  O56  1  0.87480976  0.26937264  0.43362353  1
  O  O57  1  0.87473133  0.47040051  0.43254750  1
  O  O58  1  0.87592603  0.67081729  0.43236245  1
  O  O59  1  0.87594216  0.86981653  0.43339200  1
  O  O60  1  0.88173131  0.19272826  0.19751873  1
  O  O61  1  0.88123649  0.39268142  0.20013001  1
  O  O62  1  0.88060262  0.59297057  0.20026271  1
  O  O63  1  0.88105893  0.79303205  0.19765083  1
  O  O64  1  0.88051106  0.99293471  0.19745650  1
  O  O65  1  0.38039104  0.00706989  0.80261065  1
  O  O66  1  0.38073656  0.20660835  0.80341914  1
  O  O67  1  0.38657744  0.40822463  0.80524546  1
  O  O68  1  0.38617809  0.60881825  0.80422941  1
  O  O69  1  0.38037298  0.80722572  0.80240171  1
  O  O70  1  0.43783522  0.01061660  0.39749335  1
  O  O71  1  0.43761171  0.21051190  0.39760093  1
  O  O72  1  0.43730570  0.41068763  0.39591487  1
  O  O73  1  0.43766638  0.61084369  0.39586757  1
  O  O74  1  0.43793690  0.81066879  0.39756295  1
  O  O75  1  0.93767639  0.18842701  0.60073125  1
  O  O76  1  0.93107784  0.38934236  0.59871799  1
  O  O77  1  0.93107791  0.59032484  0.60048529  1
  O  O78  1  0.93766667  0.78939657  0.60245650  1
  O  O79  1  0.93775210  0.98939112  0.60249268  1
  O  O80  1  0.89368939  0.09667046  0.12150079  1
  O  O81  1  0.89367793  0.29669924  0.12213121  1
  O  O82  1  0.89347059  0.49694205  0.12161936  1
  O  O83  1  0.89353443  0.69691356  0.12101333  1
  O  O84  1  0.89299243  0.89680229  0.12132497  1
  O  O85  1  0.39302249  0.10318045  0.87865621  1
  O  O86  1  0.39735257  0.30209125  0.88258778  1
  O  O87  1  0.39825415  0.50364078  0.88502680  1
  O  O88  1  0.39400829  0.70473207  0.88094278  1
  O  O89  1  0.39307257  0.90326423  0.87874024  1
