# generated using pymatgen
data_LaP2H44C14N7(Cl2O)2
_symmetry_space_group_name_H-M   'P 1'
_cell_length_a   10.89827819
_cell_length_b   10.89827819
_cell_length_c   16.66413399
_cell_angle_alpha   81.69380821
_cell_angle_beta   81.69380821
_cell_angle_gamma   62.68571738
_symmetry_Int_Tables_number   1
_chemical_formula_structural   LaP2H44C14N7(Cl2O)2
_chemical_formula_sum   'La2 P4 H88 C28 N14 Cl8 O4'
_cell_volume   1733.22139645
_cell_formula_units_Z   2
loop_
 _symmetry_equiv_pos_site_id
 _symmetry_equiv_pos_as_xyz
  1  'x, y, z'
loop_
 _atom_site_type_symbol
 _atom_site_label
 _atom_site_symmetry_multiplicity
 _atom_site_fract_x
 _atom_site_fract_y
 _atom_site_fract_z
 _atom_site_occupancy
  La  La0  1  0.74903728  0.24706306  0.24875247  1
  La  La1  1  0.24706306  0.74903728  0.74875247  1
  P  P2  1  0.12768264  0.15006573  0.14693446  1
  P  P3  1  0.85134816  0.87252169  0.35325527  1
  P  P4  1  0.87252169  0.85134816  0.85325527  1
  P  P5  1  0.15006573  0.12768264  0.64693446  1
  H  H6  1  0.43350249  0.82269973  0.15478712  1
  H  H7  1  0.17818244  0.56588484  0.34563042  1
  H  H8  1  0.56588484  0.17818244  0.84563042  1
  H  H9  1  0.82269973  0.43350249  0.65478712  1
  H  H10  1  0.17943681  0.87074123  0.07167481  1
  H  H11  1  0.12999216  0.81995314  0.42874553  1
  H  H12  1  0.81995314  0.12999216  0.92874553  1
  H  H13  1  0.87074123  0.17943681  0.57167481  1
  H  H14  1  0.22253569  0.78841654  0.17164270  1
  H  H15  1  0.21315623  0.77593325  0.32914788  1
  H  H16  1  0.77593325  0.21315623  0.82914788  1
  H  H17  1  0.78841654  0.22253569  0.67164270  1
  H  H18  1  0.08444985  0.40033229  0.24348006  1
  H  H19  1  0.59988238  0.91705529  0.25619278  1
  H  H20  1  0.91705529  0.59988238  0.75619278  1
  H  H21  1  0.40033229  0.08444985  0.74348006  1
  H  H22  1  0.30022870  0.01962419  0.27380769  1
  H  H23  1  0.98072601  0.70019921  0.22616018  1
  H  H24  1  0.70019921  0.98072601  0.72616018  1
  H  H25  1  0.01962419  0.30022870  0.77380769  1
  H  H26  1  0.41850482  0.99372181  0.13203479  1
  H  H27  1  0.00685911  0.58128972  0.36810503  1
  H  H28  1  0.58128972  0.00685911  0.86810503  1
  H  H29  1  0.99372181  0.41850482  0.63203479  1
  H  H30  1  0.66126820  0.52542844  0.91635532  1
  H  H31  1  0.41634430  0.43503430  0.55182621  1
  H  H32  1  0.43503430  0.41634430  0.05182621  1
  H  H33  1  0.52542844  0.66126820  0.41635532  1
  H  H34  1  0.25704481  0.36919876  0.20401297  1
  H  H35  1  0.63153803  0.74432278  0.29553059  1
  H  H36  1  0.74432278  0.63153803  0.79553059  1
  H  H37  1  0.36919876  0.25704481  0.70401297  1
  H  H38  1  0.12842454  0.40513204  0.13592411  1
  H  H39  1  0.59504705  0.87311052  0.36371414  1
  H  H40  1  0.87311052  0.59504705  0.86371414  1
  H  H41  1  0.40513204  0.12842454  0.63592411  1
  H  H42  1  0.55289924  0.44253041  0.91365279  1
  H  H43  1  0.55982875  0.36595403  0.61215304  1
  H  H44  1  0.36595403  0.55982875  0.11215304  1
  H  H45  1  0.44253041  0.55289924  0.41365279  1
  H  H46  1  0.22729040  0.31947847  0.96666662  1
  H  H47  1  0.68105441  0.77294582  0.53317089  1
  H  H48  1  0.77294582  0.68105441  0.03317089  1
  H  H49  1  0.31947847  0.22729040  0.46666662  1
  H  H50  1  0.91138880  0.28847031  0.04584310  1
  H  H51  1  0.71147992  0.08850724  0.45400624  1
  H  H52  1  0.08850724  0.71147992  0.95400624  1
  H  H53  1  0.28847031  0.91138880  0.54584310  1
  H  H54  1  0.05845965  0.93459972  0.15840694  1
  H  H55  1  0.06706457  0.94056924  0.34156194  1
  H  H56  1  0.94056924  0.06706457  0.84156194  1
  H  H57  1  0.93459972  0.05845965  0.65840694  1
  H  H58  1  0.34632914  0.15320249  0.28713222  1
  H  H59  1  0.84690120  0.65443370  0.21319553  1
  H  H60  1  0.65443370  0.84690120  0.71319553  1
  H  H61  1  0.15320249  0.34632914  0.78713222  1
  H  H62  1  0.67116823  0.38589576  0.99232566  1
  H  H63  1  0.57788607  0.29787507  0.51600861  1
  H  H64  1  0.29787507  0.57788607  0.01600861  1
  H  H65  1  0.38589576  0.67116823  0.49232566  1
  H  H66  1  0.39610798  0.90881118  0.05519898  1
  H  H67  1  0.09253536  0.60334080  0.44493586  1
  H  H68  1  0.60334080  0.09253536  0.94493586  1
  H  H69  1  0.90881118  0.39610798  0.55519898  1
  H  H70  1  0.03123676  0.17532477  0.97259413  1
  H  H71  1  0.82464413  0.96898158  0.52747970  1
  H  H72  1  0.96898158  0.82464413  0.02747970  1
  H  H73  1  0.17532477  0.03123676  0.47259413  1
  H  H74  1  0.29248191  0.13594121  0.96994168  1
  H  H75  1  0.86463263  0.70762174  0.52996243  1
  H  H76  1  0.70762174  0.86463263  0.02996243  1
  H  H77  1  0.13594121  0.29248191  0.46994168  1
  H  H78  1  0.99396164  0.35431546  0.96268039  1
  H  H79  1  0.64566420  0.00597407  0.53729779  1
  H  H80  1  0.00597407  0.64566420  0.03729779  1
  H  H81  1  0.35431546  0.99396164  0.46268039  1
  H  H82  1  0.32579406  0.21106695  0.04781431  1
  H  H83  1  0.78998033  0.67436602  0.45184175  1
  H  H84  1  0.67436602  0.78998033  0.95184175  1
  H  H85  1  0.21106695  0.32579406  0.54781431  1
  H  H86  1  0.17845041  0.16714479  0.32542687  1
  H  H87  1  0.83331267  0.82210831  0.17429729  1
  H  H88  1  0.82210831  0.83331267  0.67429729  1
  H  H89  1  0.16714479  0.17845041  0.82542687  1
  H  H90  1  0.54429940  0.58918130  0.05187084  1
  H  H91  1  0.58918130  0.54429940  0.55187084  1
  H  H92  1  0.44200966  0.66957117  0.97104536  1
  H  H93  1  0.66957117  0.44200966  0.47104536  1
  C  C94  1  0.24842216  0.22456682  0.00758381  1
  C  C95  1  0.77606757  0.75168153  0.49228002  1
  C  C96  1  0.75168153  0.77606757  0.99228002  1
  C  C97  1  0.22456682  0.24842216  0.50758381  1
  C  C98  1  0.00791228  0.26436339  0.00671862  1
  C  C99  1  0.73569364  0.99215565  0.49333272  1
  C  C100  1  0.99215565  0.73569364  0.99333272  1
  C  C101  1  0.26436339  0.00791228  0.50671862  1
  C  C102  1  0.37687607  0.92394002  0.12081293  1
  C  C103  1  0.07688007  0.62256525  0.37946064  1
  C  C104  1  0.62256525  0.07688007  0.87946064  1
  C  C105  1  0.92394002  0.37687607  0.62081293  1
  C  C106  1  0.26168031  0.13145375  0.27555129  1
  C  C107  1  0.86888113  0.73919032  0.22430896  1
  C  C108  1  0.73919032  0.86888113  0.72430896  1
  C  C109  1  0.13145375  0.26168031  0.77555129  1
  C  C110  1  0.16727033  0.35375681  0.19482789  1
  C  C111  1  0.64663406  0.83433098  0.30481678  1
  C  C112  1  0.83433098  0.64663406  0.80481678  1
  C  C113  1  0.35375681  0.16727033  0.69482789  1
  C  C114  1  0.16851852  0.88896957  0.13643923  1
  C  C115  1  0.11237253  0.83070062  0.36393134  1
  C  C116  1  0.83070062  0.11237253  0.86393134  1
  C  C117  1  0.88896957  0.16851852  0.63643923  1
  C  C118  1  0.60332877  0.47420321  0.95326719  1
  C  C119  1  0.52939276  0.39011161  0.54980835  1
  C  C120  1  0.39011161  0.52939276  0.04980835  1
  C  C121  1  0.47420321  0.60332877  0.45326719  1
  N  N122  1  0.11996316  0.23747235  0.05578598  1
  N  N123  1  0.76292996  0.88013783  0.44416216  1
  N  N124  1  0.88013783  0.76292996  0.94416216  1
  N  N125  1  0.23747235  0.11996316  0.55578598  1
  N  N126  1  0.22883430  0.97979384  0.14803194  1
  N  N127  1  0.02118255  0.77074362  0.35216785  1
  N  N128  1  0.77074362  0.02118255  0.85216785  1
  N  N129  1  0.97979384  0.22883430  0.64803194  1
  N  N130  1  0.21045286  0.20458604  0.19726055  1
  N  N131  1  0.79571068  0.79134297  0.30241407  1
  N  N132  1  0.79134297  0.79571068  0.80241407  1
  N  N133  1  0.20458604  0.21045286  0.69726055  1
  N  N134  1  0.49415042  0.57602157  0.00713438  1
  N  N135  1  0.57602157  0.49415042  0.50713438  1
  Cl  Cl136  1  0.66715265  0.51132436  0.15752954  1
  Cl  Cl137  1  0.49254489  0.32501979  0.33463621  1
  Cl  Cl138  1  0.32501979  0.49254489  0.83463621  1
  Cl  Cl139  1  0.51132436  0.66715265  0.65752954  1
  Cl  Cl140  1  0.82765178  0.33443133  0.38157511  1
  Cl  Cl141  1  0.68104528  0.15223747  0.12503678  1
  Cl  Cl142  1  0.15223747  0.68104528  0.62503678  1
  Cl  Cl143  1  0.33443133  0.82765178  0.88157511  1
  O  O144  1  0.98228770  0.17367460  0.18065983  1
  O  O145  1  0.82910653  0.01808830  0.32084032  1
  O  O146  1  0.01808830  0.82910653  0.82084032  1
  O  O147  1  0.17367460  0.98228770  0.68065983  1
