# generated using pymatgen
data_Na2GeTeO6
_symmetry_space_group_name_H-M   'P 1'
_cell_length_a   5.18252677
_cell_length_b   5.18252677
_cell_length_c   6.17084589
_cell_angle_alpha   90.00000253
_cell_angle_beta   114.82955365
_cell_angle_gamma   59.99999473
_symmetry_Int_Tables_number   1
_chemical_formula_structural   Na2GeTeO6
_chemical_formula_sum   'Na2 Ge1 Te1 O6'
_cell_volume   125.53294240
_cell_formula_units_Z   1
loop_
 _symmetry_equiv_pos_site_id
 _symmetry_equiv_pos_as_xyz
  1  'x, y, z'
loop_
 _atom_site_type_symbol
 _atom_site_label
 _atom_site_symmetry_multiplicity
 _atom_site_fract_x
 _atom_site_fract_y
 _atom_site_fract_z
 _atom_site_occupancy
  Na  Na0  1  0.71752364  0.14123818  0.57628546  1
  Na  Na1  1  0.28155187  0.85922407  0.42232780  1
  Ge  Ge2  1  0.32441496  0.33779252  0.98662244  1
  Te  Te3  1  0.67448230  0.66275885  0.01172345  1
  O  O4  1  0.14630741  0.31150174  0.20516533  1
  O  O5  1  0.51666707  0.54219084  0.20516533  1
  O  O6  1  0.74735617  0.94114209  0.20516533  1
  O  O7  1  0.86037731  0.68439512  0.79584829  1
  O  O8  1  0.48024341  0.45522757  0.79584829  1
  O  O9  1  0.25107586  0.06452902  0.79584829  1
