# generated using pymatgen
data_MnCr8Cu3S16
_symmetry_space_group_name_H-M   'P 1'
_cell_length_a   7.00837966
_cell_length_b   9.91132594
_cell_length_c   7.00837966
_cell_angle_alpha   90.00000000
_cell_angle_beta   90.00000000
_cell_angle_gamma   90.00000000
_symmetry_Int_Tables_number   1
_chemical_formula_structural   MnCr8Cu3S16
_chemical_formula_sum   'Mn1 Cr8 Cu3 S16'
_cell_volume   486.81841607
_cell_formula_units_Z   1
loop_
 _symmetry_equiv_pos_site_id
 _symmetry_equiv_pos_as_xyz
  1  'x, y, z'
loop_
 _atom_site_type_symbol
 _atom_site_label
 _atom_site_symmetry_multiplicity
 _atom_site_fract_x
 _atom_site_fract_y
 _atom_site_fract_z
 _atom_site_occupancy
  Mn  Mn0  1  0.75000000  0.37500000  0.00000000  1
  Cr  Cr1  1  0.25000000  0.24961424  0.25616773  1
  Cr  Cr2  1  0.75000000  0.75372054  0.75005672  1
  Cr  Cr3  1  0.25000000  0.24961424  0.74383227  1
  Cr  Cr4  1  0.75000000  0.75372054  0.24994328  1
  Cr  Cr5  1  0.00616773  0.50038576  0.50000000  1
  Cr  Cr6  1  0.50005672  0.99627946  0.00000000  1
  Cr  Cr7  1  -0.00005672  0.99627946  -0.00000000  1
  Cr  Cr8  1  0.49383227  0.50038576  0.50000000  1
  Cu  Cu9  1  0.25000000  0.87500000  0.50000000  1
  Cu  Cu10  1  0.25000000  0.62523590  0.00000000  1
  Cu  Cu11  1  0.75000000  0.12476410  0.50000000  1
  S  S12  1  0.75000000  0.50998491  0.26894699  1
  S  S13  1  0.25000000  0.00831318  0.76609528  1
  S  S14  1  0.75000000  0.50998491  0.73105301  1
  S  S15  1  0.25000000  0.00831318  0.23390472  1
  S  S16  1  0.01894699  0.24001509  -0.00000000  1
  S  S17  1  0.51609528  0.74168682  0.50000000  1
  S  S18  1  0.48105301  0.24001509  0.00000000  1
  S  S19  1  0.98390472  0.74168682  0.50000000  1
  S  S20  1  0.25000000  0.49200420  0.73404191  1
  S  S21  1  0.75000000  0.99169713  0.23440329  1
  S  S22  1  0.25000000  0.49200420  0.26595809  1
  S  S23  1  0.75000000  0.99169713  0.76559671  1
  S  S24  1  0.98440329  0.75830287  0.00000000  1
  S  S25  1  0.48404191  0.25799580  0.50000000  1
  S  S26  1  0.51559671  0.75830287  0.00000000  1
  S  S27  1  0.01595809  0.25799580  0.50000000  1
