# generated using pymatgen
data_Mn2V2O7
_symmetry_space_group_name_H-M   'P 1'
_cell_length_a   5.08359325
_cell_length_b   5.56296555
_cell_length_c   5.56296555
_cell_angle_alpha   107.36911364
_cell_angle_beta   97.14245088
_cell_angle_gamma   97.14245088
_symmetry_Int_Tables_number   1
_chemical_formula_structural   Mn2V2O7
_chemical_formula_sum   'Mn2 V2 O7'
_cell_volume   146.79996079
_cell_formula_units_Z   1
loop_
 _symmetry_equiv_pos_site_id
 _symmetry_equiv_pos_as_xyz
  1  'x, y, z'
loop_
 _atom_site_type_symbol
 _atom_site_label
 _atom_site_symmetry_multiplicity
 _atom_site_fract_x
 _atom_site_fract_y
 _atom_site_fract_z
 _atom_site_occupancy
  Mn  Mn0  1  0.50000000  0.68740370  0.31259630  1
  Mn  Mn1  1  0.50000000  0.31327628  0.68672372  1
  V  V2  1  0.89842429  0.24073622  0.24699053  1
  V  V3  1  0.10157571  0.75300947  0.75926378  1
  O  O4  1  0.70444171  0.07084057  0.40032861  1
  O  O5  1  0.71300156  0.38690988  0.06557962  1
  O  O6  1  0.28699844  0.93442038  0.61309012  1
  O  O7  1  0.29555829  0.59967139  0.92915943  1
  O  O8  1  0.21778020  0.41935545  0.41721614  1
  O  O9  1  0.78221980  0.58278386  0.58064455  1
  O  O10  1  0.00000000  0.98559281  0.01440719  1
