# generated using pymatgen
data_MnNb4FeO12
_symmetry_space_group_name_H-M   'P 1'
_cell_length_a   5.13574746
_cell_length_b   5.87841903
_cell_length_c   14.55731538
_cell_angle_alpha   90.00000000
_cell_angle_beta   90.00000000
_cell_angle_gamma   90.00000000
_symmetry_Int_Tables_number   1
_chemical_formula_structural   MnNb4FeO12
_chemical_formula_sum   'Mn2 Nb8 Fe2 O24'
_cell_volume   439.48645189
_cell_formula_units_Z   2
loop_
 _symmetry_equiv_pos_site_id
 _symmetry_equiv_pos_as_xyz
  1  'x, y, z'
loop_
 _atom_site_type_symbol
 _atom_site_label
 _atom_site_symmetry_multiplicity
 _atom_site_fract_x
 _atom_site_fract_y
 _atom_site_fract_z
 _atom_site_occupancy
  Mn  Mn0  1  0.75000000  0.67205557  0.00000000  1
  Mn  Mn1  1  0.25000000  0.82794443  0.50000000  1
  Nb  Nb2  1  0.25521267  0.31966474  0.66196739  1
  Nb  Nb3  1  0.75521267  0.18033526  0.83803261  1
  Nb  Nb4  1  0.74478733  0.18033526  0.16196739  1
  Nb  Nb5  1  0.24478733  0.31966474  0.33803261  1
  Nb  Nb6  1  0.74340808  0.68066235  0.33776011  1
  Nb  Nb7  1  0.24340808  0.81933765  0.16223989  1
  Nb  Nb8  1  0.25659192  0.81933765  0.83776011  1
  Nb  Nb9  1  0.75659192  0.68066235  0.66223989  1
  Fe  Fe10  1  0.25000000  0.32898414  0.00000000  1
  Fe  Fe11  1  0.75000000  0.17101586  0.50000000  1
  O  O12  1  0.40619633  0.12040543  0.58124213  1
  O  O13  1  0.90619633  0.37959457  0.91875787  1
  O  O14  1  0.59380367  0.37959457  0.08124213  1
  O  O15  1  0.09380367  0.12040543  0.41875787  1
  O  O16  1  0.59757147  0.88245427  0.41976080  1
  O  O17  1  0.09757147  0.61754573  0.08023920  1
  O  O18  1  0.40242853  0.61754573  0.91976080  1
  O  O19  1  0.90242853  0.88245427  0.58023920  1
  O  O20  1  0.41545855  0.12681019  0.24544863  1
  O  O21  1  0.91545855  0.37318981  0.25455137  1
  O  O22  1  0.58454145  0.37318981  0.74544863  1
  O  O23  1  0.08454145  0.12681019  0.75455137  1
  O  O24  1  0.58480129  0.87331195  0.75536728  1
  O  O25  1  0.08480129  0.62668805  0.74463272  1
  O  O26  1  0.41519871  0.62668805  0.25536728  1
  O  O27  1  0.91519871  0.87331195  0.24463272  1
  O  O28  1  0.43335409  0.10194097  0.90238187  1
  O  O29  1  0.93335409  0.39805903  0.59761813  1
  O  O30  1  0.56664591  0.39805903  0.40238187  1
  O  O31  1  0.06664591  0.10194097  0.09761813  1
  O  O32  1  0.56466774  0.89718195  0.09934472  1
  O  O33  1  0.06466774  0.60281805  0.40065528  1
  O  O34  1  0.43533226  0.60281805  0.59934472  1
  O  O35  1  0.93533226  0.89718195  0.90065528  1
