# generated using pymatgen
data_MnCdCu4(GeSe4)2
_symmetry_space_group_name_H-M   'P 1'
_cell_length_a   6.63714401
_cell_length_b   6.91604841
_cell_length_c   8.13552292
_cell_angle_alpha   90.00000000
_cell_angle_beta   90.00000000
_cell_angle_gamma   90.21971846
_symmetry_Int_Tables_number   1
_chemical_formula_structural   MnCdCu4(GeSe4)2
_chemical_formula_sum   'Mn1 Cd1 Cu4 Ge2 Se8'
_cell_volume   373.44061087
_cell_formula_units_Z   1
loop_
 _symmetry_equiv_pos_site_id
 _symmetry_equiv_pos_as_xyz
  1  'x, y, z'
loop_
 _atom_site_type_symbol
 _atom_site_label
 _atom_site_symmetry_multiplicity
 _atom_site_fract_x
 _atom_site_fract_y
 _atom_site_fract_z
 _atom_site_occupancy
  Mn  Mn0  1  0.30327345  0.34033471  -0.00000000  1
  Cd  Cd1  1  0.80400915  0.65986280  0.50000000  1
  Cu  Cu2  1  0.30383090  0.82493770  0.24784723  1
  Cu  Cu3  1  0.30383090  0.82493770  0.75215277  1
  Cu  Cu4  1  0.80051091  0.17700380  0.24770082  1
  Cu  Cu5  1  0.80051091  0.17700380  0.75229918  1
  Ge  Ge6  1  0.30755241  0.32306571  0.50000000  1
  Ge  Ge7  1  0.80738907  0.67334125  -0.00000000  1
  Se  Se8  1  0.43526713  0.15755410  0.25534033  1
  Se  Se9  1  0.43526713  0.15755410  0.74465967  1
  Se  Se10  1  0.93892899  0.85050997  0.23410856  1
  Se  Se11  1  0.93892899  0.85050997  0.76589144  1
  Se  Se12  1  0.94105561  0.29806648  0.50000000  1
  Se  Se13  1  0.43806328  0.68300343  -0.00000000  1
  Se  Se14  1  0.40116576  0.66347512  0.50000000  1
  Se  Se15  1  0.92041540  0.33883936  -0.00000000  1
