# generated using pymatgen
data_MnZn(GaSe2)4
_symmetry_space_group_name_H-M   'P 1'
_cell_length_a   5.65078737
_cell_length_b   5.65078737
_cell_length_c   11.06826614
_cell_angle_alpha   90.00000000
_cell_angle_beta   90.00000000
_cell_angle_gamma   90.00000000
_symmetry_Int_Tables_number   1
_chemical_formula_structural   MnZn(GaSe2)4
_chemical_formula_sum   'Mn1 Zn1 Ga4 Se8'
_cell_volume   353.42521019
_cell_formula_units_Z   1
loop_
 _symmetry_equiv_pos_site_id
 _symmetry_equiv_pos_as_xyz
  1  'x, y, z'
loop_
 _atom_site_type_symbol
 _atom_site_label
 _atom_site_symmetry_multiplicity
 _atom_site_fract_x
 _atom_site_fract_y
 _atom_site_fract_z
 _atom_site_occupancy
  Mn  Mn0  1  0.00000000  0.50000000  0.75000000  1
  Zn  Zn1  1  0.50000000  0.00000000  0.25000000  1
  Ga  Ga2  1  0.00000000  0.00000000  0.00066111  1
  Ga  Ga3  1  0.50000000  0.50000000  0.49933889  1
  Ga  Ga4  1  0.00000000  0.50000000  0.25000000  1
  Ga  Ga5  1  0.50000000  0.00000000  0.75000000  1
  Se  Se6  1  0.74120105  0.73470357  0.11705067  1
  Se  Se7  1  0.24373876  0.23309926  0.61597666  1
  Se  Se8  1  0.25879895  0.26529643  0.11705067  1
  Se  Se9  1  0.75626124  0.76690074  0.61597666  1
  Se  Se10  1  0.76529643  0.24120105  0.38294933  1
  Se  Se11  1  0.26690074  0.74373876  0.88402334  1
  Se  Se12  1  0.23470357  0.75879895  0.38294933  1
  Se  Se13  1  0.73309926  0.25626124  0.88402334  1
