# generated using pymatgen
data_Li2MgSiO4
_symmetry_space_group_name_H-M   'P 1'
_cell_length_a   5.05865983
_cell_length_b   6.36529031
_cell_length_c   10.82596875
_cell_angle_alpha   90.00000000
_cell_angle_beta   90.00000000
_cell_angle_gamma   89.91705254
_symmetry_Int_Tables_number   1
_chemical_formula_structural   Li2MgSiO4
_chemical_formula_sum   'Li8 Mg4 Si4 O16'
_cell_volume   348.59407889
_cell_formula_units_Z   4
loop_
 _symmetry_equiv_pos_site_id
 _symmetry_equiv_pos_as_xyz
  1  'x, y, z'
loop_
 _atom_site_type_symbol
 _atom_site_label
 _atom_site_symmetry_multiplicity
 _atom_site_fract_x
 _atom_site_fract_y
 _atom_site_fract_z
 _atom_site_occupancy
  Li  Li0  1  0.69277439  0.00314517  0.33805626  1
  Li  Li1  1  0.19277439  0.50314517  0.16194374  1
  Li  Li2  1  0.30880690  0.49857707  0.66194612  1
  Li  Li3  1  0.80880690  0.99857707  0.83805388  1
  Li  Li4  1  0.79259216  0.25667505  0.07487795  1
  Li  Li5  1  0.29259216  0.75667505  0.42512205  1
  Li  Li6  1  0.20817997  0.74715313  0.92551000  1
  Li  Li7  1  0.70817997  0.24715313  0.57449000  1
  Mg  Mg8  1  0.30852908  0.99615503  0.66609158  1
  Mg  Mg9  1  0.80852908  0.49615503  0.83390842  1
  Mg  Mg10  1  0.69016700  0.50106164  0.33432747  1
  Mg  Mg11  1  0.19016700  0.00106164  0.16567253  1
  Si  Si12  1  0.68726904  0.75227908  0.08655139  1
  Si  Si13  1  0.18726904  0.25227908  0.41344861  1
  Si  Si14  1  0.31259334  0.24699999  0.91299422  1
  Si  Si15  1  0.81259334  0.74699999  0.58700578  1
  O  O16  1  0.70935452  0.74771339  0.44271977  1
  O  O17  1  0.20935452  0.24771339  0.05728023  1
  O  O18  1  0.29088182  0.24489067  0.55767800  1
  O  O19  1  0.79088182  0.74489067  0.94232200  1
  O  O20  1  0.79347849  0.54019046  0.16096149  1
  O  O21  1  0.29347849  0.04019046  0.33903851  1
  O  O22  1  0.20167895  0.45961747  0.84040773  1
  O  O23  1  0.70167895  0.95961747  0.65959227  1
  O  O24  1  0.36007259  0.75488473  0.09147437  1
  O  O25  1  0.86007259  0.25488473  0.40852563  1
  O  O26  1  0.63967888  0.25097854  0.90843222  1
  O  O27  1  0.13967888  0.75097854  0.59156778  1
  O  O28  1  0.79576962  0.96591187  0.15831925  1
  O  O29  1  0.29576962  0.46591187  0.34168075  1
  O  O30  1  0.20817326  0.03376671  0.84005541  1
  O  O31  1  0.70817326  0.53376671  0.65994459  1
