# generated using pymatgen
data_LaNd3Cr4O12
_symmetry_space_group_name_H-M   'P 1'
_cell_length_a   5.50444123
_cell_length_b   5.60588644
_cell_length_c   7.84440806
_cell_angle_alpha   90.00000000
_cell_angle_beta   90.00000000
_cell_angle_gamma   90.02926868
_symmetry_Int_Tables_number   1
_chemical_formula_structural   LaNd3Cr4O12
_chemical_formula_sum   'La1 Nd3 Cr4 O12'
_cell_volume   242.05700525
_cell_formula_units_Z   1
loop_
 _symmetry_equiv_pos_site_id
 _symmetry_equiv_pos_as_xyz
  1  'x, y, z'
loop_
 _atom_site_type_symbol
 _atom_site_label
 _atom_site_symmetry_multiplicity
 _atom_site_fract_x
 _atom_site_fract_y
 _atom_site_fract_z
 _atom_site_occupancy
  La  La0  1  0.50838427  0.54035786  0.25000000  1
  Nd  Nd1  1  0.98910767  0.04760778  0.25000000  1
  Nd  Nd2  1  0.48870256  0.45052172  0.75000000  1
  Nd  Nd3  1  0.01028270  0.95216376  0.75000000  1
  Cr  Cr4  1  0.99970416  0.50048960  0.99879268  1
  Cr  Cr5  1  0.50046186  0.99899350  0.50083245  1
  Cr  Cr6  1  0.99970416  0.50048960  0.50120732  1
  Cr  Cr7  1  0.50046186  0.99899350  0.99916755  1
  O  O8  1  0.41229844  0.98127684  0.25000000  1
  O  O9  1  0.07981560  0.47563230  0.25000000  1
  O  O10  1  0.58736883  0.02385858  0.75000000  1
  O  O11  1  0.91167469  0.52479806  0.75000000  1
  O  O12  1  0.79663016  0.79560985  0.04409742  1
  O  O13  1  0.70837944  0.29093330  0.45662592  1
  O  O14  1  0.20771386  0.20833687  0.54682225  1
  O  O15  1  0.29329315  0.70752844  0.95208075  1
  O  O16  1  0.20771386  0.20833687  0.95317775  1
  O  O17  1  0.29329315  0.70752844  0.54791925  1
  O  O18  1  0.79663016  0.79560985  0.45590258  1
  O  O19  1  0.70837944  0.29093330  0.04337408  1
