# generated using pymatgen
data_La4FeAs4Ru3O4
_symmetry_space_group_name_H-M   'P 1'
_cell_length_a   5.86913990
_cell_length_b   5.86913990
_cell_length_c   8.64113533
_cell_angle_alpha   90.00000000
_cell_angle_beta   90.00000000
_cell_angle_gamma   90.00000000
_symmetry_Int_Tables_number   1
_chemical_formula_structural   La4FeAs4Ru3O4
_chemical_formula_sum   'La4 Fe1 As4 Ru3 O4'
_cell_volume   297.65948741
_cell_formula_units_Z   1
loop_
 _symmetry_equiv_pos_site_id
 _symmetry_equiv_pos_as_xyz
  1  'x, y, z'
loop_
 _atom_site_type_symbol
 _atom_site_label
 _atom_site_symmetry_multiplicity
 _atom_site_fract_x
 _atom_site_fract_y
 _atom_site_fract_z
 _atom_site_occupancy
  La  La0  1  0.75065527  0.00065527  0.86122047  1
  La  La1  1  0.24934473  0.49934473  0.86122047  1
  La  La2  1  0.24934473  0.00065527  0.13877953  1
  La  La3  1  0.75065527  0.49934473  0.13877953  1
  Fe  Fe4  1  0.50000000  0.75000000  0.50000000  1
  As  As5  1  0.75536092  0.00536092  0.34576093  1
  As  As6  1  0.24463908  0.49463908  0.34576093  1
  As  As7  1  0.24463908  0.00536092  0.65423907  1
  As  As8  1  0.75536092  0.49463908  0.65423907  1
  Ru  Ru9  1  -0.00000000  0.25000000  0.50000000  1
  Ru  Ru10  1  0.50000000  0.25000000  0.50000000  1
  Ru  Ru11  1  -0.00000000  0.75000000  0.50000000  1
  O  O12  1  0.50000000  0.75000000  -0.00000000  1
  O  O13  1  -0.00000000  0.25000000  -0.00000000  1
  O  O14  1  0.50000000  0.25000000  -0.00000000  1
  O  O15  1  -0.00000000  0.75000000  -0.00000000  1
