# generated using pymatgen
data_LaMn8Bi3O20
_symmetry_space_group_name_H-M   'P 1'
_cell_length_a   5.86615135
_cell_length_b   7.66946623
_cell_length_c   8.67757602
_cell_angle_alpha   89.91832798
_cell_angle_beta   90.00000000
_cell_angle_gamma   90.00000000
_symmetry_Int_Tables_number   1
_chemical_formula_structural   LaMn8Bi3O20
_chemical_formula_sum   'La1 Mn8 Bi3 O20'
_cell_volume   390.40591474
_cell_formula_units_Z   1
loop_
 _symmetry_equiv_pos_site_id
 _symmetry_equiv_pos_as_xyz
  1  'x, y, z'
loop_
 _atom_site_type_symbol
 _atom_site_label
 _atom_site_symmetry_multiplicity
 _atom_site_fract_x
 _atom_site_fract_y
 _atom_site_fract_z
 _atom_site_occupancy
  La  La0  1  -0.00000000  0.64266454  0.33246359  1
  Mn  Mn1  1  0.50000000  0.90922537  0.15160451  1
  Mn  Mn2  1  0.50000000  0.09420214  0.84953050  1
  Mn  Mn3  1  0.50000000  0.40309763  0.35075114  1
  Mn  Mn4  1  0.50000000  0.59298606  0.65093294  1
  Mn  Mn5  1  0.25835938  0.50011993  0.99878681  1
  Mn  Mn6  1  0.74197631  0.00058100  0.49944531  1
  Mn  Mn7  1  0.74164062  0.50011993  0.99878681  1
  Mn  Mn8  1  0.25802369  0.00058100  0.49944531  1
  Bi  Bi9  1  -0.00000000  0.34026233  0.66777472  1
  Bi  Bi10  1  -0.00000000  0.15191759  0.16536750  1
  Bi  Bi11  1  -0.00000000  0.84517655  0.83331012  1
  O  O12  1  0.50000000  0.64584411  0.07258334  1
  O  O13  1  0.50000000  0.35434797  0.92780587  1
  O  O14  1  0.50000000  0.14755953  0.42919240  1
  O  O15  1  0.50000000  0.85436362  0.57213464  1
  O  O16  1  0.28283721  0.49888076  0.50039349  1
  O  O17  1  0.71791999  0.00032974  0.99947828  1
  O  O18  1  0.71716279  0.49888076  0.50039349  1
  O  O19  1  0.28208001  0.00032974  0.99947828  1
  O  O20  1  -0.00000000  0.65422870  0.05312842  1
  O  O21  1  -0.00000000  0.34434331  0.94393694  1
  O  O22  1  -0.00000000  0.15639469  0.44371003  1
  O  O23  1  -0.00000000  0.84771851  0.55824732  1
  O  O24  1  0.25239245  0.89370666  0.29781259  1
  O  O25  1  0.25016725  0.11227235  0.70205703  1
  O  O26  1  0.75197490  0.39008901  0.20272163  1
  O  O27  1  0.74909248  0.61185424  0.79806788  1
  O  O28  1  0.74983275  0.11227235  0.70205703  1
  O  O29  1  0.74760755  0.89370666  0.29781259  1
  O  O30  1  0.25090752  0.61185424  0.79806788  1
  O  O31  1  0.24802510  0.39008901  0.20272163  1
