# generated using pymatgen
data_Mg3Fe(SiO4)2
_symmetry_space_group_name_H-M   'P 1'
_cell_length_a   4.84815412
_cell_length_b   6.07248234
_cell_length_c   10.38069239
_cell_angle_alpha   90.00000000
_cell_angle_beta   90.00000000
_cell_angle_gamma   90.29034712
_symmetry_Int_Tables_number   1
_chemical_formula_structural   Mg3Fe(SiO4)2
_chemical_formula_sum   'Mg6 Fe2 Si4 O16'
_cell_volume   305.60708801
_cell_formula_units_Z   2
loop_
 _symmetry_equiv_pos_site_id
 _symmetry_equiv_pos_as_xyz
  1  'x, y, z'
loop_
 _atom_site_type_symbol
 _atom_site_label
 _atom_site_symmetry_multiplicity
 _atom_site_fract_x
 _atom_site_fract_y
 _atom_site_fract_z
 _atom_site_occupancy
  Mg  Mg0  1  0.50000000  0.50000000  0.50000000  1
  Mg  Mg1  1  0.00000000  0.00000000  -0.00000000  1
  Mg  Mg2  1  0.49095875  0.75056976  0.22239472  1
  Mg  Mg3  1  0.00904125  0.74943024  0.72239472  1
  Mg  Mg4  1  0.50904125  0.24943024  0.77760528  1
  Mg  Mg5  1  0.99095875  0.25056976  0.27760528  1
  Fe  Fe6  1  0.50000000  0.00000000  0.50000000  1
  Fe  Fe7  1  0.00000000  0.50000000  -0.00000000  1
  Si  Si8  1  0.92602758  0.74892832  0.40494826  1
  Si  Si9  1  0.57397242  0.75107168  0.90494826  1
  Si  Si10  1  0.07397242  0.25107168  0.59505174  1
  Si  Si11  1  0.42602758  0.24892832  0.09505174  1
  O  O12  1  0.26505353  0.74722374  0.40668024  1
  O  O13  1  0.23494647  0.75277626  0.90668024  1
  O  O14  1  0.73494647  0.25277626  0.59331976  1
  O  O15  1  0.76505353  0.24722374  0.09331976  1
  O  O16  1  0.71375295  0.75371778  0.05237161  1
  O  O17  1  0.78624705  0.74628222  0.55237161  1
  O  O18  1  0.28624705  0.24628222  0.94762839  1
  O  O19  1  0.21375295  0.25371778  0.44762839  1
  O  O20  1  0.78484371  0.96450304  0.33380552  1
  O  O21  1  0.71515629  0.53549696  0.83380552  1
  O  O22  1  0.22321859  0.46673071  0.66345359  1
  O  O23  1  0.27678141  0.03326929  0.16345359  1
  O  O24  1  0.21515629  0.03549696  0.66619448  1
  O  O25  1  0.28484371  0.46450304  0.16619448  1
  O  O26  1  0.77678141  0.53326929  0.33654641  1
  O  O27  1  0.72321859  0.96673071  0.83654641  1
