# generated using pymatgen
data_LaNi2GeP
_symmetry_space_group_name_H-M   'P 1'
_cell_length_a   4.09748349
_cell_length_b   4.09748349
_cell_length_c   5.73006501
_cell_angle_alpha   69.05065117
_cell_angle_beta   69.05065117
_cell_angle_gamma   90.00000000
_symmetry_Int_Tables_number   1
_chemical_formula_structural   LaNi2GeP
_chemical_formula_sum   'La1 Ni2 Ge1 P1'
_cell_volume   82.99955815
_cell_formula_units_Z   1
loop_
 _symmetry_equiv_pos_site_id
 _symmetry_equiv_pos_as_xyz
  1  'x, y, z'
loop_
 _atom_site_type_symbol
 _atom_site_label
 _atom_site_symmetry_multiplicity
 _atom_site_fract_x
 _atom_site_fract_y
 _atom_site_fract_z
 _atom_site_occupancy
  La  La0  1  0.99692120  0.99692120  0.00615760  1
  Ni  Ni1  1  0.75539716  0.25539716  0.48920567  1
  Ni  Ni2  1  0.25539716  0.75539716  0.48920567  1
  Ge  Ge3  1  0.62838648  0.62838648  0.74322703  1
  P  P4  1  0.36389799  0.36389799  0.27220402  1
