# generated using pymatgen
data_LaPrCr2O6
_symmetry_space_group_name_H-M   'P 1'
_cell_length_a   5.59880729
_cell_length_b   5.56844932
_cell_length_c   7.88302944
_cell_angle_alpha   90.00000000
_cell_angle_beta   90.00000000
_cell_angle_gamma   90.00000000
_symmetry_Int_Tables_number   1
_chemical_formula_structural   LaPrCr2O6
_chemical_formula_sum   'La2 Pr2 Cr4 O12'
_cell_volume   245.76664408
_cell_formula_units_Z   2
loop_
 _symmetry_equiv_pos_site_id
 _symmetry_equiv_pos_as_xyz
  1  'x, y, z'
loop_
 _atom_site_type_symbol
 _atom_site_label
 _atom_site_symmetry_multiplicity
 _atom_site_fract_x
 _atom_site_fract_y
 _atom_site_fract_z
 _atom_site_occupancy
  La  La0  1  0.53296860  0.50778928  0.25000000  1
  La  La1  1  0.03296860  0.99221072  0.25000000  1
  Pr  Pr2  1  0.45989171  0.49012498  0.75000000  1
  Pr  Pr3  1  0.95989171  0.00987502  0.75000000  1
  Cr  Cr4  1  0.49965954  0.99954745  0.99900609  1
  Cr  Cr5  1  0.99965954  0.50045255  0.50099391  1
  Cr  Cr6  1  0.49965954  0.99954745  0.50099391  1
  Cr  Cr7  1  0.99965954  0.50045255  0.99900609  1
  O  O8  1  0.02043005  0.58440666  0.75000000  1
  O  O9  1  0.52043005  0.91559334  0.75000000  1
  O  O10  1  0.98278362  0.41949342  0.25000000  1
  O  O11  1  0.48278362  0.08050658  0.25000000  1
  O  O12  1  0.28718390  0.71270598  0.45744184  1
  O  O13  1  0.78718390  0.78729402  0.04255816  1
  O  O14  1  0.71511957  0.28490310  0.95354925  1
  O  O15  1  0.21511957  0.21509690  0.54645075  1
  O  O16  1  0.71511957  0.28490310  0.54645075  1
  O  O17  1  0.21511957  0.21509690  0.95354925  1
  O  O18  1  0.28718390  0.71270598  0.04255816  1
  O  O19  1  0.78718390  0.78729402  0.45744184  1
