# generated using pymatgen
data_LiTaGeO5
_symmetry_space_group_name_H-M   'P 1'
_cell_length_a   5.62142672
_cell_length_b   5.62142672
_cell_length_c   7.56819732
_cell_angle_alpha   109.61844013
_cell_angle_beta   109.61844013
_cell_angle_gamma   94.02331534
_symmetry_Int_Tables_number   1
_chemical_formula_structural   LiTaGeO5
_chemical_formula_sum   'Li2 Ta2 Ge2 O10'
_cell_volume   207.64065769
_cell_formula_units_Z   2
loop_
 _symmetry_equiv_pos_site_id
 _symmetry_equiv_pos_as_xyz
  1  'x, y, z'
loop_
 _atom_site_type_symbol
 _atom_site_label
 _atom_site_symmetry_multiplicity
 _atom_site_fract_x
 _atom_site_fract_y
 _atom_site_fract_z
 _atom_site_occupancy
  Li  Li0  1  0.30728168  0.69059234  0.71820713  1
  Li  Li1  1  0.69059234  0.30728168  0.21820713  1
  Ta  Ta2  1  0.99564610  0.00493614  0.49739932  1
  Ta  Ta3  1  0.00493614  0.99564610  0.99739932  1
  Ge  Ge4  1  0.35982535  0.64073703  0.25335995  1
  Ge  Ge5  1  0.64073703  0.35982535  0.75335995  1
  O  O6  1  0.23532368  0.76109573  0.44400625  1
  O  O7  1  0.23658731  0.76548435  0.06304270  1
  O  O8  1  0.76548435  0.23658731  0.56304270  1
  O  O9  1  0.76109573  0.23532368  0.94400625  1
  O  O10  1  0.30020699  0.30265878  0.64736193  1
  O  O11  1  0.69665932  0.70031623  0.84740627  1
  O  O12  1  0.70031623  0.69665932  0.34740627  1
  O  O13  1  0.30265878  0.30020699  0.14736193  1
  O  O14  1  0.06743222  0.93321675  0.74821644  1
  O  O15  1  0.93321675  0.06743222  0.24821644  1
