# generated using pymatgen
data_LiLa3MnO7
_symmetry_space_group_name_H-M   'P 1'
_cell_length_a   5.50775392
_cell_length_b   5.45364964
_cell_length_c   10.53590990
_cell_angle_alpha   90.00000000
_cell_angle_beta   74.74169397
_cell_angle_gamma   90.00000000
_symmetry_Int_Tables_number   1
_chemical_formula_structural   LiLa3MnO7
_chemical_formula_sum   'Li2 La6 Mn2 O14'
_cell_volume   305.31506191
_cell_formula_units_Z   2
loop_
 _symmetry_equiv_pos_site_id
 _symmetry_equiv_pos_as_xyz
  1  'x, y, z'
loop_
 _atom_site_type_symbol
 _atom_site_label
 _atom_site_symmetry_multiplicity
 _atom_site_fract_x
 _atom_site_fract_y
 _atom_site_fract_z
 _atom_site_occupancy
  Li  Li0  1  0.84715005  0.25000000  0.81012589  1
  Li  Li1  1  0.15284995  0.75000000  0.18987411  1
  La  La2  1  0.24774214  0.25000000  0.00014829  1
  La  La3  1  0.75225786  0.75000000  0.99985171  1
  La  La4  1  0.07354824  0.25000000  0.35814238  1
  La  La5  1  0.55339088  0.75000000  0.35734592  1
  La  La6  1  0.92645176  0.75000000  0.64185762  1
  La  La7  1  0.44660912  0.25000000  0.64265408  1
  Mn  Mn8  1  0.34334781  0.75000000  0.80762949  1
  Mn  Mn9  1  0.65665219  0.25000000  0.19237051  1
  O  O10  1  0.58227111  0.50528271  0.81775531  1
  O  O11  1  0.58227111  0.99471729  0.81775531  1
  O  O12  1  0.41772889  0.49471729  0.18224469  1
  O  O13  1  0.41772889  0.00528271  0.18224469  1
  O  O14  1  0.88927572  0.00332959  0.20649050  1
  O  O15  1  0.88927572  0.49667041  0.20649050  1
  O  O16  1  0.11072428  0.99667041  0.79350950  1
  O  O17  1  0.11072428  0.50332959  0.79350950  1
  O  O18  1  0.21447144  0.75000000  0.99100070  1
  O  O19  1  0.78552856  0.25000000  0.00899930  1
  O  O20  1  0.91088461  0.25000000  0.58313396  1
  O  O21  1  0.47504572  0.75000000  0.60114419  1
  O  O22  1  0.08911539  0.75000000  0.41686604  1
  O  O23  1  0.52495428  0.25000000  0.39885581  1
