# generated using pymatgen
data_KTaTiO5
_symmetry_space_group_name_H-M   'P 1'
_cell_length_a   3.82744856
_cell_length_b   6.48201370
_cell_length_c   18.96781218
_cell_angle_alpha   90.00000000
_cell_angle_beta   90.00000000
_cell_angle_gamma   90.00000000
_symmetry_Int_Tables_number   1
_chemical_formula_structural   KTaTiO5
_chemical_formula_sum   'K4 Ta4 Ti4 O20'
_cell_volume   470.58333994
_cell_formula_units_Z   4
loop_
 _symmetry_equiv_pos_site_id
 _symmetry_equiv_pos_as_xyz
  1  'x, y, z'
loop_
 _atom_site_type_symbol
 _atom_site_label
 _atom_site_symmetry_multiplicity
 _atom_site_fract_x
 _atom_site_fract_y
 _atom_site_fract_z
 _atom_site_occupancy
  K  K0  1  0.75000000  0.72309371  0.30483428  1
  K  K1  1  0.75000000  0.22309371  0.19516572  1
  K  K2  1  0.25000000  0.27690629  0.69516572  1
  K  K3  1  0.25000000  0.77690629  0.80483428  1
  Ta  Ta4  1  0.75000000  0.72771057  0.60776551  1
  Ta  Ta5  1  0.75000000  0.22771057  0.89223449  1
  Ta  Ta6  1  0.25000000  0.27228943  0.39223449  1
  Ta  Ta7  1  0.25000000  0.77228943  0.10776551  1
  Ti  Ti8  1  0.75000000  0.18147445  0.53394953  1
  Ti  Ti9  1  0.75000000  0.68147445  0.96605047  1
  Ti  Ti10  1  0.25000000  0.81852555  0.46605047  1
  Ti  Ti11  1  0.25000000  0.31852555  0.03394953  1
  O  O12  1  0.75000000  0.85280133  0.49090209  1
  O  O13  1  0.75000000  0.35280133  0.00909791  1
  O  O14  1  0.25000000  0.14719867  0.50909791  1
  O  O15  1  0.25000000  0.64719867  0.99090209  1
  O  O16  1  0.75000000  0.65878920  0.70057953  1
  O  O17  1  0.75000000  0.15878920  0.79942047  1
  O  O18  1  0.25000000  0.34121080  0.29942047  1
  O  O19  1  0.25000000  0.84121080  0.20057953  1
  O  O20  1  0.75000000  0.43605285  0.57061388  1
  O  O21  1  0.75000000  0.93605285  0.92938612  1
  O  O22  1  0.25000000  0.56394715  0.42938612  1
  O  O23  1  0.25000000  0.06394715  0.07061388  1
  O  O24  1  0.75000000  0.26179195  0.42028066  1
  O  O25  1  0.75000000  0.76179195  0.07971934  1
  O  O26  1  0.25000000  0.73820805  0.57971934  1
  O  O27  1  0.25000000  0.23820805  0.92028066  1
  O  O28  1  0.75000000  0.03642537  0.61846272  1
  O  O29  1  0.75000000  0.53642537  0.88153728  1
  O  O30  1  0.25000000  0.96357463  0.38153728  1
  O  O31  1  0.25000000  0.46357463  0.11846272  1
