# generated using pymatgen
data_KTiNbO5
_symmetry_space_group_name_H-M   'P 1'
_cell_length_a   3.82199120
_cell_length_b   6.54346593
_cell_length_c   18.73839127
_cell_angle_alpha   90.00000000
_cell_angle_beta   90.00000000
_cell_angle_gamma   90.00000000
_symmetry_Int_Tables_number   1
_chemical_formula_structural   KTiNbO5
_chemical_formula_sum   'K4 Ti4 Nb4 O20'
_cell_volume   468.62972400
_cell_formula_units_Z   4
loop_
 _symmetry_equiv_pos_site_id
 _symmetry_equiv_pos_as_xyz
  1  'x, y, z'
loop_
 _atom_site_type_symbol
 _atom_site_label
 _atom_site_symmetry_multiplicity
 _atom_site_fract_x
 _atom_site_fract_y
 _atom_site_fract_z
 _atom_site_occupancy
  K  K0  1  0.75000000  0.71231248  0.30631551  1
  K  K1  1  0.75000000  0.21231248  0.19368449  1
  K  K2  1  0.25000000  0.28768752  0.69368449  1
  K  K3  1  0.25000000  0.78768752  0.80631551  1
  Ti  Ti4  1  0.75000000  0.18283835  0.53470865  1
  Ti  Ti5  1  0.75000000  0.68283835  0.96529135  1
  Ti  Ti6  1  0.25000000  0.81716165  0.46529135  1
  Ti  Ti7  1  0.25000000  0.31716165  0.03470865  1
  Nb  Nb8  1  0.75000000  0.72899533  0.61031970  1
  Nb  Nb9  1  0.75000000  0.22899533  0.88968030  1
  Nb  Nb10  1  0.25000000  0.27100467  0.38968030  1
  Nb  Nb11  1  0.25000000  0.77100467  0.11031970  1
  O  O12  1  0.75000000  0.03340305  0.61986330  1
  O  O13  1  0.75000000  0.53340305  0.88013670  1
  O  O14  1  0.25000000  0.96659695  0.38013670  1
  O  O15  1  0.25000000  0.46659695  0.11986330  1
  O  O16  1  0.75000000  0.66684565  0.70433973  1
  O  O17  1  0.75000000  0.16684565  0.79566027  1
  O  O18  1  0.25000000  0.33315435  0.29566027  1
  O  O19  1  0.25000000  0.83315435  0.20433973  1
  O  O20  1  0.75000000  0.85398716  0.48974889  1
  O  O21  1  0.75000000  0.35398716  0.01025111  1
  O  O22  1  0.25000000  0.14601284  0.51025111  1
  O  O23  1  0.25000000  0.64601284  0.98974889  1
  O  O24  1  0.75000000  0.26638398  0.42171712  1
  O  O25  1  0.75000000  0.76638398  0.07828288  1
  O  O26  1  0.25000000  0.73361602  0.57828288  1
  O  O27  1  0.25000000  0.23361602  0.92171712  1
  O  O28  1  0.75000000  0.43026419  0.57596317  1
  O  O29  1  0.75000000  0.93026419  0.92403683  1
  O  O30  1  0.25000000  0.56973581  0.42403683  1
  O  O31  1  0.25000000  0.06973581  0.07596317  1
