# generated using pymatgen
data_Fe3Rh3S8
_symmetry_space_group_name_H-M   'P 1'
_cell_length_a   6.80660220
_cell_length_b   6.80660220
_cell_length_c   6.77441921
_cell_angle_alpha   90.00000000
_cell_angle_beta   59.84272456
_cell_angle_gamma   120.00000000
_symmetry_Int_Tables_number   1
_chemical_formula_structural   Fe3Rh3S8
_chemical_formula_sum   'Fe3 Rh3 S8'
_cell_volume   221.40187567
_cell_formula_units_Z   1
loop_
 _symmetry_equiv_pos_site_id
 _symmetry_equiv_pos_as_xyz
  1  'x, y, z'
loop_
 _atom_site_type_symbol
 _atom_site_label
 _atom_site_symmetry_multiplicity
 _atom_site_fract_x
 _atom_site_fract_y
 _atom_site_fract_z
 _atom_site_occupancy
  Fe  Fe0  1  0.50010254  0.75005127  0.74984619  1
  Fe  Fe1  1  0.99989746  0.99994873  0.00015381  1
  Fe  Fe2  1  0.75000000  0.37500000  0.87500000  1
  Rh  Rh3  1  0.25000000  0.37500000  0.37500000  1
  Rh  Rh4  1  0.25000000  0.87500000  0.37500000  1
  Rh  Rh5  1  0.75000000  0.37500000  0.37500000  1
  S  S6  1  0.25284866  0.12642433  0.62072701  1
  S  S7  1  0.74984297  0.13490290  0.11525413  1
  S  S8  1  0.74984297  0.61494007  0.11525413  1
  S  S9  1  0.26980580  0.13490290  0.11525413  1
  S  S10  1  0.24715134  0.62357567  0.12927299  1
  S  S11  1  0.75015703  0.61509710  0.63474587  1
  S  S12  1  0.75015703  0.13505993  0.63474587  1
  S  S13  1  0.23019420  0.61509710  0.63474587  1
