# generated using pymatgen
data_KCr5Se8
_symmetry_space_group_name_H-M   'P 1'
_cell_length_a   3.69759037
_cell_length_b   9.05542302
_cell_length_c   9.63902865
_cell_angle_alpha   104.43981267
_cell_angle_beta   78.94197261
_cell_angle_gamma   90.00000000
_symmetry_Int_Tables_number   1
_chemical_formula_structural   KCr5Se8
_chemical_formula_sum   'K1 Cr5 Se8'
_cell_volume   306.35881178
_cell_formula_units_Z   1
loop_
 _symmetry_equiv_pos_site_id
 _symmetry_equiv_pos_as_xyz
  1  'x, y, z'
loop_
 _atom_site_type_symbol
 _atom_site_label
 _atom_site_symmetry_multiplicity
 _atom_site_fract_x
 _atom_site_fract_y
 _atom_site_fract_z
 _atom_site_occupancy
  K  K0  1  0.55078278  0.50000000  0.00000000  1
  Cr  Cr1  1  0.65850079  0.01998474  0.68402068  1
  Cr  Cr2  1  0.34252147  0.98001526  0.31597932  1
  Cr  Cr3  1  0.29579743  0.33561905  0.40878779  1
  Cr  Cr4  1  0.70458522  0.66438095  0.59121221  1
  Cr  Cr5  1  0.00014721  0.00000000  0.00000000  1
  Se  Se6  1  0.83028505  0.49097327  0.34062409  1
  Se  Se7  1  0.17090915  0.50902673  0.65937591  1
  Se  Se8  1  0.08787585  0.17249652  0.82753567  1
  Se  Se9  1  0.91541152  0.82750348  0.17246433  1
  Se  Se10  1  0.76136525  0.15685154  0.47744250  1
  Se  Se11  1  0.23880775  0.84314846  0.52255750  1
  Se  Se12  1  0.42568199  0.15723109  0.14864657  1
  Se  Se13  1  0.57432856  0.84276891  0.85135343  1
