# generated using pymatgen
data_La4Mn(NiO4)3
_symmetry_space_group_name_H-M   'P 1'
_cell_length_a   5.45476490
_cell_length_b   5.45691003
_cell_length_c   9.57218768
_cell_angle_alpha   74.09357863
_cell_angle_beta   91.27800640
_cell_angle_gamma   61.27677442
_symmetry_Int_Tables_number   1
_chemical_formula_structural   La4Mn(NiO4)3
_chemical_formula_sum   'La4 Mn1 Ni3 O12'
_cell_volume   236.25925400
_cell_formula_units_Z   1
loop_
 _symmetry_equiv_pos_site_id
 _symmetry_equiv_pos_as_xyz
  1  'x, y, z'
loop_
 _atom_site_type_symbol
 _atom_site_label
 _atom_site_symmetry_multiplicity
 _atom_site_fract_x
 _atom_site_fract_y
 _atom_site_fract_z
 _atom_site_occupancy
  La  La0  1  0.37293963  0.25196171  0.12090768  1
  La  La1  1  0.87581708  0.24731317  0.62868598  1
  La  La2  1  0.12418292  0.75268683  0.37131402  1
  La  La3  1  0.62706037  0.74803829  0.87909232  1
  Mn  Mn4  1  0.50000000  0.00000000  0.50000000  1
  Ni  Ni5  1  0.74884465  0.50032700  0.25122600  1
  Ni  Ni6  1  0.25115535  0.49967300  0.74877400  1
  Ni  Ni7  1  -0.00000000  0.00000000  0.00000000  1
  O  O8  1  0.93896377  0.69187174  0.12153925  1
  O  O9  1  0.44327797  0.68995568  0.61906537  1
  O  O10  1  0.10054626  0.23961917  0.41249451  1
  O  O11  1  0.60215971  0.24287430  0.90825409  1
  O  O12  1  0.58361392  0.82538228  0.34443500  1
  O  O13  1  0.08988706  0.81588771  0.84659767  1
  O  O14  1  0.39784029  0.75712570  0.09174591  1
  O  O15  1  0.89945374  0.76038083  0.58750549  1
  O  O16  1  0.91011294  0.18411229  0.15340233  1
  O  O17  1  0.41638608  0.17461772  0.65556500  1
  O  O18  1  0.55672203  0.31004432  0.38093463  1
  O  O19  1  0.06103623  0.30812826  0.87846075  1
