# generated using pymatgen
data_KRbTi4(PO4)6
_symmetry_space_group_name_H-M   'P 1'
_cell_length_a   8.45515794
_cell_length_b   8.45515749
_cell_length_c   9.26120582
_cell_angle_alpha   62.83963221
_cell_angle_beta   117.16036923
_cell_angle_gamma   120.00000247
_symmetry_Int_Tables_number   1
_chemical_formula_structural   KRbTi4(PO4)6
_chemical_formula_sum   'K1 Rb1 Ti4 P6 O24'
_cell_volume   487.25887066
_cell_formula_units_Z   1
loop_
 _symmetry_equiv_pos_site_id
 _symmetry_equiv_pos_as_xyz
  1  'x, y, z'
loop_
 _atom_site_type_symbol
 _atom_site_label
 _atom_site_symmetry_multiplicity
 _atom_site_fract_x
 _atom_site_fract_y
 _atom_site_fract_z
 _atom_site_occupancy
  K  K0  1  0.00000000  0.00000000  0.00000000  1
  Rb  Rb1  1  0.50000000  0.50000000  0.50000000  1
  Ti  Ti2  1  0.34966335  0.65033665  0.04899005  1
  Ti  Ti3  1  0.84982759  0.15017241  0.54948277  1
  Ti  Ti4  1  0.65033665  0.34966335  0.95100995  1
  Ti  Ti5  1  0.15017241  0.84982759  0.45051723  1
  P  P6  1  0.24986066  0.46873774  0.75022599  1
  P  P7  1  0.96910307  0.75013934  0.75022599  1
  P  P8  1  0.53126226  0.03089693  0.75022599  1
  P  P9  1  0.03089693  0.24986066  0.24977401  1
  P  P10  1  0.46873774  0.96910307  0.24977401  1
  P  P11  1  0.75013934  0.53126226  0.24977401  1
  O  O12  1  0.35014230  0.01214505  0.59525687  1
  O  O13  1  0.25725961  0.64985770  0.59525687  1
  O  O14  1  0.98785495  0.74274039  0.59525687  1
  O  O15  1  0.48786618  0.15036868  0.09511389  1
  O  O16  1  0.75761638  0.51213382  0.09511389  1
  O  O17  1  0.84963132  0.24238362  0.09511389  1
  O  O18  1  0.64985770  0.98785495  0.40474313  1
  O  O19  1  0.74274039  0.35014230  0.40474313  1
  O  O20  1  0.01214505  0.25725961  0.40474313  1
  O  O21  1  0.51213382  0.84963132  0.90488611  1
  O  O22  1  0.24238362  0.48786618  0.90488611  1
  O  O23  1  0.15036868  0.75761638  0.90488611  1
  O  O24  1  0.56968902  0.20018732  0.80098588  1
  O  O25  1  0.43148418  0.43031098  0.80098588  1
  O  O26  1  0.79981268  0.56851582  0.80098588  1
  O  O27  1  0.29852147  0.93068718  0.29926771  1
  O  O28  1  0.93143342  0.70147853  0.29926771  1
  O  O29  1  0.06931282  0.06856658  0.29926771  1
  O  O30  1  0.43031098  0.79981268  0.19901412  1
  O  O31  1  0.56851582  0.56968902  0.19901412  1
  O  O32  1  0.20018732  0.43148418  0.19901412  1
  O  O33  1  0.70147853  0.06931282  0.70073229  1
  O  O34  1  0.06856658  0.29852147  0.70073229  1
  O  O35  1  0.93068718  0.93143342  0.70073229  1
