# generated using pymatgen
data_La4MgCr3O12
_symmetry_space_group_name_H-M   'P 1'
_cell_length_a   5.56272639
_cell_length_b   5.57518639
_cell_length_c   7.92125564
_cell_angle_alpha   89.76013741
_cell_angle_beta   90.23147924
_cell_angle_gamma   89.88353445
_symmetry_Int_Tables_number   1
_chemical_formula_structural   La4MgCr3O12
_chemical_formula_sum   'La4 Mg1 Cr3 O12'
_cell_volume   245.65910086
_cell_formula_units_Z   1
loop_
 _symmetry_equiv_pos_site_id
 _symmetry_equiv_pos_as_xyz
  1  'x, y, z'
loop_
 _atom_site_type_symbol
 _atom_site_label
 _atom_site_symmetry_multiplicity
 _atom_site_fract_x
 _atom_site_fract_y
 _atom_site_fract_z
 _atom_site_occupancy
  La  La0  1  0.46855118  0.48918503  0.74930475  1
  La  La1  1  0.97307439  0.00044295  0.74912567  1
  La  La2  1  0.53144882  0.51081497  0.25069525  1
  La  La3  1  0.02692561  0.99955705  0.25087433  1
  Mg  Mg4  1  -0.00000000  0.50000000  -0.00000000  1
  Cr  Cr5  1  0.50000000  0.00000000  0.50000000  1
  Cr  Cr6  1  -0.00000000  0.50000000  0.50000000  1
  Cr  Cr7  1  0.50000000  0.00000000  -0.00000000  1
  O  O8  1  0.01751465  0.57720550  0.74675144  1
  O  O9  1  0.51514581  0.91679959  0.75132184  1
  O  O10  1  0.98248535  0.42279450  0.25324856  1
  O  O11  1  0.48485419  0.08320041  0.24867816  1
  O  O12  1  0.22951659  0.20787211  0.95877640  1
  O  O13  1  0.71361585  0.28390151  0.54426838  1
  O  O14  1  0.78443297  0.78658755  0.45597574  1
  O  O15  1  0.28962354  0.73424653  0.04152137  1
  O  O16  1  0.77048341  0.79212789  0.04122360  1
  O  O17  1  0.28638415  0.71609849  0.45573162  1
  O  O18  1  0.21556703  0.21341245  0.54402426  1
  O  O19  1  0.71037646  0.26575347  0.95847863  1
