# generated using pymatgen
data_La3Si2ClO8
_symmetry_space_group_name_H-M   'P 1'
_cell_length_a   6.57507912
_cell_length_b   8.03350499
_cell_length_c   8.91131789
_cell_angle_alpha   97.42488340
_cell_angle_beta   90.00000000
_cell_angle_gamma   65.84361366
_symmetry_Int_Tables_number   1
_chemical_formula_structural   La3Si2ClO8
_chemical_formula_sum   'La6 Si4 Cl2 O16'
_cell_volume   425.15617709
_cell_formula_units_Z   2
loop_
 _symmetry_equiv_pos_site_id
 _symmetry_equiv_pos_as_xyz
  1  'x, y, z'
loop_
 _atom_site_type_symbol
 _atom_site_label
 _atom_site_symmetry_multiplicity
 _atom_site_fract_x
 _atom_site_fract_y
 _atom_site_fract_z
 _atom_site_occupancy
  La  La0  1  0.58087102  0.63109873  0.32935228  1
  La  La1  1  0.21152068  0.36928302  0.17082988  1
  La  La2  1  0.41919630  0.36928302  0.67082988  1
  La  La3  1  0.78803024  0.63109873  0.82935228  1
  La  La4  1  0.93155160  0.99944602  0.24955011  1
  La  La5  1  0.06900238  0.99944602  0.74955011  1
  Si  Si6  1  0.78499459  0.31674482  0.02656236  1
  Si  Si7  1  0.10197225  0.68308865  0.47333287  1
  Si  Si8  1  0.21493910  0.68308865  0.97333287  1
  Si  Si9  1  0.89826060  0.31674482  0.52656236  1
  Cl  Cl10  1  0.48012194  0.98941458  0.22900246  1
  Cl  Cl11  1  0.53046348  0.98941458  0.72900246  1
  O  O12  1  0.27183703  0.69113773  0.15245423  1
  O  O13  1  0.96506729  0.30778482  0.34757038  1
  O  O14  1  0.72714789  0.30778482  0.84757038  1
  O  O15  1  0.03702525  0.69113773  0.65245423  1
  O  O16  1  0.19982884  0.84257826  0.46690399  1
  O  O17  1  0.04236491  0.15749277  0.03229147  1
  O  O18  1  0.80014232  0.15749277  0.53229147  1
  O  O19  1  0.95759290  0.84257826  0.96690399  1
  O  O20  1  0.31510107  0.48113699  0.41889706  1
  O  O21  1  0.79686574  0.51836277  0.08101703  1
  O  O22  1  0.68477149  0.51836277  0.58101703  1
  O  O23  1  0.20376193  0.48113699  0.91889706  1
  O  O24  1  0.61831946  0.28920331  0.14730792  1
  O  O25  1  0.90709764  0.71122754  0.35292795  1
  O  O26  1  0.38167482  0.71122754  0.85292795  1
  O  O27  1  0.09247724  0.28920331  0.64730792  1
