# generated using pymatgen
data_K2VOF4
_symmetry_space_group_name_H-M   'P 1'
_cell_length_a   5.75143607
_cell_length_b   7.55104333
_cell_length_c   11.71590492
_cell_angle_alpha   90.00000000
_cell_angle_beta   90.00000000
_cell_angle_gamma   90.00000000
_symmetry_Int_Tables_number   1
_chemical_formula_structural   K2VOF4
_chemical_formula_sum   'K8 V4 O4 F16'
_cell_volume   508.81405302
_cell_formula_units_Z   4
loop_
 _symmetry_equiv_pos_site_id
 _symmetry_equiv_pos_as_xyz
  1  'x, y, z'
loop_
 _atom_site_type_symbol
 _atom_site_label
 _atom_site_symmetry_multiplicity
 _atom_site_fract_x
 _atom_site_fract_y
 _atom_site_fract_z
 _atom_site_occupancy
  K  K0  1  0.75235987  0.51381797  0.77650537  1
  K  K1  1  0.74764013  0.01381797  0.72349463  1
  K  K2  1  0.25235987  0.48618203  0.22349463  1
  K  K3  1  0.24764013  0.98618203  0.27650537  1
  K  K4  1  0.75374805  0.82982927  0.08940452  1
  K  K5  1  0.74625195  0.32982927  0.41059548  1
  K  K6  1  0.25374805  0.17017073  0.91059548  1
  K  K7  1  0.24625195  0.67017073  0.58940452  1
  V  V8  1  0.77752405  0.31697794  0.06570782  1
  V  V9  1  0.72247595  0.81697794  0.43429218  1
  V  V10  1  0.27752405  0.68302206  0.93429218  1
  V  V11  1  0.22247595  0.18302206  0.56570782  1
  O  O12  1  0.98315182  0.18231544  0.11305628  1
  O  O13  1  0.51684818  0.68231544  0.38694372  1
  O  O14  1  0.48315182  0.81768456  0.88694372  1
  O  O15  1  0.01684818  0.31768456  0.61305628  1
  F  F16  1  0.74314605  0.22420059  0.90943823  1
  F  F17  1  0.75685395  0.72420059  0.59056177  1
  F  F18  1  0.24314605  0.77579941  0.09056177  1
  F  F19  1  0.25685395  0.27579941  0.40943823  1
  F  F20  1  0.99231384  0.50083115  0.00003287  1
  F  F21  1  0.50768616  0.00083115  0.49996713  1
  F  F22  1  0.49231384  0.49916885  -0.00003287  1
  F  F23  1  0.00768616  0.99916885  0.50003287  1
  F  F24  1  0.74236105  0.47226114  0.19555026  1
  F  F25  1  0.75763895  0.97226114  0.30444974  1
  F  F26  1  0.24236105  0.52773886  0.80444974  1
  F  F27  1  0.25763895  0.02773886  0.69555026  1
  F  F28  1  0.00688582  0.81547640  0.88781938  1
  F  F29  1  0.49311418  0.31547640  0.61218062  1
  F  F30  1  0.50688582  0.18452360  0.11218062  1
  F  F31  1  0.99311418  0.68452360  0.38781938  1
