# generated using pymatgen
data_KNa2LiTi2MnFe(SiO3)8
_symmetry_space_group_name_H-M   'P 1'
_cell_length_a   10.14416503
_cell_length_b   10.48244886
_cell_length_c   10.48244886
_cell_angle_alpha   74.98874934
_cell_angle_beta   69.93350219
_cell_angle_gamma   69.93350219
_symmetry_Int_Tables_number   1
_chemical_formula_structural   KNa2LiTi2MnFe(SiO3)8
_chemical_formula_sum   'K2 Na4 Li2 Ti4 Mn2 Fe2 Si16 O48'
_cell_volume   970.74421756
_cell_formula_units_Z   2
loop_
 _symmetry_equiv_pos_site_id
 _symmetry_equiv_pos_as_xyz
  1  'x, y, z'
loop_
 _atom_site_type_symbol
 _atom_site_label
 _atom_site_symmetry_multiplicity
 _atom_site_fract_x
 _atom_site_fract_y
 _atom_site_fract_z
 _atom_site_occupancy
  K  K0  1  0.75027130  0.58056494  0.41831085  1
  K  K1  1  0.25027130  0.41831085  0.58056494  1
  Na  Na2  1  0.80239404  0.53759154  0.93681788  1
  Na  Na3  1  0.69116471  0.06505594  0.46380827  1
  Na  Na4  1  0.19116471  0.46380827  0.06505594  1
  Na  Na5  1  0.30239404  0.93681788  0.53759154  1
  Li  Li6  1  0.74549865  0.06815357  0.93591946  1
  Li  Li7  1  0.24549865  0.93591946  0.06815357  1
  Ti  Ti8  1  0.88153912  0.03589771  0.14196689  1
  Ti  Ti9  1  0.38153912  0.14196689  0.03589771  1
  Ti  Ti10  1  0.89625234  0.01946389  0.66428069  1
  Ti  Ti11  1  0.39625234  0.66428069  0.01946389  1
  Mn  Mn12  1  0.61576673  0.85327352  0.96651465  1
  Mn  Mn13  1  0.11576673  0.96651465  0.85327352  1
  Fe  Fe14  1  0.59893228  0.34355446  0.97764904  1
  Fe  Fe15  1  0.09893228  0.97764904  0.34355446  1
  Si  Si16  1  0.55852863  0.44963129  0.26058374  1
  Si  Si17  1  0.94037394  0.73872399  0.55284791  1
  Si  Si18  1  0.44037394  0.55284791  0.73872399  1
  Si  Si19  1  0.05852863  0.26058374  0.44963129  1
  Si  Si20  1  0.57954152  0.95967889  0.25256826  1
  Si  Si21  1  0.91882445  0.74415179  0.04513908  1
  Si  Si22  1  0.41882445  0.04513908  0.74415179  1
  Si  Si23  1  0.07954152  0.25256826  0.95967889  1
  Si  Si24  1  0.60954154  0.75250245  0.70532452  1
  Si  Si25  1  0.88874081  0.29577433  0.24421859  1
  Si  Si26  1  0.38874081  0.24421859  0.29577433  1
  Si  Si27  1  0.10954154  0.70532452  0.75250245  1
  Si  Si28  1  0.58367363  0.24758976  0.70855449  1
  Si  Si29  1  0.91611641  0.29553832  0.74947993  1
  Si  Si30  1  0.41611641  0.74947993  0.29553832  1
  Si  Si31  1  0.08367363  0.70855449  0.24758976  1
  O  O32  1  0.75781206  0.39294956  0.81242390  1
  O  O33  1  0.74728801  0.18167494  0.61059395  1
  O  O34  1  0.24728801  0.61059395  0.18167494  1
  O  O35  1  0.25781206  0.81242390  0.39294956  1
  O  O36  1  0.56672389  0.00725232  0.09488501  1
  O  O37  1  0.92168643  0.90640181  0.01156858  1
  O  O38  1  0.42168643  0.01156858  0.90640181  1
  O  O39  1  0.06672389  0.09488501  0.00725232  1
  O  O40  1  0.56432489  0.21218410  0.87314933  1
  O  O41  1  0.92814992  0.12991576  0.77637401  1
  O  O42  1  0.42814992  0.77637401  0.12991576  1
  O  O43  1  0.06432489  0.87314933  0.21218410  1
  O  O44  1  0.71989464  0.38886238  0.29055041  1
  O  O45  1  0.77921272  0.70953020  0.61063360  1
  O  O46  1  0.27921272  0.61063360  0.70953020  1
  O  O47  1  0.21989464  0.29055041  0.38886238  1
  O  O48  1  0.76930414  0.71548740  0.06139270  1
  O  O49  1  0.73673353  0.94430931  0.27425263  1
  O  O50  1  0.23673353  0.27425263  0.94430931  1
  O  O51  1  0.26930414  0.06139270  0.71548740  1
  O  O52  1  0.56602607  0.48912304  0.10001614  1
  O  O53  1  0.92419082  0.90316803  0.52330582  1
  O  O54  1  0.42419082  0.52330582  0.90316803  1
  O  O55  1  0.06602607  0.10001614  0.48912304  1
  O  O56  1  0.53132628  0.81640013  0.32295210  1
  O  O57  1  0.97636019  0.66725786  0.18415255  1
  O  O58  1  0.47636019  0.18415255  0.66725786  1
  O  O59  1  0.03132628  0.32295210  0.81640013  1
  O  O60  1  0.52521482  0.41700974  0.66128587  1
  O  O61  1  0.97752782  0.34497198  0.58063289  1
  O  O62  1  0.47752782  0.58063289  0.34497198  1
  O  O63  1  0.02521482  0.66128587  0.41700974  1
  O  O64  1  0.54716698  0.91976290  0.65976976  1
  O  O65  1  0.95813396  0.34775443  0.07903331  1
  O  O66  1  0.45813396  0.07903331  0.34775443  1
  O  O67  1  0.04716698  0.65976976  0.91976290  1
  O  O68  1  0.52595413  0.67209132  0.65505039  1
  O  O69  1  0.97399638  0.33866187  0.32816308  1
  O  O70  1  0.47399638  0.32816308  0.33866187  1
  O  O71  1  0.02595413  0.65505039  0.67209132  1
  O  O72  1  0.58999922  0.70892835  0.86910879  1
  O  O73  1  0.90150197  0.13170639  0.27870847  1
  O  O74  1  0.40150197  0.27870847  0.13170639  1
  O  O75  1  0.08999922  0.86910879  0.70892835  1
  O  O76  1  0.75698101  0.17238104  0.07375560  1
  O  O77  1  0.77733004  0.94118605  0.79813957  1
  O  O78  1  0.27733004  0.79813957  0.94118605  1
  O  O79  1  0.25698101  0.07375560  0.17238104  1
