# generated using pymatgen
data_K7RbTi8(PO5)8
_symmetry_space_group_name_H-M   'P 1'
_cell_length_a   6.48080464
_cell_length_b   10.70379348
_cell_length_c   13.00580673
_cell_angle_alpha   89.99248407
_cell_angle_beta   89.91446214
_cell_angle_gamma   89.97765935
_symmetry_Int_Tables_number   1
_chemical_formula_structural   K7RbTi8(PO5)8
_chemical_formula_sum   'K7 Rb1 Ti8 P8 O40'
_cell_volume   902.20125394
_cell_formula_units_Z   1
loop_
 _symmetry_equiv_pos_site_id
 _symmetry_equiv_pos_as_xyz
  1  'x, y, z'
loop_
 _atom_site_type_symbol
 _atom_site_label
 _atom_site_symmetry_multiplicity
 _atom_site_fract_x
 _atom_site_fract_y
 _atom_site_fract_z
 _atom_site_occupancy
  K  K0  1  0.19323174  0.56925504  0.39564890  1
  K  K1  1  0.30673483  0.56922092  0.89567123  1
  K  K2  1  0.69324952  0.06923535  0.10436089  1
  K  K3  1  0.72191119  0.31161298  0.87719813  1
  K  K4  1  0.27812043  0.81154360  0.12288471  1
  K  K5  1  0.22189253  0.81144078  0.62293923  1
  K  K6  1  0.77804166  0.31165855  0.37694978  1
  Rb  Rb7  1  0.81169158  0.06983106  0.60439564  1
  Ti  Ti8  1  0.23734551  0.25495308  0.74733204  1
  Ti  Ti9  1  0.76328507  0.75453966  0.25291869  1
  Ti  Ti10  1  0.73656801  0.75443262  0.75309680  1
  Ti  Ti11  1  0.26334241  0.25463338  0.24693859  1
  Ti  Ti12  1  0.00420410  0.00228531  0.87178695  1
  Ti  Ti13  1  0.99611492  0.50239354  0.12859848  1
  Ti  Ti14  1  0.50399563  0.50252988  0.62856178  1
  Ti  Ti15  1  0.49575935  0.00238024  0.37110112  1
  P  P16  1  0.16322472  0.26042579  0.99913379  1
  P  P17  1  0.83677500  0.76039041  0.00094341  1
  P  P18  1  0.66301912  0.76015558  0.50086562  1
  P  P19  1  0.33596295  0.26096343  0.49881515  1
  P  P20  1  0.00024061  0.51283577  0.68129096  1
  P  P21  1  0.99976343  0.01273913  0.31818251  1
  P  P22  1  0.49997728  0.01274572  0.81900267  1
  P  P23  1  0.49967603  0.51289449  0.18130933  1
  O  O24  1  0.30384150  0.24024666  0.09514665  1
  O  O25  1  0.69619775  0.74022537  0.90491870  1
  O  O26  1  0.80397866  0.74020371  0.40476477  1
  O  O27  1  0.19686078  0.24078581  0.59546629  1
  O  O28  1  0.01476187  0.14950351  0.98668714  1
  O  O29  1  0.98531693  0.64943457  0.01349373  1
  O  O30  1  0.51460099  0.64927850  0.51354265  1
  O  O31  1  0.48286818  0.14941383  0.48522047  1
  O  O32  1  0.96185050  0.62850898  0.75180480  1
  O  O33  1  0.03846554  0.12855031  0.24801579  1
  O  O34  1  0.46100659  0.12843528  0.74869308  1
  O  O35  1  0.53796953  0.62850018  0.25180910  1
  O  O36  1  0.04062594  0.40017217  0.75345588  1
  O  O37  1  0.95959555  0.89989625  0.24630473  1
  O  O38  1  0.54036438  0.89989574  0.74690692  1
  O  O39  1  0.45909905  0.40014387  0.25342243  1
  O  O40  1  0.19042621  0.54162188  0.61320055  1
  O  O41  1  0.80846945  0.04157704  0.38539490  1
  O  O42  1  0.69020800  0.04167039  0.88668675  1
  O  O43  1  0.30975627  0.54164200  0.11325083  1
  O  O44  1  0.03990559  0.14271870  0.77946257  1
  O  O45  1  0.96184859  0.64220226  0.22210270  1
  O  O46  1  0.53806704  0.64219307  0.72219382  1
  O  O47  1  0.46168969  0.14224984  0.27768359  1
  O  O48  1  0.03275482  0.38248751  0.01171230  1
  O  O49  1  0.96710308  0.88241810  0.98845753  1
  O  O50  1  0.53229713  0.88211103  0.48807928  1
  O  O51  1  0.46734045  0.38244487  0.51154589  1
  O  O52  1  0.30154565  0.28165174  0.90271491  1
  O  O53  1  0.69866849  0.78142648  0.09746352  1
  O  O54  1  0.80086975  0.78074848  0.59734795  1
  O  O55  1  0.19785978  0.28200032  0.40256698  1
  O  O56  1  0.81045066  0.48583374  0.61275573  1
  O  O57  1  0.18900327  0.98580927  0.38717712  1
  O  O58  1  0.31016999  0.98560945  0.88765207  1
  O  O59  1  0.68979324  0.48584925  0.11269520  1
  O  O60  1  0.95817639  0.88851744  0.77579980  1
  O  O61  1  0.04196804  0.38881132  0.22459782  1
  O  O62  1  0.45821447  0.38887143  0.72467932  1
  O  O63  1  0.54188255  0.88864332  0.27519934  1
