# generated using pymatgen
data_K2Na4Co2O5
_symmetry_space_group_name_H-M   'P 1'
_cell_length_a   6.38590350
_cell_length_b   6.38738056
_cell_length_c   10.46570523
_cell_angle_alpha   89.90201195
_cell_angle_beta   90.00000000
_cell_angle_gamma   90.00000000
_symmetry_Int_Tables_number   1
_chemical_formula_structural   K2Na4Co2O5
_chemical_formula_sum   'K4 Na8 Co4 O10'
_cell_volume   426.88707624
_cell_formula_units_Z   2
loop_
 _symmetry_equiv_pos_site_id
 _symmetry_equiv_pos_as_xyz
  1  'x, y, z'
loop_
 _atom_site_type_symbol
 _atom_site_label
 _atom_site_symmetry_multiplicity
 _atom_site_fract_x
 _atom_site_fract_y
 _atom_site_fract_z
 _atom_site_occupancy
  K  K0  1  0.80406093  0.19599256  0.51860872  1
  K  K1  1  0.69593907  0.69599256  0.01860872  1
  K  K2  1  0.19593907  0.80400744  0.48139128  1
  K  K3  1  0.30406093  0.30400744  0.98139128  1
  Na  Na4  1  0.50072788  0.50399025  0.72073842  1
  Na  Na5  1  0.99927212  0.00399025  0.22073842  1
  Na  Na6  1  0.49927212  0.49600975  0.27926158  1
  Na  Na7  1  0.00072788  0.99600975  0.77926158  1
  Na  Na8  1  0.00087381  0.49563532  0.25000265  1
  Na  Na9  1  0.49912619  0.99563532  0.75000265  1
  Na  Na10  1  0.99912619  0.50436468  0.74999735  1
  Na  Na11  1  0.50087381  0.00436468  0.24999735  1
  Co  Co12  1  0.28695311  0.28696057  0.50087384  1
  Co  Co13  1  0.71304689  0.71303943  0.49912616  1
  Co  Co14  1  0.21304689  0.78696057  0.00087384  1
  Co  Co15  1  0.78695311  0.21303943  0.99912616  1
  O  O16  1  0.21454130  0.21309474  0.33879815  1
  O  O17  1  0.78612269  0.78464637  0.33623882  1
  O  O18  1  0.28545870  0.71309474  0.83879815  1
  O  O19  1  0.71387731  0.28464637  0.83623882  1
  O  O20  1  0.78545870  0.78690526  0.66120185  1
  O  O21  1  0.21387731  0.21535363  0.66376118  1
  O  O22  1  0.71454130  0.28690526  0.16120185  1
  O  O23  1  0.28612269  0.71535363  0.16376118  1
  O  O24  1  0.50000000  0.50000000  0.50000000  1
  O  O25  1  -0.00000000  -0.00000000  0.00000000  1
