# generated using pymatgen
data_KTa5Pb2O15
_symmetry_space_group_name_H-M   'P 1'
_cell_length_a   3.97201677
_cell_length_b   12.73049221
_cell_length_c   12.76108189
_cell_angle_alpha   90.00000000
_cell_angle_beta   90.00000000
_cell_angle_gamma   90.00000000
_symmetry_Int_Tables_number   1
_chemical_formula_structural   KTa5Pb2O15
_chemical_formula_sum   'K2 Ta10 Pb4 O30'
_cell_volume   645.27340283
_cell_formula_units_Z   2
loop_
 _symmetry_equiv_pos_site_id
 _symmetry_equiv_pos_as_xyz
  1  'x, y, z'
loop_
 _atom_site_type_symbol
 _atom_site_label
 _atom_site_symmetry_multiplicity
 _atom_site_fract_x
 _atom_site_fract_y
 _atom_site_fract_z
 _atom_site_occupancy
  K  K0  1  0.50000000  0.17319109  0.67579163  1
  K  K1  1  0.50000000  0.32680891  0.17579163  1
  Ta  Ta2  1  0.00000000  0.71430491  0.57544179  1
  Ta  Ta3  1  0.00000000  0.28779769  0.42159085  1
  Ta  Ta4  1  -0.00000000  0.78569509  0.07544179  1
  Ta  Ta5  1  0.00000000  0.21220231  0.92159085  1
  Ta  Ta6  1  -0.00000000  0.58046203  0.28903665  1
  Ta  Ta7  1  0.00000000  0.42400958  0.70805366  1
  Ta  Ta8  1  0.00000000  0.07599042  0.20805366  1
  Ta  Ta9  1  0.00000000  0.91953797  0.78903665  1
  Ta  Ta10  1  0.00000000  0.00313209  0.50497174  1
  Ta  Ta11  1  -0.00000000  0.49686791  0.00497174  1
  Pb  Pb12  1  0.50000000  0.50276543  0.49466263  1
  Pb  Pb13  1  0.50000000  0.99723457  0.99466263  1
  Pb  Pb14  1  0.50000000  0.62952522  0.83052935  1
  Pb  Pb15  1  0.50000000  0.87047478  0.33052935  1
  O  O16  1  0.00000000  0.84250094  0.49387320  1
  O  O17  1  0.00000000  0.15399217  0.50237511  1
  O  O18  1  0.00000000  0.65749906  0.99387320  1
  O  O19  1  0.00000000  0.34600783  0.00237511  1
  O  O20  1  0.00000000  0.50068825  0.15516053  1
  O  O21  1  0.00000000  0.51282502  0.84243715  1
  O  O22  1  0.00000000  0.98717498  0.34243715  1
  O  O23  1  -0.00000000  0.99931175  0.65516053  1
  O  O24  1  0.50000000  0.70379940  0.57728332  1
  O  O25  1  0.50000000  0.29682975  0.42554096  1
  O  O26  1  0.50000000  0.79620060  0.07728332  1
  O  O27  1  0.50000000  0.20317025  0.92554096  1
  O  O28  1  0.50000000  0.57510746  0.29787166  1
  O  O29  1  0.50000000  0.43067390  0.71111937  1
  O  O30  1  0.50000000  0.06932610  0.21111937  1
  O  O31  1  0.50000000  0.92489254  0.79787166  1
  O  O32  1  0.00000000  0.78491266  0.71533724  1
  O  O33  1  0.00000000  0.20990093  0.28942091  1
  O  O34  1  0.00000000  0.71508734  0.21533724  1
  O  O35  1  0.00000000  0.29009907  0.78942091  1
  O  O36  1  0.50000000  0.99250721  0.48885000  1
  O  O37  1  0.50000000  0.50749279  0.98885000  1
  O  O38  1  0.00000000  0.56794646  0.64104108  1
  O  O39  1  0.00000000  0.43209578  0.36134086  1
  O  O40  1  0.00000000  0.93205354  0.14104108  1
  O  O41  1  0.00000000  0.06790422  0.86134086  1
  O  O42  1  0.00000000  0.63587294  0.43495312  1
  O  O43  1  0.00000000  0.35897461  0.57031716  1
  O  O44  1  -0.00000000  0.14102539  0.07031716  1
  O  O45  1  0.00000000  0.86412706  0.93495312  1
