# generated using pymatgen
data_KCoP2H5O9
_symmetry_space_group_name_H-M   'P 1'
_cell_length_a   6.53624090
_cell_length_b   7.84686487
_cell_length_c   15.64876894
_cell_angle_alpha   90.00000000
_cell_angle_beta   90.00000000
_cell_angle_gamma   90.00000000
_symmetry_Int_Tables_number   1
_chemical_formula_structural   KCoP2H5O9
_chemical_formula_sum   'K4 Co4 P8 H20 O36'
_cell_volume   802.60969608
_cell_formula_units_Z   4
loop_
 _symmetry_equiv_pos_site_id
 _symmetry_equiv_pos_as_xyz
  1  'x, y, z'
loop_
 _atom_site_type_symbol
 _atom_site_label
 _atom_site_symmetry_multiplicity
 _atom_site_fract_x
 _atom_site_fract_y
 _atom_site_fract_z
 _atom_site_occupancy
  K  K0  1  0.11906919  0.24778331  0.96498246  1
  K  K1  1  0.38093081  0.24778331  0.46498246  1
  K  K2  1  0.88093081  0.74778331  0.03501754  1
  K  K3  1  0.61906919  0.74778331  0.53501754  1
  Co  Co4  1  0.06205178  0.25016094  0.19527042  1
  Co  Co5  1  0.43794822  0.25016094  0.69527042  1
  Co  Co6  1  0.93794822  0.75016094  0.80472958  1
  Co  Co7  1  0.56205178  0.75016094  0.30472958  1
  P  P8  1  0.85790993  0.43668678  0.36235850  1
  P  P9  1  0.63335451  0.05785225  0.86415859  1
  P  P10  1  0.14209007  0.93668678  0.63764150  1
  P  P11  1  0.36664549  0.55785225  0.13584141  1
  P  P12  1  0.13335451  0.55785225  0.63584141  1
  P  P13  1  0.35790993  0.93668678  0.13764150  1
  P  P14  1  0.86664549  0.05785225  0.36415859  1
  P  P15  1  0.64209007  0.43668678  0.86235850  1
  H  H16  1  0.40148259  0.35577291  0.26708844  1
  H  H17  1  0.09749702  0.14595053  0.76789986  1
  H  H18  1  0.59851741  0.85577291  0.73291156  1
  H  H19  1  0.90250298  0.64595053  0.23210014  1
  H  H20  1  0.59749702  0.64595053  0.73210014  1
  H  H21  1  0.90148259  0.85577291  0.23291156  1
  H  H22  1  0.40250298  0.14595053  0.26789986  1
  H  H23  1  0.09851741  0.35577291  0.76708844  1
  H  H24  1  0.71817999  0.35199252  0.09905297  1
  H  H25  1  0.78000427  0.15064437  0.59967013  1
  H  H26  1  0.28182001  0.85199252  0.90094703  1
  H  H27  1  0.21999573  0.65064437  0.40032987  1
  H  H28  1  0.28000427  0.65064437  0.90032987  1
  H  H29  1  0.21817999  0.85199252  0.40094703  1
  H  H30  1  0.71999573  0.15064437  0.09967013  1
  H  H31  1  0.78182001  0.35199252  0.59905297  1
  H  H32  1  0.00386891  0.49305816  0.48971647  1
  H  H33  1  0.99613109  0.99305816  0.51028353  1
  H  H34  1  0.50386891  0.99305816  0.01028353  1
  H  H35  1  0.49613109  0.49305816  0.98971647  1
  O  O36  1  0.77444531  0.24868488  0.38722868  1
  O  O37  1  0.72555469  0.24868488  0.88722868  1
  O  O38  1  0.22555469  0.74868488  0.61277132  1
  O  O39  1  0.27444531  0.74868488  0.11277132  1
  O  O40  1  0.04747746  0.46802223  0.42399075  1
  O  O41  1  0.45140603  0.02820742  0.92576394  1
  O  O42  1  0.95252254  0.96802223  0.57600925  1
  O  O43  1  0.54859397  0.52820742  0.07423606  1
  O  O44  1  0.95140603  0.52820742  0.57423606  1
  O  O45  1  0.54747746  0.96802223  0.07600925  1
  O  O46  1  0.04859397  0.02820742  0.42576394  1
  O  O47  1  0.45252254  0.46802223  0.92399075  1
  O  O48  1  0.32367393  0.25053084  0.28205132  1
  O  O49  1  0.17632607  0.25053084  0.78205132  1
  O  O50  1  0.67632607  0.75053084  0.71794868  1
  O  O51  1  0.82367393  0.75053084  0.21794868  1
  O  O52  1  0.81014277  0.25153292  0.10292594  1
  O  O53  1  0.68985723  0.25153292  0.60292594  1
  O  O54  1  0.18985723  0.75153292  0.89707406  1
  O  O55  1  0.31014277  0.75153292  0.39707406  1
  O  O56  1  0.93162396  0.43901375  0.27079472  1
  O  O57  1  0.56828111  0.06077960  0.77082211  1
  O  O58  1  0.06837604  0.93901375  0.72920528  1
  O  O59  1  0.43171889  0.56077960  0.22917789  1
  O  O60  1  0.06828111  0.56077960  0.72917789  1
  O  O61  1  0.43162396  0.93901375  0.22920528  1
  O  O62  1  0.93171889  0.06077960  0.27082211  1
  O  O63  1  0.56837604  0.43901375  0.77079472  1
  O  O64  1  0.68359333  0.55609757  0.38431034  1
  O  O65  1  0.81377368  0.94122902  0.88427224  1
  O  O66  1  0.31640667  0.05609757  0.61568966  1
  O  O67  1  0.18622632  0.44122902  0.11572776  1
  O  O68  1  0.31377368  0.44122902  0.61572776  1
  O  O69  1  0.18359333  0.05609757  0.11568966  1
  O  O70  1  0.68622632  0.94122902  0.38427224  1
  O  O71  1  0.81640667  0.55609757  0.88431034  1
