# generated using pymatgen
data_Ho7Mg3Rh2
_symmetry_space_group_name_H-M   'P 1'
_cell_length_a   9.60937135
_cell_length_b   9.60115291
_cell_length_c   9.62914937
_cell_angle_alpha   90.00000000
_cell_angle_beta   59.78692244
_cell_angle_gamma   119.97171249
_symmetry_Int_Tables_number   1
_chemical_formula_structural   Ho7Mg3Rh2
_chemical_formula_sum   'Ho14 Mg6 Rh4'
_cell_volume   626.42892080
_cell_formula_units_Z   2
loop_
 _symmetry_equiv_pos_site_id
 _symmetry_equiv_pos_as_xyz
  1  'x, y, z'
loop_
 _atom_site_type_symbol
 _atom_site_label
 _atom_site_symmetry_multiplicity
 _atom_site_fract_x
 _atom_site_fract_y
 _atom_site_fract_z
 _atom_site_occupancy
  Ho  Ho0  1  0.69504670  0.34752335  0.95916842  1
  Ho  Ho1  1  0.30762519  0.34722240  0.34863376  1
  Ho  Ho2  1  0.30762519  0.96040279  0.34863376  1
  Ho  Ho3  1  0.69161796  0.34580898  0.34933728  1
  Ho  Ho4  1  0.12884380  0.56442190  0.93204972  1
  Ho  Ho5  1  0.50058416  0.93699206  0.93585590  1
  Ho  Ho6  1  0.50058416  0.56359210  0.93585590  1
  Ho  Ho7  1  0.86915071  0.93457535  0.56451578  1
  Ho  Ho8  1  0.37884477  0.18942238  0.80936065  1
  Ho  Ho9  1  0.00043121  0.81178352  0.81059635  1
  Ho  Ho10  1  0.00043121  0.18864770  0.81059635  1
  Ho  Ho11  1  0.62087247  0.81043624  0.19169465  1
  Ho  Ho12  1  0.99956773  0.18949792  0.18985244  1
  Ho  Ho13  1  0.99956773  0.81006981  0.18985244  1
  Mg  Mg14  1  0.15919232  0.57959616  0.26008171  1
  Mg  Mg15  1  0.83745844  0.57959856  0.57882583  1
  Mg  Mg16  1  0.83745844  0.25785989  0.57882583  1
  Mg  Mg17  1  0.16656430  0.58328215  0.57954351  1
  Mg  Mg18  1  0.49953715  0.56351101  0.56571598  1
  Mg  Mg19  1  0.49953715  0.93602614  0.56571598  1
  Rh  Rh20  1  0.27993686  0.13996843  0.57632617  1
  Rh  Rh21  1  0.72032546  0.14332998  0.13808152  1
  Rh  Rh22  1  0.72032546  0.57699548  0.13808152  1
  Rh  Rh23  1  0.27887142  0.13943571  0.14279852  1
