# generated using pymatgen
data_KSi2HO5
_symmetry_space_group_name_H-M   'P 1'
_cell_length_a   4.87303195
_cell_length_b   8.33654716
_cell_length_c   12.65011842
_cell_angle_alpha   90.00000000
_cell_angle_beta   90.00000000
_cell_angle_gamma   90.00000000
_symmetry_Int_Tables_number   1
_chemical_formula_structural   KSi2HO5
_chemical_formula_sum   'K4 Si8 H4 O20'
_cell_volume   513.90170812
_cell_formula_units_Z   4
loop_
 _symmetry_equiv_pos_site_id
 _symmetry_equiv_pos_as_xyz
  1  'x, y, z'
loop_
 _atom_site_type_symbol
 _atom_site_label
 _atom_site_symmetry_multiplicity
 _atom_site_fract_x
 _atom_site_fract_y
 _atom_site_fract_z
 _atom_site_occupancy
  K  K0  1  0.96100405  0.25043552  0.54149964  1
  K  K1  1  0.53899595  0.25043552  0.04149964  1
  K  K2  1  0.03899595  0.75043552  0.45850036  1
  K  K3  1  0.46100405  0.75043552  0.95850036  1
  Si  Si4  1  0.46988527  0.56438320  0.69270503  1
  Si  Si5  1  0.03250773  0.94049315  0.18309325  1
  Si  Si6  1  0.53011473  0.06438320  0.30729497  1
  Si  Si7  1  0.96749227  0.44049315  0.81690675  1
  Si  Si8  1  0.53250773  0.44049315  0.31690675  1
  Si  Si9  1  0.96988527  0.06438320  0.80729497  1
  Si  Si10  1  0.46749227  0.94049315  0.68309325  1
  Si  Si11  1  0.03011473  0.56438320  0.19270503  1
  H  H12  1  0.02557159  0.50096243  0.01411354  1
  H  H13  1  0.97442841  0.00096243  0.98588646  1
  H  H14  1  0.52557159  0.00096243  0.48588646  1
  H  H15  1  0.47442841  0.50096243  0.51411354  1
  O  O16  1  0.06917667  0.25198438  0.81094442  1
  O  O17  1  0.43082333  0.25198438  0.31094442  1
  O  O18  1  0.93082333  0.75198438  0.18905558  1
  O  O19  1  0.56917667  0.75198438  0.68905558  1
  O  O20  1  0.24593565  0.54587008  0.78871818  1
  O  O21  1  0.25352750  0.95895495  0.28154638  1
  O  O22  1  0.75406435  0.04587008  0.21128182  1
  O  O23  1  0.74647250  0.45895495  0.71845362  1
  O  O24  1  0.75352750  0.45895495  0.21845362  1
  O  O25  1  0.74593565  0.04587008  0.71128182  1
  O  O26  1  0.24647250  0.95895495  0.78154638  1
  O  O27  1  0.25406435  0.54587008  0.28871818  1
  O  O28  1  0.33547091  0.50683958  0.58143181  1
  O  O29  1  0.15401280  0.99307671  0.07088136  1
  O  O30  1  0.66452909  0.00683958  0.41856819  1
  O  O31  1  0.84598720  0.49307671  0.92911864  1
  O  O32  1  0.65401280  0.49307671  0.42911864  1
  O  O33  1  0.83547091  0.00683958  0.91856819  1
  O  O34  1  0.34598720  0.99307671  0.57088136  1
  O  O35  1  0.16452909  0.50683958  0.08143181  1
