# generated using pymatgen
data_Ho2SbO2
_symmetry_space_group_name_H-M   'P 1'
_cell_length_a   3.84719106
_cell_length_b   3.83363534
_cell_length_c   7.18373398
_cell_angle_alpha   74.52442538
_cell_angle_beta   74.46832547
_cell_angle_gamma   90.00000000
_symmetry_Int_Tables_number   1
_chemical_formula_structural   Ho2SbO2
_chemical_formula_sum   'Ho2 Sb1 O2'
_cell_volume   98.08915194
_cell_formula_units_Z   1
loop_
 _symmetry_equiv_pos_site_id
 _symmetry_equiv_pos_as_xyz
  1  'x, y, z'
loop_
 _atom_site_type_symbol
 _atom_site_label
 _atom_site_symmetry_multiplicity
 _atom_site_fract_x
 _atom_site_fract_y
 _atom_site_fract_z
 _atom_site_occupancy
  Ho  Ho0  1  0.33363532  0.34341778  0.33272936  1
  Ho  Ho1  1  0.66636468  0.67614714  0.66727064  1
  Sb  Sb2  1  0.00000000  0.03432504  1.00000000  1
  O  O3  1  0.75019035  0.26074537  0.49961930  1
  O  O4  1  0.24980965  0.76036467  0.50038070  1
