# generated using pymatgen
data_Eu2NiGe3
_symmetry_space_group_name_H-M   'P 1'
_cell_length_a   4.13326857
_cell_length_b   4.13334216
_cell_length_c   9.18551006
_cell_angle_alpha   89.99999998
_cell_angle_beta   90.00150366
_cell_angle_gamma   120.00059474
_symmetry_Int_Tables_number   1
_chemical_formula_structural   Eu2NiGe3
_chemical_formula_sum   'Eu2 Ni1 Ge3'
_cell_volume   135.90213822
_cell_formula_units_Z   1
loop_
 _symmetry_equiv_pos_site_id
 _symmetry_equiv_pos_as_xyz
  1  'x, y, z'
loop_
 _atom_site_type_symbol
 _atom_site_label
 _atom_site_symmetry_multiplicity
 _atom_site_fract_x
 _atom_site_fract_y
 _atom_site_fract_z
 _atom_site_occupancy
  Eu  Eu0  1  -0.00000397  -0.00000198  0.01860108  1
  Eu  Eu1  1  0.00002188  0.00001094  0.48132043  1
  Ni  Ni2  1  0.33334722  0.66667361  0.24420055  1
  Ge  Ge3  1  0.33333639  0.66666820  0.69892013  1
  Ge  Ge4  1  0.66664037  0.33332019  0.25343463  1
  Ge  Ge5  1  0.66665810  0.33332905  0.80352317  1
