# generated using pymatgen
data_GdTiCdSbO7
_symmetry_space_group_name_H-M   'P 1'
_cell_length_a   7.31710821
_cell_length_b   7.21995831
_cell_length_c   7.47808651
_cell_angle_alpha   90.00000000
_cell_angle_beta   59.26952904
_cell_angle_gamma   119.56176077
_symmetry_Int_Tables_number   1
_chemical_formula_structural   GdTiCdSbO7
_chemical_formula_sum   'Gd2 Ti2 Cd2 Sb2 O14'
_cell_volume   278.08322921
_cell_formula_units_Z   2
loop_
 _symmetry_equiv_pos_site_id
 _symmetry_equiv_pos_as_xyz
  1  'x, y, z'
loop_
 _atom_site_type_symbol
 _atom_site_label
 _atom_site_symmetry_multiplicity
 _atom_site_fract_x
 _atom_site_fract_y
 _atom_site_fract_z
 _atom_site_occupancy
  Gd  Gd0  1  -0.00000000  -0.00000000  0.50000000  1
  Gd  Gd1  1  -0.00000000  -0.00000000  -0.00000000  1
  Ti  Ti2  1  0.50000000  -0.00000000  0.50000000  1
  Ti  Ti3  1  0.50000000  0.50000000  0.50000000  1
  Cd  Cd4  1  0.50000000  0.50000000  -0.00000000  1
  Cd  Cd5  1  0.50000000  -0.00000000  -0.00000000  1
  Sb  Sb6  1  -0.00000000  0.50000000  -0.00000000  1
  Sb  Sb7  1  -0.00000000  0.50000000  0.50000000  1
  O  O8  1  0.64629533  0.82314767  0.42685233  1
  O  O9  1  0.84320928  0.42160464  0.82839536  1
  O  O10  1  0.24445690  0.82616157  0.82076797  1
  O  O11  1  0.24445690  0.41829533  0.43477514  1
  O  O12  1  0.24445690  0.41829533  0.82076797  1
  O  O13  1  0.24445690  0.82616157  0.43477514  1
  O  O14  1  0.35370467  0.17685233  0.57314767  1
  O  O15  1  0.15679072  0.57839536  0.17160464  1
  O  O16  1  0.75554310  0.17383843  0.17923203  1
  O  O17  1  0.75554310  0.58170467  0.56522486  1
  O  O18  1  0.75554310  0.58170467  0.17923203  1
  O  O19  1  0.75554310  0.17383843  0.56522486  1
  O  O20  1  0.24891020  0.12445510  0.12554490  1
  O  O21  1  0.75108980  0.87554490  0.87445510  1
