# generated using pymatgen
data_K4BaTi6S20O
_symmetry_space_group_name_H-M   'P 1'
_cell_length_a   9.66030244
_cell_length_b   9.66030244
_cell_length_c   17.37254321
_cell_angle_alpha   78.96298177
_cell_angle_beta   78.96298177
_cell_angle_gamma   108.14595932
_symmetry_Int_Tables_number   1
_chemical_formula_structural   K4BaTi6S20O
_chemical_formula_sum   'K8 Ba2 Ti12 S40 O2'
_cell_volume   1456.29139965
_cell_formula_units_Z   2
loop_
 _symmetry_equiv_pos_site_id
 _symmetry_equiv_pos_as_xyz
  1  'x, y, z'
loop_
 _atom_site_type_symbol
 _atom_site_label
 _atom_site_symmetry_multiplicity
 _atom_site_fract_x
 _atom_site_fract_y
 _atom_site_fract_z
 _atom_site_occupancy
  K  K0  1  0.79416763  0.54416763  0.91166474  1
  K  K1  1  0.45565154  0.20565154  0.58869692  1
  K  K2  1  0.20565154  0.45565154  0.08869692  1
  K  K3  1  0.54416763  0.79416763  0.41166474  1
  K  K4  1  0.62542237  0.37542237  0.24915526  1
  K  K5  1  0.37542237  0.62542237  0.74915526  1
  K  K6  1  0.95718954  0.70718954  0.58562091  1
  K  K7  1  0.70718954  0.95718954  0.08562091  1
  Ba  Ba8  1  0.29223638  0.04223638  0.91552724  1
  Ba  Ba9  1  0.04223638  0.29223638  0.41552724  1
  Ti  Ti10  1  0.97641083  0.02266604  0.24985410  1
  Ti  Ti11  1  0.27373507  0.72747986  0.24985410  1
  Ti  Ti12  1  0.02266604  0.97641083  0.74985410  1
  Ti  Ti13  1  0.72747986  0.27373507  0.74985410  1
  Ti  Ti14  1  0.03221922  0.78065142  0.15104283  1
  Ti  Ti15  1  0.93095807  0.68325012  0.34951247  1
  Ti  Ti16  1  0.21952946  0.96723741  0.34951247  1
  Ti  Ti17  1  0.31673795  0.06830575  0.15104283  1
  Ti  Ti18  1  0.96723741  0.21952946  0.84951247  1
  Ti  Ti19  1  0.06830575  0.31673795  0.65104283  1
  Ti  Ti20  1  0.78065142  0.03221922  0.65104283  1
  Ti  Ti21  1  0.68325012  0.93095807  0.84951247  1
  S  S22  1  0.03226343  0.55452293  0.24501647  1
  S  S23  1  0.80105763  0.77448572  0.25577649  1
  S  S24  1  0.44316588  0.96973779  0.25577649  1
  S  S25  1  0.22272010  0.20046060  0.24501647  1
  S  S26  1  0.96973779  0.44316588  0.75577649  1
  S  S27  1  0.20046060  0.22272010  0.74501647  1
  S  S28  1  0.55452293  0.03226343  0.74501647  1
  S  S29  1  0.77448572  0.80105763  0.75577649  1
  S  S30  1  0.04913238  0.69708838  0.02903330  1
  S  S31  1  0.73018500  0.57812929  0.47100850  1
  S  S32  1  0.29880650  0.95086222  0.47100850  1
  S  S33  1  0.42183432  0.27387832  0.02903330  1
  S  S34  1  0.95086222  0.29880650  0.97100850  1
  S  S35  1  0.27387832  0.42183432  0.52903330  1
  S  S36  1  0.69708838  0.04913238  0.52903330  1
  S  S37  1  0.57812929  0.73018500  0.97100850  1
  S  S38  1  0.87073496  0.19022170  0.18693367  1
  S  S39  1  0.37891954  0.55598003  0.31323574  1
  S  S40  1  0.80784471  0.13078423  0.31323574  1
  S  S41  1  0.44233138  0.62284463  0.18693367  1
  S  S42  1  0.13078423  0.80784471  0.81323574  1
  S  S43  1  0.62284463  0.44233138  0.68693367  1
  S  S44  1  0.19022170  0.87073496  0.68693367  1
  S  S45  1  0.55598003  0.37891954  0.81323574  1
  S  S46  1  0.31754374  0.85646633  0.09985581  1
  S  S47  1  0.95627942  0.92036822  0.39876793  1
  S  S48  1  0.14495266  0.68086385  0.39876793  1
  S  S49  1  0.08260044  0.04367785  0.09985581  1
  S  S50  1  0.68086385  0.14495266  0.89876793  1
  S  S51  1  0.04367785  0.08260044  0.59985581  1
  S  S52  1  0.85646633  0.31754374  0.59985581  1
  S  S53  1  0.92036822  0.95627942  0.89876793  1
  S  S54  1  0.83443070  0.66909937  0.09334945  1
  S  S55  1  0.75850228  0.42550539  0.40645654  1
  S  S56  1  0.33504118  0.16803807  0.40645654  1
  S  S57  1  0.57221984  0.23755118  0.09334945  1
  S  S58  1  0.16803807  0.33504118  0.90645654  1
  S  S59  1  0.23755118  0.57221984  0.59334945  1
  S  S60  1  0.66909937  0.83443070  0.59334945  1
  S  S61  1  0.42550539  0.75850228  0.90645654  1
  O  O62  1  0.12517584  0.87517584  0.24964833  1
  O  O63  1  0.87517584  0.12517584  0.74964833  1
