# generated using pymatgen
data_In10CuAgS16
_symmetry_space_group_name_H-M   'P 1'
_cell_length_a   7.72460712
_cell_length_b   10.92029485
_cell_length_c   7.72460712
_cell_angle_alpha   90.00000000
_cell_angle_beta   90.00000000
_cell_angle_gamma   90.00000000
_symmetry_Int_Tables_number   1
_chemical_formula_structural   In10CuAgS16
_chemical_formula_sum   'In10 Cu1 Ag1 S16'
_cell_volume   651.60913672
_cell_formula_units_Z   1
loop_
 _symmetry_equiv_pos_site_id
 _symmetry_equiv_pos_as_xyz
  1  'x, y, z'
loop_
 _atom_site_type_symbol
 _atom_site_label
 _atom_site_symmetry_multiplicity
 _atom_site_fract_x
 _atom_site_fract_y
 _atom_site_fract_z
 _atom_site_occupancy
  In  In0  1  0.75000000  0.74516962  0.73565529  1
  In  In1  1  0.25000000  0.24213235  0.23939026  1
  In  In2  1  0.25000000  0.24213235  0.76060974  1
  In  In3  1  0.75000000  0.74516962  0.26434471  1
  In  In4  1  0.98939026  0.50786765  0.50000000  1
  In  In5  1  0.48565529  0.00483038  -0.00000000  1
  In  In6  1  0.01434471  0.00483038  0.00000000  1
  In  In7  1  0.51060974  0.50786765  0.50000000  1
  In  In8  1  0.25000000  0.62540174  0.00000000  1
  In  In9  1  0.75000000  0.12459826  0.50000000  1
  Cu  Cu10  1  0.25000000  0.87500000  0.50000000  1
  Ag  Ag11  1  0.75000000  0.37500000  0.00000000  1
  S  S12  1  0.75000000  0.50866187  0.26569218  1
  S  S13  1  0.25000000  0.00118824  0.75300262  1
  S  S14  1  0.75000000  0.50866187  0.73430782  1
  S  S15  1  0.25000000  0.00118824  0.24699738  1
  S  S16  1  0.01569218  0.24133813  0.00000000  1
  S  S17  1  0.50300262  0.74881176  0.50000000  1
  S  S18  1  0.48430782  0.24133813  0.00000000  1
  S  S19  1  0.99699738  0.74881176  0.50000000  1
  S  S20  1  0.25000000  0.49033054  0.73176895  1
  S  S21  1  0.75000000  0.99093180  0.23109419  1
  S  S22  1  0.25000000  0.49033054  0.26823105  1
  S  S23  1  0.75000000  0.99093180  0.76890581  1
  S  S24  1  0.98109419  0.75906820  0.00000000  1
  S  S25  1  0.48176895  0.25966946  0.50000000  1
  S  S26  1  0.51890581  0.75906820  0.00000000  1
  S  S27  1  0.01823105  0.25966946  0.50000000  1
