# generated using pymatgen
data_K3Na9Sr4(BO2)20
_symmetry_space_group_name_H-M   'P 1'
_cell_length_a   7.48808341
_cell_length_b   13.70146156
_cell_length_c   9.88297964
_cell_angle_alpha   87.98702651
_cell_angle_beta   71.05730171
_cell_angle_gamma   90.91549170
_symmetry_Int_Tables_number   1
_chemical_formula_structural   K3Na9Sr4(BO2)20
_chemical_formula_sum   'K3 Na9 Sr4 B20 O40'
_cell_volume   958.06394026
_cell_formula_units_Z   1
loop_
 _symmetry_equiv_pos_site_id
 _symmetry_equiv_pos_as_xyz
  1  'x, y, z'
loop_
 _atom_site_type_symbol
 _atom_site_label
 _atom_site_symmetry_multiplicity
 _atom_site_fract_x
 _atom_site_fract_y
 _atom_site_fract_z
 _atom_site_occupancy
  K  K0  1  0.89361281  0.87463364  0.56270098  1
  K  K1  1  0.10628699  0.12533162  0.43768024  1
  K  K2  1  0.60584606  0.62474348  0.43770062  1
  Na  Na3  1  0.03934761  0.24237108  0.11105755  1
  Na  Na4  1  0.53952939  0.74247566  0.11142929  1
  Na  Na5  1  0.46062221  0.25761484  0.88754627  1
  Na  Na6  1  0.96048252  0.75748108  0.88861783  1
  Na  Na7  1  0.34233883  0.50072410  0.16288053  1
  Na  Na8  1  0.84217692  0.00041555  0.16253987  1
  Na  Na9  1  0.15789059  0.99963852  0.83741398  1
  Na  Na10  1  0.65704853  0.49954901  0.83712254  1
  Na  Na11  1  0.40164103  0.37541515  0.54994182  1
  Sr  Sr12  1  0.93751652  0.28210662  0.78231151  1
  Sr  Sr13  1  0.43585916  0.78169234  0.78338910  1
  Sr  Sr14  1  0.56398369  0.21875625  0.21797365  1
  Sr  Sr15  1  0.06422401  0.71826836  0.21674927  1
  B  B16  1  0.30714173  0.07550839  0.13295003  1
  B  B17  1  0.80738624  0.57516671  0.13312080  1
  B  B18  1  0.19612803  0.42387340  0.86461998  1
  B  B19  1  0.69283435  0.92461743  0.86727318  1
  B  B20  1  0.80143406  0.37697125  0.54152141  1
  B  B21  1  0.30742162  0.87774084  0.54130508  1
  B  B22  1  0.69257638  0.12245483  0.45880728  1
  B  B23  1  0.19297587  0.62210238  0.45836704  1
  B  B24  1  0.87653788  0.43030556  0.27932133  1
  B  B25  1  0.37744635  0.93110808  0.27893315  1
  B  B26  1  0.62245422  0.06894433  0.72109690  1
  B  B27  1  0.12434414  0.56814023  0.71967959  1
  B  B28  1  0.13141256  0.35766098  0.37060197  1
  B  B29  1  0.63162198  0.85583246  0.36543631  1
  B  B30  1  0.36875553  0.14510679  0.63463872  1
  B  B31  1  0.86883407  0.64387487  0.63473586  1
  B  B32  1  0.72285817  0.40807754  0.08442754  1
  B  B33  1  0.22251041  0.90809711  0.08457046  1
  B  B34  1  0.77746914  0.09203123  0.91544514  1
  B  B35  1  0.27734105  0.59166957  0.91526207  1
  O  O36  1  0.06860499  0.39583321  0.26157404  1
  O  O37  1  0.56804551  0.89666158  0.25879322  1
  O  O38  1  0.43185955  0.10337213  0.74103820  1
  O  O39  1  0.93274065  0.60239641  0.74094348  1
  O  O40  1  0.98984392  0.34154171  0.50765600  1
  O  O41  1  0.49503103  0.84081014  0.50519636  1
  O  O42  1  0.50539016  0.15986217  0.49479253  1
  O  O43  1  0.00528105  0.65908798  0.49497567  1
  O  O44  1  0.66256584  0.35075991  0.00058399  1
  O  O45  1  0.16307729  0.85082088  0.00034436  1
  O  O46  1  0.83674567  0.14928077  0.99987787  1
  O  O47  1  0.33674869  0.64912872  0.99952939  1
  O  O48  1  0.79501159  0.36985066  0.18854182  1
  O  O49  1  0.29353531  0.87015473  0.18952514  1
  O  O50  1  0.70648750  0.12990377  0.81045697  1
  O  O51  1  0.20636876  0.62942622  0.81016985  1
  O  O52  1  0.74912172  0.42075942  0.43037101  1
  O  O53  1  0.25574091  0.92265132  0.43073862  1
  O  O54  1  0.74422280  0.07739987  0.56922608  1
  O  O55  1  0.24541693  0.57703416  0.56813114  1
  O  O56  1  0.31211433  0.33691715  0.35049571  1
  O  O57  1  0.81136669  0.83223670  0.33795915  1
  O  O58  1  0.18905099  0.16868680  0.66189349  1
  O  O59  1  0.68913201  0.66781400  0.66224060  1
  O  O60  1  0.39201539  0.03525296  0.22832331  1
  O  O61  1  0.89186938  0.53460440  0.22890715  1
  O  O62  1  0.11445607  0.46340508  0.76660827  1
  O  O63  1  0.60796415  0.96481077  0.77174405  1
  O  O64  1  0.20560098  0.01104751  0.07286122  1
  O  O65  1  0.70564700  0.51085530  0.07292648  1
  O  O66  1  0.29401673  0.48888269  0.92713905  1
  O  O67  1  0.79462314  0.98913756  0.92712099  1
  O  O68  1  0.68450572  0.36640659  0.67661759  1
  O  O69  1  0.19258336  0.86711319  0.67701625  1
  O  O70  1  0.80734452  0.13288504  0.32292543  1
  O  O71  1  0.30744949  0.63307220  0.32251784  1
  O  O72  1  0.31688862  0.17184072  0.10722217  1
  O  O73  1  0.81740477  0.67128017  0.10662637  1
  O  O74  1  0.18339136  0.32800640  0.89353977  1
  O  O75  1  0.68284476  0.82850772  0.89368050  1
