# generated using pymatgen
data_K5HfIn(MoO4)6
_symmetry_space_group_name_H-M   'P 1'
_cell_length_a   10.78711305
_cell_length_b   10.78711305
_cell_length_c   14.26020720
_cell_angle_alpha   67.77626561
_cell_angle_beta   67.77626561
_cell_angle_gamma   60.00000107
_symmetry_Int_Tables_number   1
_chemical_formula_structural   K5HfIn(MoO4)6
_chemical_formula_sum   'K10 Hf2 In2 Mo12 O48'
_cell_volume   1292.74082812
_cell_formula_units_Z   2
loop_
 _symmetry_equiv_pos_site_id
 _symmetry_equiv_pos_as_xyz
  1  'x, y, z'
loop_
 _atom_site_type_symbol
 _atom_site_label
 _atom_site_symmetry_multiplicity
 _atom_site_fract_x
 _atom_site_fract_y
 _atom_site_fract_z
 _atom_site_occupancy
  K  K0  1  0.85307634  0.85307634  0.44077097  1
  K  K1  1  0.35384322  0.35384322  0.93847035  1
  K  K2  1  0.14615333  0.14615333  0.56154000  1
  K  K3  1  0.64678952  0.64678952  0.05963145  1
  K  K4  1  0.36459592  0.13686934  0.74853413  1
  K  K5  1  0.13686934  0.75000061  0.74853413  1
  K  K6  1  0.75000061  0.36459592  0.74853413  1
  K  K7  1  0.86253659  0.24984134  0.25134431  1
  K  K8  1  0.24984134  0.63627776  0.25134431  1
  K  K9  1  0.63627776  0.86253659  0.25134431  1
  Hf  Hf10  1  0.00076076  0.00076076  0.99771771  1
  Hf  Hf11  1  0.24922974  0.24922974  0.25231078  1
  In  In12  1  0.49944140  0.49944140  0.50167580  1
  In  In13  1  0.75068271  0.75068271  0.74795187  1
  Mo  Mo14  1  0.23812066  0.88280234  0.40233524  1
  Mo  Mo15  1  0.88280234  0.47674176  0.40233524  1
  Mo  Mo16  1  0.47674176  0.23812066  0.40233524  1
  Mo  Mo17  1  0.73857166  0.97715994  0.90246109  1
  Mo  Mo18  1  0.97715994  0.38180731  0.90246109  1
  Mo  Mo19  1  0.38180731  0.73857166  0.90246109  1
  Mo  Mo20  1  0.76271601  0.11753006  0.59708200  1
  Mo  Mo21  1  0.11753006  0.52267192  0.59708200  1
  Mo  Mo22  1  0.52267192  0.76271601  0.59708200  1
  Mo  Mo23  1  0.26062742  0.02349064  0.09801220  1
  Mo  Mo24  1  0.02349064  0.61786974  0.09801220  1
  Mo  Mo25  1  0.61786974  0.26062742  0.09801220  1
  O  O26  1  0.11231438  0.90606068  0.33921767  1
  O  O27  1  0.90606068  0.64240726  0.33921767  1
  O  O28  1  0.64240726  0.11231438  0.33921767  1
  O  O29  1  0.61126340  0.14210245  0.84062909  1
  O  O30  1  0.14210245  0.40600506  0.84062909  1
  O  O31  1  0.40600506  0.61126340  0.84062909  1
  O  O32  1  0.88897235  0.09350105  0.66109248  1
  O  O33  1  0.09350105  0.35643412  0.66109248  1
  O  O34  1  0.35643412  0.88897235  0.66109248  1
  O  O35  1  0.38743904  0.85883804  0.15933457  1
  O  O36  1  0.85883804  0.59438836  0.15933457  1
  O  O37  1  0.59438836  0.38743904  0.15933457  1
  O  O38  1  0.29823105  0.03777808  0.34332838  1
  O  O39  1  0.03777808  0.32066249  0.34332838  1
  O  O40  1  0.32066249  0.29823105  0.34332838  1
  O  O41  1  0.80055885  0.82180872  0.84821715  1
  O  O42  1  0.82180872  0.52941528  0.84821715  1
  O  O43  1  0.52941528  0.80055885  0.84821715  1
  O  O44  1  0.69792693  0.97047269  0.65284716  1
  O  O45  1  0.97047269  0.67875321  0.65284716  1
  O  O46  1  0.67875321  0.69792693  0.65284716  1
  O  O47  1  0.20263050  0.17852358  0.15543739  1
  O  O48  1  0.17852358  0.46340853  0.15543739  1
  O  O49  1  0.46340853  0.20263050  0.15543739  1
  O  O50  1  0.39352812  0.70605352  0.39573664  1
  O  O51  1  0.70605352  0.50468172  0.39573664  1
  O  O52  1  0.50468172  0.39352812  0.39573664  1
  O  O53  1  0.89632914  0.00380630  0.90170077  1
  O  O54  1  0.00380630  0.19816379  0.90170077  1
  O  O55  1  0.19816379  0.89632914  0.90170077  1
  O  O56  1  0.60596270  0.29479085  0.60391162  1
  O  O57  1  0.29479085  0.49533483  0.60391162  1
  O  O58  1  0.49533483  0.60596270  0.60391162  1
  O  O59  1  0.10444644  0.99615938  0.09905984  1
  O  O60  1  0.99615938  0.80033433  0.09905984  1
  O  O61  1  0.80033433  0.10444644  0.09905984  1
  O  O62  1  0.15379962  0.88253772  0.53433578  1
  O  O63  1  0.88253772  0.42932688  0.53433578  1
  O  O64  1  0.42932688  0.15379962  0.53433578  1
  O  O65  1  0.65328089  0.92965707  0.03459851  1
  O  O66  1  0.92965707  0.38246353  0.03459851  1
  O  O67  1  0.38246353  0.65328089  0.03459851  1
  O  O68  1  0.84707784  0.11805759  0.46426580  1
  O  O69  1  0.11805759  0.57059877  0.46426580  1
  O  O70  1  0.57059877  0.84707784  0.46426580  1
  O  O71  1  0.34599427  0.07050409  0.96649519  1
  O  O72  1  0.07050409  0.61700645  0.96649519  1
  O  O73  1  0.61700645  0.34599427  0.96649519  1
