# generated using pymatgen
data_K4BaTi6S20O
_symmetry_space_group_name_H-M   'P 1'
_cell_length_a   9.55254337
_cell_length_b   9.55241159
_cell_length_c   18.69211165
_cell_angle_alpha   89.99979966
_cell_angle_beta   90.00000002
_cell_angle_gamma   59.99954203
_symmetry_Int_Tables_number   1
_chemical_formula_structural   K4BaTi6S20O
_chemical_formula_sum   'K8 Ba2 Ti12 S40 O2'
_cell_volume   1477.13108913
_cell_formula_units_Z   2
loop_
 _symmetry_equiv_pos_site_id
 _symmetry_equiv_pos_as_xyz
  1  'x, y, z'
loop_
 _atom_site_type_symbol
 _atom_site_label
 _atom_site_symmetry_multiplicity
 _atom_site_fract_x
 _atom_site_fract_y
 _atom_site_fract_z
 _atom_site_occupancy
  K  K0  1  0.33330310  0.33335373  0.24999731  1
  K  K1  1  0.66665683  0.66664627  0.75000269  1
  K  K2  1  0.34223004  1.00000000  0.50000000  1
  K  K3  1  0.00001793  0.65777814  0.49999990  1
  K  K4  1  0.65779607  0.34222186  0.50000010  1
  K  K5  1  0.65777543  0.00000000  -0.00000000  1
  K  K6  1  0.99998895  0.34221763  0.00000175  1
  K  K7  1  0.34220658  0.65778237  0.99999825  1
  Ba  Ba8  1  0.00000094  0.99999869  0.24999715  1
  Ba  Ba9  1  -0.00000038  0.00000131  0.75000285  1
  Ti  Ti10  1  0.86345861  0.46934824  0.32058214  1
  Ti  Ti11  1  0.46934219  0.66720840  0.32058700  1
  Ti  Ti12  1  0.66719346  0.86344255  0.32057708  1
  Ti  Ti13  1  0.33280685  0.53065176  0.67941786  1
  Ti  Ti14  1  0.13655059  0.33279160  0.67941300  1
  Ti  Ti15  1  0.53063601  0.13655745  0.67942292  1
  Ti  Ti16  1  0.13655327  0.53064363  0.82057982  1
  Ti  Ti17  1  0.53065252  0.33278805  0.82058769  1
  Ti  Ti18  1  0.33281089  0.13655033  0.82058277  1
  Ti  Ti19  1  0.66719690  0.46935637  0.17942018  1
  Ti  Ti20  1  0.86344058  0.66721195  0.17941231  1
  Ti  Ti21  1  0.46936122  0.86344967  0.17941723  1
  S  S22  1  0.10230468  0.35389386  0.39057892  1
  S  S23  1  0.35387747  0.54383370  0.39057847  1
  S  S24  1  0.54378512  0.10230365  0.39057275  1
  S  S25  1  0.45619854  0.64610614  0.60942108  1
  S  S26  1  0.89771117  0.45616630  0.60942153  1
  S  S27  1  0.64608877  0.89769635  0.60942725  1
  S  S28  1  0.89770142  0.64611774  0.89058218  1
  S  S29  1  0.64611000  0.45619824  0.89058077  1
  S  S30  1  0.45618581  0.89770726  0.89057768  1
  S  S31  1  0.54381916  0.35388226  0.10941782  1
  S  S32  1  0.10230824  0.54380176  0.10941923  1
  S  S33  1  0.35389307  0.10229274  0.10942232  1
  S  S34  1  0.66666454  0.66666729  0.40775752  1
  S  S35  1  0.33333184  0.33333271  0.59224248  1
  S  S36  1  0.33333724  0.33333186  0.90775499  1
  S  S37  1  0.66666910  0.66666814  0.09224501  1
  S  S38  1  0.97545472  0.23065255  0.39248133  1
  S  S39  1  0.23064627  0.79389495  0.39248334  1
  S  S40  1  0.79389789  0.97545718  0.39248063  1
  S  S41  1  0.20610727  0.76934745  0.60751867  1
  S  S42  1  0.02454122  0.20610505  0.60751666  1
  S  S43  1  0.76935507  0.02454282  0.60751937  1
  S  S44  1  0.02455171  0.76933780  0.89248574  1
  S  S45  1  0.76936464  0.20610401  0.89248765  1
  S  S46  1  0.20610759  0.02453334  0.89248396  1
  S  S47  1  0.79388951  0.23066220  0.10751426  1
  S  S48  1  0.97546865  0.79389599  0.10751235  1
  S  S49  1  0.23064092  0.97546666  0.10751604  1
  S  S50  1  0.66778264  0.36899024  0.29646745  1
  S  S51  1  0.36897430  0.96322975  0.29646465  1
  S  S52  1  0.96323716  0.66778676  0.29645697  1
  S  S53  1  0.03677288  0.63100976  0.70353255  1
  S  S54  1  0.33220405  0.03677025  0.70353535  1
  S  S55  1  0.63102391  0.33221324  0.70354303  1
  S  S56  1  0.33222176  0.63100901  0.79646227  1
  S  S57  1  0.63103069  0.03676801  0.79646512  1
  S  S58  1  0.03677197  0.33220931  0.79645149  1
  S  S59  1  0.96323078  0.36899099  0.20353773  1
  S  S60  1  0.66779870  0.96323199  0.20353488  1
  S  S61  1  0.36898128  0.66779069  0.20354851  1
  O  O62  1  0.66665302  0.66667361  0.24999893  1
  O  O63  1  0.33332663  0.33332639  0.75000107  1
