# generated using pymatgen
data_K9Ta2VS12
_symmetry_space_group_name_H-M   'P 1'
_cell_length_a   9.33580495
_cell_length_b   14.42360093
_cell_length_c   21.82888135
_cell_angle_alpha   101.07937294
_cell_angle_beta   89.99009097
_cell_angle_gamma   90.00692779
_symmetry_Int_Tables_number   1
_chemical_formula_structural   K9Ta2VS12
_chemical_formula_sum   'K36 Ta8 V4 S48'
_cell_volume   2884.60357400
_cell_formula_units_Z   4
loop_
 _symmetry_equiv_pos_site_id
 _symmetry_equiv_pos_as_xyz
  1  'x, y, z'
loop_
 _atom_site_type_symbol
 _atom_site_label
 _atom_site_symmetry_multiplicity
 _atom_site_fract_x
 _atom_site_fract_y
 _atom_site_fract_z
 _atom_site_occupancy
  K  K0  1  0.36218270  0.69429059  0.55576053  1
  K  K1  1  0.36319071  0.36065568  0.88934640  1
  K  K2  1  0.36217450  0.02753469  0.22241675  1
  K  K3  1  0.86395274  0.80594107  0.44396449  1
  K  K4  1  0.86341932  0.47217025  0.77788709  1
  K  K5  1  0.86371296  0.13993594  0.11006643  1
  K  K6  1  0.63715852  0.97242811  0.77758378  1
  K  K7  1  0.63717822  0.63907361  0.11097741  1
  K  K8  1  0.63706234  0.30572729  0.44422173  1
  K  K9  1  0.13727360  0.86106509  0.88906384  1
  K  K10  1  0.13725728  0.52749408  0.22233532  1
  K  K11  1  0.13723169  0.19434226  0.55569994  1
  K  K12  1  0.44381959  0.96011765  0.58482977  1
  K  K13  1  0.44419890  0.62645096  0.91816778  1
  K  K14  1  0.44383094  0.29341697  0.25144603  1
  K  K15  1  0.94417362  0.20691231  0.74856765  1
  K  K16  1  0.94474424  0.87312928  0.08117514  1
  K  K17  1  0.94471850  0.53975602  0.41447758  1
  K  K18  1  0.55381307  0.43459233  0.61273274  1
  K  K19  1  0.55481226  0.10235532  0.94602121  1
  K  K20  1  0.55377541  0.76787006  0.27938775  1
  K  K21  1  0.05663721  0.73124302  0.72149022  1
  K  K22  1  0.05486537  0.39764773  0.05398567  1
  K  K23  1  0.05665630  0.06456743  0.38812568  1
  K  K24  1  0.55384605  0.70484743  0.74786944  1
  K  K25  1  0.55483237  0.37122349  0.08041727  1
  K  K26  1  0.55382638  0.03815699  0.41449752  1
  K  K27  1  0.05668755  0.46095927  0.58634237  1
  K  K28  1  0.05489127  0.12878990  0.91959990  1
  K  K29  1  0.05667130  0.79424765  0.25298214  1
  K  K30  1  0.44423640  0.23362699  0.72174458  1
  K  K31  1  0.44382230  0.90028616  0.05486475  1
  K  K32  1  0.44386737  0.56684914  0.38817055  1
  K  K33  1  0.94477180  0.93406391  0.61167327  1
  K  K34  1  0.94416652  0.59963589  0.94493394  1
  K  K35  1  0.94479816  0.26739555  0.27831016  1
  Ta  Ta36  1  0.78426161  0.99549573  0.25449105  1
  Ta  Ta37  1  0.78425859  0.66217121  0.58784868  1
  Ta  Ta38  1  0.71586920  0.82874452  0.92124833  1
  Ta  Ta39  1  0.71587537  0.49539440  0.25454240  1
  Ta  Ta40  1  0.71589646  0.16214830  0.58795087  1
  Ta  Ta41  1  0.21572916  0.67119161  0.07871204  1
  Ta  Ta42  1  0.21559530  0.33788342  0.41210633  1
  Ta  Ta43  1  0.21572200  0.00465717  0.74544568  1
  V  V44  1  0.28502535  0.17139744  0.07857611  1
  V  V45  1  0.28515162  0.83812203  0.41187154  1
  V  V46  1  0.28504167  0.50472819  0.74526926  1
  V  V47  1  0.78496321  0.32861619  0.92140032  1
  S  S48  1  0.17196897  0.92601844  0.48781397  1
  S  S49  1  0.17196284  0.59258120  0.82120980  1
  S  S50  1  0.17183525  0.25932706  0.15450674  1
  S  S51  1  0.66584052  0.56884739  0.50775196  1
  S  S52  1  0.67184935  0.24076135  0.84543144  1
  S  S53  1  0.66583770  0.90215972  0.17441231  1
  S  S54  1  0.83462885  0.96664914  0.95707782  1
  S  S55  1  0.83474064  0.63327707  0.29034284  1
  S  S56  1  0.83468479  0.29998220  0.62364654  1
  S  S57  1  0.33396981  0.86674235  0.70983273  1
  S  S58  1  0.33464343  0.53333586  0.04295643  1
  S  S59  1  0.33397209  0.20000233  0.37651546  1
  S  S60  1  0.83468609  0.73518271  0.84124498  1
  S  S61  1  0.83467407  0.40170798  0.17454083  1
  S  S62  1  0.83466737  0.06847066  0.50795277  1
  S  S63  1  0.33462489  0.09823093  0.82544296  1
  S  S64  1  0.33393124  0.76462540  0.15879357  1
  S  S65  1  0.33398626  0.43130051  0.49217670  1
  S  S66  1  0.17198289  0.70758396  0.37859435  1
  S  S67  1  0.17197249  0.37419552  0.71200732  1
  S  S68  1  0.17181241  0.04085759  0.04527166  1
  S  S69  1  0.66584998  0.80009357  0.62337516  1
  S  S70  1  0.67184113  0.45917267  0.95463359  1
  S  S71  1  0.66583398  0.13337275  0.29004545  1
  S  S72  1  0.49750312  0.80700093  0.44302724  1
  S  S73  1  0.49739567  0.47362576  0.77639786  1
  S  S74  1  0.49767892  0.14032940  0.10965116  1
  S  S75  1  0.00866688  0.69467458  0.55531163  1
  S  S76  1  0.99766688  0.35968766  0.89031443  1
  S  S77  1  0.00861501  0.02802404  0.22196402  1
  S  S78  1  0.49180438  0.86125926  0.88866220  1
  S  S79  1  0.49178011  0.52800171  0.22204010  1
  S  S80  1  0.49178981  0.19463782  0.55536685  1
  S  S81  1  0.99167653  0.97201668  0.77795930  1
  S  S82  1  0.99168046  0.63871330  0.11132281  1
  S  S83  1  0.99151564  0.30535899  0.44466322  1
  S  S84  1  0.30512628  0.58106817  0.66894320  1
  S  S85  1  0.30477458  0.24772702  0.00225465  1
  S  S86  1  0.30515656  0.91444880  0.33554112  1
  S  S87  1  0.80600456  0.58181038  0.66819212  1
  S  S88  1  0.80476913  0.25231743  0.99768180  1
  S  S89  1  0.80600688  0.91512651  0.33485756  1
  S  S90  1  0.69351312  0.08197289  0.66838269  1
  S  S91  1  0.69349871  0.74817195  0.00148093  1
  S  S92  1  0.69355359  0.41512557  0.33486274  1
  S  S93  1  0.19345458  0.08505186  0.66499403  1
  S  S94  1  0.19345160  0.75165855  0.99830076  1
  S  S95  1  0.19347300  0.41836207  0.33165076  1
