# generated using pymatgen
data_K4Ba2SnBi4
_symmetry_space_group_name_H-M   'P 1'
_cell_length_a   8.44095688
_cell_length_b   11.68690132
_cell_length_c   11.55940520
_cell_angle_alpha   120.36103011
_cell_angle_beta   89.17181988
_cell_angle_gamma   90.00320661
_symmetry_Int_Tables_number   1
_chemical_formula_structural   K4Ba2SnBi4
_chemical_formula_sum   'K8 Ba4 Sn2 Bi8'
_cell_volume   983.79587473
_cell_formula_units_Z   2
loop_
 _symmetry_equiv_pos_site_id
 _symmetry_equiv_pos_as_xyz
  1  'x, y, z'
loop_
 _atom_site_type_symbol
 _atom_site_label
 _atom_site_symmetry_multiplicity
 _atom_site_fract_x
 _atom_site_fract_y
 _atom_site_fract_z
 _atom_site_occupancy
  K  K0  1  0.37277687  0.52041100  0.48013342  1
  K  K1  1  0.37276062  0.95974851  0.48012824  1
  K  K2  1  0.18039212  0.14050980  0.84839176  1
  K  K3  1  0.18040416  0.70783369  0.84835224  1
  K  K4  1  0.18712929  0.14793098  0.29580832  1
  K  K5  1  0.67124696  0.85642269  0.14733628  1
  K  K6  1  0.67127299  0.29094481  0.14736454  1
  K  K7  1  0.66267682  0.85367038  0.70737918  1
  Ba  Ba8  1  0.37088105  0.52161551  0.04320629  1
  Ba  Ba9  1  0.87150470  0.48384024  0.51853919  1
  Ba  Ba10  1  0.87150313  0.03470192  0.51854558  1
  Ba  Ba11  1  0.87099969  0.48301011  0.96601368  1
  Sn  Sn12  1  0.49836508  0.33238897  0.66483178  1
  Sn  Sn13  1  0.00032016  0.66620557  0.33235660  1
  Bi  Bi14  1  0.10321929  0.80584499  0.18791406  1
  Bi  Bi15  1  0.10323205  0.38207773  0.18791714  1
  Bi  Bi16  1  0.08914356  0.80770442  0.61539684  1
  Bi  Bi17  1  0.60809923  0.19833697  0.81168844  1
  Bi  Bi18  1  0.60804863  0.61327256  0.81165370  1
  Bi  Bi19  1  0.61895074  0.19327571  0.38654493  1
  Bi  Bi20  1  0.14047385  0.33667213  0.67335983  1
  Bi  Bi21  1  0.64939903  0.66358131  0.32713796  1
