# generated using pymatgen
data_K3TaNbCu3S8
_symmetry_space_group_name_H-M   'P 1'
_cell_length_a   5.58705283
_cell_length_b   12.24606841
_cell_length_c   13.60614377
_cell_angle_alpha   73.60707685
_cell_angle_beta   78.15214228
_cell_angle_gamma   103.18618902
_symmetry_Int_Tables_number   1
_chemical_formula_structural   K3TaNbCu3S8
_chemical_formula_sum   'K6 Ta2 Nb2 Cu6 S16'
_cell_volume   832.50038767
_cell_formula_units_Z   2
loop_
 _symmetry_equiv_pos_site_id
 _symmetry_equiv_pos_as_xyz
  1  'x, y, z'
loop_
 _atom_site_type_symbol
 _atom_site_label
 _atom_site_symmetry_multiplicity
 _atom_site_fract_x
 _atom_site_fract_y
 _atom_site_fract_z
 _atom_site_occupancy
  K  K0  1  0.50002951  0.99999479  0.00005760  1
  K  K1  1  0.00009232  0.50000521  0.49994240  1
  K  K2  1  0.86181640  0.71135375  0.90527995  1
  K  K3  1  0.55574260  0.78864625  0.59472005  1
  K  K4  1  0.13805341  0.28864467  0.09476797  1
  K  K5  1  0.44417671  0.21135533  0.40523203  1
  Ta  Ta6  1  0.56200743  0.47190353  0.77971726  1
  Ta  Ta7  1  0.36982117  0.02809647  0.72028274  1
  Nb  Nb8  1  0.43807316  0.52785919  0.22017759  1
  Nb  Nb9  1  0.63039156  0.97214081  0.27982241  1
  Cu  Cu10  1  0.05753628  0.46458586  0.78167765  1
  Cu  Cu11  1  0.87462807  0.03541414  0.71832235  1
  Cu  Cu12  1  0.94235984  0.53533506  0.21844998  1
  Cu  Cu13  1  0.12547477  0.96466494  0.28155002  1
  Cu  Cu14  1  0.46923890  0.25000000  0.75000000  1
  Cu  Cu15  1  0.53088703  0.75000000  0.25000000  1
  S  S16  1  0.28877331  0.52980082  0.88993500  1
  S  S17  1  0.14890749  0.97019918  0.61006500  1
  S  S18  1  0.71362459  0.47028487  0.10990450  1
  S  S19  1  0.85324422  0.02971513  0.39009550  1
  S  S20  1  0.66664167  0.30889421  0.87308506  1
  S  S21  1  0.73083252  0.19110579  0.62691494  1
  S  S22  1  0.33212073  0.69165468  0.12714744  1
  S  S23  1  0.26761349  0.80834532  0.37285256  1
  S  S24  1  0.35802965  0.41765912  0.66124084  1
  S  S25  1  0.10161137  0.08234088  0.83875916  1
  S  S26  1  0.64359632  0.58305581  0.33867155  1
  S  S27  1  0.89921207  0.91694419  0.16132845  1
  S  S28  1  0.93622456  0.62571476  0.68709989  1
  S  S29  1  0.49760969  0.87428524  0.81290011  1
  S  S30  1  0.06129546  0.37407295  0.31311121  1
  S  S31  1  0.50033371  0.12592705  0.18688879  1
