# generated using pymatgen
data_Cu2GeTe3
_symmetry_space_group_name_H-M   'P 1'
_cell_length_a   7.39990082
_cell_length_b   7.39990082
_cell_length_c   13.50038212
_cell_angle_alpha   79.45246347
_cell_angle_beta   100.54753653
_cell_angle_gamma   70.60477106
_symmetry_Int_Tables_number   1
_chemical_formula_structural   Cu2GeTe3
_chemical_formula_sum   'Cu8 Ge4 Te12'
_cell_volume   661.40157314
_cell_formula_units_Z   4
loop_
 _symmetry_equiv_pos_site_id
 _symmetry_equiv_pos_as_xyz
  1  'x, y, z'
loop_
 _atom_site_type_symbol
 _atom_site_label
 _atom_site_symmetry_multiplicity
 _atom_site_fract_x
 _atom_site_fract_y
 _atom_site_fract_z
 _atom_site_occupancy
  Cu  Cu0  1  0.25814431  0.24669248  0.49992471  1
  Cu  Cu1  1  0.91147091  0.57813691  0.83333300  1
  Cu  Cu2  1  0.58002548  0.92481131  0.16674229  1
  Cu  Cu3  1  0.34155259  0.66328419  0.66674229  1
  Cu  Cu4  1  0.99661719  0.00821959  -0.00007529  1
  Cu  Cu5  1  0.66147091  0.32813691  0.33333300  1
  Cu  Cu6  1  0.41694682  0.08361282  0.83333300  1
  Cu  Cu7  1  0.16694682  0.83361282  0.33333300  1
  Ge  Ge8  1  0.09436213  0.40620825  0.16958261  1
  Ge  Ge9  1  0.73954125  0.76102913  0.49708439  1
  Ge  Ge10  1  0.82578986  0.17478052  0.66958261  1
  Ge  Ge11  1  0.50811352  0.49245686  0.99708439  1
  Te  Te12  1  0.11196826  0.64087614  0.99280971  1
  Te  Te13  1  0.79698924  0.96148151  0.32933485  1
  Te  Te14  1  0.44421604  0.29397792  0.66698644  1
  Te  Te15  1  0.62731192  0.11088204  0.99967956  1
  Te  Te16  1  0.29481451  0.46365624  0.33733215  1
  Te  Te17  1  0.97420914  0.77863526  0.67385729  1
  Te  Te18  1  0.05098739  0.20748337  0.83733215  1
  Te  Te19  1  0.70249254  0.55035185  0.17385729  1
  Te  Te20  1  0.36056260  0.87763136  0.49967956  1
  Te  Te21  1  0.88368485  0.36915954  0.49280971  1
  Te  Te22  1  0.54081637  0.71765439  0.82933485  1
  Te  Te23  1  0.21096536  0.02722860  0.16698644  1
