# generated using pymatgen
data_Er6Ga17Pd5
_symmetry_space_group_name_H-M   'P 1'
_cell_length_a   4.27634780
_cell_length_b   8.14588340
_cell_length_c   15.64515250
_cell_angle_alpha   76.18624228
_cell_angle_beta   90.00000004
_cell_angle_gamma   105.21757321
_symmetry_Int_Tables_number   1
_chemical_formula_structural   Er6Ga17Pd5
_chemical_formula_sum   'Er6 Ga17 Pd5'
_cell_volume   509.52980401
_cell_formula_units_Z   1
loop_
 _symmetry_equiv_pos_site_id
 _symmetry_equiv_pos_as_xyz
  1  'x, y, z'
loop_
 _atom_site_type_symbol
 _atom_site_label
 _atom_site_symmetry_multiplicity
 _atom_site_fract_x
 _atom_site_fract_y
 _atom_site_fract_z
 _atom_site_occupancy
  Er  Er0  1  0.25064947  0.50129894  0.24866501  1
  Er  Er1  1  0.74935053  0.49870106  0.75133499  1
  Er  Er2  1  0.39959944  0.79919889  0.40006790  1
  Er  Er3  1  0.90372014  0.80744027  0.90366857  1
  Er  Er4  1  0.09627986  0.19255973  0.09633143  1
  Er  Er5  1  0.60040056  0.20080111  0.59993210  1
  Ga  Ga6  1  0.17850013  0.35700025  0.45974011  1
  Ga  Ga7  1  0.67313988  0.34627976  0.95815013  1
  Ga  Ga8  1  0.32686012  0.65372024  0.04184987  1
  Ga  Ga9  1  0.82149987  0.64299975  0.54025989  1
  Ga  Ga10  1  0.45766564  0.91533128  0.17329741  1
  Ga  Ga11  1  0.95961500  0.91922999  0.67817695  1
  Ga  Ga12  1  0.04038500  0.08077001  0.32182305  1
  Ga  Ga13  1  0.54233436  0.08466872  0.82670259  1
  Ga  Ga14  1  0.73556758  0.47113516  0.10440785  1
  Ga  Ga15  1  0.23936627  0.47873254  0.60577368  1
  Ga  Ga16  1  0.76063373  0.52126746  0.39422632  1
  Ga  Ga17  1  0.26443242  0.52886484  0.89559215  1
  Ga  Ga18  1  0.60452968  0.20905936  0.23827015  1
  Ga  Ga19  1  0.10617705  0.21235410  0.73631479  1
  Ga  Ga20  1  0.89382295  0.78764590  0.26368521  1
  Ga  Ga21  1  0.39547032  0.79094064  0.76172985  1
  Ga  Ga22  1  -0.00000000  -0.00000000  0.50000000  1
  Pd  Pd23  1  0.89958137  0.79916274  0.10038687  1
  Pd  Pd24  1  0.40967925  0.81935850  0.59066920  1
  Pd  Pd25  1  0.59032075  0.18064150  0.40933080  1
  Pd  Pd26  1  0.10041863  0.20083726  0.89961313  1
  Pd  Pd27  1  0.50000000  -0.00000000  0.00000000  1
