# generated using pymatgen
data_K2PH3SO8
_symmetry_space_group_name_H-M   'P 1'
_cell_length_a   7.48723778
_cell_length_b   9.74155797
_cell_length_c   11.27291070
_cell_angle_alpha   91.03746001
_cell_angle_beta   88.14928632
_cell_angle_gamma   91.54988537
_symmetry_Int_Tables_number   1
_chemical_formula_structural   K2PH3SO8
_chemical_formula_sum   'K8 P4 H12 S4 O32'
_cell_volume   821.36461203
_cell_formula_units_Z   4
loop_
 _symmetry_equiv_pos_site_id
 _symmetry_equiv_pos_as_xyz
  1  'x, y, z'
loop_
 _atom_site_type_symbol
 _atom_site_label
 _atom_site_symmetry_multiplicity
 _atom_site_fract_x
 _atom_site_fract_y
 _atom_site_fract_z
 _atom_site_occupancy
  K  K0  1  0.30081921  0.40997762  0.20231473  1
  K  K1  1  0.80151069  0.09933114  0.80304018  1
  K  K2  1  0.69918079  0.59002238  0.79768527  1
  K  K3  1  0.19848931  0.90066886  0.19695982  1
  K  K4  1  0.18910662  0.39354538  0.69617769  1
  K  K5  1  0.69660672  0.09057028  0.29983420  1
  K  K6  1  0.81089338  0.60645462  0.30382231  1
  K  K7  1  0.30339328  0.90942972  0.70016580  1
  P  P8  1  0.30471872  0.66476926  0.42278492  1
  P  P9  1  0.69528128  0.33523074  0.57721508  1
  P  P10  1  0.28989426  0.16163355  0.92246192  1
  P  P11  1  0.71010574  0.83836645  0.07753808  1
  H  H12  1  0.50272001  0.32485306  0.93565227  1
  H  H13  1  0.06446440  0.16891991  0.05648555  1
  H  H14  1  0.49727999  0.67514694  0.06434773  1
  H  H15  1  0.93553560  0.83108009  0.94351445  1
  H  H16  1  0.07966920  0.66563571  0.55528853  1
  H  H17  1  0.52354928  0.82524092  0.44214641  1
  H  H18  1  0.92033080  0.33436429  0.44471147  1
  H  H19  1  0.47645072  0.17475908  0.55785359  1
  H  H20  1  0.50000000  0.50000000  0.50000000  1
  H  H21  1  0.00000000  0.00000000  0.50000000  1
  H  H22  1  0.50000000  0.00000000  -0.00000000  1
  H  H23  1  0.00000000  0.50000000  -0.00000000  1
  S  S24  1  0.80266825  0.83274497  0.57279486  1
  S  S25  1  0.19733175  0.16725503  0.42720514  1
  S  S26  1  0.79318633  0.33484490  0.07397056  1
  S  S27  1  0.20681367  0.66515510  0.92602944  1
  O  O28  1  0.21172493  0.64204671  0.55071988  1
  O  O29  1  0.72769973  0.85672796  0.45446893  1
  O  O30  1  0.78827507  0.35795329  0.44928012  1
  O  O31  1  0.27230027  0.14327204  0.54553107  1
  O  O32  1  0.44801052  0.06243641  0.91702478  1
  O  O33  1  0.95330536  0.43633311  0.08736226  1
  O  O34  1  0.55198948  0.93756359  0.08297522  1
  O  O35  1  0.04669464  0.56366689  0.91263774  1
  O  O36  1  0.45919435  0.56207453  0.41348936  1
  O  O37  1  0.95740847  0.93804021  0.58919000  1
  O  O38  1  0.54080565  0.43792547  0.58651064  1
  O  O39  1  0.04259153  0.06195979  0.41081000  1
  O  O40  1  0.17464844  0.65549622  0.32455132  1
  O  O41  1  0.67138370  0.85182205  0.67075372  1
  O  O42  1  0.82535156  0.34450378  0.67544868  1
  O  O43  1  0.32861630  0.14817795  0.32924628  1
  O  O44  1  0.19822753  0.14805626  0.05148391  1
  O  O45  1  0.71791959  0.35415476  0.95529158  1
  O  O46  1  0.80177247  0.85194374  0.94851609  1
  O  O47  1  0.28208041  0.64584524  0.04470842  1
  O  O48  1  0.37256953  0.31498028  0.91595947  1
  O  O49  1  0.86358615  0.19367648  0.08321351  1
  O  O50  1  0.62743047  0.68501972  0.08404053  1
  O  O51  1  0.13641385  0.80632352  0.91678649  1
  O  O52  1  0.15912869  0.14395993  0.82518467  1
  O  O53  1  0.66355293  0.36159204  0.17180377  1
  O  O54  1  0.84087131  0.85604007  0.17481533  1
  O  O55  1  0.33644707  0.63840796  0.82819623  1
  O  O56  1  0.39077468  0.81675501  0.42560047  1
  O  O57  1  0.87804745  0.69292613  0.57605302  1
  O  O58  1  0.60922532  0.18324499  0.57439953  1
  O  O59  1  0.12195255  0.30707387  0.42394698  1
