# generated using pymatgen
data_Er2Ga3Ni
_symmetry_space_group_name_H-M   'P 1'
_cell_length_a   4.32496415
_cell_length_b   5.61346923
_cell_length_c   5.51494487
_cell_angle_alpha   95.67129972
_cell_angle_beta   113.08604073
_cell_angle_gamma   67.34192701
_symmetry_Int_Tables_number   1
_chemical_formula_structural   Er2Ga3Ni
_chemical_formula_sum   'Er2 Ga3 Ni1'
_cell_volume   113.44808905
_cell_formula_units_Z   1
loop_
 _symmetry_equiv_pos_site_id
 _symmetry_equiv_pos_as_xyz
  1  'x, y, z'
loop_
 _atom_site_type_symbol
 _atom_site_label
 _atom_site_symmetry_multiplicity
 _atom_site_fract_x
 _atom_site_fract_y
 _atom_site_fract_z
 _atom_site_occupancy
  Er  Er0  1  0.75217990  0.70443155  0.20879136  1
  Er  Er1  1  0.24929840  0.29824972  0.79684651  1
  Ga  Ga2  1  0.45955237  0.68936716  0.60847191  1
  Ga  Ga3  1  0.05563780  0.11998345  0.23125904  1
  Ga  Ga4  1  0.93195581  0.90538821  0.76929983  1
  Ni  Ni5  1  0.55137572  0.28257991  0.38533136  1
