# generated using pymatgen
data_Er4FeS7
_symmetry_space_group_name_H-M   'P 1'
_cell_length_a   3.76339012
_cell_length_b   6.46222538
_cell_length_c   11.36503937
_cell_angle_alpha   103.79098460
_cell_angle_beta   90.00000005
_cell_angle_gamma   73.07116522
_symmetry_Int_Tables_number   1
_chemical_formula_structural   Er4FeS7
_chemical_formula_sum   'Er4 Fe1 S7'
_cell_volume   256.07889230
_cell_formula_units_Z   1
loop_
 _symmetry_equiv_pos_site_id
 _symmetry_equiv_pos_as_xyz
  1  'x, y, z'
loop_
 _atom_site_type_symbol
 _atom_site_label
 _atom_site_symmetry_multiplicity
 _atom_site_fract_x
 _atom_site_fract_y
 _atom_site_fract_z
 _atom_site_occupancy
  Er  Er0  1  0.69486961  0.61026077  0.20575868  1
  Er  Er1  1  0.30491387  0.39017226  0.80204741  1
  Er  Er2  1  0.11225949  0.77548103  0.56510152  1
  Er  Er3  1  0.99936061  0.00127877  0.00563032  1
  Fe  Fe4  1  0.88926873  0.22146254  0.42308817  1
  S  S5  1  0.03298217  0.93403566  0.22680591  1
  S  S6  1  0.96325298  0.07349404  0.78371463  1
  S  S7  1  0.33835560  0.32328880  0.05177533  1
  S  S8  1  0.65984221  0.68031558  0.94890598  1
  S  S9  1  0.74456026  0.51087948  0.63924394  1
  S  S10  1  0.26940261  0.46119478  0.35428734  1
  S  S11  1  0.49093185  0.01813631  0.49364077  1
