# generated using pymatgen
data_Dy6Mg(GeS7)2
_symmetry_space_group_name_H-M   'P 1'
_cell_length_a   5.79370544
_cell_length_b   9.85766046
_cell_length_c   9.85759312
_cell_angle_alpha   60.00081401
_cell_angle_beta   90.00041264
_cell_angle_gamma   90.00084663
_symmetry_Int_Tables_number   1
_chemical_formula_structural   Dy6Mg(GeS7)2
_chemical_formula_sum   'Dy6 Mg1 Ge2 S14'
_cell_volume   487.56817350
_cell_formula_units_Z   1
loop_
 _symmetry_equiv_pos_site_id
 _symmetry_equiv_pos_as_xyz
  1  'x, y, z'
loop_
 _atom_site_type_symbol
 _atom_site_label
 _atom_site_symmetry_multiplicity
 _atom_site_fract_x
 _atom_site_fract_y
 _atom_site_fract_z
 _atom_site_occupancy
  Dy  Dy0  1  0.74342815  0.13615126  0.22333563  1
  Dy  Dy1  1  0.74343597  0.64053031  0.13614233  1
  Dy  Dy2  1  0.74342516  0.22333640  0.64051746  1
  Dy  Dy3  1  0.24047503  0.86451850  0.77739601  1
  Dy  Dy4  1  0.24048007  0.35806637  0.86452954  1
  Dy  Dy5  1  0.24047250  0.77739633  0.35808042  1
  Mg  Mg6  1  0.52544484  0.99999925  0.00000100  1
  Ge  Ge7  1  0.16394273  0.33335597  0.33332267  1
  Ge  Ge8  1  0.66126886  0.66664467  0.66667926  1
  S  S9  1  0.00239169  0.48149467  0.42115976  1
  S  S10  1  0.00240918  0.09737471  0.48147385  1
  S  S11  1  0.00239522  0.42116734  0.09734733  1
  S  S12  1  0.49997852  0.51887578  0.57855591  1
  S  S13  1  0.50000130  0.90254022  0.51889895  1
  S  S14  1  0.49998303  0.57854482  0.90256813  1
  S  S15  1  0.77754620  0.25181673  0.90260229  1
  S  S16  1  0.77754459  0.84558397  0.25181816  1
  S  S17  1  0.77753497  0.90260267  0.84557533  1
  S  S18  1  0.29274003  0.74748025  0.09927267  1
  S  S19  1  0.29274057  0.15324177  0.74747696  1
  S  S20  1  0.29274744  0.09927363  0.15325191  1
  S  S21  1  0.54336860  0.33336199  0.33331678  1
  S  S22  1  0.04164533  0.66664239  0.66667765  1
