# generated using pymatgen
data_EuYAl6(BO3)8
_symmetry_space_group_name_H-M   'P 1'
_cell_length_a   5.93440296
_cell_length_b   5.93338122
_cell_length_c   11.17814516
_cell_angle_alpha   81.93689564
_cell_angle_beta   81.91360927
_cell_angle_gamma   104.15257344
_symmetry_Int_Tables_number   1
_chemical_formula_structural   EuYAl6(BO3)8
_chemical_formula_sum   'Eu1 Y1 Al6 B8 O24'
_cell_volume   371.54742331
_cell_formula_units_Z   1
loop_
 _symmetry_equiv_pos_site_id
 _symmetry_equiv_pos_as_xyz
  1  'x, y, z'
loop_
 _atom_site_type_symbol
 _atom_site_label
 _atom_site_symmetry_multiplicity
 _atom_site_fract_x
 _atom_site_fract_y
 _atom_site_fract_z
 _atom_site_occupancy
  Eu  Eu0  1  0.50087712  0.49899403  0.50006743  1
  Y  Y1  1  0.00009606  0.99990312  0.00000107  1
  Al  Al2  1  0.72246974  0.16559580  0.27742056  1
  Al  Al3  1  0.22167932  0.66651139  0.77854551  1
  Al  Al4  1  0.33356427  0.77838274  0.22136762  1
  Al  Al5  1  0.83439929  0.27749512  0.72262542  1
  Al  Al6  1  0.94343924  0.05657415  0.50004154  1
  Al  Al7  1  0.44426988  0.55575563  0.99998542  1
  B  B8  1  0.02914306  0.58739457  0.47063022  1
  B  B9  1  0.52898807  0.08610189  0.97131839  1
  B  B10  1  0.91385640  0.47091583  0.02872935  1
  B  B11  1  0.41256996  0.97088515  0.52938722  1
  B  B12  1  0.80811306  0.69211125  0.24877828  1
  B  B13  1  0.30793229  0.19186529  0.75121095  1
  B  B14  1  0.25009230  0.25012489  0.24988601  1
  B  B15  1  0.74995545  0.75000376  0.75007797  1
  O  O16  1  0.45451301  0.86314511  0.04546155  1
  O  O17  1  0.95451072  0.36447254  0.54520744  1
  O  O18  1  0.63544391  0.04545119  0.45483606  1
  O  O19  1  0.13691341  0.54551893  0.95451406  1
  O  O20  1  0.65870806  0.84036759  0.25012695  1
  O  O21  1  0.15961705  0.34132835  0.74987165  1
  O  O22  1  0.32420520  0.47285286  0.17540566  1
  O  O23  1  0.82433965  0.97280489  0.67586987  1
  O  O24  1  0.02715501  0.17564520  0.32416275  1
  O  O25  1  0.52713631  0.67581323  0.82460223  1
  O  O26  1  0.39879370  0.10152718  0.24986067  1
  O  O27  1  0.89846939  0.60122291  0.75013841  1
  O  O28  1  0.23356232  0.64195137  0.38642804  1
  O  O29  1  0.73914517  0.13937233  0.88986212  1
  O  O30  1  0.76425179  0.61313529  0.01440445  1
  O  O31  1  0.25913006  0.10756088  0.51434136  1
  O  O32  1  0.72002409  0.46393630  0.30936345  1
  O  O33  1  0.21246378  0.96380617  0.81510535  1
  O  O34  1  0.03621674  0.78754218  0.18488432  1
  O  O35  1  0.53608552  0.27999926  0.69064252  1
  O  O36  1  0.86065319  0.26093574  0.11011064  1
  O  O37  1  0.35814024  0.76646796  0.61359592  1
  O  O38  1  0.89246170  0.74092070  0.48560740  1
  O  O39  1  0.38688247  0.23574326  0.98558617  1
