# generated using pymatgen
data_EuSiNi2Ge
_symmetry_space_group_name_H-M   'P 1'
_cell_length_a   4.07787131
_cell_length_b   4.07787131
_cell_length_c   5.74762018
_cell_angle_alpha   69.22222988
_cell_angle_beta   69.22222988
_cell_angle_gamma   90.00000000
_symmetry_Int_Tables_number   1
_chemical_formula_structural   EuSiNi2Ge
_chemical_formula_sum   'Eu1 Si1 Ni2 Ge1'
_cell_volume   82.67929274
_cell_formula_units_Z   1
loop_
 _symmetry_equiv_pos_site_id
 _symmetry_equiv_pos_as_xyz
  1  'x, y, z'
loop_
 _atom_site_type_symbol
 _atom_site_label
 _atom_site_symmetry_multiplicity
 _atom_site_fract_x
 _atom_site_fract_y
 _atom_site_fract_z
 _atom_site_occupancy
  Eu  Eu0  1  0.00100977  0.00100977  0.99798046  1
  Si  Si1  1  0.63642295  0.63642295  0.72715410  1
  Ni  Ni2  1  0.74545580  0.24545580  0.50908841  1
  Ni  Ni3  1  0.24545580  0.74545580  0.50908841  1
  Ge  Ge4  1  0.37165569  0.37165569  0.25668862  1
