# generated using pymatgen
data_Cr3Cu2SbS8
_symmetry_space_group_name_H-M   'P 1'
_cell_length_a   7.05336221
_cell_length_b   7.19680357
_cell_length_c   7.05336221
_cell_angle_alpha   90.00000000
_cell_angle_beta   60.00000000
_cell_angle_gamma   119.34284065
_symmetry_Int_Tables_number   1
_chemical_formula_structural   Cr3Cu2SbS8
_chemical_formula_sum   'Cr3 Cu2 Sb1 S8'
_cell_volume   255.65846884
_cell_formula_units_Z   1
loop_
 _symmetry_equiv_pos_site_id
 _symmetry_equiv_pos_as_xyz
  1  'x, y, z'
loop_
 _atom_site_type_symbol
 _atom_site_label
 _atom_site_symmetry_multiplicity
 _atom_site_fract_x
 _atom_site_fract_y
 _atom_site_fract_z
 _atom_site_occupancy
  Cr  Cr0  1  0.50000000  0.00000000  -0.00000000  1
  Cr  Cr1  1  0.00000000  0.00000000  0.50000000  1
  Cr  Cr2  1  0.00000000  0.00000000  -0.00000000  1
  Cu  Cu3  1  0.75973311  0.38959966  0.37013345  1
  Cu  Cu4  1  0.24026689  0.61040034  0.62986655  1
  Sb  Sb5  1  0.50000000  0.50000000  -0.00000000  1
  S  S6  1  0.01785587  0.77678380  0.24107207  1
  S  S7  1  0.99267016  0.22383882  0.25366492  1
  S  S8  1  0.47750374  0.22383882  0.76883134  1
  S  S9  1  0.47750374  0.22383882  0.25366492  1
  S  S10  1  0.98214413  0.22321620  0.75892793  1
  S  S11  1  0.00732984  0.77616118  0.74633508  1
  S  S12  1  0.52249626  0.77616118  0.23116866  1
  S  S13  1  0.52249626  0.77616118  0.74633508  1
