# generated using pymatgen
data_Cs3Rb5(SeO4)4
_symmetry_space_group_name_H-M   'P 1'
_cell_length_a   6.42281186
_cell_length_b   8.37181079
_cell_length_c   11.19787475
_cell_angle_alpha   90.03646795
_cell_angle_beta   90.00000000
_cell_angle_gamma   90.00000000
_symmetry_Int_Tables_number   1
_chemical_formula_structural   Cs3Rb5(SeO4)4
_chemical_formula_sum   'Cs3 Rb5 Se4 O16'
_cell_volume   602.11593734
_cell_formula_units_Z   1
loop_
 _symmetry_equiv_pos_site_id
 _symmetry_equiv_pos_as_xyz
  1  'x, y, z'
loop_
 _atom_site_type_symbol
 _atom_site_label
 _atom_site_symmetry_multiplicity
 _atom_site_fract_x
 _atom_site_fract_y
 _atom_site_fract_z
 _atom_site_occupancy
  Cs  Cs0  1  0.75000000  0.32720275  0.58895424  1
  Cs  Cs1  1  0.75000000  0.82732562  0.91114858  1
  Cs  Cs2  1  0.25000000  0.67278282  0.41102630  1
  Rb  Rb3  1  0.25000000  0.17513391  0.08791276  1
  Rb  Rb4  1  0.75000000  0.50682480  0.20572279  1
  Rb  Rb5  1  0.75000000  0.00708350  0.29404853  1
  Rb  Rb6  1  0.25000000  0.49286266  0.79436371  1
  Rb  Rb7  1  0.25000000  0.99303017  0.70591032  1
  Se  Se8  1  0.75000000  0.27133556  0.92055043  1
  Se  Se9  1  0.75000000  0.77157445  0.58008843  1
  Se  Se10  1  0.25000000  0.72808486  0.08008914  1
  Se  Se11  1  0.25000000  0.22821248  0.41944612  1
  O  O12  1  0.75000000  0.47112993  0.91899472  1
  O  O13  1  0.75000000  0.97138836  0.58108269  1
  O  O14  1  0.25000000  0.52803434  0.08109660  1
  O  O15  1  0.25000000  0.02846323  0.41889076  1
  O  O16  1  0.75000000  0.20285281  0.06191721  1
  O  O17  1  0.75000000  0.70312829  0.43871975  1
  O  O18  1  0.25000000  0.79696610  0.93888294  1
  O  O19  1  0.25000000  0.29685535  0.56084671  1
  O  O20  1  0.96454813  0.20344280  0.85094463  1
  O  O21  1  0.53613501  0.70365303  0.65009792  1
  O  O22  1  0.46357570  0.79683334  0.15004207  1
  O  O23  1  0.03637954  0.29593483  0.34906903  1
  O  O24  1  0.03642430  0.79683334  0.15004207  1
  O  O25  1  0.46362046  0.29593483  0.34906903  1
  O  O26  1  0.53545187  0.20344280  0.85094463  1
  O  O27  1  0.96386499  0.70365303  0.65009792  1
