# generated using pymatgen
data_Cs4TlSbCl12
_symmetry_space_group_name_H-M   'P 1'
_cell_length_a   7.65685509
_cell_length_b   10.62957368
_cell_length_c   7.65685509
_cell_angle_alpha   90.00000000
_cell_angle_beta   90.00000000
_cell_angle_gamma   90.00000000
_symmetry_Int_Tables_number   1
_chemical_formula_structural   Cs4TlSbCl12
_chemical_formula_sum   'Cs4 Tl1 Sb1 Cl12'
_cell_volume   623.18458622
_cell_formula_units_Z   1
loop_
 _symmetry_equiv_pos_site_id
 _symmetry_equiv_pos_as_xyz
  1  'x, y, z'
loop_
 _atom_site_type_symbol
 _atom_site_label
 _atom_site_symmetry_multiplicity
 _atom_site_fract_x
 _atom_site_fract_y
 _atom_site_fract_z
 _atom_site_occupancy
  Cs  Cs0  1  0.50000000  0.22259904  0.00000000  1
  Cs  Cs1  1  0.00000000  0.77740096  0.50000000  1
  Cs  Cs2  1  0.50000000  0.77740096  0.00000000  1
  Cs  Cs3  1  0.00000000  0.22259904  0.50000000  1
  Tl  Tl4  1  0.00000000  -0.00000000  0.00000000  1
  Sb  Sb5  1  0.50000000  0.50000000  0.50000000  1
  Cl  Cl6  1  0.00000000  0.24813166  0.00000000  1
  Cl  Cl7  1  0.50000000  0.72727719  0.50000000  1
  Cl  Cl8  1  0.27681946  0.50000000  0.27681946  1
  Cl  Cl9  1  0.75605966  -0.00000000  0.75605966  1
  Cl  Cl10  1  0.27681946  0.50000000  0.72318054  1
  Cl  Cl11  1  0.75605966  -0.00000000  0.24394034  1
  Cl  Cl12  1  0.00000000  0.75186834  0.00000000  1
  Cl  Cl13  1  0.50000000  0.27272281  0.50000000  1
  Cl  Cl14  1  0.72318054  0.50000000  0.72318054  1
  Cl  Cl15  1  0.24394034  0.00000000  0.24394034  1
  Cl  Cl16  1  0.72318054  0.50000000  0.27681946  1
  Cl  Cl17  1  0.24394034  0.00000000  0.75605966  1
