# generated using pymatgen
data_Ce5BiSb4
_symmetry_space_group_name_H-M   'P 1'
_cell_length_a   4.53352103
_cell_length_b   4.53352103
_cell_length_c   18.67018238
_cell_angle_alpha   96.97352693
_cell_angle_beta   83.02647307
_cell_angle_gamma   120.00000000
_symmetry_Int_Tables_number   1
_chemical_formula_structural   Ce5BiSb4
_chemical_formula_sum   'Ce5 Bi1 Sb4'
_cell_volume   329.03351111
_cell_formula_units_Z   1
loop_
 _symmetry_equiv_pos_site_id
 _symmetry_equiv_pos_as_xyz
  1  'x, y, z'
loop_
 _atom_site_type_symbol
 _atom_site_label
 _atom_site_symmetry_multiplicity
 _atom_site_fract_x
 _atom_site_fract_y
 _atom_site_fract_z
 _atom_site_occupancy
  Ce  Ce0  1  0.70187434  0.29812566  0.89437698  1
  Ce  Ce1  1  0.50000000  0.50000000  0.50000000  1
  Ce  Ce2  1  0.10036968  0.89963032  0.69889096  1
  Ce  Ce3  1  0.29812566  0.70187434  0.10562302  1
  Ce  Ce4  1  0.89963032  0.10036968  0.30110904  1
  Bi  Bi5  1  0.00000000  0.00000000  0.00000000  1
  Sb  Sb6  1  0.59953235  0.40046765  0.20140296  1
  Sb  Sb7  1  0.19995174  0.80004826  0.40014479  1
  Sb  Sb8  1  0.80004826  0.19995174  0.59985521  1
  Sb  Sb9  1  0.40046765  0.59953235  0.79859704  1
