# generated using pymatgen
data_Dy2(GaNi)5
_symmetry_space_group_name_H-M   'P 1'
_cell_length_a   4.06593730
_cell_length_b   8.85740734
_cell_length_c   15.42910792
_cell_angle_alpha   90.20010555
_cell_angle_beta   90.00000000
_cell_angle_gamma   90.00000000
_symmetry_Int_Tables_number   1
_chemical_formula_structural   Dy2(GaNi)5
_chemical_formula_sum   'Dy6 Ga15 Ni15'
_cell_volume   555.65530231
_cell_formula_units_Z   3
loop_
 _symmetry_equiv_pos_site_id
 _symmetry_equiv_pos_as_xyz
  1  'x, y, z'
loop_
 _atom_site_type_symbol
 _atom_site_label
 _atom_site_symmetry_multiplicity
 _atom_site_fract_x
 _atom_site_fract_y
 _atom_site_fract_z
 _atom_site_occupancy
  Dy  Dy0  1  0.00000000  0.00069601  0.33683602  1
  Dy  Dy1  1  0.00000000  0.49570693  0.83563927  1
  Dy  Dy2  1  0.00000000  0.49431983  0.16848415  1
  Dy  Dy3  1  0.00000000  0.99680479  0.66385528  1
  Dy  Dy4  1  0.50000000  0.00780185  0.00056336  1
  Dy  Dy5  1  0.50000000  0.50251999  0.49638764  1
  Ga  Ga6  1  0.50000000  0.99016672  0.50126412  1
  Ga  Ga7  1  0.50000000  0.49190270  0.00066070  1
  Ga  Ga8  1  0.50000000  0.25314901  0.25585532  1
  Ga  Ga9  1  0.50000000  0.74791405  0.75176415  1
  Ga  Ga10  1  0.50000000  0.75105112  0.24798730  1
  Ga  Ga11  1  0.50000000  0.24839719  0.74788529  1
  Ga  Ga12  1  0.00000000  0.85472118  0.85385328  1
  Ga  Ga13  1  0.00000000  0.85457881  0.14709034  1
  Ga  Ga14  1  -0.00000000  0.35254498  0.64680744  1
  Ga  Ga15  1  0.00000000  0.21849527  0.49427665  1
  Ga  Ga16  1  0.00000000  0.70485002  0.00062267  1
  Ga  Ga17  1  -0.00000000  0.15048829  0.14016594  1
  Ga  Ga18  1  0.00000000  0.64826979  0.63780054  1
  Ga  Ga19  1  0.00000000  0.63790349  0.36227111  1
  Ga  Ga20  1  -0.00000000  0.14881937  0.86179928  1
  Ni  Ni21  1  0.50000000  0.00499446  0.18505540  1
  Ni  Ni22  1  0.50000000  0.50125443  0.68358329  1
  Ni  Ni23  1  0.50000000  0.77501077  0.40470499  1
  Ni  Ni24  1  0.50000000  0.27439741  0.90643801  1
  Ni  Ni25  1  0.50000000  0.22092915  0.41030261  1
  Ni  Ni26  1  0.50000000  0.72274475  0.90959209  1
  Ni  Ni27  1  0.50000000  0.50492073  0.31553731  1
  Ni  Ni28  1  0.50000000  0.00166913  0.81492300  1
  Ni  Ni29  1  0.50000000  0.27490177  0.09449414  1
  Ni  Ni30  1  0.50000000  0.77242212  0.59353816  1
  Ni  Ni31  1  0.50000000  0.72271381  0.09098401  1
  Ni  Ni32  1  0.50000000  0.22196654  0.58962663  1
  Ni  Ni33  1  0.00000000  0.80030809  0.49931574  1
  Ni  Ni34  1  0.00000000  0.29964009  0.00037762  1
  Ni  Ni35  1  -0.00000000  0.35082535  0.34965716  1
