# generated using pymatgen
data_Cs8Na4Y3HoCl24
_symmetry_space_group_name_H-M   'P 1'
_cell_length_a   7.70232162
_cell_length_b   10.89399850
_cell_length_c   15.42292153
_cell_angle_alpha   90.00000000
_cell_angle_beta   90.00000000
_cell_angle_gamma   90.00000000
_symmetry_Int_Tables_number   1
_chemical_formula_structural   Cs8Na4Y3HoCl24
_chemical_formula_sum   'Cs8 Na4 Y3 Ho1 Cl24'
_cell_volume   1294.12315963
_cell_formula_units_Z   1
loop_
 _symmetry_equiv_pos_site_id
 _symmetry_equiv_pos_as_xyz
  1  'x, y, z'
loop_
 _atom_site_type_symbol
 _atom_site_label
 _atom_site_symmetry_multiplicity
 _atom_site_fract_x
 _atom_site_fract_y
 _atom_site_fract_z
 _atom_site_occupancy
  Cs  Cs0  1  0.50000000  0.25000631  0.50000000  1
  Cs  Cs1  1  0.00000000  0.75005548  0.75006840  1
  Cs  Cs2  1  0.50000000  0.24985828  -0.00000000  1
  Cs  Cs3  1  0.00000000  0.75005548  0.24993160  1
  Cs  Cs4  1  0.50000000  0.74999369  0.50000000  1
  Cs  Cs5  1  0.00000000  0.24994452  0.75006840  1
  Cs  Cs6  1  0.50000000  0.75014172  -0.00000000  1
  Cs  Cs7  1  0.00000000  0.24994452  0.24993160  1
  Na  Na8  1  0.00000000  0.50000000  0.50000000  1
  Na  Na9  1  0.50000000  0.00000000  0.75020527  1
  Na  Na10  1  0.00000000  0.50000000  -0.00000000  1
  Na  Na11  1  0.50000000  0.00000000  0.24979473  1
  Y  Y12  1  0.50000000  0.50000000  0.25000430  1
  Y  Y13  1  0.00000000  0.00000000  0.50000000  1
  Y  Y14  1  0.50000000  0.50000000  0.74999570  1
  Ho  Ho15  1  0.00000000  0.00000000  -0.00000000  1
  Cl  Cl16  1  0.00000000  0.24289767  0.50000000  1
  Cl  Cl17  1  0.50000000  0.74297060  0.75000943  1
  Cl  Cl18  1  0.00000000  0.24121528  -0.00000000  1
  Cl  Cl19  1  0.50000000  0.74297060  0.24999057  1
  Cl  Cl20  1  0.25714813  0.50000000  0.62859311  1
  Cl  Cl21  1  0.75876013  0.00000000  0.87941169  1
  Cl  Cl22  1  0.25704283  0.50000000  0.12856151  1
  Cl  Cl23  1  0.75705348  0.00000000  0.37855184  1
  Cl  Cl24  1  0.25714813  0.50000000  0.37140689  1
  Cl  Cl25  1  0.75705348  0.00000000  0.62144816  1
  Cl  Cl26  1  0.25704283  0.50000000  0.87143849  1
  Cl  Cl27  1  0.75876013  0.00000000  0.12058831  1
  Cl  Cl28  1  0.00000000  0.75710233  0.50000000  1
  Cl  Cl29  1  0.50000000  0.25702940  0.75000943  1
  Cl  Cl30  1  0.00000000  0.75878472  -0.00000000  1
  Cl  Cl31  1  0.50000000  0.25702940  0.24999057  1
  Cl  Cl32  1  0.74285187  0.50000000  0.37140689  1
  Cl  Cl33  1  0.24294652  0.00000000  0.62144816  1
  Cl  Cl34  1  0.74295717  0.50000000  0.87143849  1
  Cl  Cl35  1  0.24123987  0.00000000  0.12058831  1
  Cl  Cl36  1  0.74285187  0.50000000  0.62859311  1
  Cl  Cl37  1  0.24123987  0.00000000  0.87941169  1
  Cl  Cl38  1  0.74295717  0.50000000  0.12856151  1
  Cl  Cl39  1  0.24294652  0.00000000  0.37855184  1
