# generated using pymatgen
data_Ba6Mn4Co2ClO16
_symmetry_space_group_name_H-M   'P 1'
_cell_length_a   5.81516145
_cell_length_b   5.82231996
_cell_length_c   14.93507505
_cell_angle_alpha   90.00000000
_cell_angle_beta   90.00000000
_cell_angle_gamma   60.07537758
_symmetry_Int_Tables_number   1
_chemical_formula_structural   Ba6Mn4Co2ClO16
_chemical_formula_sum   'Ba6 Mn4 Co2 Cl1 O16'
_cell_volume   438.25336110
_cell_formula_units_Z   1
loop_
 _symmetry_equiv_pos_site_id
 _symmetry_equiv_pos_as_xyz
  1  'x, y, z'
loop_
 _atom_site_type_symbol
 _atom_site_label
 _atom_site_symmetry_multiplicity
 _atom_site_fract_x
 _atom_site_fract_y
 _atom_site_fract_z
 _atom_site_occupancy
  Ba  Ba0  1  0.66728675  0.66680521  0.35136429  1
  Ba  Ba1  1  0.66728675  0.66680521  0.64863571  1
  Ba  Ba2  1  0.00114224  0.99754682  0.79719209  1
  Ba  Ba3  1  0.00114224  0.99754682  0.20280791  1
  Ba  Ba4  1  0.32645607  0.33425859  0.00000000  1
  Ba  Ba5  1  0.00008039  0.99990046  0.50000000  1
  Mn  Mn6  1  0.33401734  0.33104016  0.75907119  1
  Mn  Mn7  1  0.33401734  0.33104016  0.24092881  1
  Mn  Mn8  1  0.33386064  0.33354456  0.58539912  1
  Mn  Mn9  1  0.33386064  0.33354456  0.41460088  1
  Co  Co10  1  0.66749264  0.66166407  0.87934238  1
  Co  Co11  1  0.66749264  0.66166407  0.12065762  1
  Cl  Cl12  1  0.00819685  0.99885049  -0.00000000  1
  O  O13  1  0.18752574  0.62745745  0.66547200  1
  O  O14  1  0.62911398  0.18601233  0.66568123  1
  O  O15  1  0.18682139  0.18566952  0.66590299  1
  O  O16  1  0.18752574  0.62745745  0.33452800  1
  O  O17  1  0.62911398  0.18601233  0.33431877  1
  O  O18  1  0.18682139  0.18566952  0.33409701  1
  O  O19  1  0.48265988  0.48175965  0.50000000  1
  O  O20  1  0.48183502  0.03635888  0.50000000  1
  O  O21  1  0.03624658  0.48152811  0.50000000  1
  O  O22  1  0.49308236  0.49280730  0.83002348  1
  O  O23  1  0.49148762  0.01563308  0.83021540  1
  O  O24  1  0.01561638  0.49216771  0.82803240  1
  O  O25  1  0.49308236  0.49280730  0.16997652  1
  O  O26  1  0.49148762  0.01563308  0.16978460  1
  O  O27  1  0.01561638  0.49216771  0.17196760  1
  O  O28  1  0.69503107  0.66394747  -0.00000000  1
