# generated using pymatgen
data_Ba6Ca2Ta(RuO6)3
_symmetry_space_group_name_H-M   'P 1'
_cell_length_a   6.00582682
_cell_length_b   6.00592050
_cell_length_c   14.91165667
_cell_angle_alpha   90.00000000
_cell_angle_beta   90.00363404
_cell_angle_gamma   59.99948401
_symmetry_Int_Tables_number   1
_chemical_formula_structural   Ba6Ca2Ta(RuO6)3
_chemical_formula_sum   'Ba6 Ca2 Ta1 Ru3 O18'
_cell_volume   465.80768831
_cell_formula_units_Z   1
loop_
 _symmetry_equiv_pos_site_id
 _symmetry_equiv_pos_as_xyz
  1  'x, y, z'
loop_
 _atom_site_type_symbol
 _atom_site_label
 _atom_site_symmetry_multiplicity
 _atom_site_fract_x
 _atom_site_fract_y
 _atom_site_fract_z
 _atom_site_occupancy
  Ba  Ba0  1  0.33335442  0.33332279  0.60296287  1
  Ba  Ba1  1  0.66667375  0.66666312  0.40394140  1
  Ba  Ba2  1  0.66666311  0.66666844  0.10070115  1
  Ba  Ba3  1  0.33332892  0.33333554  0.90173056  1
  Ba  Ba4  1  -0.00000072  0.00000036  0.75032019  1
  Ba  Ba5  1  0.00001100  0.99999450  0.24803933  1
  Ca  Ca6  1  0.00001477  0.99999262  0.50153134  1
  Ca  Ca7  1  0.99999065  0.00000468  0.00010335  1
  Ta  Ta8  1  0.33334368  0.33332816  0.34529004  1
  Ru  Ru9  1  0.66667899  0.66666050  0.65794087  1
  Ru  Ru10  1  0.66663967  0.66668016  0.84352937  1
  Ru  Ru11  1  0.33336277  0.33331861  0.15602972  1
  O  O12  1  0.17354718  0.65292755  0.40887054  1
  O  O13  1  0.65295064  0.17352468  0.40886764  1
  O  O14  1  0.17354718  0.17352526  0.40887054  1
  O  O15  1  0.82271569  0.35454298  0.59024432  1
  O  O16  1  0.35454859  0.82272571  0.59024090  1
  O  O17  1  0.82271569  0.82274133  0.59024432  1
  O  O18  1  0.82329503  0.35336389  0.90989689  1
  O  O19  1  0.35336207  0.82331896  0.90989028  1
  O  O20  1  0.82329503  0.82334108  0.90989689  1
  O  O21  1  0.17709871  0.64577755  0.08874026  1
  O  O22  1  0.64580925  0.17709538  0.08876875  1
  O  O23  1  0.17709871  0.17712374  0.08874026  1
  O  O24  1  0.51665732  0.96668085  0.75004805  1
  O  O25  1  0.96666758  0.51666621  0.75005095  1
  O  O26  1  0.51665732  0.51666183  0.75004805  1
  O  O27  1  0.48345308  0.03308129  0.24815364  1
  O  O28  1  0.03306685  0.48346657  0.24815385  1
  O  O29  1  0.48345308  0.48346564  0.24815364  1
