# generated using pymatgen
data_BaSrEr4O8
_symmetry_space_group_name_H-M   'P 1'
_cell_length_a   3.42544541
_cell_length_b   10.28413229
_cell_length_c   12.03065099
_cell_angle_alpha   90.00000000
_cell_angle_beta   90.00000000
_cell_angle_gamma   90.00000000
_symmetry_Int_Tables_number   1
_chemical_formula_structural   BaSrEr4O8
_chemical_formula_sum   'Ba2 Sr2 Er8 O16'
_cell_volume   423.81256990
_cell_formula_units_Z   2
loop_
 _symmetry_equiv_pos_site_id
 _symmetry_equiv_pos_as_xyz
  1  'x, y, z'
loop_
 _atom_site_type_symbol
 _atom_site_label
 _atom_site_symmetry_multiplicity
 _atom_site_fract_x
 _atom_site_fract_y
 _atom_site_fract_z
 _atom_site_occupancy
  Ba  Ba0  1  0.75000000  0.74743189  0.14892249  1
  Ba  Ba1  1  0.75000000  0.24743189  0.35107751  1
  Sr  Sr2  1  0.25000000  0.25376525  0.85214264  1
  Sr  Sr3  1  0.25000000  0.75376525  0.64785736  1
  Er  Er4  1  0.75000000  0.07698966  0.10699542  1
  Er  Er5  1  0.75000000  0.57698966  0.39300458  1
  Er  Er6  1  0.25000000  0.92685539  0.88509871  1
  Er  Er7  1  0.25000000  0.42685539  0.61490129  1
  Er  Er8  1  0.75000000  0.07559729  0.61307694  1
  Er  Er9  1  0.75000000  0.57559729  0.88692306  1
  Er  Er10  1  0.25000000  0.92165512  0.39375437  1
  Er  Er11  1  0.25000000  0.42165512  0.10624563  1
  O  O12  1  0.75000000  0.07706627  0.92042508  1
  O  O13  1  0.75000000  0.57706627  0.57957492  1
  O  O14  1  0.25000000  0.93309200  0.07073315  1
  O  O15  1  0.25000000  0.43309200  0.42926685  1
  O  O16  1  0.75000000  0.98137257  0.28405242  1
  O  O17  1  0.75000000  0.48137257  0.21594758  1
  O  O18  1  0.25000000  0.01447872  0.71693874  1
  O  O19  1  0.25000000  0.51447872  0.78306126  1
  O  O20  1  0.75000000  0.37697129  0.97696692  1
  O  O21  1  0.75000000  0.87697129  0.52303308  1
  O  O22  1  0.25000000  0.61452145  0.01421517  1
  O  O23  1  0.25000000  0.11452145  0.48578483  1
  O  O24  1  0.75000000  0.28996704  0.66790649  1
  O  O25  1  0.75000000  0.78996704  0.83209351  1
  O  O26  1  0.25000000  0.71023607  0.34110496  1
  O  O27  1  0.25000000  0.21023607  0.15889504  1
