# generated using pymatgen
data_Ca4Ti4Si3GeO20
_symmetry_space_group_name_H-M   'P 1'
_cell_length_a   6.68921172
_cell_length_b   7.18369343
_cell_length_c   8.81487748
_cell_angle_alpha   89.98081229
_cell_angle_beta   89.99283574
_cell_angle_gamma   114.17653843
_symmetry_Int_Tables_number   1
_chemical_formula_structural   Ca4Ti4Si3GeO20
_chemical_formula_sum   'Ca4 Ti4 Si3 Ge1 O20'
_cell_volume   386.43004277
_cell_formula_units_Z   1
loop_
 _symmetry_equiv_pos_site_id
 _symmetry_equiv_pos_as_xyz
  1  'x, y, z'
loop_
 _atom_site_type_symbol
 _atom_site_label
 _atom_site_symmetry_multiplicity
 _atom_site_fract_x
 _atom_site_fract_y
 _atom_site_fract_z
 _atom_site_occupancy
  Ca  Ca0  1  0.25248400  0.74519104  0.07559267  1
  Ca  Ca1  1  0.74777119  0.75702961  0.57928253  1
  Ca  Ca2  1  0.74821614  0.25772913  0.92011456  1
  Ca  Ca3  1  0.25256954  0.24382404  0.42451361  1
  Ti  Ti4  1  0.74817096  0.01139169  0.24791289  1
  Ti  Ti5  1  0.24831699  0.49096751  0.74426268  1
  Ti  Ti6  1  0.25018033  0.98735131  0.74872726  1
  Ti  Ti7  1  0.75315718  0.51480057  0.25423284  1
  Si  Si8  1  0.75066266  0.25185736  0.56852676  1
  Si  Si9  1  0.75039597  0.75183478  0.93086717  1
  Si  Si10  1  0.24946280  0.74779310  0.42842334  1
  Ge  Ge11  1  0.24850251  0.24705772  0.06854375  1
  O  O12  1  0.75304457  0.25065432  0.18072487  1
  O  O13  1  0.24727457  0.24856665  0.68335222  1
  O  O14  1  0.24710608  0.74809528  0.81514126  1
  O  O15  1  0.75272398  0.75059975  0.32202876  1
  O  O16  1  0.43968506  0.41813235  0.19646644  1
  O  O17  1  0.56333839  0.09470699  0.68421554  1
  O  O18  1  0.56249466  0.59504527  0.81495115  1
  O  O19  1  0.43625484  0.90498053  0.31314807  1
  O  O20  1  0.84770812  0.11669436  0.46384587  1
  O  O21  1  0.14246303  0.39267684  0.95899260  1
  O  O22  1  0.15202825  0.88236415  0.53498576  1
  O  O23  1  0.84658138  0.61652340  0.03707006  1
  O  O24  1  0.65369219  0.88625766  0.03705745  1
  O  O25  1  0.34745490  0.61397474  0.53538574  1
  O  O26  1  0.35663519  0.10313083  0.95939744  1
  O  O27  1  0.65310774  0.38654314  0.46387166  1
  O  O28  1  0.06530041  0.59202391  0.31164175  1
  O  O29  1  0.93738151  0.90729345  0.81390279  1
  O  O30  1  0.93639255  0.40790567  0.68513027  1
  O  O31  1  0.05944227  0.07700285  0.19769024  1
