# generated using pymatgen
data_Bi5(PO5)3
_symmetry_space_group_name_H-M   'P 1'
_cell_length_a   10.19066807
_cell_length_b   12.21397924
_cell_length_c   12.00150413
_cell_angle_alpha   111.02241515
_cell_angle_beta   107.84259025
_cell_angle_gamma   93.04298406
_symmetry_Int_Tables_number   1
_chemical_formula_structural   Bi5(PO5)3
_chemical_formula_sum   'Bi20 P12 O60'
_cell_volume   1304.79008824
_cell_formula_units_Z   4
loop_
 _symmetry_equiv_pos_site_id
 _symmetry_equiv_pos_as_xyz
  1  'x, y, z'
loop_
 _atom_site_type_symbol
 _atom_site_label
 _atom_site_symmetry_multiplicity
 _atom_site_fract_x
 _atom_site_fract_y
 _atom_site_fract_z
 _atom_site_occupancy
  Bi  Bi0  1  0.18906603  0.50829258  0.51157293  1
  Bi  Bi1  1  0.85397302  0.84789937  0.17450468  1
  Bi  Bi2  1  0.52130407  0.17293658  0.84691431  1
  Bi  Bi3  1  0.14602698  0.15210063  0.82549532  1
  Bi  Bi4  1  0.81093397  0.49170742  0.48842707  1
  Bi  Bi5  1  0.47869593  0.82706342  0.15308569  1
  Bi  Bi6  1  0.33985059  0.52984684  0.85301383  1
  Bi  Bi7  1  0.00733373  0.86232024  0.51898450  1
  Bi  Bi8  1  0.67516873  0.19284269  0.18361089  1
  Bi  Bi9  1  0.99266627  0.13767976  0.48101550  1
  Bi  Bi10  1  0.66014941  0.47015316  0.14698617  1
  Bi  Bi11  1  0.32483127  0.80715731  0.81638911  1
  Bi  Bi12  1  0.22339053  0.98604005  0.30544193  1
  Bi  Bi13  1  0.90392918  0.30586999  0.98814015  1
  Bi  Bi14  1  0.56268652  0.65123037  0.65331834  1
  Bi  Bi15  1  0.09607082  0.69413001  0.01185985  1
  Bi  Bi16  1  0.77660947  0.01395995  0.69455807  1
  Bi  Bi17  1  0.43731348  0.34876963  0.34668166  1
  Bi  Bi18  1  0.67045742  0.33070619  0.66985308  1
  Bi  Bi19  1  0.32954258  0.66929381  0.33014692  1
  P  P20  1  0.99707891  0.39625426  0.74215212  1
  P  P21  1  0.66262141  0.72982092  0.40880675  1
  P  P22  1  0.32681061  0.06357887  0.07545945  1
  P  P23  1  0.33737859  0.27017908  0.59119325  1
  P  P24  1  0.00292109  0.60374574  0.25784788  1
  P  P25  1  0.67318939  0.93642113  0.92454055  1
  P  P26  1  0.30622096  0.42545576  0.06639358  1
  P  P27  1  0.97343390  0.75911419  0.73537039  1
  P  P28  1  0.63862332  0.09315665  0.40038998  1
  P  P29  1  0.02656610  0.24088581  0.26462961  1
  P  P30  1  0.69377904  0.57454424  0.93360642  1
  P  P31  1  0.36137668  0.90684335  0.59961002  1
  O  O32  1  0.27877613  0.53857933  0.03846965  1
  O  O33  1  0.94286136  0.87009193  0.70159533  1
  O  O34  1  0.60995945  0.20596298  0.37097352  1
  O  O35  1  0.05713864  0.12990807  0.29840467  1
  O  O36  1  0.72122387  0.46142067  0.96153035  1
  O  O37  1  0.39004055  0.79403702  0.62902648  1
  O  O38  1  0.03178072  0.79452798  0.88015693  1
  O  O39  1  0.69429062  0.13415802  0.54847900  1
  O  O40  1  0.36193503  0.46558214  0.21478094  1
  O  O41  1  0.30570938  0.86584198  0.45152100  1
  O  O42  1  0.96821928  0.20547202  0.11984307  1
  O  O43  1  0.63806497  0.53441786  0.78521906  1
  O  O44  1  0.09361647  0.51700713  0.78463342  1
  O  O45  1  0.75974529  0.84974183  0.45188176  1
  O  O46  1  0.42916223  0.18454096  0.12196645  1
  O  O47  1  0.24025471  0.15025817  0.54811824  1
  O  O48  1  0.90638353  0.48299287  0.21536658  1
  O  O49  1  0.57083777  0.81545904  0.87803355  1
  O  O50  1  0.91142926  0.40263738  0.83119317  1
  O  O51  1  0.57899156  0.73538640  0.49924695  1
  O  O52  1  0.25783243  0.07521791  0.17560772  1
  O  O53  1  0.42100844  0.26461360  0.50075305  1
  O  O54  1  0.08857074  0.59736262  0.16880683  1
  O  O55  1  0.74216757  0.92478209  0.82439228  1
  O  O56  1  0.08526723  0.70967593  0.67353698  1
  O  O57  1  0.75253357  0.04408070  0.34331539  1
  O  O58  1  0.41976151  0.37508569  0.00955596  1
  O  O59  1  0.24746643  0.95591930  0.65668461  1
  O  O60  1  0.91473277  0.29032407  0.32646302  1
  O  O61  1  0.58023849  0.62491431  0.99044404  1
  O  O62  1  0.95330062  0.14228458  0.85639322  1
  O  O63  1  0.62292756  0.46415973  0.52842972  1
  O  O64  1  0.29270662  0.79875447  0.19461967  1
  O  O65  1  0.37707244  0.53584027  0.47157028  1
  O  O66  1  0.04669938  0.85771542  0.14360678  1
  O  O67  1  0.70729338  0.20124553  0.80538033  1
  O  O68  1  0.17246660  0.32763705  0.00655012  1
  O  O69  1  0.83723020  0.66106405  0.67136879  1
  O  O70  1  0.50625211  0.99421812  0.33945474  1
  O  O71  1  0.16276980  0.33893595  0.32863121  1
  O  O72  1  0.82753340  0.67236295  0.99344988  1
  O  O73  1  0.49374789  0.00578188  0.66054526  1
  O  O74  1  0.87988950  0.36730715  0.60909495  1
  O  O75  1  0.54621046  0.69971685  0.27585617  1
  O  O76  1  0.22286768  0.03387357  0.93993849  1
  O  O77  1  0.45378954  0.30028315  0.72414383  1
  O  O78  1  0.12011050  0.63269285  0.39090505  1
  O  O79  1  0.77713232  0.96612643  0.06006151  1
  O  O80  1  0.98368497  0.04567050  0.61902555  1
  O  O81  1  0.64697355  0.38026302  0.28458180  1
  O  O82  1  0.31514276  0.71473489  0.95086486  1
  O  O83  1  0.35302645  0.61973698  0.71541820  1
  O  O84  1  0.01631503  0.95432950  0.38097445  1
  O  O85  1  0.68485724  0.28526511  0.04913514  1
  O  O86  1  0.08466888  0.29581558  0.73159789  1
  O  O87  1  0.74960760  0.62824438  0.39736040  1
  O  O88  1  0.41474857  0.96021892  0.06281223  1
  O  O89  1  0.25039240  0.37175562  0.60263960  1
  O  O90  1  0.91533112  0.70418442  0.26840211  1
  O  O91  1  0.58525143  0.03978108  0.93718777  1
