# generated using pymatgen
data_Ca2AlH10BrO8
_symmetry_space_group_name_H-M   'P 1'
_cell_length_a   5.82183235
_cell_length_b   5.77633248
_cell_length_c   9.18974952
_cell_angle_alpha   89.71212300
_cell_angle_beta   108.98217787
_cell_angle_gamma   60.32758486
_symmetry_Int_Tables_number   1
_chemical_formula_structural   Ca2AlH10BrO8
_chemical_formula_sum   'Ca2 Al1 H10 Br1 O8'
_cell_volume   248.67468060
_cell_formula_units_Z   1
loop_
 _symmetry_equiv_pos_site_id
 _symmetry_equiv_pos_as_xyz
  1  'x, y, z'
loop_
 _atom_site_type_symbol
 _atom_site_label
 _atom_site_symmetry_multiplicity
 _atom_site_fract_x
 _atom_site_fract_y
 _atom_site_fract_z
 _atom_site_occupancy
  Ca  Ca0  1  0.61708665  0.69205267  0.92587324  1
  Ca  Ca1  1  0.38291366  0.30794723  0.07412419  1
  Al  Al2  1  0.00000078  0.00000026  -0.00000016  1
  H  H3  1  0.99591988  0.73461825  0.78190966  1
  H  H4  1  0.51488049  0.26642929  0.78094216  1
  H  H5  1  0.04695687  0.21975591  0.78189257  1
  H  H6  1  0.00407963  0.26537904  0.21809047  1
  H  H7  1  0.48511812  0.73357404  0.21905848  1
  H  H8  1  0.95304901  0.78024346  0.21810755  1
  H  H9  1  0.31536414  0.69986117  0.57570757  1
  H  H10  1  0.28930471  0.98417140  0.57514743  1
  H  H11  1  0.68463624  0.30013959  0.42429452  1
  H  H12  1  0.71069275  0.01583189  0.42485461  1
  Br  Br13  1  0.99999043  0.49999435  0.50002466  1
  O  O14  1  0.97567071  0.73334710  0.88263813  1
  O  O15  1  0.61461394  0.29171152  0.88130904  1
  O  O16  1  0.17269982  0.09506813  0.88290132  1
  O  O17  1  0.02433072  0.26665358  0.11736412  1
  O  O18  1  0.38538858  0.70828819  0.11869384  1
  O  O19  1  0.82730273  0.90493110  0.11710019  1
  O  O20  1  0.40938222  0.79368873  0.63121255  1
  O  O21  1  0.59061793  0.20631312  0.36878686  1
