# generated using pymatgen
data_Ce2Si2NiPt
_symmetry_space_group_name_H-M   'P 1'
_cell_length_a   3.98074701
_cell_length_b   4.15633287
_cell_length_c   7.75298819
_cell_angle_alpha   74.45190927
_cell_angle_beta   75.12427449
_cell_angle_gamma   90.00000000
_symmetry_Int_Tables_number   1
_chemical_formula_structural   Ce2Si2NiPt
_chemical_formula_sum   'Ce2 Si2 Ni1 Pt1'
_cell_volume   119.11297764
_cell_formula_units_Z   1
loop_
 _symmetry_equiv_pos_site_id
 _symmetry_equiv_pos_as_xyz
  1  'x, y, z'
loop_
 _atom_site_type_symbol
 _atom_site_label
 _atom_site_symmetry_multiplicity
 _atom_site_fract_x
 _atom_site_fract_y
 _atom_site_fract_z
 _atom_site_occupancy
  Ce  Ce0  1  0.74755711  0.24755711  0.50488578  1
  Ce  Ce1  1  0.00223752  0.00223752  0.99552496  1
  Si  Si2  1  0.32528356  0.82528356  0.34943288  1
  Si  Si3  1  0.58677165  0.58677165  0.82645669  1
  Ni  Ni4  1  0.16497905  0.66497905  0.67004190  1
  Pt  Pt5  1  0.41517111  0.41517111  0.16965779  1
