# generated using pymatgen
data_CaTb3Mn4O12
_symmetry_space_group_name_H-M   'P 1'
_cell_length_a   5.35136339
_cell_length_b   5.65368328
_cell_length_c   7.61934501
_cell_angle_alpha   90.00000000
_cell_angle_beta   90.00000000
_cell_angle_gamma   90.55202276
_symmetry_Int_Tables_number   1
_chemical_formula_structural   CaTb3Mn4O12
_chemical_formula_sum   'Ca1 Tb3 Mn4 O12'
_cell_volume   230.51192673
_cell_formula_units_Z   1
loop_
 _symmetry_equiv_pos_site_id
 _symmetry_equiv_pos_as_xyz
  1  'x, y, z'
loop_
 _atom_site_type_symbol
 _atom_site_label
 _atom_site_symmetry_multiplicity
 _atom_site_fract_x
 _atom_site_fract_y
 _atom_site_fract_z
 _atom_site_occupancy
  Ca  Ca0  1  0.51476396  0.56033888  0.25000000  1
  Tb  Tb1  1  0.98267426  0.06693189  0.25000000  1
  Tb  Tb2  1  0.48253789  0.43202651  0.75000000  1
  Tb  Tb3  1  0.01604517  0.93311552  0.75000000  1
  Mn  Mn4  1  0.99761967  0.50070651  0.00228342  1
  Mn  Mn5  1  0.50158598  0.99799970  0.49829065  1
  Mn  Mn6  1  0.99761967  0.50070651  0.49771658  1
  Mn  Mn7  1  0.50158598  0.99799970  0.00170935  1
  O  O8  1  0.39453428  0.97098415  0.25000000  1
  O  O9  1  0.09400493  0.46350704  0.25000000  1
  O  O10  1  0.60302877  0.03310037  0.75000000  1
  O  O11  1  0.89430818  0.53325343  0.75000000  1
  O  O12  1  0.80057123  0.81521751  0.04718968  1
  O  O13  1  0.70567905  0.29753611  0.45173949  1
  O  O14  1  0.20895948  0.19259562  0.55472403  1
  O  O15  1  0.29463587  0.69931566  0.94106843  1
  O  O16  1  0.20895948  0.19259562  0.94527597  1
  O  O17  1  0.29463587  0.69931566  0.55893157  1
  O  O18  1  0.80057123  0.81521751  0.45281032  1
  O  O19  1  0.70567905  0.29753611  0.04826051  1
