# generated using pymatgen
data_Ba3Bi2RuO9
_symmetry_space_group_name_H-M   'P 1'
_cell_length_a   6.10967705
_cell_length_b   10.66877093
_cell_length_c   8.67198235
_cell_angle_alpha   65.37065624
_cell_angle_beta   89.73309173
_cell_angle_gamma   72.91660881
_symmetry_Int_Tables_number   1
_chemical_formula_structural   Ba3Bi2RuO9
_chemical_formula_sum   'Ba6 Bi4 Ru2 O18'
_cell_volume   486.63403075
_cell_formula_units_Z   2
loop_
 _symmetry_equiv_pos_site_id
 _symmetry_equiv_pos_as_xyz
  1  'x, y, z'
loop_
 _atom_site_type_symbol
 _atom_site_label
 _atom_site_symmetry_multiplicity
 _atom_site_fract_x
 _atom_site_fract_y
 _atom_site_fract_z
 _atom_site_occupancy
  Ba  Ba0  1  0.83423716  0.32604096  0.08125199  1
  Ba  Ba1  1  0.16829398  0.66358221  0.42465738  1
  Ba  Ba2  1  0.49699808  0.00410054  0.74216101  1
  Ba  Ba3  1  0.49907440  0.00728734  0.25207854  1
  Ba  Ba4  1  0.83632098  0.32923623  0.59115964  1
  Ba  Ba5  1  0.16503177  0.66976209  0.90866443  1
  Bi  Bi6  1  0.99916044  0.00285801  0.99860440  1
  Bi  Bi7  1  0.33421570  0.33043857  0.33474640  1
  Bi  Bi8  1  0.66667440  0.66666668  0.66668224  1
  Bi  Bi9  1  0.66669800  0.66665683  0.16668682  1
  Ru  Ru10  1  0.00086594  0.99865697  0.50068973  1
  Ru  Ru11  1  0.33250376  0.33469769  0.83266873  1
  O  O12  1  0.97177968  0.48026290  0.22901557  1
  O  O13  1  0.28833799  0.82754058  0.55804101  1
  O  O14  1  0.61843891  0.16516524  0.88937148  1
  O  O15  1  0.36154007  0.85308402  0.10430756  1
  O  O16  1  0.71489726  0.16817013  0.44394746  1
  O  O17  1  0.04497146  0.50579825  0.77528887  1
  O  O18  1  0.62548873  0.68995150  0.91092414  1
  O  O19  1  0.95930750  0.02300117  0.25961768  1
  O  O20  1  0.29683701  0.35225480  0.59404561  1
  O  O21  1  0.87415381  0.81009910  0.09346158  1
  O  O22  1  0.19398056  0.12957107  0.43291463  1
  O  O23  1  0.52110800  0.47043625  0.76202092  1
  O  O24  1  0.70783681  0.64338785  0.42239681  1
  O  O25  1  0.03648148  0.98108662  0.73927307  1
  O  O26  1  0.37402410  0.31032009  0.07373038  1
  O  O27  1  0.45917833  0.52322338  0.23986992  1
  O  O28  1  0.81223534  0.86289704  0.57130427  1
  O  O29  1  0.13932836  0.20376588  0.90041771  1
