# generated using pymatgen
data_Co5(SnSb)2
_symmetry_space_group_name_H-M   'P 1'
_cell_length_a   4.14994790
_cell_length_b   4.15022044
_cell_length_c   9.88961095
_cell_angle_alpha   90.00000000
_cell_angle_beta   90.00000000
_cell_angle_gamma   59.99783380
_symmetry_Int_Tables_number   1
_chemical_formula_structural   Co5(SnSb)2
_chemical_formula_sum   'Co5 Sn2 Sb2'
_cell_volume   147.50752208
_cell_formula_units_Z   1
loop_
 _symmetry_equiv_pos_site_id
 _symmetry_equiv_pos_as_xyz
  1  'x, y, z'
loop_
 _atom_site_type_symbol
 _atom_site_label
 _atom_site_symmetry_multiplicity
 _atom_site_fract_x
 _atom_site_fract_y
 _atom_site_fract_z
 _atom_site_occupancy
  Co  Co0  1  0.00000522  -0.00000261  0.25449636  1
  Co  Co1  1  0.00001147  0.99999427  0.75142297  1
  Co  Co2  1  0.00000522  -0.00000261  0.99550364  1
  Co  Co3  1  0.00001147  0.99999427  0.49857703  1
  Co  Co4  1  0.33337058  0.33331471  0.12500000  1
  Sn  Sn5  1  0.66665897  0.66667052  0.12500000  1
  Sn  Sn6  1  0.66668585  0.66665707  0.62500000  1
  Sb  Sb7  1  0.33332561  0.33333719  0.38546519  1
  Sb  Sb8  1  0.33332561  0.33333719  0.86453481  1
