# generated using pymatgen
data_Ba4TiSi12(SnO12)3
_symmetry_space_group_name_H-M   'P 1'
_cell_length_a   6.80306403
_cell_length_b   6.80306403
_cell_length_c   19.95181782
_cell_angle_alpha   90.00003584
_cell_angle_beta   90.00003584
_cell_angle_gamma   119.99991455
_symmetry_Int_Tables_number   1
_chemical_formula_structural   Ba4TiSi12(SnO12)3
_chemical_formula_sum   'Ba4 Ti1 Si12 Sn3 O36'
_cell_volume   799.69170967
_cell_formula_units_Z   1
loop_
 _symmetry_equiv_pos_site_id
 _symmetry_equiv_pos_as_xyz
  1  'x, y, z'
loop_
 _atom_site_type_symbol
 _atom_site_label
 _atom_site_symmetry_multiplicity
 _atom_site_fract_x
 _atom_site_fract_y
 _atom_site_fract_z
 _atom_site_occupancy
  Ba  Ba0  1  0.33331803  0.66667119  0.50006579  1
  Ba  Ba1  1  0.33332881  0.66668197  0.99993421  1
  Ba  Ba2  1  0.33332845  0.66667155  0.25000000  1
  Ba  Ba3  1  0.33332397  0.66667603  0.75000000  1
  Ti  Ti4  1  0.66665570  0.33334430  0.75000000  1
  Si  Si5  1  0.93490184  0.71711418  0.12495703  1
  Si  Si6  1  0.93233613  0.71470731  0.62627265  1
  Si  Si7  1  0.78221072  0.06509846  0.12495857  1
  Si  Si8  1  0.78237623  0.06766365  0.62627223  1
  Si  Si9  1  0.28287792  0.21777690  0.12495569  1
  Si  Si10  1  0.28528910  0.21761818  0.62627203  1
  Si  Si11  1  0.78222310  0.71712208  0.37504431  1
  Si  Si12  1  0.78238182  0.71471090  0.87372797  1
  Si  Si13  1  0.28288582  0.06509816  0.37504297  1
  Si  Si14  1  0.28529269  0.06766387  0.87372735  1
  Si  Si15  1  0.93490154  0.21778928  0.37504143  1
  Si  Si16  1  0.93233635  0.21762377  0.87372777  1
  Sn  Sn17  1  0.66667156  0.33333066  0.99947982  1
  Sn  Sn18  1  0.66666934  0.33332844  0.50052018  1
  Sn  Sn19  1  0.66664020  0.33335980  0.25000000  1
  O  O20  1  0.92473560  0.58054692  0.05691741  1
  O  O21  1  0.92522478  0.58099753  0.55790557  1
  O  O22  1  0.65582358  0.07527434  0.05691710  1
  O  O23  1  0.65578302  0.07478493  0.55790448  1
  O  O24  1  0.41945044  0.34418732  0.05691735  1
  O  O25  1  0.41899628  0.34422267  0.55790599  1
  O  O26  1  0.92497977  0.58075242  0.19299450  1
  O  O27  1  0.90925582  0.56987928  0.69369871  1
  O  O28  1  0.65578147  0.07503586  0.19299586  1
  O  O29  1  0.66064084  0.09075266  0.69369849  1
  O  O30  1  0.41923794  0.34422912  0.19299294  1
  O  O31  1  0.43012428  0.33936407  0.69369963  1
  O  O32  1  0.65577088  0.58076206  0.30700706  1
  O  O33  1  0.66063593  0.56987572  0.80630037  1
  O  O34  1  0.41924758  0.07502023  0.30700550  1
  O  O35  1  0.43012072  0.09074418  0.80630129  1
  O  O36  1  0.92496414  0.34421853  0.30700414  1
  O  O37  1  0.90924734  0.33935916  0.80630151  1
  O  O38  1  0.65581268  0.58054956  0.44308265  1
  O  O39  1  0.65577733  0.58100372  0.94209401  1
  O  O40  1  0.41945308  0.07526440  0.44308259  1
  O  O41  1  0.41900247  0.07477522  0.94209443  1
  O  O42  1  0.92472566  0.34417642  0.44308290  1
  O  O43  1  0.92521507  0.34421698  0.94209552  1
  O  O44  1  0.74958499  0.80629792  0.12499964  1
  O  O45  1  0.74936088  0.80816868  0.62630263  1
  O  O46  1  0.05671022  0.25041112  0.12499985  1
  O  O47  1  0.05881493  0.25063652  0.62630225  1
  O  O48  1  0.19371278  0.94327915  0.12500000  1
  O  O49  1  0.19183637  0.94118280  0.62630220  1
  O  O50  1  0.05672085  0.80628722  0.37500000  1
  O  O51  1  0.05881720  0.80816363  0.87369780  1
  O  O52  1  0.19370208  0.25041501  0.37500036  1
  O  O53  1  0.19183132  0.25063912  0.87369737  1
  O  O54  1  0.74958888  0.94328978  0.37500015  1
  O  O55  1  0.74936348  0.94118507  0.87369775  1
