# generated using pymatgen
data_AlVCrC
_symmetry_space_group_name_H-M   'P 1'
_cell_length_a   2.88110156
_cell_length_b   2.88110770
_cell_length_c   12.87035110
_cell_angle_alpha   89.99924513
_cell_angle_beta   90.00090128
_cell_angle_gamma   119.99994279
_symmetry_Int_Tables_number   1
_chemical_formula_structural   AlVCrC
_chemical_formula_sum   'Al2 V2 Cr2 C2'
_cell_volume   92.52079095
_cell_formula_units_Z   2
loop_
 _symmetry_equiv_pos_site_id
 _symmetry_equiv_pos_as_xyz
  1  'x, y, z'
loop_
 _atom_site_type_symbol
 _atom_site_label
 _atom_site_symmetry_multiplicity
 _atom_site_fract_x
 _atom_site_fract_y
 _atom_site_fract_z
 _atom_site_occupancy
  Al  Al0  1  0.66667543  0.33332416  0.25673267  1
  Al  Al1  1  0.33332457  0.66667584  0.74326733  1
  V  V2  1  0.33332883  0.66666474  0.08756864  1
  V  V3  1  0.66667117  0.33333526  0.91243136  1
  Cr  Cr4  1  0.66665517  0.33332302  0.58245475  1
  Cr  Cr5  1  0.33334483  0.66667698  0.41754525  1
  C  C6  1  0.00000000  -0.00000000  0.50000000  1
  C  C7  1  0.00000000  -0.00000000  0.00000000  1
