# generated using pymatgen
data_AlCuSnSe4
_symmetry_space_group_name_H-M   'P 1'
_cell_length_a   5.65995190
_cell_length_b   5.65995190
_cell_length_c   6.93893571
_cell_angle_alpha   65.93077722
_cell_angle_beta   65.93077722
_cell_angle_gamma   90.00000000
_symmetry_Int_Tables_number   1
_chemical_formula_structural   AlCuSnSe4
_chemical_formula_sum   'Al1 Cu1 Sn1 Se4'
_cell_volume   181.58904121
_cell_formula_units_Z   1
loop_
 _symmetry_equiv_pos_site_id
 _symmetry_equiv_pos_as_xyz
  1  'x, y, z'
loop_
 _atom_site_type_symbol
 _atom_site_label
 _atom_site_symmetry_multiplicity
 _atom_site_fract_x
 _atom_site_fract_y
 _atom_site_fract_z
 _atom_site_occupancy
  Al  Al0  1  0.25000000  0.75000000  0.50000000  1
  Cu  Cu1  1  0.75000000  0.25000000  0.50000000  1
  Sn  Sn2  1  0.50000000  0.50000000  -0.00000000  1
  Se  Se3  1  0.35462107  0.89564802  0.74549800  1
  Se  Se4  1  0.89988092  0.35885397  0.74549800  1
  Se  Se5  1  0.10435198  0.10011908  0.25450200  1
  Se  Se6  1  0.64114603  0.64537893  0.25450200  1
