# generated using pymatgen
data_Ba5BiPb4O15
_symmetry_space_group_name_H-M   'P 1'
_cell_length_a   6.17113007
_cell_length_b   25.42433874
_cell_length_c   6.17253442
_cell_angle_alpha   83.09670632
_cell_angle_beta   119.55389252
_cell_angle_gamma   96.88249885
_symmetry_Int_Tables_number   1
_chemical_formula_structural   Ba5BiPb4O15
_chemical_formula_sum   'Ba10 Bi2 Pb8 O30'
_cell_volume   834.28276906
_cell_formula_units_Z   2
loop_
 _symmetry_equiv_pos_site_id
 _symmetry_equiv_pos_as_xyz
  1  'x, y, z'
loop_
 _atom_site_type_symbol
 _atom_site_label
 _atom_site_symmetry_multiplicity
 _atom_site_fract_x
 _atom_site_fract_y
 _atom_site_fract_z
 _atom_site_occupancy
  Ba  Ba0  1  0.15203274  0.44686037  0.85523919  1
  Ba  Ba1  1  0.55236553  0.64915161  0.45328798  1
  Ba  Ba2  1  0.35573509  0.05184326  0.65388499  1
  Ba  Ba3  1  0.95459965  0.85294982  0.05185894  1
  Ba  Ba4  1  0.75467498  0.24943661  0.25528393  1
  Ba  Ba5  1  0.04532502  0.15056339  0.94471607  1
  Ba  Ba6  1  0.44426491  0.34815674  0.54611501  1
  Ba  Ba7  1  0.24763447  0.75084839  0.74671202  1
  Ba  Ba8  1  0.84540035  0.54705018  0.14814106  1
  Ba  Ba9  1  0.64796726  0.95313963  0.34476081  1
  Bi  Bi10  1  0.19945689  0.59951274  0.79986875  1
  Bi  Bi11  1  0.60054311  0.80048726  0.40013125  1
  Pb  Pb12  1  0.09989988  0.29946440  0.90041891  1
  Pb  Pb13  1  0.50011203  0.49849193  0.50141189  1
  Pb  Pb14  1  0.90000000  0.70000000  0.10000000  1
  Pb  Pb15  1  0.29988797  0.90150807  0.69858811  1
  Pb  Pb16  1  0.70010012  0.10053560  0.29958109  1
  Pb  Pb17  1  0.00098948  0.00089644  0.00012887  1
  Pb  Pb18  1  0.40000000  0.20000000  0.60000000  1
  Pb  Pb19  1  0.79901052  0.39910356  0.19987113  1
  O  O20  1  0.23009375  0.25689733  0.27089153  1
  O  O21  1  0.63245112  0.45758700  0.87291904  1
  O  O22  1  0.43227778  0.85453150  0.06829756  1
  O  O23  1  0.03473890  0.65610361  0.47200322  1
  O  O24  1  0.82792320  0.05596253  0.66727788  1
  O  O25  1  0.76921751  0.24346881  0.72901937  1
  O  O26  1  0.16511687  0.44480403  0.32695717  1
  O  O27  1  0.96747003  0.84259872  0.53269021  1
  O  O28  1  0.56424093  0.64404335  0.92999056  1
  O  O29  1  0.37195970  0.04288683  0.13101914  1
  O  O30  1  0.42804030  0.35711317  0.06898086  1
  O  O31  1  0.83252997  0.55740128  0.66730979  1
  O  O32  1  0.63488313  0.95519597  0.87304283  1
  O  O33  1  0.23575907  0.75595665  0.27000944  1
  O  O34  1  0.03078249  0.15653119  0.47098063  1
  O  O35  1  0.97207680  0.34403747  0.53272212  1
  O  O36  1  0.36772222  0.54546850  0.13170244  1
  O  O37  1  0.16754888  0.94241300  0.32708096  1
  O  O38  1  0.76526110  0.74389639  0.72799678  1
  O  O39  1  0.56990625  0.14310267  0.92910847  1
  O  O40  1  0.31208723  0.25025733  0.81078797  1
  O  O41  1  0.71280062  0.45154900  0.40615464  1
  O  O42  1  0.10722920  0.65005721  0.00322785  1
  O  O43  1  0.50390606  0.84819865  0.60653221  1
  O  O44  1  0.90916102  0.04916937  0.21305468  1
  O  O45  1  0.89083898  0.35083063  0.98694532  1
  O  O46  1  0.29609394  0.55180135  0.59346779  1
  O  O47  1  0.69277080  0.74994279  0.19677215  1
  O  O48  1  0.08719938  0.94845100  0.79384536  1
  O  O49  1  0.48791277  0.14974267  0.38921203  1
