# generated using pymatgen
data_Ba10Br4N5Cl
_symmetry_space_group_name_H-M   'P 1'
_cell_length_a   4.17552005
_cell_length_b   4.17551947
_cell_length_c   39.70955581
_cell_angle_alpha   86.98624109
_cell_angle_beta   90.00000037
_cell_angle_gamma   120.00000292
_symmetry_Int_Tables_number   1
_chemical_formula_structural   Ba10Br4N5Cl
_chemical_formula_sum   'Ba10 Br4 N5 Cl1'
_cell_volume   598.47351474
_cell_formula_units_Z   1
loop_
 _symmetry_equiv_pos_site_id
 _symmetry_equiv_pos_as_xyz
  1  'x, y, z'
loop_
 _atom_site_type_symbol
 _atom_site_label
 _atom_site_symmetry_multiplicity
 _atom_site_fract_x
 _atom_site_fract_y
 _atom_site_fract_z
 _atom_site_occupancy
  Ba  Ba0  1  0.35368981  0.70737962  0.93893057  1
  Ba  Ba1  1  0.15428194  0.30856389  0.53715417  1
  Ba  Ba2  1  0.75427995  0.50855990  0.73716015  1
  Ba  Ba3  1  0.95457018  0.90914036  0.13628947  1
  Ba  Ba4  1  0.55428221  0.10856443  0.33715336  1
  Ba  Ba5  1  0.04542982  0.09085964  0.86371053  1
  Ba  Ba6  1  0.84571806  0.69143611  0.46284583  1
  Ba  Ba7  1  0.44571779  0.89143557  0.66284664  1
  Ba  Ba8  1  0.64631019  0.29262038  0.06106943  1
  Ba  Ba9  1  0.24572005  0.49144010  0.26283985  1
  Br  Br10  1  0.60002682  0.20005364  0.19991953  1
  Br  Br11  1  0.20000260  0.40000521  0.39999219  1
  Br  Br12  1  0.79999740  0.59999479  0.60000781  1
  Br  Br13  1  0.39997318  0.79994636  0.80008047  1
  N  N14  1  0.69960159  0.39920319  0.90119522  1
  N  N15  1  0.50000000  0.00000000  0.50000000  1
  N  N16  1  0.10000058  0.20000115  0.69999827  1
  N  N17  1  0.30039841  0.60079681  0.09880478  1
  N  N18  1  0.89999942  0.79999885  0.30000173  1
  Cl  Cl19  1  -0.00000000  0.00000000  0.00000000  1
