# generated using pymatgen
data_AlCuSnS4
_symmetry_space_group_name_H-M   'P 1'
_cell_length_a   7.26668069
_cell_length_b   7.21362362
_cell_length_c   7.33091285
_cell_angle_alpha   90.00000000
_cell_angle_beta   59.70716593
_cell_angle_gamma   119.75876363
_symmetry_Int_Tables_number   1
_chemical_formula_structural   AlCuSnS4
_chemical_formula_sum   'Al2 Cu2 Sn2 S8'
_cell_volume   271.50893271
_cell_formula_units_Z   2
loop_
 _symmetry_equiv_pos_site_id
 _symmetry_equiv_pos_as_xyz
  1  'x, y, z'
loop_
 _atom_site_type_symbol
 _atom_site_label
 _atom_site_symmetry_multiplicity
 _atom_site_fract_x
 _atom_site_fract_y
 _atom_site_fract_z
 _atom_site_occupancy
  Al  Al0  1  0.50000000  0.50000000  -0.00000000  1
  Al  Al1  1  0.50000000  0.00000000  -0.00000000  1
  Cu  Cu2  1  0.74037106  0.37018553  0.37981447  1
  Cu  Cu3  1  0.25962894  0.62981447  0.62018553  1
  Sn  Sn4  1  0.00000000  0.00000000  0.50000000  1
  Sn  Sn5  1  0.00000000  0.00000000  -0.00000000  1
  S  S6  1  0.02346001  0.76113885  0.23826999  1
  S  S7  1  0.02346001  0.26232117  0.23826999  1
  S  S8  1  0.50118637  0.25059318  0.77099684  1
  S  S9  1  0.50118637  0.25059318  0.22781679  1
  S  S10  1  0.97653999  0.23886115  0.76173001  1
  S  S11  1  0.97653999  0.73767883  0.76173001  1
  S  S12  1  0.49881363  0.74940682  0.22900316  1
  S  S13  1  0.49881363  0.74940682  0.77218321  1
