# generated using pymatgen
data_Ba3Bi2PbO9
_symmetry_space_group_name_H-M   'P 1'
_cell_length_a   6.19346111
_cell_length_b   6.20374158
_cell_length_c   15.24168456
_cell_angle_alpha   90.38659859
_cell_angle_beta   90.00000000
_cell_angle_gamma   119.94519742
_symmetry_Int_Tables_number   1
_chemical_formula_structural   Ba3Bi2PbO9
_chemical_formula_sum   'Ba6 Bi4 Pb2 O18'
_cell_volume   507.43113573
_cell_formula_units_Z   2
loop_
 _symmetry_equiv_pos_site_id
 _symmetry_equiv_pos_as_xyz
  1  'x, y, z'
loop_
 _atom_site_type_symbol
 _atom_site_label
 _atom_site_symmetry_multiplicity
 _atom_site_fract_x
 _atom_site_fract_y
 _atom_site_fract_z
 _atom_site_occupancy
  Ba  Ba0  1  0.33302088  0.66604076  0.91620319  1
  Ba  Ba1  1  -0.00033094  -0.00066088  0.25122116  1
  Ba  Ba2  1  0.66641871  0.33283743  0.58345994  1
  Ba  Ba3  1  0.00033094  0.00066088  0.74877884  1
  Ba  Ba4  1  0.66697912  0.33395924  0.08379681  1
  Ba  Ba5  1  0.33358129  0.66716257  0.41654006  1
  Bi  Bi6  1  0.33314594  0.66629289  0.16744531  1
  Bi  Bi7  1  0.00000000  0.00000000  0.50000000  1
  Bi  Bi8  1  0.66685406  0.33370711  0.83255469  1
  Bi  Bi9  1  0.00000000  0.00000000  -0.00000000  1
  Pb  Pb10  1  0.66655652  0.33311205  0.33371736  1
  Pb  Pb11  1  0.33344348  0.66688795  0.66628264  1
  O  O12  1  0.48153737  0.96307474  0.76922914  1
  O  O13  1  0.14883391  0.29766682  0.10257971  1
  O  O14  1  0.81536161  0.63072421  0.43559454  1
  O  O15  1  0.85116609  0.70233318  0.89742029  1
  O  O16  1  0.51846263  0.03692526  0.23077086  1
  O  O17  1  0.18463839  0.36927579  0.56440546  1
  O  O18  1  0.02043767  0.54036847  0.25962367  1
  O  O19  1  0.68782250  0.87367887  0.59279024  1
  O  O20  1  0.35506524  0.20717880  0.92582730  1
  O  O21  1  0.14788544  0.79282120  0.07417270  1
  O  O22  1  0.81414363  0.12632113  0.40720976  1
  O  O23  1  0.48007020  0.45963153  0.74037633  1
  O  O24  1  0.51992980  0.54036847  0.25962367  1
  O  O25  1  0.18585637  0.87367887  0.59279024  1
  O  O26  1  0.85211456  0.20717880  0.92582730  1
  O  O27  1  0.64493476  0.79282120  0.07417270  1
  O  O28  1  0.31217750  0.12632113  0.40720976  1
  O  O29  1  0.97956233  0.45963153  0.74037633  1
