# generated using pymatgen
data_Ba10BrN5Cl4
_symmetry_space_group_name_H-M   'P 1'
_cell_length_a   4.16193009
_cell_length_b   4.16192951
_cell_length_c   38.74087890
_cell_angle_alpha   90.00000000
_cell_angle_beta   93.07912264
_cell_angle_gamma   120.00000325
_symmetry_Int_Tables_number   1
_chemical_formula_structural   Ba10BrN5Cl4
_chemical_formula_sum   'Ba10 Br1 N5 Cl4'
_cell_volume   580.03285986
_cell_formula_units_Z   1
loop_
 _symmetry_equiv_pos_site_id
 _symmetry_equiv_pos_as_xyz
  1  'x, y, z'
loop_
 _atom_site_type_symbol
 _atom_site_label
 _atom_site_symmetry_multiplicity
 _atom_site_fract_x
 _atom_site_fract_y
 _atom_site_fract_z
 _atom_site_occupancy
  Ba  Ba0  1  0.29080554  0.64540277  0.93620831  1
  Ba  Ba1  1  0.49249198  0.24624599  0.73873797  1
  Ba  Ba2  1  0.69252115  0.84626057  0.53878172  1
  Ba  Ba3  1  0.09351473  0.04675736  0.14027209  1
  Ba  Ba4  1  0.89252226  0.44626113  0.33878338  1
  Ba  Ba5  1  0.90648527  0.95324264  0.85972791  1
  Ba  Ba6  1  0.10747774  0.55373887  0.66121662  1
  Ba  Ba7  1  0.30747885  0.15373943  0.46121828  1
  Ba  Ba8  1  0.70919446  0.35459723  0.06379169  1
  Ba  Ba9  1  0.50750802  0.75375401  0.26126203  1
  Br  Br10  1  -0.00000000  -0.00000000  -0.00000000  1
  N  N11  1  0.59892442  0.29946221  0.89838662  1
  N  N12  1  0.79998827  0.89999414  0.69998241  1
  N  N13  1  -0.00000000  0.50000000  0.50000000  1
  N  N14  1  0.40107558  0.70053779  0.10161338  1
  N  N15  1  0.20001173  0.10000586  0.30001759  1
  Cl  Cl16  1  0.80031424  0.40015712  0.20047136  1
  Cl  Cl17  1  0.60000382  0.80000191  0.40000574  1
  Cl  Cl18  1  0.39999618  0.19999809  0.59999426  1
  Cl  Cl19  1  0.19968576  0.59984288  0.79952864  1
