# generated using pymatgen
data_Ba2CuP2O9
_symmetry_space_group_name_H-M   'P 1'
_cell_length_a   5.09808523
_cell_length_b   8.48819847
_cell_length_c   11.05735253
_cell_angle_alpha   79.74690935
_cell_angle_beta   76.67177293
_cell_angle_gamma   72.52412183
_symmetry_Int_Tables_number   1
_chemical_formula_structural   Ba2CuP2O9
_chemical_formula_sum   'Ba4 Cu2 P4 O18'
_cell_volume   441.05240693
_cell_formula_units_Z   2
loop_
 _symmetry_equiv_pos_site_id
 _symmetry_equiv_pos_as_xyz
  1  'x, y, z'
loop_
 _atom_site_type_symbol
 _atom_site_label
 _atom_site_symmetry_multiplicity
 _atom_site_fract_x
 _atom_site_fract_y
 _atom_site_fract_z
 _atom_site_occupancy
  Ba  Ba0  1  0.83957034  0.98141522  0.81232540  1
  Ba  Ba1  1  0.63331096  0.51858478  0.68767460  1
  Ba  Ba2  1  0.16042966  0.01858478  0.18767460  1
  Ba  Ba3  1  0.36668904  0.48141522  0.31232540  1
  Cu  Cu4  1  0.00000000  0.50000000  0.00000000  1
  Cu  Cu5  1  0.50000000  -0.00000000  0.50000000  1
  P  P6  1  0.61547138  0.26913867  0.02923646  1
  P  P7  1  0.91384652  0.23086133  0.47076354  1
  P  P8  1  0.38452862  0.73086133  0.97076354  1
  P  P9  1  0.08615348  0.76913867  0.52923646  1
  O  O10  1  0.78127902  0.35108036  0.09331255  1
  O  O11  1  0.22567193  0.14891964  0.40668745  1
  O  O12  1  0.21872098  0.64891964  0.90668745  1
  O  O13  1  0.77432807  0.85108036  0.59331255  1
  O  O14  1  0.29558705  0.34853498  0.08021306  1
  O  O15  1  0.72433508  0.15146502  0.41978694  1
  O  O16  1  0.70441295  0.65146502  0.91978694  1
  O  O17  1  0.27566492  0.84853498  0.58021306  1
  O  O18  1  0.67981346  0.08263012  0.07958633  1
  O  O19  1  0.84202991  0.41736988  0.42041367  1
  O  O20  1  0.32018654  0.91736988  0.92041367  1
  O  O21  1  0.15797009  0.58263012  0.57958633  1
  O  O22  1  0.69750917  0.29372137  0.88651535  1
  O  O23  1  0.87774588  0.20627863  0.61348465  1
  O  O24  1  0.30249083  0.70627863  0.11348465  1
  O  O25  1  0.12225412  0.79372137  0.38651535  1
  O  O26  1  0.67712211  0.75000000  0.25000000  1
  O  O27  1  0.32287789  0.25000000  0.75000000  1
