# generated using pymatgen
data_K2ZrF6
_symmetry_space_group_name_H-M   'P 1'
_cell_length_a   6.69609622
_cell_length_b   6.76125511
_cell_length_c   7.01592386
_cell_angle_alpha   90.00000000
_cell_angle_beta   90.00000000
_cell_angle_gamma   119.68171606
_symmetry_Int_Tables_number   1
_chemical_formula_structural   K2ZrF6
_chemical_formula_sum   'K4 Zr2 F12'
_cell_volume   275.96148830
_cell_formula_units_Z   2
loop_
 _symmetry_equiv_pos_site_id
 _symmetry_equiv_pos_as_xyz
  1  'x, y, z'
loop_
 _atom_site_type_symbol
 _atom_site_label
 _atom_site_symmetry_multiplicity
 _atom_site_fract_x
 _atom_site_fract_y
 _atom_site_fract_z
 _atom_site_occupancy
  F  F0  1  0.09914524  0.19829049  0.04596683  1
  F  F1  1  0.90085476  0.80170951  0.95403317  1
  F  F2  1  0.90085476  0.80170951  0.54596683  1
  F  F3  1  0.09914524  0.19829049  0.45403317  1
  F  F4  1  0.38665384  0.39378487  0.75000000  1
  F  F5  1  0.99286897  0.60621513  0.25000000  1
  F  F6  1  0.69970169  0.98138558  0.75000000  1
  F  F7  1  0.71831611  0.01861442  0.25000000  1
  F  F8  1  0.30029831  0.01861442  0.25000000  1
  F  F9  1  0.28168389  0.98138558  0.75000000  1
  F  F10  1  0.00713103  0.39378487  0.75000000  1
  F  F11  1  0.61334616  0.60621513  0.25000000  1
  K  K12  1  0.34293629  0.68587258  0.50090105  1
  K  K13  1  0.65706371  0.31412742  0.49909895  1
  K  K14  1  0.65706371  0.31412742  0.00090105  1
  K  K15  1  0.34293629  0.68587258  0.99909895  1
  Zr  Zr16  1  0.94916015  0.89832030  0.25000000  1
  Zr  Zr17  1  0.05083985  0.10167970  0.75000000  1
