# generated using pymatgen
data_AgAsS2
_symmetry_space_group_name_H-M   'P 1'
_cell_length_a   8.70629601
_cell_length_b   8.70629600
_cell_length_c   8.70629601
_cell_angle_alpha   106.81611210
_cell_angle_beta   106.81611208
_cell_angle_gamma   106.81611209
_symmetry_Int_Tables_number   1
_chemical_formula_structural   AgAsS2
_chemical_formula_sum   'Ag6 As6 S12'
_cell_volume   552.33281474
_cell_formula_units_Z   6
loop_
 _symmetry_equiv_pos_site_id
 _symmetry_equiv_pos_as_xyz
  1  'x, y, z'
loop_
 _atom_site_type_symbol
 _atom_site_label
 _atom_site_symmetry_multiplicity
 _atom_site_fract_x
 _atom_site_fract_y
 _atom_site_fract_z
 _atom_site_occupancy
  S  S0  1  0.93541735  0.65215153  0.85770459  1
  S  S1  1  0.65215153  0.85770459  0.93541735  1
  S  S2  1  0.85770459  0.93541735  0.65215153  1
  S  S3  1  0.06458265  0.34784847  0.14229541  1
  S  S4  1  0.34784847  0.14229541  0.06458265  1
  S  S5  1  0.14229541  0.06458265  0.34784847  1
  S  S6  1  0.75778461  0.61455283  0.15185092  1
  S  S7  1  0.61455283  0.15185092  0.75778461  1
  S  S8  1  0.84814908  0.24221539  0.38544717  1
  S  S9  1  0.24221539  0.38544717  0.84814908  1
  S  S10  1  0.38544717  0.84814908  0.24221539  1
  S  S11  1  0.15185092  0.75778461  0.61455283  1
  As  As12  1  0.65934645  0.58259206  0.87061266  1
  As  As13  1  0.12938734  0.34065355  0.41740794  1
  As  As14  1  0.34065355  0.41740794  0.12938734  1
  As  As15  1  0.58259206  0.87061266  0.65934645  1
  As  As16  1  0.87061266  0.65934645  0.58259206  1
  As  As17  1  0.41740794  0.12938734  0.34065355  1
  Ag  Ag18  1  0.27045908  0.09676728  0.67785709  1
  Ag  Ag19  1  0.09676728  0.67785709  0.27045908  1
  Ag  Ag20  1  0.67785709  0.27045908  0.09676728  1
  Ag  Ag21  1  0.72954092  0.90323272  0.32214291  1
  Ag  Ag22  1  0.90323272  0.32214291  0.72954092  1
  Ag  Ag23  1  0.32214291  0.72954092  0.90323272  1
