# generated using pymatgen
data_TlCuS2
_symmetry_space_group_name_H-M   'P 1'
_cell_length_a   5.68644082
_cell_length_b   5.68644082
_cell_length_c   6.96875344
_cell_angle_alpha   114.07898383
_cell_angle_beta   114.07898383
_cell_angle_gamma   90.00000000
_symmetry_Int_Tables_number   1
_chemical_formula_structural   TlCuS2
_chemical_formula_sum   'Tl2 Cu2 S4'
_cell_volume   184.04534515
_cell_formula_units_Z   2
loop_
 _symmetry_equiv_pos_site_id
 _symmetry_equiv_pos_as_xyz
  1  'x, y, z'
loop_
 _atom_site_type_symbol
 _atom_site_label
 _atom_site_symmetry_multiplicity
 _atom_site_fract_x
 _atom_site_fract_y
 _atom_site_fract_z
 _atom_site_occupancy
  Tl  Tl0  1  0.75000000  0.25000000  0.50000000  1
  Tl  Tl1  1  0.50000000  0.50000000  -0.00000000  1
  Cu  Cu2  1  0.25000000  0.75000000  0.50000000  1
  Cu  Cu3  1  -0.00000000  0.00000000  -0.00000000  1
  S  S4  1  0.12500000  0.67443373  0.75000000  1
  S  S5  1  0.62500000  0.07556627  0.75000000  1
  S  S6  1  0.32556627  0.37500000  0.25000000  1
  S  S7  1  0.92443373  0.87500000  0.25000000  1
