# generated using pymatgen
data_AlCrFeO4
_symmetry_space_group_name_H-M   'P 1'
_cell_length_a   5.93491520
_cell_length_b   5.93491520
_cell_length_c   5.93491520
_cell_angle_alpha   89.50900180
_cell_angle_beta   59.40415328
_cell_angle_gamma   118.84563932
_symmetry_Int_Tables_number   1
_chemical_formula_structural   AlCrFeO4
_chemical_formula_sum   'Al2 Cr2 Fe2 O8'
_cell_volume   148.39362213
_cell_formula_units_Z   2
loop_
 _symmetry_equiv_pos_site_id
 _symmetry_equiv_pos_as_xyz
  1  'x, y, z'
loop_
 _atom_site_type_symbol
 _atom_site_label
 _atom_site_symmetry_multiplicity
 _atom_site_fract_x
 _atom_site_fract_y
 _atom_site_fract_z
 _atom_site_occupancy
  Al  Al0  1  0.75000000  0.37500000  0.87500000  1
  Al  Al1  1  0.25000000  0.37500000  0.37500000  1
  Cr  Cr2  1  0.25000000  0.87500000  0.37500000  1
  Cr  Cr3  1  0.75000000  0.37500000  0.37500000  1
  Fe  Fe4  1  0.50000000  0.75585221  0.74414779  1
  Fe  Fe5  1  -0.00000000  0.99414779  0.00585221  1
  O  O6  1  0.27128341  0.14552656  0.58319003  1
  O  O7  1  0.72871659  0.14552656  0.12575686  1
  O  O8  1  0.71453144  0.58274668  0.13178476  1
  O  O9  1  0.28546856  0.15368380  0.13178476  1
  O  O10  1  0.22871659  0.60447344  0.16680997  1
  O  O11  1  0.77128341  0.60447344  0.62424314  1
  O  O12  1  0.78546856  0.16725332  0.61821524  1
  O  O13  1  0.21453144  0.59631620  0.61821524  1
