# generated using pymatgen
data_CrB2Ru
_symmetry_space_group_name_H-M   'P 1'
_cell_length_a   2.91172622
_cell_length_b   4.31419837
_cell_length_c   5.85197336
_cell_angle_alpha   90.00000000
_cell_angle_beta   90.00000000
_cell_angle_gamma   90.00000000
_symmetry_Int_Tables_number   1
_chemical_formula_structural   CrB2Ru
_chemical_formula_sum   'Cr2 B4 Ru2'
_cell_volume   73.51111128
_cell_formula_units_Z   2
loop_
 _symmetry_equiv_pos_site_id
 _symmetry_equiv_pos_as_xyz
  1  'x, y, z'
loop_
 _atom_site_type_symbol
 _atom_site_label
 _atom_site_symmetry_multiplicity
 _atom_site_fract_x
 _atom_site_fract_y
 _atom_site_fract_z
 _atom_site_occupancy
  Cr  Cr0  1  0.25000000  0.37782619  0.68315900  1
  Cr  Cr1  1  0.25000000  0.12217381  0.18315900  1
  B  B2  1  0.25000000  0.90074147  0.52912181  1
  B  B3  1  0.25000000  0.59925853  0.02912181  1
  B  B4  1  0.75000000  0.11727368  0.46596501  1
  B  B5  1  0.75000000  0.38272632  0.96596501  1
  Ru  Ru6  1  0.75000000  0.61328340  0.32175418  1
  Ru  Ru7  1  0.75000000  0.88671660  0.82175418  1
