# generated using pymatgen
data_NdCrS3
_symmetry_space_group_name_H-M   'P 1'
_cell_length_a   3.79012561
_cell_length_b   7.80370075
_cell_length_c   13.04086210
_cell_angle_alpha   90.00000000
_cell_angle_beta   90.00000000
_cell_angle_gamma   90.00000000
_symmetry_Int_Tables_number   1
_chemical_formula_structural   NdCrS3
_chemical_formula_sum   'Nd4 Cr4 S12'
_cell_volume   385.70965743
_cell_formula_units_Z   4
loop_
 _symmetry_equiv_pos_site_id
 _symmetry_equiv_pos_as_xyz
  1  'x, y, z'
loop_
 _atom_site_type_symbol
 _atom_site_label
 _atom_site_symmetry_multiplicity
 _atom_site_fract_x
 _atom_site_fract_y
 _atom_site_fract_z
 _atom_site_occupancy
  S  S0  1  0.25000000  0.98976073  0.39389009  1
  S  S1  1  0.75000000  0.01023927  0.60610991  1
  S  S2  1  0.25000000  0.48976073  0.10610991  1
  S  S3  1  0.75000000  0.51023927  0.89389009  1
  S  S4  1  0.25000000  0.84070499  0.99412960  1
  S  S5  1  0.75000000  0.15929501  0.00587040  1
  S  S6  1  0.25000000  0.34070499  0.50587040  1
  S  S7  1  0.75000000  0.65929501  0.49412960  1
  S  S8  1  0.75000000  0.80636016  0.21262496  1
  S  S9  1  0.25000000  0.19363984  0.78737504  1
  S  S10  1  0.75000000  0.30636016  0.28737504  1
  S  S11  1  0.25000000  0.69363984  0.71262496  1
  Cr  Cr12  1  0.25000000  0.83723542  0.55130455  1
  Cr  Cr13  1  0.75000000  0.16276458  0.44869545  1
  Cr  Cr14  1  0.25000000  0.33723542  0.94869545  1
  Cr  Cr15  1  0.75000000  0.66276458  0.05130455  1
  Nd  Nd16  1  0.25000000  0.58899867  0.32785816  1
  Nd  Nd17  1  0.75000000  0.41100133  0.67214184  1
  Nd  Nd18  1  0.25000000  0.08899867  0.17214184  1
  Nd  Nd19  1  0.75000000  0.91100133  0.82785816  1
