# generated using pymatgen
data_ErP2H3O10
_symmetry_space_group_name_H-M   'P 1'
_cell_length_a   6.45527040
_cell_length_b   6.97529200
_cell_length_c   9.76198516
_cell_angle_alpha   83.41323085
_cell_angle_beta   82.92042289
_cell_angle_gamma   89.98451527
_symmetry_Int_Tables_number   1
_chemical_formula_structural   ErP2H3O10
_chemical_formula_sum   'Er2 P4 H6 O20'
_cell_volume   433.28341681
_cell_formula_units_Z   2
loop_
 _symmetry_equiv_pos_site_id
 _symmetry_equiv_pos_as_xyz
  1  'x, y, z'
loop_
 _atom_site_type_symbol
 _atom_site_label
 _atom_site_symmetry_multiplicity
 _atom_site_fract_x
 _atom_site_fract_y
 _atom_site_fract_z
 _atom_site_occupancy
  Er  Er0  1  0.63594337  0.74574879  0.03325478  1
  Er  Er1  1  0.36636870  0.25056408  0.96944942  1
  P  P2  1  0.93858273  0.85756894  0.70678355  1
  P  P3  1  0.06273427  0.14382194  0.29556704  1
  P  P4  1  0.18556181  0.75918331  0.94050749  1
  P  P5  1  0.81557619  0.23570542  0.06175850  1
  H  H6  1  0.60681733  0.74517182  0.35041242  1
  H  H7  1  0.38404444  0.29926077  0.65324276  1
  H  H8  1  0.00791428  0.82028619  0.48273527  1
  H  H9  1  0.99412584  0.18117293  0.51994387  1
  H  H10  1  0.84049205  0.79321919  0.28692865  1
  H  H11  1  0.16428083  0.20371970  0.71736452  1
  O  O12  1  0.32642894  0.62937378  0.18592249  1
  O  O13  1  0.67846099  0.36435342  0.81539809  1
  O  O14  1  0.96224218  0.07469285  0.66729677  1
  O  O15  1  0.04743767  0.92630464  0.33497421  1
  O  O16  1  0.70504623  0.73940608  0.26720804  1
  O  O17  1  0.29530309  0.26314189  0.74018041  1
  O  O18  1  0.98005821  0.74028532  0.03220096  1
  O  O19  1  0.02118086  0.25118388  0.97057656  1
  O  O20  1  0.32949238  0.57990781  0.95401378  1
  O  O21  1  0.67382016  0.41626940  0.04735459  1
  O  O22  1  0.74710976  0.78870812  0.80591198  1
  O  O23  1  0.25272474  0.21711751  0.19646536  1
  O  O24  1  0.32899397  0.92405357  0.96855723  1
  O  O25  1  0.67004247  0.07152486  0.03522672  1
  O  O26  1  0.95869481  0.74333827  0.57746693  1
  O  O27  1  0.03573663  0.25899046  0.42433882  1
  O  O28  1  0.14710951  0.78967120  0.78071386  1
  O  O29  1  0.85328366  0.20526592  0.22147672  1
  O  O30  1  0.51114965  0.21403240  0.46272924  1
  O  O31  1  0.47604224  0.04505552  0.44593897  1
