# generated using pymatgen
data_ZnTeO3
_symmetry_space_group_name_H-M   'P 1'
_cell_length_a   6.45244525
_cell_length_b   7.54967183
_cell_length_c   12.42932270
_cell_angle_alpha   90.00000000
_cell_angle_beta   90.00000000
_cell_angle_gamma   90.00000000
_symmetry_Int_Tables_number   1
_chemical_formula_structural   ZnTeO3
_chemical_formula_sum   'Zn8 Te8 O24'
_cell_volume   605.48008876
_cell_formula_units_Z   8
loop_
 _symmetry_equiv_pos_site_id
 _symmetry_equiv_pos_as_xyz
  1  'x, y, z'
loop_
 _atom_site_type_symbol
 _atom_site_label
 _atom_site_symmetry_multiplicity
 _atom_site_fract_x
 _atom_site_fract_y
 _atom_site_fract_z
 _atom_site_occupancy
  O  O0  1  0.52521517  0.34224489  0.91107399  1
  O  O1  1  0.02521517  0.65775511  0.58892601  1
  O  O2  1  0.97478483  0.84224489  0.08892601  1
  O  O3  1  0.47478483  0.15775511  0.41107399  1
  O  O4  1  0.47478483  0.65775511  0.08892601  1
  O  O5  1  0.97478483  0.34224489  0.41107399  1
  O  O6  1  0.02521517  0.15775511  0.91107399  1
  O  O7  1  0.52521517  0.84224489  0.58892601  1
  O  O8  1  0.65363931  0.46077863  0.56595108  1
  O  O9  1  0.15363931  0.53922137  0.93404892  1
  O  O10  1  0.84636069  0.96077863  0.43404892  1
  O  O11  1  0.34636069  0.03922137  0.06595108  1
  O  O12  1  0.34636069  0.53922137  0.43404892  1
  O  O13  1  0.84636069  0.46077863  0.06595108  1
  O  O14  1  0.15363931  0.03922137  0.56595108  1
  O  O15  1  0.65363931  0.96077863  0.93404892  1
  O  O16  1  0.79956562  0.52821180  0.77660372  1
  O  O17  1  0.29956562  0.47178820  0.72339628  1
  O  O18  1  0.70043438  0.02821180  0.22339628  1
  O  O19  1  0.20043438  0.97178820  0.27660372  1
  O  O20  1  0.20043438  0.47178820  0.22339628  1
  O  O21  1  0.70043438  0.52821180  0.27660372  1
  O  O22  1  0.29956562  0.97178820  0.77660372  1
  O  O23  1  0.79956562  0.02821180  0.72339628  1
  Zn  Zn24  1  0.87882197  0.89081684  0.58998673  1
  Zn  Zn25  1  0.37882197  0.10918316  0.91001327  1
  Zn  Zn26  1  0.62117803  0.39081684  0.41001327  1
  Zn  Zn27  1  0.12117803  0.60918316  0.08998673  1
  Zn  Zn28  1  0.12117803  0.10918316  0.41001327  1
  Zn  Zn29  1  0.62117803  0.89081684  0.08998673  1
  Zn  Zn30  1  0.37882197  0.60918316  0.58998673  1
  Zn  Zn31  1  0.87882197  0.39081684  0.91001327  1
  Te  Te32  1  0.90783338  0.94181997  0.85601674  1
  Te  Te33  1  0.40783338  0.05818003  0.64398326  1
  Te  Te34  1  0.59216662  0.44181997  0.14398326  1
  Te  Te35  1  0.09216662  0.55818003  0.35601674  1
  Te  Te36  1  0.09216662  0.05818003  0.14398326  1
  Te  Te37  1  0.59216662  0.94181997  0.35601674  1
  Te  Te38  1  0.40783338  0.55818003  0.85601674  1
  Te  Te39  1  0.90783338  0.44181997  0.64398326  1
