# generated using pymatgen
data_NaAlP2O7
_symmetry_space_group_name_H-M   'P 1'
_cell_length_a   7.28369677
_cell_length_b   7.81459674
_cell_length_c   9.41157148
_cell_angle_alpha   90.00000000
_cell_angle_beta   111.65722049
_cell_angle_gamma   90.00000000
_symmetry_Int_Tables_number   1
_chemical_formula_structural   NaAlP2O7
_chemical_formula_sum   'Na4 Al4 P8 O28'
_cell_volume   497.88284105
_cell_formula_units_Z   4
loop_
 _symmetry_equiv_pos_site_id
 _symmetry_equiv_pos_as_xyz
  1  'x, y, z'
loop_
 _atom_site_type_symbol
 _atom_site_label
 _atom_site_symmetry_multiplicity
 _atom_site_fract_x
 _atom_site_fract_y
 _atom_site_fract_z
 _atom_site_occupancy
  O  O0  1  0.31455803  0.30913462  0.88183964  1
  O  O1  1  0.68544197  0.80913462  0.61816036  1
  O  O2  1  0.68544197  0.69086538  0.11816036  1
  O  O3  1  0.31455803  0.19086538  0.38183964  1
  O  O4  1  0.80932173  0.20676710  0.88202442  1
  O  O5  1  0.19067827  0.70676710  0.61797558  1
  O  O6  1  0.19067827  0.79323290  0.11797558  1
  O  O7  1  0.80932173  0.29323290  0.38202442  1
  O  O8  1  0.35744756  0.10507083  0.10066596  1
  O  O9  1  0.64255244  0.60507083  0.39933404  1
  O  O10  1  0.64255244  0.89492917  0.89933404  1
  O  O11  1  0.35744756  0.39492917  0.60066596  1
  O  O12  1  0.00190348  0.08265651  0.14667969  1
  O  O13  1  0.99809652  0.58265651  0.35332031  1
  O  O14  1  0.99809652  0.91734349  0.85332031  1
  O  O15  1  0.00190348  0.41734349  0.64667969  1
  O  O16  1  0.12297136  0.14565654  0.56081270  1
  O  O17  1  0.87702864  0.64565654  0.93918730  1
  O  O18  1  0.87702864  0.85434346  0.43918730  1
  O  O19  1  0.12297136  0.35434346  0.06081270  1
  O  O20  1  0.47686337  0.08590029  0.65896003  1
  O  O21  1  0.52313663  0.58590029  0.84103997  1
  O  O22  1  0.52313663  0.91409971  0.34103997  1
  O  O23  1  0.47686337  0.41409971  0.15896003  1
  O  O24  1  0.81449231  0.13811132  0.61462494  1
  O  O25  1  0.18550769  0.63811132  0.88537506  1
  O  O26  1  0.18550769  0.86188868  0.38537506  1
  O  O27  1  0.81449231  0.36188868  0.11462494  1
  Na  Na28  1  0.29043183  0.52589694  0.29701063  1
  Na  Na29  1  0.70956817  0.02589694  0.20298937  1
  Na  Na30  1  0.70956817  0.47410306  0.70298937  1
  Na  Na31  1  0.29043183  0.97410306  0.79701063  1
  Al  Al32  1  0.73994809  0.01035178  0.75270730  1
  Al  Al33  1  0.26005191  0.51035178  0.74729270  1
  Al  Al34  1  0.26005191  0.98964822  0.24729270  1
  Al  Al35  1  0.73994809  0.48964822  0.25270730  1
  P  P36  1  0.92855782  0.24447540  0.04977108  1
  P  P37  1  0.07144218  0.74447540  0.45022892  1
  P  P38  1  0.07144218  0.75552460  0.95022892  1
  P  P39  1  0.92855782  0.25552460  0.54977108  1
  P  P40  1  0.33020972  0.29292846  0.04736743  1
  P  P41  1  0.66979028  0.79292846  0.45263257  1
  P  P42  1  0.66979028  0.70707154  0.95263257  1
  P  P43  1  0.33020972  0.20707154  0.54736743  1
