# generated using pymatgen
data_Cr2B
_symmetry_space_group_name_H-M   'P 1'
_cell_length_a   4.21783061
_cell_length_b   4.21783061
_cell_length_c   4.21783061
_cell_angle_alpha   104.93378859
_cell_angle_beta   104.93378859
_cell_angle_gamma   118.98592270
_symmetry_Int_Tables_number   1
_chemical_formula_structural   Cr2B
_chemical_formula_sum   'Cr4 B2'
_cell_volume   56.55027853
_cell_formula_units_Z   2
loop_
 _symmetry_equiv_pos_site_id
 _symmetry_equiv_pos_as_xyz
  1  'x, y, z'
loop_
 _atom_site_type_symbol
 _atom_site_label
 _atom_site_symmetry_multiplicity
 _atom_site_fract_x
 _atom_site_fract_y
 _atom_site_fract_z
 _atom_site_occupancy
  B  B0  1  0.75000000  0.75000000  0.00000000  1
  B  B1  1  0.25000000  0.25000000  0.00000000  1
  Cr  Cr2  1  0.83387613  0.66612387  0.50000000  1
  Cr  Cr3  1  0.33387613  0.83387613  0.16775227  1
  Cr  Cr4  1  0.16612387  0.33387613  0.50000000  1
  Cr  Cr5  1  0.66612387  0.16612387  0.83224773  1
