# generated using pymatgen
data_K2RbPdF5
_symmetry_space_group_name_H-M   'P 1'
_cell_length_a   6.35872981
_cell_length_b   7.35296434
_cell_length_c   7.35296434
_cell_angle_alpha   90.00000000
_cell_angle_beta   90.00000000
_cell_angle_gamma   90.00000000
_symmetry_Int_Tables_number   1
_chemical_formula_structural   K2RbPdF5
_chemical_formula_sum   'K4 Rb2 Pd2 F10'
_cell_volume   343.79162376
_cell_formula_units_Z   2
loop_
 _symmetry_equiv_pos_site_id
 _symmetry_equiv_pos_as_xyz
  1  'x, y, z'
loop_
 _atom_site_type_symbol
 _atom_site_label
 _atom_site_symmetry_multiplicity
 _atom_site_fract_x
 _atom_site_fract_y
 _atom_site_fract_z
 _atom_site_occupancy
  F  F0  1  0.77822580  0.63479500  0.13479500  1
  F  F1  1  0.77822580  0.36520500  0.86520500  1
  F  F2  1  0.77822580  0.13479500  0.36520500  1
  F  F3  1  0.77822580  0.86520500  0.63479500  1
  F  F4  1  0.22177420  0.63479500  0.13479500  1
  F  F5  1  0.22177420  0.86520500  0.63479500  1
  F  F6  1  0.22177420  0.13479500  0.36520500  1
  F  F7  1  0.22177420  0.36520500  0.86520500  1
  F  F8  1  0.50000000  0.00000000  0.00000000  1
  F  F9  1  0.50000000  0.50000000  0.50000000  1
  K  K10  1  0.50000000  0.32346321  0.17653679  1
  K  K11  1  0.50000000  0.17653679  0.67653679  1
  K  K12  1  0.50000000  0.82346321  0.32346321  1
  K  K13  1  0.50000000  0.67653679  0.82346321  1
  Rb  Rb14  1  0.00000000  0.00000000  0.00000000  1
  Rb  Rb15  1  0.00000000  0.50000000  0.50000000  1
  Pd  Pd16  1  0.00000000  0.00000000  0.50000000  1
  Pd  Pd17  1  0.00000000  0.50000000  0.00000000  1
