# generated using pymatgen
data_BaPr2ZnS5
_symmetry_space_group_name_H-M   'P 1'
_cell_length_a   7.96063820
_cell_length_b   7.96063820
_cell_length_c   8.88369355
_cell_angle_alpha   116.61849981
_cell_angle_beta   116.61849978
_cell_angle_gamma   90.00000001
_symmetry_Int_Tables_number   1
_chemical_formula_structural   BaPr2ZnS5
_chemical_formula_sum   'Ba2 Pr4 Zn2 S10'
_cell_volume   435.53567768
_cell_formula_units_Z   2
loop_
 _symmetry_equiv_pos_site_id
 _symmetry_equiv_pos_as_xyz
  1  'x, y, z'
loop_
 _atom_site_type_symbol
 _atom_site_label
 _atom_site_symmetry_multiplicity
 _atom_site_fract_x
 _atom_site_fract_y
 _atom_site_fract_z
 _atom_site_occupancy
  S  S0  1  0.48550414  0.98550414  0.26836161  1
  S  S1  1  0.21714253  0.71714253  0.73163839  1
  S  S2  1  0.51449586  0.01449586  0.73163839  1
  S  S3  1  0.71714253  0.51449586  0.73163839  1
  S  S4  1  0.01449586  0.21714253  0.73163839  1
  S  S5  1  0.28285747  0.48550414  0.26836161  1
  S  S6  1  0.98550414  0.78285747  0.26836161  1
  S  S7  1  0.78285747  0.28285747  0.26836161  1
  S  S8  1  0.00000000  0.00000000  0.00000000  1
  S  S9  1  0.50000000  0.50000000  0.00000000  1
  Zn  Zn10  1  0.75000000  0.25000000  0.50000000  1
  Zn  Zn11  1  0.25000000  0.75000000  0.50000000  1
  Ba  Ba12  1  0.75000000  0.75000000  0.50000000  1
  Ba  Ba13  1  0.25000000  0.25000000  0.50000000  1
  Pr  Pr14  1  0.66223304  0.83776696  0.00000000  1
  Pr  Pr15  1  0.16223304  0.66223304  0.00000000  1
  Pr  Pr16  1  0.83776696  0.33776696  0.00000000  1
  Pr  Pr17  1  0.33776696  0.16223304  0.00000000  1
