# generated using pymatgen
data_Nd4Si2Se3O7
_symmetry_space_group_name_H-M   'P 1'
_cell_length_a   11.27998017
_cell_length_b   11.27998017
_cell_length_c   11.27998018
_cell_angle_alpha   99.72825182
_cell_angle_beta   114.55158271
_cell_angle_gamma   114.55158269
_symmetry_Int_Tables_number   1
_chemical_formula_structural   Nd4Si2Se3O7
_chemical_formula_sum   'Nd16 Si8 Se12 O28'
_cell_volume   1081.48953837
_cell_formula_units_Z   4
loop_
 _symmetry_equiv_pos_site_id
 _symmetry_equiv_pos_as_xyz
  1  'x, y, z'
loop_
 _atom_site_type_symbol
 _atom_site_label
 _atom_site_symmetry_multiplicity
 _atom_site_fract_x
 _atom_site_fract_y
 _atom_site_fract_z
 _atom_site_occupancy
  O  O0  1  0.25000000  0.39028197  0.14028197  1
  O  O1  1  0.75000000  0.14028197  0.39028197  1
  O  O2  1  0.75000000  0.60971803  0.85971803  1
  O  O3  1  0.25000000  0.85971803  0.60971803  1
  O  O4  1  0.02377128  0.83056693  0.35433821  1
  O  O5  1  0.47622872  0.83056693  0.80679565  1
  O  O6  1  0.47622872  0.64566179  0.16943307  1
  O  O7  1  0.97622872  0.80679565  0.83056693  1
  O  O8  1  0.52377128  0.35433821  0.83056693  1
  O  O9  1  0.52377128  0.16943307  0.19320435  1
  O  O10  1  0.97622872  0.16943307  0.64566179  1
  O  O11  1  0.02377128  0.19320435  0.16943307  1
  O  O12  1  0.77212686  0.92266702  0.43172253  1
  O  O13  1  0.72787314  0.15959567  0.15054016  1
  O  O14  1  0.72787314  0.56827747  0.07733298  1
  O  O15  1  0.99094449  0.15054016  0.92266702  1
  O  O16  1  0.22787314  0.15054016  0.15959567  1
  O  O17  1  0.77212686  0.84945984  0.84040433  1
  O  O18  1  0.49094449  0.92266702  0.15054016  1
  O  O19  1  0.49094449  0.56827747  0.84040433  1
  O  O20  1  0.00905551  0.84945984  0.07733298  1
  O  O21  1  0.27212686  0.43172253  0.92266702  1
  O  O22  1  0.27212686  0.84040433  0.84945984  1
  O  O23  1  0.22787314  0.07733298  0.56827747  1
  O  O24  1  0.50905551  0.43172253  0.15959567  1
  O  O25  1  0.50905551  0.07733298  0.84945984  1
  O  O26  1  0.99094449  0.84040433  0.56827747  1
  O  O27  1  0.00905551  0.15959567  0.43172253  1
  Si  Si28  1  0.37395736  0.90640675  0.78036411  1
  Si  Si29  1  0.12604264  0.90640675  0.53244938  1
  Si  Si30  1  0.12604264  0.21963589  0.09359325  1
  Si  Si31  1  0.62604264  0.53244938  0.90640675  1
  Si  Si32  1  0.87395736  0.78036411  0.90640675  1
  Si  Si33  1  0.87395736  0.09359325  0.46755062  1
  Si  Si34  1  0.62604264  0.09359325  0.21963589  1
  Si  Si35  1  0.37395736  0.46755062  0.09359325  1
  Se  Se36  1  0.25000000  0.12500000  0.87500000  1
  Se  Se37  1  0.75000000  0.87500000  0.12500000  1
  Se  Se38  1  0.75000000  0.37500000  0.62500000  1
  Se  Se39  1  0.25000000  0.62500000  0.37500000  1
  Se  Se40  1  0.85400944  0.50000000  0.35400944  1
  Se  Se41  1  0.85400944  0.35400944  0.00000000  1
  Se  Se42  1  0.64599056  0.64599056  0.50000000  1
  Se  Se43  1  0.64599056  0.00000000  0.64599056  1
  Se  Se44  1  0.14599056  0.50000000  0.64599056  1
  Se  Se45  1  0.14599056  0.64599056  0.00000000  1
  Se  Se46  1  0.35400944  0.35400944  0.50000000  1
  Se  Se47  1  0.35400944  0.00000000  0.35400944  1
  Nd  Nd48  1  0.25000000  0.95251651  0.04748349  1
  Nd  Nd49  1  0.25000000  0.29748349  0.70251651  1
  Nd  Nd50  1  0.09496699  0.04748349  0.29748349  1
  Nd  Nd51  1  0.40503301  0.70251651  0.95251651  1
  Nd  Nd52  1  0.90503301  0.95251651  0.70251651  1
  Nd  Nd53  1  0.75000000  0.70251651  0.29748349  1
  Nd  Nd54  1  0.75000000  0.04748349  0.95251651  1
  Nd  Nd55  1  0.59496699  0.29748349  0.04748349  1
  Nd  Nd56  1  0.01046267  0.66623996  0.17670262  1
  Nd  Nd57  1  0.48953733  0.66623996  0.65577729  1
  Nd  Nd58  1  0.48953733  0.82329738  0.33376004  1
  Nd  Nd59  1  0.98953733  0.65577729  0.66623996  1
  Nd  Nd60  1  0.51046267  0.17670262  0.66623996  1
  Nd  Nd61  1  0.51046267  0.33376004  0.34422271  1
  Nd  Nd62  1  0.98953733  0.33376004  0.82329738  1
  Nd  Nd63  1  0.01046267  0.34422271  0.33376004  1
