# generated using pymatgen
data_La5Si4
_symmetry_space_group_name_H-M   'P 1'
_cell_length_a   8.04439186
_cell_length_b   8.04439186
_cell_length_c   15.54728029
_cell_angle_alpha   90.00000000
_cell_angle_beta   90.00000000
_cell_angle_gamma   90.00000000
_symmetry_Int_Tables_number   1
_chemical_formula_structural   La5Si4
_chemical_formula_sum   'La20 Si16'
_cell_volume   1006.09933965
_cell_formula_units_Z   4
loop_
 _symmetry_equiv_pos_site_id
 _symmetry_equiv_pos_as_xyz
  1  'x, y, z'
loop_
 _atom_site_type_symbol
 _atom_site_label
 _atom_site_symmetry_multiplicity
 _atom_site_fract_x
 _atom_site_fract_y
 _atom_site_fract_z
 _atom_site_occupancy
  Si  Si0  1  0.07997221  0.71105550  0.44075281  1
  Si  Si1  1  0.92002779  0.28894450  0.94075281  1
  Si  Si2  1  0.71105550  0.07997221  0.55924719  1
  Si  Si3  1  0.21105550  0.42002779  0.19075281  1
  Si  Si4  1  0.78894450  0.57997221  0.69075281  1
  Si  Si5  1  0.42002779  0.21105550  0.80924719  1
  Si  Si6  1  0.57997221  0.78894450  0.30924719  1
  Si  Si7  1  0.28894450  0.92002779  0.05924719  1
  Si  Si8  1  0.82912085  0.80530505  0.79569860  1
  Si  Si9  1  0.17087915  0.19469495  0.29569860  1
  Si  Si10  1  0.80530505  0.82912085  0.20430140  1
  Si  Si11  1  0.30530505  0.67087915  0.54569860  1
  Si  Si12  1  0.69469495  0.32912085  0.04569860  1
  Si  Si13  1  0.67087915  0.30530505  0.45430140  1
  Si  Si14  1  0.32912085  0.69469495  0.95430140  1
  Si  Si15  1  0.19469495  0.17087915  0.70430140  1
  La  La16  1  0.37444459  0.47945166  0.37362414  1
  La  La17  1  0.87444459  0.02054834  0.37637586  1
  La  La18  1  0.97945166  0.12555541  0.12362414  1
  La  La19  1  0.02054834  0.87444459  0.62362414  1
  La  La20  1  0.62555541  0.52054834  0.87362414  1
  La  La21  1  0.47945166  0.37444459  0.62637586  1
  La  La22  1  0.52054834  0.62555541  0.12637586  1
  La  La23  1  0.12555541  0.97945166  0.87637586  1
  La  La24  1  0.98875454  0.62022791  0.05295769  1
  La  La25  1  0.01124546  0.37977209  0.55295769  1
  La  La26  1  0.62022791  0.98875454  0.94704231  1
  La  La27  1  0.12022791  0.51124546  0.80295769  1
  La  La28  1  0.87977209  0.48875454  0.30295769  1
  La  La29  1  0.51124546  0.12022791  0.19704231  1
  La  La30  1  0.48875454  0.87977209  0.69704231  1
  La  La31  1  0.37977209  0.01124546  0.44704231  1
  La  La32  1  0.69283626  0.69283626  0.50000000  1
  La  La33  1  0.80716374  0.19283626  0.75000000  1
  La  La34  1  0.19283626  0.80716374  0.25000000  1
  La  La35  1  0.30716374  0.30716374  0.00000000  1
