# generated using pymatgen
data_Lu2ZnS4
_symmetry_space_group_name_H-M   'P 1'
_cell_length_a   6.26795112
_cell_length_b   7.72716023
_cell_length_c   13.29924549
_cell_angle_alpha   90.00000000
_cell_angle_beta   90.00000000
_cell_angle_gamma   90.00000000
_symmetry_Int_Tables_number   1
_chemical_formula_structural   Lu2ZnS4
_chemical_formula_sum   'Lu8 Zn4 S16'
_cell_volume   644.12850929
_cell_formula_units_Z   4
loop_
 _symmetry_equiv_pos_site_id
 _symmetry_equiv_pos_as_xyz
  1  'x, y, z'
loop_
 _atom_site_type_symbol
 _atom_site_label
 _atom_site_symmetry_multiplicity
 _atom_site_fract_x
 _atom_site_fract_y
 _atom_site_fract_z
 _atom_site_occupancy
  S  S0  1  0.25844244  0.49014617  0.66844265  1
  S  S1  1  0.75844244  0.50985383  0.83155735  1
  S  S2  1  0.74155756  0.99014617  0.33155735  1
  S  S3  1  0.24155756  0.00985383  0.16844265  1
  S  S4  1  0.74155756  0.50985383  0.33155735  1
  S  S5  1  0.24155756  0.49014617  0.16844265  1
  S  S6  1  0.25844244  0.00985383  0.66844265  1
  S  S7  1  0.75844244  0.99014617  0.83155735  1
  S  S8  1  0.74616583  0.75000000  0.07161068  1
  S  S9  1  0.24616583  0.25000000  0.42838932  1
  S  S10  1  0.25383417  0.25000000  0.92838932  1
  S  S11  1  0.75383417  0.75000000  0.57161068  1
  S  S12  1  0.22086717  0.75000000  0.90962312  1
  S  S13  1  0.72086717  0.25000000  0.59037688  1
  S  S14  1  0.77913283  0.25000000  0.09037688  1
  S  S15  1  0.27913283  0.75000000  0.40962312  1
  Zn  Zn16  1  0.58774218  0.75000000  0.90820163  1
  Zn  Zn17  1  0.08774218  0.25000000  0.59179837  1
  Zn  Zn18  1  0.41225782  0.25000000  0.09179837  1
  Zn  Zn19  1  0.91225782  0.75000000  0.40820163  1
  Lu  Lu20  1  0.50000000  0.50000000  0.50000000  1
  Lu  Lu21  1  0.00000000  0.50000000  0.00000000  1
  Lu  Lu22  1  0.50000000  0.00000000  0.50000000  1
  Lu  Lu23  1  0.00000000  0.00000000  0.00000000  1
  Lu  Lu24  1  0.00172673  0.75000000  0.73514108  1
  Lu  Lu25  1  0.50172673  0.25000000  0.76485892  1
  Lu  Lu26  1  0.99827327  0.25000000  0.26485892  1
  Lu  Lu27  1  0.49827327  0.75000000  0.23514108  1
