# generated using pymatgen
data_NdF3
_symmetry_space_group_name_H-M   'P 1'
_cell_length_a   7.08501708
_cell_length_b   7.08501708
_cell_length_c   7.27732614
_cell_angle_alpha   90.00000000
_cell_angle_beta   90.00000000
_cell_angle_gamma   119.99999999
_symmetry_Int_Tables_number   1
_chemical_formula_structural   NdF3
_chemical_formula_sum   'Nd6 F18'
_cell_volume   316.36197173
_cell_formula_units_Z   6
loop_
 _symmetry_equiv_pos_site_id
 _symmetry_equiv_pos_as_xyz
  1  'x, y, z'
loop_
 _atom_site_type_symbol
 _atom_site_label
 _atom_site_symmetry_multiplicity
 _atom_site_fract_x
 _atom_site_fract_y
 _atom_site_fract_z
 _atom_site_occupancy
  F  F0  1  0.61847121  0.00000000  0.42356793  1
  F  F1  1  0.61847121  0.61847121  0.92356793  1
  F  F2  1  0.00000000  0.38152879  0.92356793  1
  F  F3  1  0.00000000  0.61847121  0.42356793  1
  F  F4  1  0.38152879  0.38152879  0.42356793  1
  F  F5  1  0.38152879  0.00000000  0.92356793  1
  F  F6  1  0.00000000  0.00000000  0.32427148  1
  F  F7  1  0.00000000  0.00000000  0.82427148  1
  F  F8  1  0.33333333  0.66666667  0.20901553  1
  F  F9  1  0.66666667  0.33333333  0.70901553  1
  F  F10  1  0.33333333  0.66666667  0.70901553  1
  F  F11  1  0.66666667  0.33333333  0.20901553  1
  F  F12  1  0.27469776  0.00000000  0.58358875  1
  F  F13  1  0.27469776  0.27469776  0.08358875  1
  F  F14  1  0.00000000  0.72530224  0.08358875  1
  F  F15  1  0.00000000  0.27469776  0.58358875  1
  F  F16  1  0.72530224  0.72530224  0.58358875  1
  F  F17  1  0.72530224  0.00000000  0.08358875  1
  Nd  Nd18  1  0.67465970  0.00000000  0.75207581  1
  Nd  Nd19  1  0.67465970  0.67465970  0.25207581  1
  Nd  Nd20  1  0.00000000  0.32534030  0.25207581  1
  Nd  Nd21  1  0.00000000  0.67465970  0.75207581  1
  Nd  Nd22  1  0.32534030  0.32534030  0.75207581  1
  Nd  Nd23  1  0.32534030  0.00000000  0.25207581  1
