# generated using pymatgen
data_RbNb(PO4)2
_symmetry_space_group_name_H-M   'P 1'
_cell_length_a   5.28645986
_cell_length_b   12.20980534
_cell_length_c   12.21380131
_cell_angle_alpha   90.00000000
_cell_angle_beta   90.00000000
_cell_angle_gamma   90.50765828
_symmetry_Int_Tables_number   1
_chemical_formula_structural   RbNb(PO4)2
_chemical_formula_sum   'Rb4 Nb4 P8 O32'
_cell_volume   788.32896193
_cell_formula_units_Z   4
loop_
 _symmetry_equiv_pos_site_id
 _symmetry_equiv_pos_as_xyz
  1  'x, y, z'
loop_
 _atom_site_type_symbol
 _atom_site_label
 _atom_site_symmetry_multiplicity
 _atom_site_fract_x
 _atom_site_fract_y
 _atom_site_fract_z
 _atom_site_occupancy
  O  O0  1  0.95282174  0.36052091  0.71566143  1
  O  O1  1  0.54717826  0.13947909  0.21566143  1
  O  O2  1  0.04717826  0.63947909  0.28433857  1
  O  O3  1  0.45282174  0.86052091  0.78433857  1
  O  O4  1  0.22178036  0.18278606  0.62103899  1
  O  O5  1  0.27821964  0.31721394  0.12103899  1
  O  O6  1  0.77821964  0.81721394  0.37896101  1
  O  O7  1  0.72178036  0.68278606  0.87896101  1
  O  O8  1  0.26640109  0.90193777  0.59659651  1
  O  O9  1  0.23359891  0.59806223  0.09659651  1
  O  O10  1  0.73359891  0.09806223  0.40340349  1
  O  O11  1  0.76640109  0.40193777  0.90340349  1
  O  O12  1  0.01202178  0.34748000  0.48169489  1
  O  O13  1  0.48797822  0.15252000  0.98169489  1
  O  O14  1  0.98797822  0.65252000  0.51830511  1
  O  O15  1  0.51202178  0.84748000  0.01830511  1
  O  O16  1  0.78135844  0.01497459  0.88925241  1
  O  O17  1  0.71864156  0.48502541  0.38925241  1
  O  O18  1  0.21864156  0.98502541  0.11074759  1
  O  O19  1  0.28135844  0.51497459  0.61074759  1
  O  O20  1  0.54486718  0.32965568  0.50996615  1
  O  O21  1  0.95513282  0.17034432  0.00996615  1
  O  O22  1  0.45513282  0.67034432  0.49003385  1
  O  O23  1  0.04486718  0.82965568  0.99003385  1
  O  O24  1  0.48357147  0.34814233  0.74372119  1
  O  O25  1  0.01642853  0.15185767  0.24372119  1
  O  O26  1  0.51642853  0.65185767  0.25627881  1
  O  O27  1  0.98357147  0.84814233  0.75627881  1
  O  O28  1  0.26975834  0.70512886  0.67753431  1
  O  O29  1  0.23024166  0.79487114  0.17753431  1
  O  O30  1  0.73024166  0.29487114  0.32246569  1
  O  O31  1  0.76975834  0.20512886  0.82246569  1
  P  P32  1  0.24815401  0.62942760  0.56893019  1
  P  P33  1  0.25184599  0.87057240  0.06893019  1
  P  P34  1  0.75184599  0.37057240  0.43106981  1
  P  P35  1  0.74815401  0.12942760  0.93106981  1
  P  P36  1  0.24253657  0.83652201  0.69920058  1
  P  P37  1  0.25746343  0.66347799  0.19920058  1
  P  P38  1  0.75746343  0.16347799  0.30079942  1
  P  P39  1  0.74253657  0.33652201  0.80079942  1
  Rb  Rb40  1  0.74430984  0.04288547  0.62830944  1
  Rb  Rb41  1  0.75569016  0.45711453  0.12830944  1
  Rb  Rb42  1  0.25569016  0.95711453  0.37169056  1
  Rb  Rb43  1  0.24430984  0.54288547  0.87169056  1
  Nb  Nb44  1  0.74475340  0.82626483  0.88685130  1
  Nb  Nb45  1  0.75524660  0.67373517  0.38685130  1
  Nb  Nb46  1  0.25524660  0.17373517  0.11314870  1
  Nb  Nb47  1  0.24475340  0.32626483  0.61314870  1
