# generated using pymatgen
data_SrZrSi2O7
_symmetry_space_group_name_H-M   'P 1'
_cell_length_a   7.85793368
_cell_length_b   8.20483610
_cell_length_c   10.19373076
_cell_angle_alpha   90.00000000
_cell_angle_beta   111.78476114
_cell_angle_gamma   90.00000000
_symmetry_Int_Tables_number   1
_chemical_formula_structural   SrZrSi2O7
_chemical_formula_sum   'Sr4 Zr4 Si8 O28'
_cell_volume   610.28527130
_cell_formula_units_Z   4
loop_
 _symmetry_equiv_pos_site_id
 _symmetry_equiv_pos_as_xyz
  1  'x, y, z'
loop_
 _atom_site_type_symbol
 _atom_site_label
 _atom_site_symmetry_multiplicity
 _atom_site_fract_x
 _atom_site_fract_y
 _atom_site_fract_z
 _atom_site_occupancy
  O  O0  1  0.62978195  0.09478788  0.90422999  1
  O  O1  1  0.37021805  0.59478788  0.59577001  1
  O  O2  1  0.37021805  0.90521212  0.09577001  1
  O  O3  1  0.62978195  0.40521212  0.40422999  1
  O  O4  1  0.69530509  0.29460878  0.12387759  1
  O  O5  1  0.30469491  0.79460878  0.37612241  1
  O  O6  1  0.30469491  0.70539122  0.87612241  1
  O  O7  1  0.69530509  0.20539122  0.62387759  1
  O  O8  1  0.52521452  0.40733423  0.84925558  1
  O  O9  1  0.47478548  0.90733423  0.65074442  1
  O  O10  1  0.47478548  0.59266577  0.15074442  1
  O  O11  1  0.52521452  0.09266577  0.34925558  1
  O  O12  1  0.17098365  0.36552561  0.88306348  1
  O  O13  1  0.82901635  0.86552561  0.61693652  1
  O  O14  1  0.82901635  0.63447439  0.11693652  1
  O  O15  1  0.17098365  0.13447439  0.38306348  1
  O  O16  1  0.86707700  0.15679601  0.43721834  1
  O  O17  1  0.13292300  0.65679601  0.06278166  1
  O  O18  1  0.13292300  0.84320399  0.56278166  1
  O  O19  1  0.86707700  0.34320399  0.93721834  1
  O  O20  1  0.18835820  0.27128043  0.62439455  1
  O  O21  1  0.81164180  0.77128043  0.87560545  1
  O  O22  1  0.81164180  0.72871957  0.37560545  1
  O  O23  1  0.18835820  0.22871957  0.12439455  1
  O  O24  1  0.01224715  0.42065832  0.36894688  1
  O  O25  1  0.98775285  0.92065832  0.13105312  1
  O  O26  1  0.98775285  0.57934168  0.63105312  1
  O  O27  1  0.01224715  0.07934168  0.86894688  1
  Si  Si28  1  0.67454912  0.28500613  0.95892006  1
  Si  Si29  1  0.32545088  0.78500613  0.54107994  1
  Si  Si30  1  0.32545088  0.71499387  0.04107994  1
  Si  Si31  1  0.67454912  0.21499387  0.45892006  1
  Si  Si32  1  0.06431015  0.25096385  0.95754046  1
  Si  Si33  1  0.93568985  0.75096385  0.54245954  1
  Si  Si34  1  0.93568985  0.74903615  0.04245954  1
  Si  Si35  1  0.06431015  0.24903615  0.45754046  1
  Sr  Sr36  1  0.28311540  0.48265729  0.29285282  1
  Sr  Sr37  1  0.71688460  0.98265729  0.20714718  1
  Sr  Sr38  1  0.71688460  0.51734271  0.70714718  1
  Sr  Sr39  1  0.28311540  0.01734271  0.79285282  1
  Zr  Zr40  1  0.25620109  0.01108982  0.24696107  1
  Zr  Zr41  1  0.74379891  0.51108982  0.25303893  1
  Zr  Zr42  1  0.74379891  0.98891018  0.75303893  1
  Zr  Zr43  1  0.25620109  0.48891018  0.74696107  1
