# generated using pymatgen
data_Cr4FeCoS8
_symmetry_space_group_name_H-M   'P 1'
_cell_length_a   6.94768636
_cell_length_b   6.94768636
_cell_length_c   6.94768636
_cell_angle_alpha   90.00000000
_cell_angle_beta   60.00000000
_cell_angle_gamma   120.00000000
_symmetry_Int_Tables_number   1
_chemical_formula_structural   Cr4FeCoS8
_chemical_formula_sum   'Cr4 Fe1 Co1 S8'
_cell_volume   237.14043762
_cell_formula_units_Z   1
loop_
 _symmetry_equiv_pos_site_id
 _symmetry_equiv_pos_as_xyz
  1  'x, y, z'
loop_
 _atom_site_type_symbol
 _atom_site_label
 _atom_site_symmetry_multiplicity
 _atom_site_fract_x
 _atom_site_fract_y
 _atom_site_fract_z
 _atom_site_occupancy
  Cr  Cr0  1  0.49743426  0.49615139  0.00128287  1
  Cr  Cr1  1  0.49743426  0.00128287  0.00128287  1
  Cr  Cr2  1  0.00256574  0.00128287  0.49615139  1
  Cr  Cr3  1  0.00256574  0.00128287  0.00128287  1
  Fe  Fe4  1  0.25000000  0.62500000  0.62500000  1
  Co  Co5  1  0.75000000  0.37500000  0.37500000  1
  S  S6  1  0.00824056  0.76236084  0.24587972  1
  S  S7  1  0.00824056  0.24587972  0.24587972  1
  S  S8  1  0.49175944  0.24587972  0.76236084  1
  S  S9  1  0.49175944  0.24587972  0.24587972  1
  S  S10  1  0.98623720  0.22935580  0.75688140  1
  S  S11  1  0.98623720  0.75688140  0.75688140  1
  S  S12  1  0.51376280  0.75688140  0.22935580  1
  S  S13  1  0.51376280  0.75688140  0.75688140  1
