# generated using pymatgen
data_Tm8S11
_symmetry_space_group_name_H-M   'P 1'
_cell_length_a   3.75284507
_cell_length_b   6.61402469
_cell_length_c   35.08501251
_cell_angle_alpha   90.00000000
_cell_angle_beta   90.00000000
_cell_angle_gamma   106.48137133
_symmetry_Int_Tables_number   1
_chemical_formula_structural   Tm8S11
_chemical_formula_sum   'Tm16 S22'
_cell_volume   835.07762761
_cell_formula_units_Z   2
loop_
 _symmetry_equiv_pos_site_id
 _symmetry_equiv_pos_as_xyz
  1  'x, y, z'
loop_
 _atom_site_type_symbol
 _atom_site_label
 _atom_site_symmetry_multiplicity
 _atom_site_fract_x
 _atom_site_fract_y
 _atom_site_fract_z
 _atom_site_occupancy
  S  S0  1  0.39688915  0.79377831  0.83710894  1
  S  S1  1  0.60311085  0.20622169  0.16289106  1
  S  S2  1  0.60311085  0.20622169  0.33710894  1
  S  S3  1  0.39688915  0.79377831  0.66289106  1
  S  S4  1  0.33500924  0.67001848  0.11162941  1
  S  S5  1  0.66499076  0.32998152  0.88837059  1
  S  S6  1  0.66499076  0.32998152  0.61162941  1
  S  S7  1  0.33500924  0.67001848  0.38837059  1
  S  S8  1  0.35310494  0.70620987  0.01604720  1
  S  S9  1  0.64689506  0.29379013  0.98395280  1
  S  S10  1  0.64689506  0.29379013  0.51604720  1
  S  S11  1  0.35310494  0.70620987  0.48395280  1
  S  S12  1  0.11461347  0.22922693  0.79666433  1
  S  S13  1  0.88538653  0.77077307  0.20333567  1
  S  S14  1  0.88538653  0.77077307  0.29666433  1
  S  S15  1  0.11461347  0.22922693  0.70333567  1
  S  S16  1  0.85746086  0.71492173  0.75000000  1
  S  S17  1  0.14253914  0.28507827  0.25000000  1
  S  S18  1  0.09017983  0.18035966  0.43157595  1
  S  S19  1  0.90982017  0.81964034  0.56842405  1
  S  S20  1  0.90982017  0.81964034  0.93157595  1
  S  S21  1  0.09017983  0.18035966  0.06842405  1
  Tm  Tm22  1  0.01902640  0.03805281  0.63283417  1
  Tm  Tm23  1  0.98097360  0.96194719  0.36716583  1
  Tm  Tm24  1  0.98097360  0.96194719  0.13283417  1
  Tm  Tm25  1  0.01902640  0.03805281  0.86716583  1
  Tm  Tm26  1  0.24017368  0.48034735  0.18295386  1
  Tm  Tm27  1  0.75982632  0.51965265  0.81704614  1
  Tm  Tm28  1  0.75982632  0.51965265  0.68295386  1
  Tm  Tm29  1  0.24017368  0.48034735  0.31704614  1
  Tm  Tm30  1  0.25705336  0.51410673  0.55796772  1
  Tm  Tm31  1  0.74294664  0.48589327  0.44203228  1
  Tm  Tm32  1  0.74294664  0.48589327  0.05796772  1
  Tm  Tm33  1  0.25705336  0.51410673  0.94203228  1
  Tm  Tm34  1  0.48942236  0.97884472  0.25000000  1
  Tm  Tm35  1  0.51057764  0.02115528  0.75000000  1
  Tm  Tm36  1  0.00000000  0.00000000  0.50000000  1
  Tm  Tm37  1  0.00000000  0.00000000  0.00000000  1
