# generated using pymatgen
data_La2CoIrO6
_symmetry_space_group_name_H-M   'P 1'
_cell_length_a   5.55043745
_cell_length_b   5.83610611
_cell_length_c   7.93131923
_cell_angle_alpha   90.00000000
_cell_angle_beta   90.07180859
_cell_angle_gamma   90.00000000
_symmetry_Int_Tables_number   1
_chemical_formula_structural   La2CoIrO6
_chemical_formula_sum   'La4 Co2 Ir2 O12'
_cell_volume   256.91856168
_cell_formula_units_Z   2
loop_
 _symmetry_equiv_pos_site_id
 _symmetry_equiv_pos_as_xyz
  1  'x, y, z'
loop_
 _atom_site_type_symbol
 _atom_site_label
 _atom_site_symmetry_multiplicity
 _atom_site_fract_x
 _atom_site_fract_y
 _atom_site_fract_z
 _atom_site_occupancy
  O  O0  1  0.90888938  0.52771928  0.74786105  1
  O  O1  1  0.59111045  0.02771880  0.75213896  1
  O  O2  1  0.09111111  0.47228168  0.25213938  1
  O  O3  1  0.40888823  0.97228045  0.24786020  1
  O  O4  1  0.80592825  0.79370413  0.44998929  1
  O  O5  1  0.69407076  0.29370365  0.05001060  1
  O  O6  1  0.19407043  0.20629683  0.55000987  1
  O  O7  1  0.30592973  0.70629560  0.94998982  1
  O  O8  1  0.20324346  0.19707932  0.95294095  1
  O  O9  1  0.29675671  0.69707980  0.54705874  1
  O  O10  1  0.70324378  0.30292116  0.45294042  1
  O  O11  1  0.79675704  0.80292164  0.04705947  1
  Co  Co12  1  0.49999934  0.00000000  0.49999958  1
  Co  Co13  1  0.00000000  0.50000048  0.00000000  1
  La  La14  1  0.51433354  0.55648657  0.24956903  1
  La  La15  1  0.98566547  0.05648780  0.25043086  1
  La  La16  1  0.48566696  0.44351268  0.75043012  1
  La  La17  1  0.01433321  0.94351316  0.74956957  1
  Ir  Ir18  1  0.49999983  0.00000000  0.00000016  1
  Ir  Ir19  1  0.99999951  0.50000048  0.49999942  1
