# generated using pymatgen
data_KPF6
_symmetry_space_group_name_H-M   'P 1'
_cell_length_a   7.82220257
_cell_length_b   7.82220257
_cell_length_c   7.82220257
_cell_angle_alpha   90.00000000
_cell_angle_beta   90.00000000
_cell_angle_gamma   90.00000000
_symmetry_Int_Tables_number   1
_chemical_formula_structural   KPF6
_chemical_formula_sum   'K4 P4 F24'
_cell_volume   478.61595915
_cell_formula_units_Z   4
loop_
 _symmetry_equiv_pos_site_id
 _symmetry_equiv_pos_as_xyz
  1  'x, y, z'
loop_
 _atom_site_type_symbol
 _atom_site_label
 _atom_site_symmetry_multiplicity
 _atom_site_fract_x
 _atom_site_fract_y
 _atom_site_fract_z
 _atom_site_occupancy
  F  F0  1  0.62076004  0.15721117  0.56815444  1
  F  F1  1  0.12076004  0.34278883  0.43184556  1
  F  F2  1  0.37923996  0.65721117  0.93184556  1
  F  F3  1  0.34278883  0.43184556  0.12076004  1
  F  F4  1  0.93184556  0.37923996  0.65721117  1
  F  F5  1  0.43184556  0.12076004  0.34278883  1
  F  F6  1  0.15721117  0.56815444  0.62076004  1
  F  F7  1  0.56815444  0.62076004  0.15721117  1
  F  F8  1  0.12076004  0.15721117  0.93184556  1
  F  F9  1  0.93184556  0.12076004  0.15721117  1
  F  F10  1  0.15721117  0.93184556  0.12076004  1
  F  F11  1  0.34278883  0.06815444  0.62076004  1
  F  F12  1  0.43184556  0.37923996  0.84278883  1
  F  F13  1  0.84278883  0.43184556  0.37923996  1
  F  F14  1  0.56815444  0.87923996  0.65721117  1
  F  F15  1  0.06815444  0.62076004  0.34278883  1
  F  F16  1  0.65721117  0.56815444  0.87923996  1
  F  F17  1  0.62076004  0.34278883  0.06815444  1
  F  F18  1  0.87923996  0.65721117  0.56815444  1
  F  F19  1  0.37923996  0.84278883  0.43184556  1
  F  F20  1  0.87923996  0.84278883  0.06815444  1
  F  F21  1  0.06815444  0.87923996  0.84278883  1
  F  F22  1  0.84278883  0.06815444  0.87923996  1
  F  F23  1  0.65721117  0.93184556  0.37923996  1
  P  P24  1  0.00000000  0.00000000  0.00000000  1
  P  P25  1  0.50000000  0.00000000  0.50000000  1
  P  P26  1  0.50000000  0.50000000  0.00000000  1
  P  P27  1  0.00000000  0.50000000  0.50000000  1
  K  K28  1  0.50000000  0.50000000  0.50000000  1
  K  K29  1  0.00000000  0.50000000  0.00000000  1
  K  K30  1  0.00000000  0.00000000  0.50000000  1
  K  K31  1  0.50000000  0.00000000  0.00000000  1
