# generated using pymatgen
data_NaSmSiO4
_symmetry_space_group_name_H-M   'P 1'
_cell_length_a   5.39335297
_cell_length_b   8.85114069
_cell_length_c   8.85114069
_cell_angle_alpha   84.67392243
_cell_angle_beta   72.26169229
_cell_angle_gamma   72.26169228
_symmetry_Int_Tables_number   1
_chemical_formula_structural   NaSmSiO4
_chemical_formula_sum   'Na4 Sm4 Si4 O16'
_cell_volume   383.30897970
_cell_formula_units_Z   4
loop_
 _symmetry_equiv_pos_site_id
 _symmetry_equiv_pos_as_xyz
  1  'x, y, z'
loop_
 _atom_site_type_symbol
 _atom_site_label
 _atom_site_symmetry_multiplicity
 _atom_site_fract_x
 _atom_site_fract_y
 _atom_site_fract_z
 _atom_site_occupancy
  O  O0  1  0.26973463  0.03548907  0.42504166  1
  O  O1  1  0.69477630  0.57495834  0.03548907  1
  O  O2  1  0.30522370  0.42504166  0.96451093  1
  O  O3  1  0.73026537  0.96451093  0.57495834  1
  O  O4  1  0.60328205  0.27493605  0.51849985  1
  O  O5  1  0.12178190  0.48150015  0.27493605  1
  O  O6  1  0.87821810  0.51849985  0.72506395  1
  O  O7  1  0.39671795  0.72506395  0.48150015  1
  O  O8  1  0.79675256  0.15372078  0.76591078  1
  O  O9  1  0.56266333  0.23408922  0.15372078  1
  O  O10  1  0.95047333  0.76591078  0.84627922  1
  O  O11  1  0.71638411  0.84627922  0.23408922  1
  O  O12  1  0.28361589  0.15372078  0.76591078  1
  O  O13  1  0.04952667  0.23408922  0.15372078  1
  O  O14  1  0.43733667  0.76591078  0.84627922  1
  O  O15  1  0.20324744  0.84627922  0.23408922  1
  Na  Na16  1  0.91310425  0.69390078  0.47989071  1
  Na  Na17  1  0.60700503  0.47989071  0.30609922  1
  Na  Na18  1  0.39299497  0.52010929  0.69390078  1
  Na  Na19  1  0.08689575  0.30609922  0.52010929  1
  Si  Si20  1  0.26157467  0.33619362  0.14065703  1
  Si  Si21  1  0.73842533  0.66380638  0.85934297  1
  Si  Si22  1  0.40223170  0.85934297  0.33619362  1
  Si  Si23  1  0.59776830  0.14065703  0.66380638  1
  Sm  Sm24  1  0.19121347  0.93037025  0.68720282  1
  Sm  Sm25  1  0.12158372  0.68720282  0.06962975  1
  Sm  Sm26  1  0.80878653  0.06962975  0.31279718  1
  Sm  Sm27  1  0.87841628  0.31279718  0.93037025  1
