# generated using pymatgen
data_K2MnSO4F3
_symmetry_space_group_name_H-M   'P 1'
_cell_length_a   7.45956955
_cell_length_b   8.53063279
_cell_length_c   10.98786476
_cell_angle_alpha   90.00000000
_cell_angle_beta   90.00000000
_cell_angle_gamma   90.00000000
_symmetry_Int_Tables_number   1
_chemical_formula_structural   K2MnSO4F3
_chemical_formula_sum   'K8 Mn4 S4 O16 F12'
_cell_volume   699.21111047
_cell_formula_units_Z   4
loop_
 _symmetry_equiv_pos_site_id
 _symmetry_equiv_pos_as_xyz
  1  'x, y, z'
loop_
 _atom_site_type_symbol
 _atom_site_label
 _atom_site_symmetry_multiplicity
 _atom_site_fract_x
 _atom_site_fract_y
 _atom_site_fract_z
 _atom_site_occupancy
  O  O0  1  0.33355755  0.09856160  0.40359062  1
  O  O1  1  0.83355755  0.40143840  0.09640938  1
  O  O2  1  0.16644245  0.09856160  0.59640938  1
  O  O3  1  0.66644245  0.40143840  0.90359062  1
  O  O4  1  0.66644245  0.90143840  0.59640938  1
  O  O5  1  0.16644245  0.59856160  0.90359062  1
  O  O6  1  0.83355755  0.90143840  0.40359062  1
  O  O7  1  0.33355755  0.59856160  0.09640938  1
  O  O8  1  0.38864110  0.29737617  0.56085633  1
  O  O9  1  0.88864110  0.20262383  0.93914367  1
  O  O10  1  0.11135890  0.29737617  0.43914367  1
  O  O11  1  0.61135890  0.20262383  0.06085633  1
  O  O12  1  0.11135890  0.79737617  0.06085633  1
  O  O13  1  0.88864110  0.70262383  0.56085633  1
  O  O14  1  0.61135890  0.70262383  0.43914367  1
  O  O15  1  0.38864110  0.79737617  0.93914367  1
  F  F16  1  0.47527292  0.94187845  0.16293753  1
  F  F17  1  0.97527292  0.55812155  0.33706247  1
  F  F18  1  0.02472708  0.94187845  0.83706247  1
  F  F19  1  0.52472708  0.55812155  0.66293753  1
  F  F20  1  0.75000000  0.88215385  0.00000000  1
  F  F21  1  0.25000000  0.61784615  0.50000000  1
  F  F22  1  0.25000000  0.11784615  0.00000000  1
  F  F23  1  0.75000000  0.38215385  0.50000000  1
  F  F24  1  0.97527292  0.05812155  0.16293753  1
  F  F25  1  0.52472708  0.05812155  0.83706247  1
  F  F26  1  0.02472708  0.44187845  0.66293753  1
  F  F27  1  0.47527292  0.44187845  0.33706247  1
  S  S28  1  0.25000000  0.19239437  0.50000000  1
  S  S29  1  0.75000000  0.30760563  0.00000000  1
  S  S30  1  0.75000000  0.80760563  0.50000000  1
  S  S31  1  0.25000000  0.69239437  0.00000000  1
  K  K32  1  0.81177251  0.66972513  0.80897410  1
  K  K33  1  0.81177251  0.16972513  0.69102590  1
  K  K34  1  0.31177251  0.83027487  0.69102590  1
  K  K35  1  0.68822749  0.66972513  0.19102590  1
  K  K36  1  0.68822749  0.16972513  0.30897410  1
  K  K37  1  0.31177251  0.33027487  0.80897410  1
  K  K38  1  0.18822749  0.33027487  0.19102590  1
  K  K39  1  0.18822749  0.83027487  0.30897410  1
  Mn  Mn40  1  0.50000000  0.50000000  0.50000000  1
  Mn  Mn41  1  0.50000000  0.00000000  0.00000000  1
  Mn  Mn42  1  0.00000000  0.50000000  0.50000000  1
  Mn  Mn43  1  0.00000000  0.00000000  0.00000000  1
