# generated using pymatgen
data_TbFe3(BO3)4
_symmetry_space_group_name_H-M   'P 1'
_cell_length_a   9.62084044
_cell_length_b   9.62084044
_cell_length_c   7.66169499
_cell_angle_alpha   90.00000000
_cell_angle_beta   90.00000000
_cell_angle_gamma   119.99999999
_symmetry_Int_Tables_number   1
_chemical_formula_structural   TbFe3(BO3)4
_chemical_formula_sum   'Tb3 Fe9 B12 O36'
_cell_volume   614.15998179
_cell_formula_units_Z   3
loop_
 _symmetry_equiv_pos_site_id
 _symmetry_equiv_pos_as_xyz
  1  'x, y, z'
loop_
 _atom_site_type_symbol
 _atom_site_label
 _atom_site_symmetry_multiplicity
 _atom_site_fract_x
 _atom_site_fract_y
 _atom_site_fract_z
 _atom_site_occupancy
  B  B0  1  0.77787387  0.00000000  0.83333333  1
  B  B1  1  0.22212613  0.22212613  0.50000000  1
  B  B2  1  0.00000000  0.77787387  0.16666667  1
  B  B3  1  0.87574809  0.55208636  0.84783064  1
  B  B4  1  0.44791364  0.32366173  0.18116397  1
  B  B5  1  0.67633827  0.12425191  0.51449731  1
  B  B6  1  0.32366173  0.44791364  0.81883603  1
  B  B7  1  0.12425191  0.67633827  0.48550269  1
  B  B8  1  0.55208636  0.87574809  0.15216936  1
  B  B9  1  0.66819508  0.66819508  0.50000000  1
  B  B10  1  0.00000000  0.33180492  0.16666667  1
  B  B11  1  0.33180492  0.00000000  0.83333333  1
  O  O12  1  0.00000000  0.92160990  0.16666667  1
  O  O13  1  0.07839010  0.07839010  0.50000000  1
  O  O14  1  0.92160990  0.00000000  0.83333333  1
  O  O15  1  0.41897328  0.72447970  0.12794476  1
  O  O16  1  0.27552030  0.69449358  0.46127809  1
  O  O17  1  0.30550642  0.58102672  0.79461143  1
  O  O18  1  0.69449358  0.27552030  0.53872191  1
  O  O19  1  0.58102672  0.30550642  0.20538857  1
  O  O20  1  0.72447970  0.41897328  0.87205524  1
  O  O21  1  0.87788987  0.69513203  0.82201781  1
  O  O22  1  0.30486797  0.18275784  0.15535114  1
  O  O23  1  0.81724216  0.12211013  0.48868447  1
  O  O24  1  0.18275784  0.30486797  0.84464886  1
  O  O25  1  0.12211013  0.81724216  0.51131553  1
  O  O26  1  0.69513203  0.87788987  0.17798219  1
  O  O27  1  0.85284716  0.63812666  0.18517932  1
  O  O28  1  0.36187334  0.21472050  0.51851265  1
  O  O29  1  0.78527950  0.14715284  0.85184598  1
  O  O30  1  0.21472050  0.36187334  0.48148735  1
  O  O31  1  0.14715284  0.78527950  0.14815402  1
  O  O32  1  0.63812666  0.85284716  0.81482068  1
  O  O33  1  0.47464003  0.14467041  0.84231648  1
  O  O34  1  0.85532959  0.32996962  0.17564981  1
  O  O35  1  0.67003038  0.52535997  0.50898314  1
  O  O36  1  0.32996962  0.85532959  0.82435019  1
  O  O37  1  0.52535997  0.67003038  0.49101686  1
  O  O38  1  0.14467041  0.47464003  0.15768352  1
  O  O39  1  0.18812527  0.00000000  0.83333333  1
  O  O40  1  0.00000000  0.18812527  0.16666667  1
  O  O41  1  0.81187473  0.81187473  0.50000000  1
  O  O42  1  0.47455685  0.46570736  0.81501285  1
  O  O43  1  0.53429264  0.00884948  0.14834618  1
  O  O44  1  0.99115052  0.52544315  0.48167951  1
  O  O45  1  0.00884948  0.53429264  0.85165382  1
  O  O46  1  0.52544315  0.99115052  0.51832049  1
  O  O47  1  0.46570736  0.47455685  0.18498715  1
  Fe  Fe48  1  0.45092516  0.78747913  0.65519081  1
  Fe  Fe49  1  0.21252087  0.66344603  0.98852414  1
  Fe  Fe50  1  0.33655397  0.54907484  0.32185747  1
  Fe  Fe51  1  0.66344603  0.21252087  0.01147586  1
  Fe  Fe52  1  0.54907484  0.33655397  0.67814253  1
  Fe  Fe53  1  0.78747913  0.45092516  0.34480919  1
  Fe  Fe54  1  0.00000000  0.88493887  0.66666667  1
  Fe  Fe55  1  0.88493887  0.00000000  0.33333333  1
  Fe  Fe56  1  0.11506113  0.11506113  0.00000000  1
  Tb  Tb57  1  0.00000000  0.33510294  0.66666667  1
  Tb  Tb58  1  0.33510294  0.00000000  0.33333333  1
  Tb  Tb59  1  0.66489706  0.66489706  0.00000000  1
