# generated using pymatgen
data_LiMn(PO3)3
_symmetry_space_group_name_H-M   'P 1'
_cell_length_a   8.56562941
_cell_length_b   8.78370220
_cell_length_c   8.88668216
_cell_angle_alpha   90.00000000
_cell_angle_beta   90.00000000
_cell_angle_gamma   90.00000000
_symmetry_Int_Tables_number   1
_chemical_formula_structural   LiMn(PO3)3
_chemical_formula_sum   'Li4 Mn4 P12 O36'
_cell_volume   668.61564043
_cell_formula_units_Z   4
loop_
 _symmetry_equiv_pos_site_id
 _symmetry_equiv_pos_as_xyz
  1  'x, y, z'
loop_
 _atom_site_type_symbol
 _atom_site_label
 _atom_site_symmetry_multiplicity
 _atom_site_fract_x
 _atom_site_fract_y
 _atom_site_fract_z
 _atom_site_occupancy
  Li  Li0  1  0.15324087  0.13642319  0.38554523  1
  Li  Li1  1  0.65324087  0.36357681  0.61445477  1
  Li  Li2  1  0.84675913  0.63642319  0.11445477  1
  Li  Li3  1  0.34675913  0.86357681  0.88554523  1
  O  O4  1  0.37006159  0.80212228  0.12052758  1
  O  O5  1  0.87006159  0.69787772  0.87947242  1
  O  O6  1  0.62993841  0.30212228  0.37947242  1
  O  O7  1  0.12993841  0.19787772  0.62052758  1
  O  O8  1  0.60256334  0.62272996  0.08224406  1
  O  O9  1  0.10256334  0.87727004  0.91775594  1
  O  O10  1  0.39743666  0.12272996  0.41775594  1
  O  O11  1  0.89743666  0.37727004  0.58224406  1
  O  O12  1  0.90766188  0.10589972  0.36621016  1
  O  O13  1  0.40766188  0.39410028  0.63378984  1
  O  O14  1  0.09233812  0.60589972  0.13378984  1
  O  O15  1  0.59233812  0.89410028  0.86621016  1
  O  O16  1  0.15679204  0.86191226  0.41002100  1
  O  O17  1  0.65679204  0.63808774  0.58997900  1
  O  O18  1  0.84320796  0.36191226  0.08997900  1
  O  O19  1  0.34320796  0.13808774  0.91002100  1
  O  O20  1  0.30628327  0.90452354  0.65911081  1
  O  O21  1  0.80628327  0.59547646  0.34088919  1
  O  O22  1  0.69371673  0.40452354  0.84088919  1
  O  O23  1  0.19371673  0.09547646  0.15911081  1
  O  O24  1  0.26768665  0.63729240  0.55012526  1
  O  O25  1  0.76768665  0.86270760  0.44987474  1
  O  O26  1  0.73231335  0.13729240  0.94987474  1
  O  O27  1  0.23231335  0.36270760  0.05012526  1
  O  O28  1  0.03846285  0.77526862  0.65687085  1
  O  O29  1  0.53846285  0.72473138  0.34312915  1
  O  O30  1  0.96153715  0.27526862  0.84312915  1
  O  O31  1  0.46153715  0.22473138  0.15687085  1
  O  O32  1  0.37263078  0.61883465  0.81687605  1
  O  O33  1  0.87263078  0.88116535  0.18312395  1
  O  O34  1  0.62736922  0.11883465  0.68312395  1
  O  O35  1  0.12736922  0.38116535  0.31687605  1
  O  O36  1  0.13766901  0.46452076  0.73451355  1
  O  O37  1  0.63766901  0.03547924  0.26548645  1
  O  O38  1  0.86233099  0.96452076  0.76548645  1
  O  O39  1  0.36233099  0.53547924  0.23451355  1
  P  P40  1  0.47136713  0.67618497  0.18123245  1
  P  P41  1  0.97136713  0.82381503  0.81876755  1
  P  P42  1  0.52863287  0.17618497  0.31876755  1
  P  P43  1  0.02863287  0.32381503  0.68123245  1
  P  P44  1  0.19096341  0.47580862  0.18894136  1
  P  P45  1  0.69096341  0.02419138  0.81105864  1
  P  P46  1  0.80903659  0.97580862  0.31105864  1
  P  P47  1  0.30903659  0.52419138  0.68894136  1
  P  P48  1  0.30146964  0.19153619  0.06472480  1
  P  P49  1  0.80146964  0.30846381  0.93527520  1
  P  P50  1  0.69853036  0.69153619  0.43527520  1
  P  P51  1  0.19853036  0.80846381  0.56472480  1
  Mn  Mn52  1  0.37233924  0.14424918  0.66367030  1
  Mn  Mn53  1  0.87233924  0.35575082  0.33632970  1
  Mn  Mn54  1  0.62766076  0.64424918  0.83632970  1
  Mn  Mn55  1  0.12766076  0.85575082  0.16367030  1
