# generated using pymatgen
data_TbFe3(BO3)4
_symmetry_space_group_name_H-M   'P 1'
_cell_length_a   6.12469795
_cell_length_b   6.12469795
_cell_length_c   6.12469794
_cell_angle_alpha   103.84093685
_cell_angle_beta   103.84093683
_cell_angle_gamma   103.84093683
_symmetry_Int_Tables_number   1
_chemical_formula_structural   TbFe3(BO3)4
_chemical_formula_sum   'Tb1 Fe3 B4 O12'
_cell_volume   205.61324100
_cell_formula_units_Z   1
loop_
 _symmetry_equiv_pos_site_id
 _symmetry_equiv_pos_as_xyz
  1  'x, y, z'
loop_
 _atom_site_type_symbol
 _atom_site_label
 _atom_site_symmetry_multiplicity
 _atom_site_fract_x
 _atom_site_fract_y
 _atom_site_fract_z
 _atom_site_occupancy
  B  B0  1  0.05127215  0.49999996  0.94872882  1
  B  B1  1  0.50000011  0.94872879  0.05127157  1
  B  B2  1  0.94872849  0.05127114  0.49999917  1
  B  B3  1  0.50000081  0.49999996  0.49999944  1
  O  O4  1  0.09225312  0.90774700  0.49999929  1
  O  O5  1  0.50000024  0.35642416  0.64357610  1
  O  O6  1  0.64357624  0.49999996  0.35642419  1
  O  O7  1  0.35642427  0.64357577  0.49999927  1
  O  O8  1  0.49999945  0.09225293  0.90774653  1
  O  O9  1  0.90774650  0.49999996  0.09225334  1
  O  O10  1  0.79554353  0.02949650  0.63242500  1
  O  O11  1  0.97050232  0.20445677  0.36757494  1
  O  O12  1  0.36757435  0.97050343  0.20445696  1
  O  O13  1  0.63242638  0.79554316  0.02949706  1
  O  O14  1  0.02949708  0.63242643  0.79554350  1
  O  O15  1  0.20445617  0.36757350  0.97050290  1
  Fe  Fe16  1  0.45072396  0.99999914  0.54927484  1
  Fe  Fe17  1  0.99999962  0.54927540  0.45072523  1
  Fe  Fe18  1  0.54927636  0.45072539  0.00000005  1
  Tb  Tb19  1  0.00000000  0.00000000  0.00000000  1
