# generated using pymatgen
data_KV3O8
_symmetry_space_group_name_H-M   'P 1'
_cell_length_a   5.13650854
_cell_length_b   7.95422217
_cell_length_c   8.75807135
_cell_angle_alpha   90.00000000
_cell_angle_beta   90.00000000
_cell_angle_gamma   100.58919799
_symmetry_Int_Tables_number   1
_chemical_formula_structural   KV3O8
_chemical_formula_sum   'K2 V6 O16'
_cell_volume   351.73410454
_cell_formula_units_Z   2
loop_
 _symmetry_equiv_pos_site_id
 _symmetry_equiv_pos_as_xyz
  1  'x, y, z'
loop_
 _atom_site_type_symbol
 _atom_site_label
 _atom_site_symmetry_multiplicity
 _atom_site_fract_x
 _atom_site_fract_y
 _atom_site_fract_z
 _atom_site_occupancy
  O  O0  1  0.13047619  0.71568418  0.39479036  1
  O  O1  1  0.86952431  0.28431476  0.89479080  1
  O  O2  1  0.86952431  0.28431476  0.60520936  1
  O  O3  1  0.13047619  0.71568418  0.10521007  1
  O  O4  1  0.40679406  0.16323380  0.44654652  1
  O  O5  1  0.59320675  0.83676642  0.94654581  1
  O  O6  1  0.59320675  0.83676642  0.55345435  1
  O  O7  1  0.40679406  0.16323380  0.05345392  1
  O  O8  1  0.07553760  0.40229643  0.24999965  1
  O  O9  1  0.92446322  0.59770378  0.75000008  1
  O  O10  1  0.60109261  0.75264592  0.24999965  1
  O  O11  1  0.39890820  0.24735429  0.75000008  1
  O  O12  1  0.67158292  0.50222000  0.40978772  1
  O  O13  1  0.32841790  0.49778022  0.59021200  1
  O  O14  1  0.32841790  0.49778022  0.90978701  1
  O  O15  1  0.67158292  0.50222000  0.09021271  1
  K  K16  1  0.99132374  0.04508310  0.24999965  1
  K  K17  1  0.00867708  0.95491712  0.75000008  1
  V  V18  1  0.07720302  0.43570521  0.75000008  1
  V  V19  1  0.45424410  0.68135271  0.05787845  1
  V  V20  1  0.54575444  0.31864618  0.55787889  1
  V  V21  1  0.92279582  0.56429495  0.24999965  1
  V  V22  1  0.54575444  0.31864618  0.94212128  1
  V  V23  1  0.45424410  0.68135271  0.44212199  1
