# generated using pymatgen
data_Cr2InS4
_symmetry_space_group_name_H-M   'P 1'
_cell_length_a   7.37407808
_cell_length_b   7.45825358
_cell_length_c   7.25268402
_cell_angle_alpha   90.00000000
_cell_angle_beta   60.54308969
_cell_angle_gamma   120.37833082
_symmetry_Int_Tables_number   1
_chemical_formula_structural   Cr2InS4
_chemical_formula_sum   'Cr4 In2 S8'
_cell_volume   282.73430886
_cell_formula_units_Z   2
loop_
 _symmetry_equiv_pos_site_id
 _symmetry_equiv_pos_as_xyz
  1  'x, y, z'
loop_
 _atom_site_type_symbol
 _atom_site_label
 _atom_site_symmetry_multiplicity
 _atom_site_fract_x
 _atom_site_fract_y
 _atom_site_fract_z
 _atom_site_occupancy
  Cr  Cr0  1  0.75842038  0.37921019  0.37078981  1
  Cr  Cr1  1  0.24157962  0.62078981  0.62921019  1
  Cr  Cr2  1  0.00000000  0.00000000  0.50000000  1
  Cr  Cr3  1  0.00000000  0.00000000  0.00000000  1
  In  In4  1  0.50000000  0.50000000  0.00000000  1
  In  In5  1  0.50000000  0.00000000  0.00000000  1
  S  S6  1  0.99603421  0.77281406  0.25198289  1
  S  S7  1  0.99603421  0.22322015  0.25198289  1
  S  S8  1  0.46755154  0.23377577  0.76457834  1
  S  S9  1  0.46755154  0.23377577  0.26787012  1
  S  S10  1  0.00396579  0.22718594  0.74801711  1
  S  S11  1  0.00396579  0.77677985  0.74801711  1
  S  S12  1  0.53244846  0.76622423  0.23542166  1
  S  S13  1  0.53244846  0.76622423  0.73212988  1
