# generated using pymatgen
data_K2Mn2(SO4)3
_symmetry_space_group_name_H-M   'P 1'
_cell_length_a   10.30339855
_cell_length_b   10.30339855
_cell_length_c   10.30339855
_cell_angle_alpha   90.00000000
_cell_angle_beta   90.00000000
_cell_angle_gamma   90.00000000
_symmetry_Int_Tables_number   1
_chemical_formula_structural   K2Mn2(SO4)3
_chemical_formula_sum   'K8 Mn8 S12 O48'
_cell_volume   1093.80901345
_cell_formula_units_Z   4
loop_
 _symmetry_equiv_pos_site_id
 _symmetry_equiv_pos_as_xyz
  1  'x, y, z'
loop_
 _atom_site_type_symbol
 _atom_site_label
 _atom_site_symmetry_multiplicity
 _atom_site_fract_x
 _atom_site_fract_y
 _atom_site_fract_z
 _atom_site_occupancy
  O  O0  1  0.24445524  0.59103906  0.65170064  1
  O  O1  1  0.74445524  0.90896094  0.34829936  1
  O  O2  1  0.75554476  0.09103906  0.84829936  1
  O  O3  1  0.90896094  0.34829936  0.74445524  1
  O  O4  1  0.84829936  0.75554476  0.09103906  1
  O  O5  1  0.34829936  0.74445524  0.90896094  1
  O  O6  1  0.59103906  0.65170064  0.24445524  1
  O  O7  1  0.65170064  0.24445524  0.59103906  1
  O  O8  1  0.09103906  0.84829936  0.75554476  1
  O  O9  1  0.40896094  0.15170064  0.25554476  1
  O  O10  1  0.15170064  0.25554476  0.40896094  1
  O  O11  1  0.25554476  0.40896094  0.15170064  1
  O  O12  1  0.26293771  0.50594839  0.43431118  1
  O  O13  1  0.76293771  0.99405161  0.56568882  1
  O  O14  1  0.73706229  0.00594839  0.06568882  1
  O  O15  1  0.99405161  0.56568882  0.76293771  1
  O  O16  1  0.06568882  0.73706229  0.00594839  1
  O  O17  1  0.56568882  0.76293771  0.99405161  1
  O  O18  1  0.99210028  0.58568914  0.17415650  1
  O  O19  1  0.50594839  0.43431118  0.26293771  1
  O  O20  1  0.00594839  0.06568882  0.73706229  1
  O  O21  1  0.49405161  0.93431118  0.23706229  1
  O  O22  1  0.93431118  0.23706229  0.49405161  1
  O  O23  1  0.23706229  0.49405161  0.93431118  1
  O  O24  1  0.41431086  0.67415650  0.50789972  1
  O  O25  1  0.91431086  0.82584350  0.49210028  1
  O  O26  1  0.58568914  0.17415650  0.99210028  1
  O  O27  1  0.82584350  0.49210028  0.91431086  1
  O  O28  1  0.31147633  0.27587916  0.96269226  1
  O  O29  1  0.96269226  0.31147633  0.27587916  1
  O  O30  1  0.27587916  0.96269226  0.31147633  1
  O  O31  1  0.22412084  0.03730774  0.81147633  1
  O  O32  1  0.46269226  0.18852367  0.72412084  1
  O  O33  1  0.72412084  0.46269226  0.18852367  1
  O  O34  1  0.53730774  0.68852367  0.77587916  1
  O  O35  1  0.03730774  0.81147633  0.22412084  1
  O  O36  1  0.77587916  0.53730774  0.68852367  1
  O  O37  1  0.81147633  0.22412084  0.03730774  1
  O  O38  1  0.68852367  0.77587916  0.53730774  1
  O  O39  1  0.18852367  0.72412084  0.46269226  1
  O  O40  1  0.08568914  0.32584350  0.00789972  1
  O  O41  1  0.00789972  0.08568914  0.32584350  1
  O  O42  1  0.32584350  0.00789972  0.08568914  1
  O  O43  1  0.17415650  0.99210028  0.58568914  1
  O  O44  1  0.50789972  0.41431086  0.67415650  1
  O  O45  1  0.67415650  0.50789972  0.41431086  1
  O  O46  1  0.49210028  0.91431086  0.82584350  1
  O  O47  1  0.43431118  0.26293771  0.50594839  1
  S  S48  1  0.27821707  0.62431414  0.51556664  1
  S  S49  1  0.77821707  0.87568586  0.48443336  1
  S  S50  1  0.72178293  0.12431414  0.98443336  1
  S  S51  1  0.87568586  0.48443336  0.77821707  1
  S  S52  1  0.98443336  0.72178293  0.12431414  1
  S  S53  1  0.48443336  0.77821707  0.87568586  1
  S  S54  1  0.62431414  0.51556664  0.27821707  1
  S  S55  1  0.51556664  0.27821707  0.62431414  1
  S  S56  1  0.12431414  0.98443336  0.72178293  1
  S  S57  1  0.22178293  0.37568586  0.01556664  1
  S  S58  1  0.01556664  0.22178293  0.37568586  1
  S  S59  1  0.37568586  0.01556664  0.22178293  1
  K  K60  1  0.68517827  0.18517827  0.31482173  1
  K  K61  1  0.31482173  0.68517827  0.18517827  1
  K  K62  1  0.94791151  0.55208849  0.44791151  1
  K  K63  1  0.18517827  0.31482173  0.68517827  1
  K  K64  1  0.05208849  0.05208849  0.05208849  1
  K  K65  1  0.44791151  0.94791151  0.55208849  1
  K  K66  1  0.55208849  0.44791151  0.94791151  1
  K  K67  1  0.81482173  0.81482173  0.81482173  1
  Mn  Mn68  1  0.33320599  0.33320599  0.33320599  1
  Mn  Mn69  1  0.16679401  0.66679401  0.83320599  1
  Mn  Mn70  1  0.83320599  0.16679401  0.66679401  1
  Mn  Mn71  1  0.66679401  0.83320599  0.16679401  1
  Mn  Mn72  1  0.59303122  0.59303122  0.59303122  1
  Mn  Mn73  1  0.09303122  0.90696878  0.40696878  1
  Mn  Mn74  1  0.40696878  0.09303122  0.90696878  1
  Mn  Mn75  1  0.90696878  0.40696878  0.09303122  1
