# generated using pymatgen
data_BaCaV2O7
_symmetry_space_group_name_H-M   'P 1'
_cell_length_a   5.87194341
_cell_length_b   7.61504598
_cell_length_c   15.71346679
_cell_angle_alpha   90.00000000
_cell_angle_beta   90.00000000
_cell_angle_gamma   90.00000000
_symmetry_Int_Tables_number   1
_chemical_formula_structural   BaCaV2O7
_chemical_formula_sum   'Ba4 Ca4 V8 O28'
_cell_volume   702.62953835
_cell_formula_units_Z   4
loop_
 _symmetry_equiv_pos_site_id
 _symmetry_equiv_pos_as_xyz
  1  'x, y, z'
loop_
 _atom_site_type_symbol
 _atom_site_label
 _atom_site_symmetry_multiplicity
 _atom_site_fract_x
 _atom_site_fract_y
 _atom_site_fract_z
 _atom_site_occupancy
  O  O0  1  0.25000000  0.91934972  0.15022261  1
  O  O1  1  0.75000000  0.08065028  0.84977739  1
  O  O2  1  0.75000000  0.41934972  0.34977739  1
  O  O3  1  0.25000000  0.58065028  0.65022261  1
  O  O4  1  0.98148889  0.34430936  0.94033611  1
  O  O5  1  0.48148889  0.65569064  0.05966389  1
  O  O6  1  0.01851111  0.84430936  0.55966389  1
  O  O7  1  0.51851111  0.15569064  0.44033611  1
  O  O8  1  0.01851111  0.65569064  0.05966389  1
  O  O9  1  0.51851111  0.34430936  0.94033611  1
  O  O10  1  0.98148889  0.15569064  0.44033611  1
  O  O11  1  0.48148889  0.84430936  0.55966389  1
  O  O12  1  0.25000000  0.93657357  0.96521002  1
  O  O13  1  0.75000000  0.06342643  0.03478998  1
  O  O14  1  0.75000000  0.43657357  0.53478998  1
  O  O15  1  0.25000000  0.56342643  0.46521002  1
  O  O16  1  0.48609781  0.79521481  0.34636420  1
  O  O17  1  0.98609781  0.20478519  0.65363580  1
  O  O18  1  0.51390219  0.29521481  0.15363580  1
  O  O19  1  0.01390219  0.70478519  0.84636420  1
  O  O20  1  0.51390219  0.20478519  0.65363580  1
  O  O21  1  0.01390219  0.79521481  0.34636420  1
  O  O22  1  0.48609781  0.70478519  0.84636420  1
  O  O23  1  0.98609781  0.29521481  0.15363580  1
  O  O24  1  0.25000000  0.51094055  0.27897685  1
  O  O25  1  0.75000000  0.48905945  0.72102315  1
  O  O26  1  0.75000000  0.01094055  0.22102315  1
  O  O27  1  0.25000000  0.98905945  0.77897685  1
  Ca  Ca28  1  0.25000000  0.11293098  0.55334411  1
  Ca  Ca29  1  0.25000000  0.38706902  0.05334411  1
  Ca  Ca30  1  0.75000000  0.61293098  0.94665589  1
  Ca  Ca31  1  0.75000000  0.88706902  0.44665589  1
  V  V32  1  0.75000000  0.16177640  0.14210225  1
  V  V33  1  0.25000000  0.80040411  0.06055501  1
  V  V34  1  0.75000000  0.33822360  0.64210225  1
  V  V35  1  0.25000000  0.66177640  0.35789775  1
  V  V36  1  0.75000000  0.30040411  0.43944499  1
  V  V37  1  0.25000000  0.69959589  0.56055501  1
  V  V38  1  0.75000000  0.19959589  0.93944499  1
  V  V39  1  0.25000000  0.83822360  0.85789775  1
  Ba  Ba40  1  0.25000000  0.36286664  0.78525721  1
  Ba  Ba41  1  0.75000000  0.63713336  0.21474279  1
  Ba  Ba42  1  0.75000000  0.86286664  0.71474279  1
  Ba  Ba43  1  0.25000000  0.13713336  0.28525721  1
