# generated using pymatgen
data_Mn2As2O7
_symmetry_space_group_name_H-M   'P 1'
_cell_length_a   4.90280629
_cell_length_b   5.63042898
_cell_length_c   5.63042898
_cell_angle_alpha   105.06519530
_cell_angle_beta   97.72538326
_cell_angle_gamma   97.72538332
_symmetry_Int_Tables_number   1
_chemical_formula_structural   Mn2As2O7
_chemical_formula_sum   'Mn2 As2 O7'
_cell_volume   146.37509962
_cell_formula_units_Z   1
loop_
 _symmetry_equiv_pos_site_id
 _symmetry_equiv_pos_as_xyz
  1  'x, y, z'
loop_
 _atom_site_type_symbol
 _atom_site_label
 _atom_site_symmetry_multiplicity
 _atom_site_fract_x
 _atom_site_fract_y
 _atom_site_fract_z
 _atom_site_occupancy
  O  O0  1  0.28761777  0.92537502  0.60589020  1
  O  O1  1  0.71238223  0.39410980  0.07462498  1
  O  O2  1  0.71238223  0.07462498  0.39410980  1
  O  O3  1  0.28761777  0.60589020  0.92537502  1
  O  O4  1  0.00000000  0.00000000  0.00000000  1
  O  O5  1  0.77868732  0.60301804  0.60301804  1
  O  O6  1  0.22131268  0.39698196  0.39698196  1
  Mn  Mn7  1  0.50000000  0.69201227  0.30798773  1
  Mn  Mn8  1  0.50000000  0.30798773  0.69201227  1
  As  As9  1  0.09670458  0.76828068  0.76828068  1
  As  As10  1  0.90329542  0.23171932  0.23171932  1
