# generated using pymatgen
data_RbMo2(PO4)3
_symmetry_space_group_name_H-M   'P 1'
_cell_length_a   9.02129944
_cell_length_b   9.46107826
_cell_length_c   12.50370345
_cell_angle_alpha   90.00000000
_cell_angle_beta   90.00000000
_cell_angle_gamma   90.00000000
_symmetry_Int_Tables_number   1
_chemical_formula_structural   RbMo2(PO4)3
_chemical_formula_sum   'Rb4 Mo8 P12 O48'
_cell_volume   1067.20634408
_cell_formula_units_Z   4
loop_
 _symmetry_equiv_pos_site_id
 _symmetry_equiv_pos_as_xyz
  1  'x, y, z'
loop_
 _atom_site_type_symbol
 _atom_site_label
 _atom_site_symmetry_multiplicity
 _atom_site_fract_x
 _atom_site_fract_y
 _atom_site_fract_z
 _atom_site_occupancy
  O  O0  1  0.64010035  0.59097473  0.75000000  1
  O  O1  1  0.64010035  0.90902527  0.25000000  1
  O  O2  1  0.35989965  0.09097473  0.75000000  1
  O  O3  1  0.35989965  0.40902527  0.25000000  1
  O  O4  1  0.06660728  0.16370434  0.41961685  1
  O  O5  1  0.06660728  0.33629566  0.58038315  1
  O  O6  1  0.93339272  0.66370434  0.08038315  1
  O  O7  1  0.93339272  0.83629566  0.91961685  1
  O  O8  1  0.93339272  0.83629566  0.58038315  1
  O  O9  1  0.93339272  0.66370434  0.41961685  1
  O  O10  1  0.06660728  0.33629566  0.91961685  1
  O  O11  1  0.06660728  0.16370434  0.08038315  1
  O  O12  1  0.42804221  0.89372471  0.38423942  1
  O  O13  1  0.42804221  0.60627529  0.61576058  1
  O  O14  1  0.57195779  0.39372471  0.11576058  1
  O  O15  1  0.57195779  0.10627529  0.88423942  1
  O  O16  1  0.57195779  0.10627529  0.61576058  1
  O  O17  1  0.61163919  0.79885964  0.62230574  1
  O  O18  1  0.57195779  0.39372471  0.38423942  1
  O  O19  1  0.42804221  0.89372471  0.11576058  1
  O  O20  1  0.38836081  0.20114036  0.37769426  1
  O  O21  1  0.38836081  0.29885964  0.62230574  1
  O  O22  1  0.61163919  0.70114036  0.12230574  1
  O  O23  1  0.61163919  0.79885964  0.87769426  1
  O  O24  1  0.21239791  0.01814061  0.25000000  1
  O  O25  1  0.21239791  0.48185939  0.75000000  1
  O  O26  1  0.78760209  0.51814061  0.25000000  1
  O  O27  1  0.78760209  0.98185939  0.75000000  1
  O  O28  1  0.12463757  0.84867538  0.06840596  1
  O  O29  1  0.12463757  0.65132462  0.93159404  1
  O  O30  1  0.87536243  0.34867538  0.43159404  1
  O  O31  1  0.87536243  0.15132462  0.56840596  1
  O  O32  1  0.87536243  0.15132462  0.93159404  1
  O  O33  1  0.87536243  0.34867538  0.06840596  1
  O  O34  1  0.12463757  0.65132462  0.56840596  1
  O  O35  1  0.12463757  0.84867538  0.43159404  1
  O  O36  1  0.30139658  0.05065816  0.93725556  1
  O  O37  1  0.30139658  0.44934184  0.06274444  1
  O  O38  1  0.69860342  0.55065816  0.56274444  1
  O  O39  1  0.69860342  0.94934184  0.43725556  1
  O  O40  1  0.69860342  0.94934184  0.06274444  1
  O  O41  1  0.69860342  0.55065816  0.93725556  1
  O  O42  1  0.30139658  0.44934184  0.43725556  1
  O  O43  1  0.30139658  0.05065816  0.56274444  1
  O  O44  1  0.38836081  0.20114036  0.12230574  1
  O  O45  1  0.38836081  0.29885964  0.87769426  1
  O  O46  1  0.61163919  0.70114036  0.37769426  1
  O  O47  1  0.42804221  0.60627529  0.88423942  1
  P  P48  1  0.40889081  0.36029895  0.36979755  1
  P  P49  1  0.40889081  0.13970105  0.63020245  1
  P  P50  1  0.59110919  0.86029895  0.13020245  1
  P  P51  1  0.59110919  0.63970105  0.86979755  1
  P  P52  1  0.59110919  0.63970105  0.63020245  1
  P  P53  1  0.59110919  0.86029895  0.36979755  1
  P  P54  1  0.40889081  0.13970105  0.86979755  1
  P  P55  1  0.40889081  0.36029895  0.13020245  1
  P  P56  1  0.97338771  0.25000000  0.50000000  1
  P  P57  1  0.02661229  0.75000000  0.00000000  1
  P  P58  1  0.02661229  0.75000000  0.50000000  1
  P  P59  1  0.97338771  0.25000000  0.00000000  1
  Rb  Rb60  1  0.18410200  0.83755040  0.75000000  1
  Rb  Rb61  1  0.18410200  0.66244960  0.25000000  1
  Rb  Rb62  1  0.81589800  0.33755040  0.75000000  1
  Rb  Rb63  1  0.81589800  0.16244960  0.25000000  1
  Mo  Mo64  1  0.24712617  0.03016893  0.39986005  1
  Mo  Mo65  1  0.24712617  0.46983107  0.60013995  1
  Mo  Mo66  1  0.75287383  0.53016893  0.10013995  1
  Mo  Mo67  1  0.75287383  0.96983107  0.89986005  1
  Mo  Mo68  1  0.75287383  0.96983107  0.60013995  1
  Mo  Mo69  1  0.75287383  0.53016893  0.39986005  1
  Mo  Mo70  1  0.24712617  0.46983107  0.89986005  1
  Mo  Mo71  1  0.24712617  0.03016893  0.10013995  1
