# generated using pymatgen
data_Rb2Cr2O7
_symmetry_space_group_name_H-M   'P 1'
_cell_length_a   7.84468168
_cell_length_b   7.93781971
_cell_length_c   7.87330779
_cell_angle_alpha   90.04804119
_cell_angle_beta   90.00000000
_cell_angle_gamma   119.61261365
_symmetry_Int_Tables_number   1
_chemical_formula_structural   Rb2Cr2O7
_chemical_formula_sum   'Rb4 Cr4 O14'
_cell_volume   426.23225282
_cell_formula_units_Z   2
loop_
 _symmetry_equiv_pos_site_id
 _symmetry_equiv_pos_as_xyz
  1  'x, y, z'
loop_
 _atom_site_type_symbol
 _atom_site_label
 _atom_site_symmetry_multiplicity
 _atom_site_fract_x
 _atom_site_fract_y
 _atom_site_fract_z
 _atom_site_occupancy
  O  O0  1  0.57921127  0.00000000  0.25000000  1
  O  O1  1  0.42078873  0.00000000  0.75000000  1
  O  O2  1  0.63621822  0.68103278  0.27871974  1
  O  O3  1  0.95518544  0.31896722  0.22128026  1
  O  O4  1  0.36378178  0.31896722  0.72128026  1
  O  O5  1  0.04481456  0.68103278  0.77871974  1
  O  O6  1  0.35621463  0.65782114  0.07028111  1
  O  O7  1  0.69839349  0.34217886  0.42971889  1
  O  O8  1  0.14001422  0.87811142  0.48847778  1
  O  O9  1  0.26190280  0.12188858  0.01152222  1
  O  O10  1  0.85998578  0.12188858  0.51152222  1
  O  O11  1  0.73809720  0.87811142  0.98847778  1
  O  O12  1  0.30160651  0.65782114  0.57028111  1
  O  O13  1  0.64378537  0.34217886  0.92971889  1
  Cr  Cr14  1  0.57645804  0.79977881  0.14275135  1
  Cr  Cr15  1  0.77667924  0.20022119  0.35724865  1
  Cr  Cr16  1  0.42354196  0.20022119  0.85724865  1
  Cr  Cr17  1  0.22332076  0.79977881  0.64275135  1
  Rb  Rb18  1  0.99987048  0.70593077  0.14771387  1
  Rb  Rb19  1  0.29393971  0.29406923  0.35228613  1
  Rb  Rb20  1  0.00012952  0.29406923  0.85228613  1
  Rb  Rb21  1  0.70606029  0.70593077  0.64771387  1
