# generated using pymatgen
data_Rb(WO3)3
_symmetry_space_group_name_H-M   'P 1'
_cell_length_a   7.53121276
_cell_length_b   7.55009265
_cell_length_c   7.78010798
_cell_angle_alpha   89.99980987
_cell_angle_beta   89.99911266
_cell_angle_gamma   120.10419894
_symmetry_Int_Tables_number   1
_chemical_formula_structural   Rb(WO3)3
_chemical_formula_sum   'Rb2 W6 O18'
_cell_volume   382.71589195
_cell_formula_units_Z   2
loop_
 _symmetry_equiv_pos_site_id
 _symmetry_equiv_pos_as_xyz
  1  'x, y, z'
loop_
 _atom_site_type_symbol
 _atom_site_label
 _atom_site_symmetry_multiplicity
 _atom_site_fract_x
 _atom_site_fract_y
 _atom_site_fract_z
 _atom_site_occupancy
  O  O0  1  0.50002675  -0.00001533  0.49372226  1
  O  O1  1  0.49994838  0.50002307  0.00188502  1
  O  O2  1  0.00012682  0.50009762  0.00038881  1
  O  O3  1  0.99995827  0.50000995  0.49969637  1
  O  O4  1  0.50001902  0.49993777  0.49820276  1
  O  O5  1  0.49994600  0.99982215  0.00636445  1
  O  O6  1  0.79053901  0.57870778  0.75005873  1
  O  O7  1  0.20947224  0.78856437  0.25009927  1
  O  O8  1  0.42006334  0.21177776  0.24999642  1
  O  O9  1  0.20934205  0.42121424  0.74997213  1
  O  O10  1  0.21059138  0.78874444  0.74994859  1
  O  O11  1  0.79047351  0.21138634  0.25000144  1
  O  O12  1  0.78995688  0.57867037  0.25000005  1
  O  O13  1  0.57993842  0.78830513  0.25008837  1
  O  O14  1  0.21015616  0.42142098  0.25009248  1
  O  O15  1  0.78947859  0.21137577  0.75005342  1
  O  O16  1  0.41893556  0.21553563  0.75006304  1
  O  O17  1  0.58106789  0.78433101  0.74995846  1
  Rb  Rb18  1  -0.00002790  -0.00007477  0.50259294  1
  Rb  Rb19  1  -0.00002631  -0.00006592  0.00045859  1
  W  W20  1  0.99997669  0.49985916  0.25006271  1
  W  W21  1  0.50017402  0.50024410  0.25007309  1
  W  W22  1  0.50017371  1.00000658  0.75004132  1
  W  W23  1  0.00002308  0.50016993  0.75005538  1
  W  W24  1  0.49984043  0.49985443  0.75006330  1
  W  W25  1  0.49982723  0.00009996  0.25005910  1
