# generated using pymatgen
data_Li3Fe2(PO4)3
_symmetry_space_group_name_H-M   'P 1'
_cell_length_a   8.71543179
_cell_length_b   8.74862281
_cell_length_c   12.27541919
_cell_angle_alpha   90.00000000
_cell_angle_beta   90.19012545
_cell_angle_gamma   90.00000000
_symmetry_Int_Tables_number   1
_chemical_formula_structural   Li3Fe2(PO4)3
_chemical_formula_sum   'Li12 Fe8 P12 O48'
_cell_volume   935.97132029
_cell_formula_units_Z   4
loop_
 _symmetry_equiv_pos_site_id
 _symmetry_equiv_pos_as_xyz
  1  'x, y, z'
loop_
 _atom_site_type_symbol
 _atom_site_label
 _atom_site_symmetry_multiplicity
 _atom_site_fract_x
 _atom_site_fract_y
 _atom_site_fract_z
 _atom_site_occupancy
  Li  Li0  1  0.94156024  0.93661816  0.28753691  1
  Li  Li1  1  0.55843976  0.43661816  0.21246309  1
  Li  Li2  1  0.05843976  0.06338184  0.71246309  1
  Li  Li3  1  0.44156024  0.56338184  0.78753691  1
  Li  Li4  1  0.69787849  0.76848844  0.31425190  1
  Li  Li5  1  0.80212151  0.26848844  0.18574810  1
  Li  Li6  1  0.30212151  0.23151156  0.68574810  1
  Li  Li7  1  0.19787849  0.73151156  0.81425190  1
  Li  Li8  1  0.21966035  0.77126493  0.18164658  1
  Li  Li9  1  0.28033965  0.27126493  0.31835342  1
  Li  Li10  1  0.78033965  0.22873507  0.81835342  1
  Li  Li11  1  0.71966035  0.72873507  0.68164658  1
  O  O12  1  0.84453107  0.77394696  0.18499144  1
  O  O13  1  0.65546893  0.27394696  0.31500856  1
  O  O14  1  0.15546893  0.22605304  0.81500856  1
  O  O15  1  0.34453107  0.72605304  0.68499144  1
  O  O16  1  0.33191745  0.75951507  0.32127540  1
  O  O17  1  0.16808255  0.25951507  0.17872460  1
  O  O18  1  0.66808255  0.24048493  0.67872460  1
  O  O19  1  0.83191745  0.74048493  0.82127540  1
  O  O20  1  0.85226067  0.66321550  0.41525121  1
  O  O21  1  0.64773933  0.16321550  0.08474879  1
  O  O22  1  0.14773933  0.33678450  0.58474879  1
  O  O23  1  0.35226067  0.83678450  0.91525121  1
  O  O24  1  0.34403798  0.66102673  0.07533291  1
  O  O25  1  0.15596202  0.16102673  0.42466709  1
  O  O26  1  0.65596202  0.33897327  0.92466709  1
  O  O27  1  0.84403798  0.83897327  0.57533291  1
  O  O28  1  0.55905389  0.84613267  0.06590781  1
  O  O29  1  0.94094611  0.34613267  0.43409219  1
  O  O30  1  0.44094611  0.15386733  0.93409219  1
  O  O31  1  0.05905389  0.65386733  0.56590781  1
  O  O32  1  0.04372189  0.86889789  0.42345245  1
  O  O33  1  0.45627811  0.36889789  0.07654755  1
  O  O34  1  0.95627811  0.13110211  0.57654755  1
  O  O35  1  0.54372189  0.63110211  0.92345245  1
  O  O36  1  0.34299256  0.55242332  0.46698425  1
  O  O37  1  0.15700744  0.05242332  0.03301575  1
  O  O38  1  0.65700744  0.44757668  0.53301575  1
  O  O39  1  0.84299256  0.94757668  0.96698425  1
  O  O40  1  0.84745321  0.58459473  0.02875079  1
  O  O41  1  0.65254679  0.08459473  0.47124921  1
  O  O42  1  0.15254679  0.41540527  0.97124921  1
  O  O43  1  0.34745321  0.91540527  0.52875079  1
  O  O44  1  0.69113501  0.98776145  0.28126305  1
  O  O45  1  0.80886499  0.48776145  0.21873695  1
  O  O46  1  0.30886499  0.01223855  0.71873695  1
  O  O47  1  0.19113501  0.51223855  0.78126305  1
  O  O48  1  0.16545319  0.97682687  0.23066799  1
  O  O49  1  0.33454681  0.47682687  0.26933201  1
  O  O50  1  0.83454681  0.02317313  0.76933201  1
  O  O51  1  0.66545319  0.52317313  0.73066799  1
  O  O52  1  0.56978298  0.59621353  0.33939241  1
  O  O53  1  0.93021702  0.09621353  0.16060759  1
  O  O54  1  0.43021702  0.40378647  0.66060759  1
  O  O55  1  0.06978298  0.90378647  0.83939241  1
  O  O56  1  0.06997706  0.59702247  0.16273057  1
  O  O57  1  0.43002294  0.09702247  0.33726943  1
  O  O58  1  0.93002294  0.40297753  0.83726943  1
  O  O59  1  0.56997706  0.90297753  0.66273057  1
  P  P60  1  0.45423098  0.74456513  0.99624863  1
  P  P61  1  0.04576902  0.24456513  0.50375137  1
  P  P62  1  0.54576902  0.25543487  0.00375137  1
  P  P63  1  0.95423098  0.75543487  0.49624863  1
  P  P64  1  0.89425804  0.60939840  0.14777586  1
  P  P65  1  0.60574196  0.10939840  0.35222414  1
  P  P66  1  0.10574196  0.39060160  0.85222414  1
  P  P67  1  0.39425804  0.89060160  0.64777586  1
  P  P68  1  0.39183053  0.59938670  0.35280597  1
  P  P69  1  0.10816947  0.09938670  0.14719403  1
  P  P70  1  0.60816947  0.40061330  0.64719403  1
  P  P71  1  0.89183053  0.90061330  0.85280597  1
  Fe  Fe72  1  0.74072075  0.95978455  0.10528202  1
  Fe  Fe73  1  0.75927925  0.45978455  0.39471798  1
  Fe  Fe74  1  0.25927925  0.04021545  0.89471798  1
  Fe  Fe75  1  0.24072075  0.54021545  0.60528202  1
  Fe  Fe76  1  0.25517808  0.95717599  0.39008647  1
  Fe  Fe77  1  0.24482192  0.45717599  0.10991353  1
  Fe  Fe78  1  0.74482192  0.04282401  0.60991353  1
  Fe  Fe79  1  0.75517808  0.54282401  0.89008647  1
