# generated using pymatgen
data_NbCoB2
_symmetry_space_group_name_H-M   'P 1'
_cell_length_a   3.16019189
_cell_length_b   5.97199770
_cell_length_c   8.20405346
_cell_angle_alpha   90.00000000
_cell_angle_beta   90.00000000
_cell_angle_gamma   90.00000000
_symmetry_Int_Tables_number   1
_chemical_formula_structural   NbCoB2
_chemical_formula_sum   'Nb4 Co4 B8'
_cell_volume   154.83230090
_cell_formula_units_Z   4
loop_
 _symmetry_equiv_pos_site_id
 _symmetry_equiv_pos_as_xyz
  1  'x, y, z'
loop_
 _atom_site_type_symbol
 _atom_site_label
 _atom_site_symmetry_multiplicity
 _atom_site_fract_x
 _atom_site_fract_y
 _atom_site_fract_z
 _atom_site_occupancy
  B  B0  1  0.25000000  0.66539240  0.67082591  1
  B  B1  1  0.75000000  0.33460760  0.32917409  1
  B  B2  1  0.25000000  0.16539240  0.82917409  1
  B  B3  1  0.75000000  0.83460760  0.17082591  1
  B  B4  1  0.25000000  0.73242159  0.07739236  1
  B  B5  1  0.75000000  0.76757841  0.57739236  1
  B  B6  1  0.25000000  0.23242159  0.42260764  1
  B  B7  1  0.75000000  0.26757841  0.92260764  1
  Co  Co8  1  0.75000000  0.00878766  0.38706999  1
  Co  Co9  1  0.75000000  0.50878766  0.11293001  1
  Co  Co10  1  0.25000000  0.99121234  0.61293001  1
  Co  Co11  1  0.25000000  0.49121234  0.88706999  1
  Nb  Nb12  1  0.25000000  0.63589118  0.36791809  1
  Nb  Nb13  1  0.75000000  0.36410882  0.63208191  1
  Nb  Nb14  1  0.25000000  0.13589118  0.13208191  1
  Nb  Nb15  1  0.75000000  0.86410882  0.86791809  1
