# generated using pymatgen
data_Ba3Ge4
_symmetry_space_group_name_H-M   'P 1'
_cell_length_a   8.67807838
_cell_length_b   8.67807838
_cell_length_c   12.25554270
_cell_angle_alpha   90.00000000
_cell_angle_beta   90.00000000
_cell_angle_gamma   90.00000000
_symmetry_Int_Tables_number   1
_chemical_formula_structural   Ba3Ge4
_chemical_formula_sum   'Ba12 Ge16'
_cell_volume   922.95320897
_cell_formula_units_Z   4
loop_
 _symmetry_equiv_pos_site_id
 _symmetry_equiv_pos_as_xyz
  1  'x, y, z'
loop_
 _atom_site_type_symbol
 _atom_site_label
 _atom_site_symmetry_multiplicity
 _atom_site_fract_x
 _atom_site_fract_y
 _atom_site_fract_z
 _atom_site_occupancy
  Ge  Ge0  1  0.80258177  0.80258177  0.85174323  1
  Ge  Ge1  1  0.19741823  0.19741823  0.85174323  1
  Ge  Ge2  1  0.80258177  0.80258177  0.14825677  1
  Ge  Ge3  1  0.30258177  0.69741823  0.35174323  1
  Ge  Ge4  1  0.69741823  0.30258177  0.35174323  1
  Ge  Ge5  1  0.69741823  0.30258177  0.64825677  1
  Ge  Ge6  1  0.30258177  0.69741823  0.64825677  1
  Ge  Ge7  1  0.19741823  0.19741823  0.14825677  1
  Ge  Ge8  1  0.80399609  0.58860927  0.00000000  1
  Ge  Ge9  1  0.19600391  0.41139073  0.00000000  1
  Ge  Ge10  1  0.58860927  0.80399609  0.00000000  1
  Ge  Ge11  1  0.08860927  0.69600391  0.50000000  1
  Ge  Ge12  1  0.41139073  0.19600391  0.00000000  1
  Ge  Ge13  1  0.30399609  0.91139073  0.50000000  1
  Ge  Ge14  1  0.69600391  0.08860927  0.50000000  1
  Ge  Ge15  1  0.91139073  0.30399609  0.50000000  1
  Ba  Ba16  1  0.50000000  0.00000000  0.75000000  1
  Ba  Ba17  1  0.50000000  0.00000000  0.25000000  1
  Ba  Ba18  1  0.00000000  0.50000000  0.75000000  1
  Ba  Ba19  1  0.00000000  0.50000000  0.25000000  1
  Ba  Ba20  1  0.00000000  0.00000000  0.66959351  1
  Ba  Ba21  1  0.50000000  0.50000000  0.16959351  1
  Ba  Ba22  1  0.50000000  0.50000000  0.83040649  1
  Ba  Ba23  1  0.00000000  0.00000000  0.33040649  1
  Ba  Ba24  1  0.16233023  0.83766977  0.00000000  1
  Ba  Ba25  1  0.66233023  0.66233023  0.50000000  1
  Ba  Ba26  1  0.33766977  0.33766977  0.50000000  1
  Ba  Ba27  1  0.83766977  0.16233023  0.00000000  1
