# generated using pymatgen
data_Eu3Al5O12
_symmetry_space_group_name_H-M   'P 1'
_cell_length_a   10.63266610
_cell_length_b   10.63266610
_cell_length_c   10.63266610
_cell_angle_alpha   109.47122061
_cell_angle_beta   109.47122061
_cell_angle_gamma   109.47122066
_symmetry_Int_Tables_number   1
_chemical_formula_structural   Eu3Al5O12
_chemical_formula_sum   'Eu12 Al20 O48'
_cell_volume   925.34703375
_cell_formula_units_Z   4
loop_
 _symmetry_equiv_pos_site_id
 _symmetry_equiv_pos_as_xyz
  1  'x, y, z'
loop_
 _atom_site_type_symbol
 _atom_site_label
 _atom_site_symmetry_multiplicity
 _atom_site_fract_x
 _atom_site_fract_y
 _atom_site_fract_z
 _atom_site_occupancy
  O  O0  1  0.60049094  0.92018982  0.11547211  1
  O  O1  1  0.57981018  0.18030111  0.19528229  1
  O  O2  1  0.38452789  0.30471771  0.48501883  1
  O  O3  1  0.89950906  0.01498117  0.31969889  1
  O  O4  1  0.89950906  0.38452789  0.57981018  1
  O  O5  1  0.01498117  0.31969889  0.89950906  1
  O  O6  1  0.30471771  0.31969889  0.92018982  1
  O  O7  1  0.31969889  0.89950906  0.01498117  1
  O  O8  1  0.19528229  0.11547211  0.01498117  1
  O  O9  1  0.18030111  0.48501883  0.60049094  1
  O  O10  1  0.48501883  0.60049094  0.18030111  1
  O  O11  1  0.57981018  0.89950906  0.38452789  1
  O  O12  1  0.31969889  0.92018982  0.30471771  1
  O  O13  1  0.01498117  0.19528229  0.11547211  1
  O  O14  1  0.38452789  0.57981018  0.89950906  1
  O  O15  1  0.92018982  0.30471771  0.31969889  1
  O  O16  1  0.11547211  0.01498117  0.19528229  1
  O  O17  1  0.19528229  0.57981018  0.18030111  1
  O  O18  1  0.30471771  0.48501883  0.38452789  1
  O  O19  1  0.80471771  0.88452789  0.98501883  1
  O  O20  1  0.48501883  0.38452789  0.30471771  1
  O  O21  1  0.11547211  0.60049094  0.92018982  1
  O  O22  1  0.18030111  0.19528229  0.57981018  1
  O  O23  1  0.60049094  0.18030111  0.48501883  1
  O  O24  1  0.39950906  0.07981018  0.88452789  1
  O  O25  1  0.42018982  0.81969889  0.80471771  1
  O  O26  1  0.61547211  0.69528229  0.51498117  1
  O  O27  1  0.10049094  0.98501883  0.68030111  1
  O  O28  1  0.10049094  0.61547211  0.42018982  1
  O  O29  1  0.98501883  0.68030111  0.10049094  1
  O  O30  1  0.69528229  0.68030111  0.07981018  1
  O  O31  1  0.68030111  0.10049094  0.98501883  1
  O  O32  1  0.39950906  0.81969889  0.51498117  1
  O  O33  1  0.81969889  0.80471771  0.42018982  1
  O  O34  1  0.88452789  0.39950906  0.07981018  1
  O  O35  1  0.07981018  0.88452789  0.39950906  1
  O  O36  1  0.51498117  0.61547211  0.69528229  1
  O  O37  1  0.69528229  0.51498117  0.61547211  1
  O  O38  1  0.80471771  0.42018982  0.81969889  1
  O  O39  1  0.88452789  0.98501883  0.80471771  1
  O  O40  1  0.07981018  0.69528229  0.68030111  1
  O  O41  1  0.61547211  0.42018982  0.10049094  1
  O  O42  1  0.98501883  0.80471771  0.88452789  1
  O  O43  1  0.68030111  0.07981018  0.69528229  1
  O  O44  1  0.42018982  0.10049094  0.61547211  1
  O  O45  1  0.51498117  0.39950906  0.81969889  1
  O  O46  1  0.81969889  0.51498117  0.39950906  1
  O  O47  1  0.92018982  0.11547211  0.60049094  1
  Al  Al48  1  0.25000000  0.12500000  0.87500000  1
  Al  Al49  1  0.75000000  0.87500000  0.12500000  1
  Al  Al50  1  0.37500000  0.25000000  0.62500000  1
  Al  Al51  1  0.62500000  0.37500000  0.25000000  1
  Al  Al52  1  0.12500000  0.75000000  0.87500000  1
  Al  Al53  1  0.87500000  0.12500000  0.75000000  1
  Al  Al54  1  0.75000000  0.37500000  0.62500000  1
  Al  Al55  1  0.37500000  0.62500000  0.75000000  1
  Al  Al56  1  0.12500000  0.87500000  0.25000000  1
  Al  Al57  1  0.87500000  0.25000000  0.12500000  1
  Al  Al58  1  0.62500000  0.75000000  0.37500000  1
  Al  Al59  1  0.25000000  0.62500000  0.37500000  1
  Al  Al60  1  0.50000000  0.50000000  0.50000000  1
  Al  Al61  1  0.50000000  0.50000000  0.00000000  1
  Al  Al62  1  0.50000000  0.00000000  0.50000000  1
  Al  Al63  1  0.00000000  0.50000000  0.50000000  1
  Al  Al64  1  0.50000000  0.00000000  0.00000000  1
  Al  Al65  1  0.00000000  0.00000000  0.50000000  1
  Al  Al66  1  0.00000000  0.50000000  0.00000000  1
  Al  Al67  1  0.00000000  0.00000000  0.00000000  1
  Eu  Eu68  1  0.25000000  0.87500000  0.62500000  1
  Eu  Eu69  1  0.87500000  0.62500000  0.25000000  1
  Eu  Eu70  1  0.62500000  0.87500000  0.75000000  1
  Eu  Eu71  1  0.87500000  0.75000000  0.62500000  1
  Eu  Eu72  1  0.62500000  0.25000000  0.87500000  1
  Eu  Eu73  1  0.75000000  0.62500000  0.87500000  1
  Eu  Eu74  1  0.75000000  0.12500000  0.37500000  1
  Eu  Eu75  1  0.12500000  0.37500000  0.75000000  1
  Eu  Eu76  1  0.37500000  0.12500000  0.25000000  1
  Eu  Eu77  1  0.12500000  0.25000000  0.37500000  1
  Eu  Eu78  1  0.37500000  0.75000000  0.12500000  1
  Eu  Eu79  1  0.25000000  0.37500000  0.12500000  1
