# generated using pymatgen
data_CeMgCu2
_symmetry_space_group_name_H-M   'P 1'
_cell_length_a   4.60134915
_cell_length_b   4.60134914
_cell_length_c   8.41293582
_cell_angle_alpha   90.00000000
_cell_angle_beta   90.00000000
_cell_angle_gamma   119.99999998
_symmetry_Int_Tables_number   1
_chemical_formula_structural   CeMgCu2
_chemical_formula_sum   'Ce2 Mg2 Cu4'
_cell_volume   154.25831544
_cell_formula_units_Z   2
loop_
 _symmetry_equiv_pos_site_id
 _symmetry_equiv_pos_as_xyz
  1  'x, y, z'
loop_
 _atom_site_type_symbol
 _atom_site_label
 _atom_site_symmetry_multiplicity
 _atom_site_fract_x
 _atom_site_fract_y
 _atom_site_fract_z
 _atom_site_occupancy
  Mg  Mg0  1  0.00000000  0.00000000  0.50000000  1
  Mg  Mg1  1  0.00000000  0.00000000  0.00000000  1
  Cu  Cu2  1  0.33333333  0.66666667  0.58911254  1
  Cu  Cu3  1  0.66666667  0.33333333  0.08911254  1
  Cu  Cu4  1  0.66666667  0.33333333  0.41088746  1
  Cu  Cu5  1  0.33333333  0.66666667  0.91088746  1
  Ce  Ce6  1  0.66666667  0.33333333  0.75000000  1
  Ce  Ce7  1  0.33333333  0.66666667  0.25000000  1
