# generated using pymatgen
data_Nb3(Fe10B3)2
_symmetry_space_group_name_H-M   'P 1'
_cell_length_a   7.58035436
_cell_length_b   7.58035435
_cell_length_c   7.58035435
_cell_angle_alpha   59.99999997
_cell_angle_beta   59.99999998
_cell_angle_gamma   60.00000000
_symmetry_Int_Tables_number   1
_chemical_formula_structural   Nb3(Fe10B3)2
_chemical_formula_sum   'Nb3 Fe20 B6'
_cell_volume   308.00199189
_cell_formula_units_Z   1
loop_
 _symmetry_equiv_pos_site_id
 _symmetry_equiv_pos_as_xyz
  1  'x, y, z'
loop_
 _atom_site_type_symbol
 _atom_site_label
 _atom_site_symmetry_multiplicity
 _atom_site_fract_x
 _atom_site_fract_y
 _atom_site_fract_z
 _atom_site_occupancy
  B  B0  1  0.72913454  0.27086546  0.27086546  1
  B  B1  1  0.27086546  0.72913454  0.72913454  1
  B  B2  1  0.27086546  0.72913454  0.27086546  1
  B  B3  1  0.72913454  0.27086546  0.72913454  1
  B  B4  1  0.72913454  0.72913454  0.27086546  1
  B  B5  1  0.27086546  0.27086546  0.72913454  1
  Fe  Fe6  1  0.65342204  0.00000000  0.00000000  1
  Fe  Fe7  1  0.65342204  0.00000000  0.34657796  1
  Fe  Fe8  1  0.00000000  0.00000000  0.65342204  1
  Fe  Fe9  1  0.38453953  0.38453953  0.38453953  1
  Fe  Fe10  1  0.61546047  0.61546047  0.15361858  1
  Fe  Fe11  1  0.15361858  0.61546047  0.61546047  1
  Fe  Fe12  1  0.61546047  0.15361858  0.61546047  1
  Fe  Fe13  1  0.84638142  0.38453953  0.38453953  1
  Fe  Fe14  1  0.38453953  0.84638142  0.38453953  1
  Fe  Fe15  1  0.38453953  0.38453953  0.84638142  1
  Fe  Fe16  1  0.61546047  0.61546047  0.61546047  1
  Fe  Fe17  1  0.34657796  0.00000000  0.00000000  1
  Fe  Fe18  1  0.00000000  0.00000000  0.34657796  1
  Fe  Fe19  1  0.34657796  0.65342204  0.00000000  1
  Fe  Fe20  1  0.00000000  0.34657796  0.65342204  1
  Fe  Fe21  1  0.00000000  0.65342204  0.34657796  1
  Fe  Fe22  1  0.00000000  0.34657796  0.00000000  1
  Fe  Fe23  1  0.34657796  0.00000000  0.65342204  1
  Fe  Fe24  1  0.65342204  0.34657796  0.00000000  1
  Fe  Fe25  1  0.00000000  0.65342204  0.00000000  1
  Nb  Nb26  1  0.75000000  0.75000000  0.75000000  1
  Nb  Nb27  1  0.25000000  0.25000000  0.25000000  1
  Nb  Nb28  1  0.00000000  0.00000000  0.00000000  1
