# generated using pymatgen
data_Ce5Cu19P12
_symmetry_space_group_name_H-M   'P 1'
_cell_length_a   12.64573632
_cell_length_b   12.64573632
_cell_length_c   3.88291488
_cell_angle_alpha   90.00000000
_cell_angle_beta   90.00000000
_cell_angle_gamma   120.00000001
_symmetry_Int_Tables_number   1
_chemical_formula_structural   Ce5Cu19P12
_chemical_formula_sum   'Ce5 Cu19 P12'
_cell_volume   537.74545163
_cell_formula_units_Z   1
loop_
 _symmetry_equiv_pos_site_id
 _symmetry_equiv_pos_as_xyz
  1  'x, y, z'
loop_
 _atom_site_type_symbol
 _atom_site_label
 _atom_site_symmetry_multiplicity
 _atom_site_fract_x
 _atom_site_fract_y
 _atom_site_fract_z
 _atom_site_occupancy
  P  P0  1  0.82718619  0.31284058  0.50000000  1
  P  P1  1  0.68715942  0.51434561  0.50000000  1
  P  P2  1  0.48565439  0.17281381  0.50000000  1
  P  P3  1  0.17281381  0.48565439  0.50000000  1
  P  P4  1  0.51434561  0.68715942  0.50000000  1
  P  P5  1  0.63992339  0.00000000  0.00000000  1
  P  P6  1  0.00000000  0.63992339  0.00000000  1
  P  P7  1  0.00000000  0.17584863  0.00000000  1
  P  P8  1  0.82415137  0.82415137  0.00000000  1
  P  P9  1  0.17584863  0.00000000  0.00000000  1
  P  P10  1  0.31284058  0.82718619  0.50000000  1
  P  P11  1  0.36007661  0.36007661  0.00000000  1
  Cu  Cu12  1  0.82647258  0.20634295  0.00000000  1
  Cu  Cu13  1  0.62012963  0.79365705  0.00000000  1
  Cu  Cu14  1  0.17352742  0.37987037  0.00000000  1
  Cu  Cu15  1  0.20634295  0.82647258  0.00000000  1
  Cu  Cu16  1  0.36065289  0.47829889  0.50000000  1
  Cu  Cu17  1  0.11764600  0.63934711  0.50000000  1
  Cu  Cu18  1  0.63934711  0.11764600  0.50000000  1
  Cu  Cu19  1  0.47829889  0.36065289  0.50000000  1
  Cu  Cu20  1  0.88235400  0.52170111  0.50000000  1
  Cu  Cu21  1  0.45551213  0.00000000  0.00000000  1
  Cu  Cu22  1  0.54448787  0.54448787  0.00000000  1
  Cu  Cu23  1  0.00000000  0.45551213  0.00000000  1
  Cu  Cu24  1  0.37987037  0.17352742  0.00000000  1
  Cu  Cu25  1  0.00000000  0.29013352  0.50000000  1
  Cu  Cu26  1  0.70986648  0.70986648  0.50000000  1
  Cu  Cu27  1  0.29013352  0.00000000  0.50000000  1
  Cu  Cu28  1  0.00000000  0.00000000  0.00000000  1
  Cu  Cu29  1  0.52170111  0.88235400  0.50000000  1
  Cu  Cu30  1  0.79365705  0.62012963  0.00000000  1
  Ce  Ce31  1  0.00000000  0.81375083  0.50000000  1
  Ce  Ce32  1  0.18624917  0.18624917  0.50000000  1
  Ce  Ce33  1  0.81375083  0.00000000  0.50000000  1
  Ce  Ce34  1  0.66666667  0.33333333  0.00000000  1
  Ce  Ce35  1  0.33333333  0.66666667  0.00000000  1
