# generated using pymatgen
data_Cr2FeSeS3
_symmetry_space_group_name_H-M   'P 1'
_cell_length_a   7.16640443
_cell_length_b   7.19223390
_cell_length_c   7.17261530
_cell_angle_alpha   90.00000000
_cell_angle_beta   59.97132680
_cell_angle_gamma   120.11929921
_symmetry_Int_Tables_number   1
_chemical_formula_structural   Cr2FeSeS3
_chemical_formula_sum   'Cr4 Fe2 Se2 S6'
_cell_volume   260.82735405
_cell_formula_units_Z   2
loop_
 _symmetry_equiv_pos_site_id
 _symmetry_equiv_pos_as_xyz
  1  'x, y, z'
loop_
 _atom_site_type_symbol
 _atom_site_label
 _atom_site_symmetry_multiplicity
 _atom_site_fract_x
 _atom_site_fract_y
 _atom_site_fract_z
 _atom_site_occupancy
  Cr  Cr0  1  0.51017004  0.50608098  0.99491498  1
  Cr  Cr1  1  0.51017004  0.00408905  0.99491498  1
  Cr  Cr2  1  0.00094103  0.00047051  0.50817010  1
  Cr  Cr3  1  0.00094103  0.00047051  0.99088887  1
  Fe  Fe4  1  0.71747163  0.35873582  0.39126418  1
  Fe  Fe5  1  0.25790961  0.62895480  0.62104520  1
  Se  Se6  1  0.01197103  0.76776754  0.24401448  1
  Se  Se7  1  0.01197103  0.24420350  0.24401448  1
  S  S8  1  0.47869182  0.23934591  0.78216422  1
  S  S9  1  0.47869182  0.23934591  0.23914396  1
  S  S10  1  0.98781309  0.22985692  0.75609346  1
  S  S11  1  0.98781309  0.75795617  0.75609346  1
  S  S12  1  0.52272237  0.76136119  0.21853165  1
  S  S13  1  0.52272237  0.76136119  0.75874597  1
