# generated using pymatgen
data_CsIn5S8
_symmetry_space_group_name_H-M   'P 1'
_cell_length_a   3.93348019
_cell_length_b   9.46527750
_cell_length_c   9.87440618
_cell_angle_alpha   101.62406127
_cell_angle_beta   101.48875049
_cell_angle_gamma   90.00000002
_symmetry_Int_Tables_number   1
_chemical_formula_structural   CsIn5S8
_chemical_formula_sum   'Cs1 In5 S8'
_cell_volume   352.57520021
_cell_formula_units_Z   1
loop_
 _symmetry_equiv_pos_site_id
 _symmetry_equiv_pos_as_xyz
  1  'x, y, z'
loop_
 _atom_site_type_symbol
 _atom_site_label
 _atom_site_symmetry_multiplicity
 _atom_site_fract_x
 _atom_site_fract_y
 _atom_site_fract_z
 _atom_site_occupancy
  S  S0  1  0.83285339  0.51765247  0.66570677  1
  S  S1  1  0.92175370  0.19622087  0.84350740  1
  S  S2  1  0.07824630  0.80377913  0.15649260  1
  S  S3  1  0.58213933  0.13527845  0.16427865  1
  S  S4  1  0.41786067  0.86472155  0.83572135  1
  S  S5  1  0.76459867  0.84764617  0.52919733  1
  S  S6  1  0.23540133  0.15235383  0.47080267  1
  S  S7  1  0.16714661  0.48234753  0.33429323  1
  In  In8  1  0.00000000  0.00000000  0.00000000  1
  In  In9  1  0.34975299  0.06915228  0.69950598  1
  In  In10  1  0.65024701  0.93084772  0.30049402  1
  In  In11  1  0.28970566  0.66008911  0.57941132  1
  In  In12  1  0.71029434  0.33991089  0.42058868  1
  Cs  Cs13  1  0.50000000  0.50000000  0.00000000  1
