# generated using pymatgen
data_Li8PbO6
_symmetry_space_group_name_H-M   'P 1'
_cell_length_a   6.20022176
_cell_length_b   6.20022177
_cell_length_c   6.20022176
_cell_angle_alpha   53.77239152
_cell_angle_beta   53.77239153
_cell_angle_gamma   53.77239155
_symmetry_Int_Tables_number   1
_chemical_formula_structural   Li8PbO6
_chemical_formula_sum   'Li8 Pb1 O6'
_cell_volume   144.00485967
_cell_formula_units_Z   1
loop_
 _symmetry_equiv_pos_site_id
 _symmetry_equiv_pos_as_xyz
  1  'x, y, z'
loop_
 _atom_site_type_symbol
 _atom_site_label
 _atom_site_symmetry_multiplicity
 _atom_site_fract_x
 _atom_site_fract_y
 _atom_site_fract_z
 _atom_site_occupancy
  Li  Li0  1  0.34569437  0.34569437  0.34569437  1
  Li  Li1  1  0.49008455  0.10286847  0.77029763  1
  Li  Li2  1  0.77029763  0.49008455  0.10286847  1
  Li  Li3  1  0.10286847  0.77029763  0.49008455  1
  Li  Li4  1  0.50991545  0.89713153  0.22970237  1
  Li  Li5  1  0.22970237  0.50991545  0.89713153  1
  Li  Li6  1  0.65430563  0.65430563  0.65430563  1
  Li  Li7  1  0.89713153  0.22970237  0.50991545  1
  O  O8  1  0.24064907  0.90356498  0.60432805  1
  O  O9  1  0.09643502  0.39567195  0.75935093  1
  O  O10  1  0.75935093  0.09643502  0.39567195  1
  O  O11  1  0.60432805  0.24064907  0.90356498  1
  O  O12  1  0.90356498  0.60432805  0.24064907  1
  O  O13  1  0.39567195  0.75935093  0.09643502  1
  Pb  Pb14  1  0.00000000  0.00000000  0.00000000  1
