# generated using pymatgen
data_TlRe3(Se2Cl)2
_symmetry_space_group_name_H-M   'P 1'
_cell_length_a   6.68562939
_cell_length_b   9.11220421
_cell_length_c   9.16449934
_cell_angle_alpha   85.22973937
_cell_angle_beta   82.56066355
_cell_angle_gamma   69.43763752
_symmetry_Int_Tables_number   1
_chemical_formula_structural   TlRe3(Se2Cl)2
_chemical_formula_sum   'Tl2 Re6 Se8 Cl4'
_cell_volume   517.91187183
_cell_formula_units_Z   2
loop_
 _symmetry_equiv_pos_site_id
 _symmetry_equiv_pos_as_xyz
  1  'x, y, z'
loop_
 _atom_site_type_symbol
 _atom_site_label
 _atom_site_symmetry_multiplicity
 _atom_site_fract_x
 _atom_site_fract_y
 _atom_site_fract_z
 _atom_site_occupancy
  Cl  Cl0  1  0.09737455  0.41062551  0.23904904  1
  Cl  Cl1  1  0.70483642  0.76102046  0.41296687  1
  Cl  Cl2  1  0.90262545  0.58937449  0.76095096  1
  Cl  Cl3  1  0.29516358  0.23897954  0.58703313  1
  Se  Se4  1  0.97456721  0.78991340  0.05504435  1
  Se  Se5  1  0.53572032  0.65712536  0.09436901  1
  Se  Se6  1  0.36025753  0.85178163  0.75437376  1
  Se  Se7  1  0.46427968  0.34287464  0.90563099  1
  Se  Se8  1  0.20207574  0.99518964  0.29138433  1
  Se  Se9  1  0.79792426  0.00481036  0.70861567  1
  Se  Se10  1  0.63974247  0.14821837  0.24562624  1
  Se  Se11  1  0.02543279  0.21008660  0.94495565  1
  Re  Re12  1  0.27282500  0.92390883  0.02207252  1
  Re  Re13  1  0.32557097  0.17837610  0.10432552  1
  Re  Re14  1  0.67442903  0.82162390  0.89567448  1
  Re  Re15  1  0.40847863  0.10236237  0.82083730  1
  Re  Re16  1  0.59152137  0.89763763  0.17916270  1
  Re  Re17  1  0.72717500  0.07609117  0.97792748  1
  Tl  Tl18  1  0.17880403  0.64039897  0.46921348  1
  Tl  Tl19  1  0.82119597  0.35960103  0.53078652  1
