# generated using pymatgen
data_Sr6Li23
_symmetry_space_group_name_H-M   'P 1'
_cell_length_a   10.44513444
_cell_length_b   10.44513444
_cell_length_c   10.44513444
_cell_angle_alpha   60.00000001
_cell_angle_beta   60.00000000
_cell_angle_gamma   60.00000001
_symmetry_Int_Tables_number   1
_chemical_formula_structural   Sr6Li23
_chemical_formula_sum   'Sr6 Li23'
_cell_volume   805.79970637
_cell_formula_units_Z   1
loop_
 _symmetry_equiv_pos_site_id
 _symmetry_equiv_pos_as_xyz
  1  'x, y, z'
loop_
 _atom_site_type_symbol
 _atom_site_label
 _atom_site_symmetry_multiplicity
 _atom_site_fract_x
 _atom_site_fract_y
 _atom_site_fract_z
 _atom_site_occupancy
  Li  Li0  1  0.50000000  0.50000000  0.50000000  1
  Li  Li1  1  0.50000000  0.00000000  0.00000000  1
  Li  Li2  1  0.00000000  0.00000000  0.50000000  1
  Li  Li3  1  0.50000000  0.50000000  0.00000000  1
  Li  Li4  1  0.00000000  0.50000000  0.50000000  1
  Li  Li5  1  0.00000000  0.50000000  0.00000000  1
  Li  Li6  1  0.50000000  0.00000000  0.50000000  1
  Li  Li7  1  0.37826804  0.37826804  0.37826804  1
  Li  Li8  1  0.62173196  0.62173196  0.13480412  1
  Li  Li9  1  0.13480412  0.62173196  0.62173196  1
  Li  Li10  1  0.62173196  0.13480412  0.62173196  1
  Li  Li11  1  0.86519588  0.37826804  0.37826804  1
  Li  Li12  1  0.37826804  0.86519588  0.37826804  1
  Li  Li13  1  0.37826804  0.37826804  0.86519588  1
  Li  Li14  1  0.62173196  0.62173196  0.62173196  1
  Li  Li15  1  0.17762095  0.17762095  0.17762095  1
  Li  Li16  1  0.82237905  0.82237905  0.53286284  1
  Li  Li17  1  0.53286284  0.82237905  0.82237905  1
  Li  Li18  1  0.82237905  0.53286284  0.82237905  1
  Li  Li19  1  0.46713716  0.17762095  0.17762095  1
  Li  Li20  1  0.17762095  0.46713716  0.17762095  1
  Li  Li21  1  0.17762095  0.17762095  0.46713716  1
  Li  Li22  1  0.82237905  0.82237905  0.82237905  1
  Sr  Sr23  1  0.79391201  0.20608799  0.20608799  1
  Sr  Sr24  1  0.79391201  0.79391201  0.20608799  1
  Sr  Sr25  1  0.20608799  0.20608799  0.79391201  1
  Sr  Sr26  1  0.79391201  0.20608799  0.79391201  1
  Sr  Sr27  1  0.20608799  0.79391201  0.20608799  1
  Sr  Sr28  1  0.20608799  0.79391201  0.79391201  1
