# generated using pymatgen
data_BaBiO3
_symmetry_space_group_name_H-M   'P 1'
_cell_length_a   6.23868337
_cell_length_b   6.23479424
_cell_length_c   6.25557828
_cell_angle_alpha   60.45003097
_cell_angle_beta   60.08930072
_cell_angle_gamma   59.97936343
_symmetry_Int_Tables_number   1
_chemical_formula_structural   BaBiO3
_chemical_formula_sum   'Ba2 Bi2 O6'
_cell_volume   172.72245718
_cell_formula_units_Z   2
loop_
 _symmetry_equiv_pos_site_id
 _symmetry_equiv_pos_as_xyz
  1  'x, y, z'
loop_
 _atom_site_type_symbol
 _atom_site_label
 _atom_site_symmetry_multiplicity
 _atom_site_fract_x
 _atom_site_fract_y
 _atom_site_fract_z
 _atom_site_occupancy
  O  O0  1  0.78529203  0.21742351  0.69956224  1
  O  O1  1  0.70227778  0.78257649  0.30043776  1
  O  O2  1  0.21470797  0.78257649  0.30043776  1
  O  O3  1  0.29772222  0.21742351  0.69956224  1
  O  O4  1  0.74160809  0.33280321  0.18398061  1
  O  O5  1  0.25839191  0.66719679  0.81601939  1
  Ba  Ba6  1  0.75037091  0.75744382  0.74181437  1
  Ba  Ba7  1  0.24962909  0.24255618  0.25818563  1
  Bi  Bi8  1  0.00000000  0.00000000  0.00000000  1
  Bi  Bi9  1  0.50000000  0.50000000  0.50000000  1
