# generated using pymatgen
data_Ce2MgCu2
_symmetry_space_group_name_H-M   'P 1'
_cell_length_a   3.75176146
_cell_length_b   7.72835223
_cell_length_c   7.72835223
_cell_angle_alpha   90.00000000
_cell_angle_beta   90.00000000
_cell_angle_gamma   90.00000000
_symmetry_Int_Tables_number   1
_chemical_formula_structural   Ce2MgCu2
_chemical_formula_sum   'Ce4 Mg2 Cu4'
_cell_volume   224.08306319
_cell_formula_units_Z   2
loop_
 _symmetry_equiv_pos_site_id
 _symmetry_equiv_pos_as_xyz
  1  'x, y, z'
loop_
 _atom_site_type_symbol
 _atom_site_label
 _atom_site_symmetry_multiplicity
 _atom_site_fract_x
 _atom_site_fract_y
 _atom_site_fract_z
 _atom_site_occupancy
  Mg  Mg0  1  0.00000000  0.50000000  0.50000000  1
  Mg  Mg1  1  0.00000000  0.00000000  0.00000000  1
  Cu  Cu2  1  0.00000000  0.62134664  0.12134664  1
  Cu  Cu3  1  0.00000000  0.87865336  0.62134664  1
  Cu  Cu4  1  0.00000000  0.37865336  0.87865336  1
  Cu  Cu5  1  0.00000000  0.12134664  0.37865336  1
  Ce  Ce6  1  0.50000000  0.82623683  0.32623683  1
  Ce  Ce7  1  0.50000000  0.67376317  0.82623683  1
  Ce  Ce8  1  0.50000000  0.32623683  0.17376317  1
  Ce  Ce9  1  0.50000000  0.17376317  0.67376317  1
