# generated using pymatgen
data_PH6NO4
_symmetry_space_group_name_H-M   'P 1'
_cell_length_a   7.16843934
_cell_length_b   8.56831867
_cell_length_c   7.94445985
_cell_angle_alpha   90.00000000
_cell_angle_beta   90.00000000
_cell_angle_gamma   90.00000000
_symmetry_Int_Tables_number   1
_chemical_formula_structural   PH6NO4
_chemical_formula_sum   'P4 H24 N4 O16'
_cell_volume   487.96042325
_cell_formula_units_Z   4
loop_
 _symmetry_equiv_pos_site_id
 _symmetry_equiv_pos_as_xyz
  1  'x, y, z'
loop_
 _atom_site_type_symbol
 _atom_site_label
 _atom_site_symmetry_multiplicity
 _atom_site_fract_x
 _atom_site_fract_y
 _atom_site_fract_z
 _atom_site_occupancy
  P  P0  1  0.59731116  0.05584915  0.53295891  1
  P  P1  1  0.09731116  0.44415185  0.46704109  1
  P  P2  1  0.40268884  0.55584915  0.96704109  1
  P  P3  1  0.90268884  0.94415085  0.03295891  1
  H  H4  1  0.68945086  0.90375047  0.31106679  1
  H  H5  1  0.18945086  0.59624953  0.68893321  1
  H  H6  1  0.31054914  0.40375047  0.18893321  1
  H  H7  1  0.81054914  0.09624953  0.81106679  1
  H  H8  1  0.43089078  0.24215743  0.40173368  1
  H  H9  1  0.93089078  0.25784257  0.59826632  1
  H  H10  1  0.56910922  0.74215743  0.09826632  1
  H  H11  1  0.06910922  0.75784257  0.90173368  1
  H  H12  1  0.09507680  0.81339746  0.51741540  1
  H  H13  1  0.59507680  0.68660254  0.48258460  1
  H  H14  1  0.90492320  0.31339746  0.98258460  1
  H  H15  1  0.40492320  0.18660254  0.01741540  1
  H  H16  1  0.22158898  0.97618904  0.55103195  1
  H  H17  1  0.51669780  0.01564498  0.05524618  1
  H  H18  1  0.77841102  0.47618904  0.94896805  1
  H  H19  1  0.27841102  0.02381096  0.05103195  1
  H  H20  1  0.09047486  0.95452292  0.36802211  1
  H  H21  1  0.59047486  0.54547708  0.63197789  1
  H  H22  1  0.90952514  0.45452292  0.13197789  1
  H  H23  1  0.40952514  0.04547708  0.86802211  1
  H  H24  1  0.98330220  0.98435502  0.55524618  1
  H  H25  1  0.48330220  0.51564498  0.44475382  1
  H  H26  1  0.01669780  0.48435502  0.94475382  1
  H  H27  1  0.72158898  0.52381096  0.44896805  1
  N  N28  1  0.40230722  0.06710815  0.99793805  1
  N  N29  1  0.59769278  0.56710815  0.50206195  1
  N  N30  1  0.09769278  0.93289185  0.49793805  1
  N  N31  1  0.90230722  0.43289185  0.00206195  1
  O  O32  1  0.04177281  0.32850354  0.61523335  1
  O  O33  1  0.27414602  0.38348193  0.37844369  1
  O  O34  1  0.22585398  0.61651807  0.87844369  1
  O  O35  1  0.72585398  0.88348193  0.12155631  1
  O  O36  1  0.54177281  0.17149646  0.38476665  1
  O  O37  1  0.77414602  0.11651807  0.62155631  1
  O  O38  1  0.45822719  0.67149646  0.11523335  1
  O  O39  1  0.95822719  0.82850354  0.88476665  1
  O  O40  1  0.84717081  0.10087503  0.93646413  1
  O  O41  1  0.93508259  0.47732525  0.35044447  1
  O  O42  1  0.43508259  0.02267475  0.64955553  1
  O  O43  1  0.06491741  0.97732525  0.14955553  1
  O  O44  1  0.34717081  0.39912497  0.06353587  1
  O  O45  1  0.15282919  0.60087503  0.56353587  1
  O  O46  1  0.65282919  0.89912497  0.43646413  1
  O  O47  1  0.56491741  0.52267475  0.85044447  1
