# generated using pymatgen
data_Mg3Si2H4O9
_symmetry_space_group_name_H-M   'P 1'
_cell_length_a   5.37138766
_cell_length_b   5.37138766
_cell_length_c   7.37757473
_cell_angle_alpha   90.00000000
_cell_angle_beta   90.00000000
_cell_angle_gamma   119.99999998
_symmetry_Int_Tables_number   1
_chemical_formula_structural   Mg3Si2H4O9
_chemical_formula_sum   'Mg3 Si2 H4 O9'
_cell_volume   184.33900691
_cell_formula_units_Z   1
loop_
 _symmetry_equiv_pos_site_id
 _symmetry_equiv_pos_as_xyz
  1  'x, y, z'
loop_
 _atom_site_type_symbol
 _atom_site_label
 _atom_site_symmetry_multiplicity
 _atom_site_fract_x
 _atom_site_fract_y
 _atom_site_fract_z
 _atom_site_occupancy
  H  H0  1  0.00000000  0.00000000  0.17696318  1
  H  H1  1  0.34948143  0.34948143  0.72280196  1
  H  H2  1  0.00000000  0.65051857  0.72280196  1
  H  H3  1  0.65051857  0.00000000  0.72280196  1
  O  O4  1  0.00000000  0.00000000  0.30806281  1
  O  O5  1  0.33333333  0.66666667  0.29537269  1
  O  O6  1  0.66666667  0.33333333  0.29537269  1
  O  O7  1  0.51140869  0.00000000  0.99411465  1
  O  O8  1  0.00000000  0.51140869  0.99411465  1
  O  O9  1  0.48859131  0.48859131  0.99411465  1
  O  O10  1  0.66464692  0.00000000  0.59148815  1
  O  O11  1  0.00000000  0.66464692  0.59148815  1
  O  O12  1  0.33535308  0.33535308  0.59148815  1
  Mg  Mg13  1  0.33141941  0.00000000  0.45884200  1
  Mg  Mg14  1  0.00000000  0.33141941  0.45884200  1
  Mg  Mg15  1  0.66858059  0.66858059  0.45884200  1
  Si  Si16  1  0.33333333  0.66666667  0.07719415  1
  Si  Si17  1  0.66666667  0.33333333  0.07719415  1
