# generated using pymatgen
data_Cu5H8(ClO5)2
_symmetry_space_group_name_H-M   'P 1'
_cell_length_a   5.93055759
_cell_length_b   5.95879760
_cell_length_c   9.07187535
_cell_angle_alpha   70.11462445
_cell_angle_beta   69.56601010
_cell_angle_gamma   67.97815845
_symmetry_Int_Tables_number   1
_chemical_formula_structural   Cu5H8(ClO5)2
_chemical_formula_sum   'Cu5 H8 Cl2 O10'
_cell_volume   270.30101223
_cell_formula_units_Z   1
loop_
 _symmetry_equiv_pos_site_id
 _symmetry_equiv_pos_as_xyz
  1  'x, y, z'
loop_
 _atom_site_type_symbol
 _atom_site_label
 _atom_site_symmetry_multiplicity
 _atom_site_fract_x
 _atom_site_fract_y
 _atom_site_fract_z
 _atom_site_occupancy
  Cu  Cu0  1  0.03041673  0.02900768  0.33401061  1
  Cu  Cu1  1  0.96958327  0.97099232  0.66598939  1
  Cu  Cu2  1  0.00000000  0.00000000  0.00000000  1
  Cu  Cu3  1  0.00000000  0.50000000  0.00000000  1
  Cu  Cu4  1  0.50000000  0.00000000  0.00000000  1
  H  H5  1  0.66748552  0.29012556  0.20501584  1
  H  H6  1  0.29861855  0.67035834  0.19943371  1
  H  H7  1  0.33251448  0.70987444  0.79498416  1
  H  H8  1  0.70138145  0.32964166  0.80056629  1
  H  H9  1  0.28745717  0.29622141  0.69857044  1
  H  H10  1  0.71254283  0.70377859  0.30142956  1
  H  H11  1  0.75650522  0.48374771  0.45403978  1
  H  H12  1  0.24349478  0.51625229  0.54596022  1
  Cl  Cl13  1  0.32655507  0.33728629  0.19989397  1
  Cl  Cl14  1  0.67344493  0.66271371  0.80010603  1
  O  O15  1  0.85687808  0.24092928  0.16842391  1
  O  O16  1  0.24862011  0.85860093  0.16628319  1
  O  O17  1  0.14312192  0.75907072  0.83157609  1
  O  O18  1  0.75137989  0.14139907  0.83371681  1
  O  O19  1  0.81501854  0.15936541  0.50392067  1
  O  O20  1  0.18498146  0.84063459  0.49607933  1
  O  O21  1  0.21768900  0.21305756  0.91387220  1
  O  O22  1  0.78231100  0.78694244  0.08612780  1
  O  O23  1  0.28162291  0.33148429  0.58494799  1
  O  O24  1  0.71837709  0.66851571  0.41505201  1
