# generated using pymatgen
data_K2ZnH12(SO7)2
_symmetry_space_group_name_H-M   'P 1'
_cell_length_a   6.25947087
_cell_length_b   9.05810429
_cell_length_c   12.30793787
_cell_angle_alpha   90.00000000
_cell_angle_beta   90.00000000
_cell_angle_gamma   103.98821261
_symmetry_Int_Tables_number   1
_chemical_formula_structural   K2ZnH12(SO7)2
_chemical_formula_sum   'K4 Zn2 H24 S4 O28'
_cell_volume   677.15270833
_cell_formula_units_Z   2
loop_
 _symmetry_equiv_pos_site_id
 _symmetry_equiv_pos_as_xyz
  1  'x, y, z'
loop_
 _atom_site_type_symbol
 _atom_site_label
 _atom_site_symmetry_multiplicity
 _atom_site_fract_x
 _atom_site_fract_y
 _atom_site_fract_z
 _atom_site_occupancy
  H  H0  1  0.32416087  0.52352481  0.64617048  1
  H  H1  1  0.67583913  0.97647519  0.14617048  1
  H  H2  1  0.67583913  0.47647519  0.35382952  1
  H  H3  1  0.32416087  0.02352481  0.85382952  1
  H  H4  1  0.33068459  0.38955378  0.56230158  1
  H  H5  1  0.66931541  0.11044622  0.06230158  1
  H  H6  1  0.92623525  0.22888790  0.39501075  1
  H  H7  1  0.07376475  0.27111210  0.89501075  1
  H  H8  1  0.07376475  0.77111210  0.60498925  1
  H  H9  1  0.92623525  0.72888790  0.10498925  1
  H  H10  1  0.09608386  0.75776517  0.38020795  1
  H  H11  1  0.90391614  0.74223483  0.88020795  1
  H  H12  1  0.90391614  0.24223483  0.61979205  1
  H  H13  1  0.09608386  0.25776517  0.11979205  1
  H  H14  1  0.32568372  0.72495102  0.41718793  1
  H  H15  1  0.67431628  0.77504898  0.91718793  1
  H  H16  1  0.67431628  0.27504898  0.58281207  1
  H  H17  1  0.32568372  0.22495102  0.08281207  1
  H  H18  1  0.00195662  0.14302561  0.80532164  1
  H  H19  1  0.99804338  0.35697439  0.30532164  1
  H  H20  1  0.33068459  0.88955378  0.93769842  1
  H  H21  1  0.66931541  0.61044622  0.43769842  1
  H  H22  1  0.00195662  0.64302561  0.69467836  1
  H  H23  1  0.99804338  0.85697439  0.19467836  1
  O  O24  1  0.82481162  0.32376834  0.60917320  1
  O  O25  1  0.82481162  0.82376834  0.89082680  1
  O  O26  1  0.03429538  0.82777821  0.12015335  1
  O  O27  1  0.96570462  0.67222179  0.62015335  1
  O  O28  1  0.96570462  0.17222179  0.87984665  1
  O  O29  1  0.03429538  0.32777821  0.37984665  1
  O  O30  1  0.29397637  0.99014873  0.93083754  1
  O  O31  1  0.17518838  0.17623166  0.10917320  1
  O  O32  1  0.70602363  0.00985127  0.06916246  1
  O  O33  1  0.29397637  0.49014873  0.56916246  1
  O  O34  1  0.95056157  0.89457743  0.33111554  1
  O  O35  1  0.04943843  0.60542257  0.83111554  1
  O  O36  1  0.04943843  0.10542257  0.66888446  1
  O  O37  1  0.95056157  0.39457743  0.16888446  1
  O  O38  1  0.62128359  0.78767726  0.44079514  1
  O  O39  1  0.37871641  0.71232274  0.94079514  1
  O  O40  1  0.37871641  0.21232274  0.55920486  1
  O  O41  1  0.62128359  0.28767726  0.05920486  1
  O  O42  1  0.74916620  0.06137608  0.42104605  1
  O  O43  1  0.25083380  0.43862392  0.92104605  1
  O  O44  1  0.25083380  0.93862392  0.57895395  1
  O  O45  1  0.74916620  0.56137608  0.07895395  1
  O  O46  1  0.70602363  0.50985127  0.43083754  1
  O  O47  1  0.41574227  0.59445638  0.76680457  1
  O  O48  1  0.41574227  0.09445638  0.73319543  1
  O  O49  1  0.58425773  0.40554362  0.23319543  1
  O  O50  1  0.17518838  0.67623166  0.39082680  1
  O  O51  1  0.58425773  0.90554362  0.26680457  1
  S  S52  1  0.27190731  0.58654212  0.86490712  1
  S  S53  1  0.72809269  0.41345788  0.13509288  1
  S  S54  1  0.27190731  0.08654212  0.63509288  1
  S  S55  1  0.72809269  0.91345788  0.36490712  1
  K  K56  1  0.34599324  0.63725164  0.16058619  1
  K  K57  1  0.65400676  0.86274836  0.66058619  1
  K  K58  1  0.65400676  0.36274836  0.83941381  1
  K  K59  1  0.34599324  0.13725164  0.33941381  1
  Zn  Zn60  1  0.00000000  0.50000000  0.50000000  1
  Zn  Zn61  1  0.00000000  0.00000000  0.00000000  1
