# generated using pymatgen
data_Hg6S4Br3Cl
_symmetry_space_group_name_H-M   'P 1'
_cell_length_a   9.46425575
_cell_length_b   10.46918728
_cell_length_c   10.59423802
_cell_angle_alpha   113.79691309
_cell_angle_beta   90.00000000
_cell_angle_gamma   116.87241331
_symmetry_Int_Tables_number   1
_chemical_formula_structural   Hg6S4Br3Cl
_chemical_formula_sum   'Hg12 S8 Br6 Cl2'
_cell_volume   835.08485193
_cell_formula_units_Z   2
loop_
 _symmetry_equiv_pos_site_id
 _symmetry_equiv_pos_as_xyz
  1  'x, y, z'
loop_
 _atom_site_type_symbol
 _atom_site_label
 _atom_site_symmetry_multiplicity
 _atom_site_fract_x
 _atom_site_fract_y
 _atom_site_fract_z
 _atom_site_occupancy
  S  S0  1  0.17622963  0.86732985  0.75316883  1
  S  S1  1  0.69110022  0.86732985  0.75316883  1
  S  S2  1  0.82377037  0.13267015  0.24683117  1
  S  S3  1  0.95235017  0.39265099  0.76243880  1
  S  S4  1  0.55969918  0.60734901  0.23756120  1
  S  S5  1  0.04764983  0.60734901  0.23756120  1
  S  S6  1  0.44030082  0.39265099  0.76243880  1
  S  S7  1  0.30889978  0.13267015  0.24683117  1
  Cl  Cl8  1  0.12534512  0.25069023  0.98667771  1
  Cl  Cl9  1  0.87465488  0.74930977  0.01332229  1
  Br  Br10  1  0.25122913  0.50245826  0.49796279  1
  Br  Br11  1  0.74877087  0.49754174  0.50203721  1
  Br  Br12  1  0.50000000  0.00000000  0.50000000  1
  Br  Br13  1  0.61916444  0.23832888  0.98963431  1
  Br  Br14  1  0.38083556  0.76167112  0.01036569  1
  Br  Br15  1  0.00000000  0.00000000  0.50000000  1
  Hg  Hg16  1  0.15749072  0.85191442  0.20521326  1
  Hg  Hg17  1  0.30557630  0.14808558  0.79478674  1
  Hg  Hg18  1  0.84250928  0.14808558  0.79478674  1
  Hg  Hg19  1  0.69442370  0.85191442  0.20521326  1
  Hg  Hg20  1  0.42570289  0.85140577  0.77472259  1
  Hg  Hg21  1  0.57429711  0.14859423  0.22527741  1
  Hg  Hg22  1  0.28262293  0.56524586  0.21188490  1
  Hg  Hg23  1  0.71737707  0.43475414  0.78811510  1
  Hg  Hg24  1  0.36767733  0.26179999  0.50457303  1
  Hg  Hg25  1  0.10587734  0.73820001  0.49542697  1
  Hg  Hg26  1  0.63232267  0.73820001  0.49542697  1
  Hg  Hg27  1  0.89412266  0.26179999  0.50457303  1
