# generated using pymatgen
data_LiB(HO)4
_symmetry_space_group_name_H-M   'P 1'
_cell_length_a   7.84440855
_cell_length_b   8.63483055
_cell_length_c   9.26610453
_cell_angle_alpha   90.00000000
_cell_angle_beta   90.00000000
_cell_angle_gamma   90.00000000
_symmetry_Int_Tables_number   1
_chemical_formula_structural   LiB(HO)4
_chemical_formula_sum   'Li8 B8 H32 O32'
_cell_volume   627.64087457
_cell_formula_units_Z   8
loop_
 _symmetry_equiv_pos_site_id
 _symmetry_equiv_pos_as_xyz
  1  'x, y, z'
loop_
 _atom_site_type_symbol
 _atom_site_label
 _atom_site_symmetry_multiplicity
 _atom_site_fract_x
 _atom_site_fract_y
 _atom_site_fract_z
 _atom_site_occupancy
  H  H0  1  0.92305594  0.21299860  0.42734838  1
  H  H1  1  0.42305594  0.28700140  0.57265162  1
  H  H2  1  0.07694406  0.71299860  0.07265162  1
  H  H3  1  0.57694406  0.78700140  0.92734838  1
  H  H4  1  0.07694406  0.78700140  0.57265162  1
  H  H5  1  0.57694406  0.71299860  0.42734838  1
  H  H6  1  0.92305594  0.28700140  0.92734838  1
  H  H7  1  0.42305594  0.21299860  0.07265162  1
  H  H8  1  0.98365858  0.11538272  0.24453602  1
  H  H9  1  0.48365858  0.38461728  0.75546398  1
  H  H10  1  0.01634142  0.61538272  0.25546398  1
  H  H11  1  0.51634142  0.88461728  0.74453602  1
  H  H12  1  0.01634142  0.88461728  0.75546398  1
  H  H13  1  0.51634142  0.61538272  0.24453602  1
  H  H14  1  0.98365858  0.38461728  0.74453602  1
  H  H15  1  0.48365858  0.11538272  0.25546398  1
  H  H16  1  0.10488059  0.46962222  0.41357238  1
  H  H17  1  0.60488059  0.03037778  0.58642762  1
  H  H18  1  0.89511941  0.96962222  0.08642762  1
  H  H19  1  0.39511941  0.53037778  0.91357238  1
  H  H20  1  0.89511941  0.53037778  0.58642762  1
  H  H21  1  0.39511941  0.96962222  0.41357238  1
  H  H22  1  0.10488059  0.03037778  0.91357238  1
  H  H23  1  0.60488059  0.46962222  0.08642762  1
  H  H24  1  0.64257442  0.38842880  0.46822898  1
  H  H25  1  0.14257442  0.11157120  0.53177102  1
  H  H26  1  0.35742558  0.88842880  0.03177102  1
  H  H27  1  0.85742558  0.61157120  0.96822898  1
  H  H28  1  0.35742558  0.61157120  0.53177102  1
  H  H29  1  0.85742558  0.88842880  0.46822898  1
  H  H30  1  0.64257442  0.11157120  0.96822898  1
  H  H31  1  0.14257442  0.38842880  0.03177102  1
  Li  Li32  1  0.37216467  0.37428172  0.30125426  1
  Li  Li33  1  0.87216467  0.12571828  0.69874574  1
  Li  Li34  1  0.62783533  0.87428172  0.19874574  1
  Li  Li35  1  0.12783533  0.62571828  0.80125426  1
  Li  Li36  1  0.62783533  0.62571828  0.69874574  1
  Li  Li37  1  0.12783533  0.87428172  0.30125426  1
  Li  Li38  1  0.37216467  0.12571828  0.80125426  1
  Li  Li39  1  0.87216467  0.37428172  0.19874574  1
  B  B40  1  0.67171764  0.15966261  0.40879054  1
  B  B41  1  0.17171764  0.34033739  0.59120946  1
  B  B42  1  0.32828236  0.65966261  0.09120946  1
  B  B43  1  0.82828236  0.84033739  0.90879054  1
  B  B44  1  0.32828236  0.84033739  0.59120946  1
  B  B45  1  0.82828236  0.65966261  0.40879054  1
  B  B46  1  0.67171764  0.34033739  0.90879054  1
  B  B47  1  0.17171764  0.15966261  0.09120946  1
  O  O48  1  0.83913151  0.20586764  0.34617096  1
  O  O49  1  0.33913151  0.29413236  0.65382904  1
  O  O50  1  0.16086849  0.70586764  0.15382904  1
  O  O51  1  0.66086849  0.79413236  0.84617096  1
  O  O52  1  0.16086849  0.79413236  0.65382904  1
  O  O53  1  0.66086849  0.70586764  0.34617096  1
  O  O54  1  0.83913151  0.29413236  0.84617096  1
  O  O55  1  0.33913151  0.20586764  0.15382904  1
  O  O56  1  0.57005436  0.05834400  0.31413241  1
  O  O57  1  0.07005436  0.44165600  0.68586759  1
  O  O58  1  0.42994564  0.55834400  0.18586759  1
  O  O59  1  0.92994564  0.94165600  0.81413241  1
  O  O60  1  0.42994564  0.94165600  0.68586759  1
  O  O61  1  0.92994564  0.55834400  0.31413241  1
  O  O62  1  0.57005436  0.44165600  0.81413241  1
  O  O63  1  0.07005436  0.05834400  0.18586759  1
  O  O64  1  0.71013557  0.07509730  0.54425618  1
  O  O65  1  0.21013557  0.42490270  0.45574382  1
  O  O66  1  0.28986443  0.57509730  0.95574382  1
  O  O67  1  0.78986443  0.92490270  0.04425618  1
  O  O68  1  0.28986443  0.92490270  0.45574382  1
  O  O69  1  0.78986443  0.57509730  0.54425618  1
  O  O70  1  0.71013557  0.42490270  0.04425618  1
  O  O71  1  0.21013557  0.07509730  0.95574382  1
  O  O72  1  0.56771851  0.30470495  0.43337684  1
  O  O73  1  0.06771851  0.19529505  0.56662316  1
  O  O74  1  0.43228149  0.80470495  0.06662316  1
  O  O75  1  0.93228149  0.69529505  0.93337684  1
  O  O76  1  0.43228149  0.69529505  0.56662316  1
  O  O77  1  0.93228149  0.80470495  0.43337684  1
  O  O78  1  0.56771851  0.19529505  0.93337684  1
  O  O79  1  0.06771851  0.30470495  0.06662316  1
