# generated using pymatgen
data_HgH12C2(Br2N3)2
_symmetry_space_group_name_H-M   'P 1'
_cell_length_a   7.68039414
_cell_length_b   7.68039414
_cell_length_c   13.53489655
_cell_angle_alpha   102.58000625
_cell_angle_beta   102.58000626
_cell_angle_gamma   94.94010083
_symmetry_Int_Tables_number   1
_chemical_formula_structural   HgH12C2(Br2N3)2
_chemical_formula_sum   'Hg2 H24 C4 Br8 N12'
_cell_volume   753.01607284
_cell_formula_units_Z   2
loop_
 _symmetry_equiv_pos_site_id
 _symmetry_equiv_pos_as_xyz
  1  'x, y, z'
loop_
 _atom_site_type_symbol
 _atom_site_label
 _atom_site_symmetry_multiplicity
 _atom_site_fract_x
 _atom_site_fract_y
 _atom_site_fract_z
 _atom_site_occupancy
  H  H0  1  0.56476495  0.87741722  0.84900642  1
  H  H1  1  0.12258278  0.43523505  0.65099358  1
  H  H2  1  0.43523505  0.12258278  0.15099358  1
  H  H3  1  0.87741722  0.56476495  0.34900642  1
  H  H4  1  0.60780998  0.65996244  0.85268618  1
  H  H5  1  0.34003756  0.39219002  0.64731382  1
  H  H6  1  0.39219002  0.34003756  0.14731382  1
  H  H7  1  0.65996244  0.60780998  0.35268618  1
  H  H8  1  0.16638950  0.85517724  0.93729248  1
  H  H9  1  0.14482276  0.83361050  0.56270752  1
  H  H10  1  0.83361050  0.14482276  0.06270752  1
  H  H11  1  0.85517724  0.16638950  0.43729248  1
  H  H12  1  0.31142762  0.98331331  0.88813257  1
  H  H13  1  0.38567258  0.46634895  0.89493575  1
  H  H14  1  0.68857238  0.01668669  0.11186743  1
  H  H15  1  0.98331331  0.31142762  0.38813257  1
  H  H16  1  0.61432742  0.53365105  0.10506425  1
  H  H17  1  0.53365105  0.61432742  0.60506425  1
  H  H18  1  0.55536152  0.20700855  0.43692876  1
  H  H19  1  0.79299145  0.44463848  0.06307124  1
  H  H20  1  0.44463848  0.79299145  0.56307124  1
  H  H21  1  0.20700855  0.55536152  0.93692876  1
  H  H22  1  0.46634895  0.38567258  0.39493575  1
  H  H23  1  0.01668669  0.68857238  0.61186743  1
  C  C24  1  0.73421742  0.37837122  0.39827517  1
  C  C25  1  0.37837122  0.73421742  0.89827517  1
  C  C26  1  0.26578258  0.62162878  0.60172483  1
  C  C27  1  0.62162878  0.26578258  0.10172483  1
  N  N28  1  0.32836300  0.57789635  0.91972654  1
  N  N29  1  0.28063526  0.86926297  0.91140528  1
  N  N30  1  0.67163700  0.42210365  0.08027346  1
  N  N31  1  0.57789635  0.32836300  0.41972654  1
  N  N32  1  0.71936474  0.13073703  0.08859472  1
  N  N33  1  0.86926297  0.28063526  0.41140528  1
  N  N34  1  0.42210365  0.67163700  0.58027346  1
  N  N35  1  0.13073703  0.71936474  0.58859472  1
  N  N36  1  0.52975722  0.75865232  0.86600545  1
  N  N37  1  0.24134768  0.47024278  0.63399455  1
  N  N38  1  0.47024278  0.24134768  0.13399455  1
  N  N39  1  0.75865232  0.52975722  0.36600545  1
  Br  Br40  1  0.82482259  0.55313249  0.71934692  1
  Br  Br41  1  0.22247116  0.00819092  0.43024689  1
  Br  Br42  1  0.77752884  0.99180908  0.56975311  1
  Br  Br43  1  0.00819092  0.22247116  0.93024689  1
  Br  Br44  1  0.55313249  0.82482259  0.21934692  1
  Br  Br45  1  0.99180908  0.77752884  0.06975311  1
  Br  Br46  1  0.44686751  0.17517741  0.78065308  1
  Br  Br47  1  0.17517741  0.44686751  0.28065308  1
  Hg  Hg48  1  0.21206024  0.78793976  0.25000000  1
  Hg  Hg49  1  0.78793976  0.21206024  0.75000000  1
