# generated using pymatgen
data_K2H2IrCl5O
_symmetry_space_group_name_H-M   'P 1'
_cell_length_a   7.61483923
_cell_length_b   9.24448506
_cell_length_c   13.88716673
_cell_angle_alpha   90.00000000
_cell_angle_beta   90.00000000
_cell_angle_gamma   90.00000000
_symmetry_Int_Tables_number   1
_chemical_formula_structural   K2H2IrCl5O
_chemical_formula_sum   'K8 H8 Ir4 Cl20 O4'
_cell_volume   977.59081672
_cell_formula_units_Z   4
loop_
 _symmetry_equiv_pos_site_id
 _symmetry_equiv_pos_as_xyz
  1  'x, y, z'
loop_
 _atom_site_type_symbol
 _atom_site_label
 _atom_site_symmetry_multiplicity
 _atom_site_fract_x
 _atom_site_fract_y
 _atom_site_fract_z
 _atom_site_occupancy
  H  H0  1  0.47173746  0.66343506  0.03620046  1
  H  H1  1  0.97173746  0.33656494  0.46379954  1
  H  H2  1  0.52826254  0.16343506  0.96379954  1
  H  H3  1  0.02826254  0.83656494  0.53620046  1
  H  H4  1  0.02826254  0.66343506  0.53620046  1
  H  H5  1  0.47173746  0.83656494  0.03620046  1
  H  H6  1  0.52826254  0.33656494  0.96379954  1
  H  H7  1  0.97173746  0.16343506  0.46379954  1
  O  O8  1  0.45290280  0.25000000  0.97383401  1
  O  O9  1  0.54709720  0.75000000  0.02616599  1
  O  O10  1  0.04709720  0.25000000  0.47383401  1
  O  O11  1  0.95290280  0.75000000  0.52616599  1
  Cl  Cl12  1  0.42985924  0.75000000  0.80432797  1
  Cl  Cl13  1  0.07014076  0.75000000  0.30432797  1
  Cl  Cl14  1  0.57014076  0.25000000  0.19567203  1
  Cl  Cl15  1  0.19671055  0.50642080  0.60191716  1
  Cl  Cl16  1  0.19671055  0.99357920  0.60191716  1
  Cl  Cl17  1  0.69671055  0.00642080  0.89808284  1
  Cl  Cl18  1  0.80328945  0.49357920  0.39808284  1
  Cl  Cl19  1  0.04687630  0.25000000  0.00872632  1
  Cl  Cl20  1  0.80328945  0.00642080  0.39808284  1
  Cl  Cl21  1  0.30328945  0.99357920  0.10191716  1
  Cl  Cl22  1  0.30328945  0.50642080  0.10191716  1
  Cl  Cl23  1  0.69671055  0.49357920  0.89808284  1
  Cl  Cl24  1  0.36390998  0.25000000  0.74299388  1
  Cl  Cl25  1  0.86390998  0.75000000  0.75700612  1
  Cl  Cl26  1  0.63609002  0.75000000  0.25700612  1
  Cl  Cl27  1  0.13609002  0.25000000  0.24299388  1
  Cl  Cl28  1  0.45312370  0.25000000  0.50872632  1
  Cl  Cl29  1  0.95312370  0.75000000  0.99127368  1
  Cl  Cl30  1  0.54687630  0.75000000  0.49127368  1
  Cl  Cl31  1  0.92985924  0.25000000  0.69567203  1
  K  K32  1  0.37737400  0.49726431  0.34594539  1
  K  K33  1  0.87737400  0.99726431  0.15405461  1
  K  K34  1  0.37737400  0.00273569  0.34594539  1
  K  K35  1  0.12262600  0.49726431  0.84594539  1
  K  K36  1  0.12262600  0.00273569  0.84594539  1
  K  K37  1  0.62262600  0.99726431  0.65405461  1
  K  K38  1  0.62262600  0.50273569  0.65405461  1
  K  K39  1  0.87737400  0.50273569  0.15405461  1
  Ir  Ir40  1  0.30722451  0.25000000  0.10299223  1
  Ir  Ir41  1  0.80722451  0.75000000  0.39700777  1
  Ir  Ir42  1  0.69277549  0.75000000  0.89700777  1
  Ir  Ir43  1  0.19277549  0.25000000  0.60299223  1
