# generated using pymatgen
data_Ca2MnP2(H2O5)2
_symmetry_space_group_name_H-M   'P 1'
_cell_length_a   5.57282327
_cell_length_b   5.84820981
_cell_length_c   6.64024010
_cell_angle_alpha   90.14698434
_cell_angle_beta   102.47564625
_cell_angle_gamma   108.80144388
_symmetry_Int_Tables_number   1
_chemical_formula_structural   Ca2MnP2(H2O5)2
_chemical_formula_sum   'Ca2 Mn1 P2 H4 O10'
_cell_volume   199.41653576
_cell_formula_units_Z   1
loop_
 _symmetry_equiv_pos_site_id
 _symmetry_equiv_pos_as_xyz
  1  'x, y, z'
loop_
 _atom_site_type_symbol
 _atom_site_label
 _atom_site_symmetry_multiplicity
 _atom_site_fract_x
 _atom_site_fract_y
 _atom_site_fract_z
 _atom_site_occupancy
  H  H0  1  0.81089579  0.07087941  0.56323076  1
  H  H1  1  0.18910421  0.92912059  0.43676924  1
  H  H2  1  0.08072622  0.28395571  0.65757013  1
  H  H3  1  0.91927378  0.71604429  0.34242987  1
  O  O4  1  0.93176409  0.15769071  0.69777242  1
  O  O5  1  0.39656337  0.24609476  0.07083717  1
  O  O6  1  0.60343663  0.75390524  0.92916283  1
  O  O7  1  0.87688291  0.30686387  0.11743330  1
  O  O8  1  0.12311709  0.69313613  0.88256670  1
  O  O9  1  0.61701009  0.00462928  0.32983537  1
  O  O10  1  0.38298991  0.99537072  0.67016463  1
  O  O11  1  0.69761221  0.45844855  0.39841267  1
  O  O12  1  0.30238779  0.54155145  0.60158733  1
  O  O13  1  0.06823591  0.84230929  0.30222758  1
  P  P14  1  0.35164980  0.75296072  0.76715468  1
  P  P15  1  0.64835020  0.24703928  0.23284532  1
  Ca  Ca16  1  0.33513068  0.60294475  0.23376512  1
  Ca  Ca17  1  0.66486932  0.39705525  0.76623488  1
  Mn  Mn18  1  0.00000000  0.00000000  0.00000000  1
