# generated using pymatgen
data_LiCo2P3O10
_symmetry_space_group_name_H-M   'P 1'
_cell_length_a   4.65615831
_cell_length_b   8.57072421
_cell_length_c   9.07327227
_cell_angle_alpha   90.00000000
_cell_angle_beta   97.86505651
_cell_angle_gamma   90.00000000
_symmetry_Int_Tables_number   1
_chemical_formula_structural   LiCo2P3O10
_chemical_formula_sum   'Li2 Co4 P6 O20'
_cell_volume   358.67780356
_cell_formula_units_Z   2
loop_
 _symmetry_equiv_pos_site_id
 _symmetry_equiv_pos_as_xyz
  1  'x, y, z'
loop_
 _atom_site_type_symbol
 _atom_site_label
 _atom_site_symmetry_multiplicity
 _atom_site_fract_x
 _atom_site_fract_y
 _atom_site_fract_z
 _atom_site_occupancy
  Li  Li0  1  0.00000000  0.49999942  0.00000000  1
  Li  Li1  1  0.00000000  0.00000000  0.00000000  1
  O  O2  1  0.77611824  0.09971424  0.51795583  1
  O  O3  1  0.75772736  0.24999971  0.23943764  1
  O  O4  1  0.28342197  0.39937471  0.15835948  1
  O  O5  1  0.71657667  0.89937413  0.84164133  1
  O  O6  1  0.71657667  0.60062531  0.84164133  1
  O  O7  1  0.28342197  0.10062589  0.15835948  1
  O  O8  1  0.45080958  0.75000031  0.02409523  1
  O  O9  1  0.54918906  0.24999971  0.97590558  1
  O  O10  1  0.24227342  0.75000031  0.76056222  1
  O  O11  1  0.22388255  0.59971366  0.48204514  1
  O  O12  1  0.22388255  0.90028578  0.48204514  1
  O  O13  1  0.77611824  0.40028636  0.51795583  1
  O  O14  1  0.30276668  0.24999971  0.44741104  1
  O  O15  1  0.69723410  0.75000031  0.55258882  1
  O  O16  1  0.15846791  0.40054737  0.81376285  1
  O  O17  1  0.43557694  0.75000031  0.28764261  1
  O  O18  1  0.15846791  0.09945323  0.81376285  1
  O  O19  1  0.84153287  0.59945265  0.18623812  1
  O  O20  1  0.84153287  0.90054679  0.18623812  1
  O  O21  1  0.56442170  0.24999971  0.71235820  1
  P  P22  1  0.54245818  0.75000031  0.85541923  1
  P  P23  1  0.45754261  0.24999971  0.14458062  1
  P  P24  1  0.67169598  0.75000031  0.17743321  1
  P  P25  1  0.32830265  0.24999971  0.82256650  1
  P  P26  1  0.39461473  0.75000031  0.46140766  1
  P  P27  1  0.60538390  0.24999971  0.53859205  1
  Co  Co28  1  0.03665581  0.43013150  0.33605045  1
  Co  Co29  1  0.96334282  0.93013092  0.66394926  1
  Co  Co30  1  0.96334282  0.56986853  0.66394926  1
  Co  Co31  1  0.03665581  0.06986911  0.33605045  1
