# generated using pymatgen
data_Co2P2O7
_symmetry_space_group_name_H-M   'P 1'
_cell_length_a   7.07802493
_cell_length_b   8.44240592
_cell_length_c   9.07575862
_cell_angle_alpha   90.00000000
_cell_angle_beta   112.61051519
_cell_angle_gamma   90.00000000
_symmetry_Int_Tables_number   1
_chemical_formula_structural   Co2P2O7
_chemical_formula_sum   'Co8 P8 O28'
_cell_volume   500.64360178
_cell_formula_units_Z   4
loop_
 _symmetry_equiv_pos_site_id
 _symmetry_equiv_pos_as_xyz
  1  'x, y, z'
loop_
 _atom_site_type_symbol
 _atom_site_label
 _atom_site_symmetry_multiplicity
 _atom_site_fract_x
 _atom_site_fract_y
 _atom_site_fract_z
 _atom_site_occupancy
  O  O0  1  0.65667722  0.11272725  0.10112730  1
  O  O1  1  0.84332278  0.61272725  0.39887270  1
  O  O2  1  0.34332278  0.88727275  0.89887270  1
  O  O3  1  0.15667722  0.38727275  0.60112730  1
  O  O4  1  0.63918240  0.40937268  0.15646064  1
  O  O5  1  0.86081760  0.90937268  0.34353936  1
  O  O6  1  0.36081760  0.59062732  0.84353936  1
  O  O7  1  0.13918240  0.09062732  0.65646064  1
  O  O8  1  0.57156615  0.11097871  0.69081314  1
  O  O9  1  0.92843385  0.61097871  0.80918686  1
  O  O10  1  0.42843385  0.88902129  0.30918686  1
  O  O11  1  0.07156615  0.38902129  0.19081314  1
  O  O12  1  0.59315536  0.40212164  0.61944245  1
  O  O13  1  0.90684464  0.90212164  0.88055755  1
  O  O14  1  0.40684464  0.59787836  0.38055755  1
  O  O15  1  0.09315536  0.09787836  0.11944245  1
  O  O16  1  0.14913648  0.16959834  0.40052350  1
  O  O17  1  0.35086352  0.66959834  0.09947650  1
  O  O18  1  0.85086352  0.83040166  0.59947650  1
  O  O19  1  0.64913648  0.33040166  0.90052350  1
  O  O20  1  0.82993550  0.23341469  0.45240074  1
  O  O21  1  0.67006450  0.73341469  0.04759926  1
  O  O22  1  0.17006450  0.76658531  0.54759926  1
  O  O23  1  0.32993550  0.26658531  0.95240074  1
  O  O24  1  0.41326261  0.24218329  0.29662254  1
  O  O25  1  0.08673739  0.74218329  0.20337746  1
  O  O26  1  0.58673739  0.75781671  0.70337746  1
  O  O27  1  0.91326261  0.25781671  0.79662254  1
  P  P28  1  0.56559797  0.27554499  0.03260992  1
  P  P29  1  0.93440203  0.77554499  0.46739008  1
  P  P30  1  0.43440203  0.72445501  0.96739008  1
  P  P31  1  0.06559797  0.22445501  0.53260992  1
  P  P32  1  0.67838854  0.26794431  0.74234207  1
  P  P33  1  0.82161146  0.76794431  0.75765793  1
  P  P34  1  0.32161146  0.73205569  0.25765793  1
  P  P35  1  0.17838854  0.23205569  0.24234207  1
  Co  Co36  1  0.37965742  0.93731286  0.68301525  1
  Co  Co37  1  0.12034258  0.43731286  0.81698475  1
  Co  Co38  1  0.62034258  0.06268714  0.31698475  1
  Co  Co39  1  0.87965742  0.56268714  0.18301525  1
  Co  Co40  1  0.62285084  0.42623744  0.39133731  1
  Co  Co41  1  0.87714916  0.92623744  0.10866269  1
  Co  Co42  1  0.37714916  0.57376256  0.60866269  1
  Co  Co43  1  0.12285084  0.07376256  0.89133731  1
