# generated using pymatgen
data_CaP2H6O7
_symmetry_space_group_name_H-M   'P 1'
_cell_length_a   6.83746722
_cell_length_b   7.12946694
_cell_length_c   8.16158049
_cell_angle_alpha   68.54981100
_cell_angle_beta   84.91720235
_cell_angle_gamma   84.22361684
_symmetry_Int_Tables_number   1
_chemical_formula_structural   CaP2H6O7
_chemical_formula_sum   'Ca2 P4 H12 O14'
_cell_volume   367.84249070
_cell_formula_units_Z   2
loop_
 _symmetry_equiv_pos_site_id
 _symmetry_equiv_pos_as_xyz
  1  'x, y, z'
loop_
 _atom_site_type_symbol
 _atom_site_label
 _atom_site_symmetry_multiplicity
 _atom_site_fract_x
 _atom_site_fract_y
 _atom_site_fract_z
 _atom_site_occupancy
  H  H0  1  0.17553382  0.14055988  0.10933239  1
  H  H1  1  0.82446618  0.85944012  0.89066761  1
  H  H2  1  0.40568015  0.10906035  0.12673164  1
  H  H3  1  0.59431985  0.89093965  0.87326836  1
  H  H4  1  0.98022673  0.88148958  0.26437637  1
  H  H5  1  0.01977327  0.11851042  0.73562363  1
  H  H6  1  0.73812726  0.07130222  0.48897061  1
  H  H7  1  0.26187274  0.92869778  0.51102939  1
  H  H8  1  0.14898982  0.34698659  0.30058283  1
  H  H9  1  0.85101018  0.65301341  0.69941717  1
  H  H10  1  0.30262784  0.63598422  0.98858035  1
  H  H11  1  0.69737216  0.36401578  0.01141965  1
  O  O12  1  0.31166577  0.53962616  0.42976602  1
  O  O13  1  0.71385344  0.32469541  0.20627339  1
  O  O14  1  0.39929307  0.03628735  0.71937816  1
  O  O15  1  0.60070693  0.96371265  0.28062184  1
  O  O16  1  0.03500440  0.97247384  0.73687967  1
  O  O17  1  0.96499560  0.02752616  0.26312033  1
  O  O18  1  0.69840135  0.81523218  0.95415905  1
  O  O19  1  0.30159865  0.18476782  0.04584095  1
  O  O20  1  0.98915660  0.66798319  0.26165056  1
  O  O21  1  0.01084340  0.33201681  0.73834944  1
  O  O22  1  0.33305655  0.62467305  0.11416289  1
  O  O23  1  0.66694345  0.37532695  0.88583711  1
  O  O24  1  0.28614656  0.67530459  0.79372661  1
  O  O25  1  0.68833423  0.46037384  0.57023398  1
  P  P26  1  0.74398265  0.09729901  0.30939990  1
  P  P27  1  0.25601735  0.90270099  0.69060010  1
  P  P28  1  0.18670698  0.54390093  0.28300167  1
  P  P29  1  0.81329302  0.45609907  0.71699833  1
  Ca  Ca30  1  0.64081045  0.63191149  0.26373343  1
  Ca  Ca31  1  0.35918955  0.36808851  0.73626657  1
