# generated using pymatgen
data_CdIn2(SeS)2
_symmetry_space_group_name_H-M   'P 1'
_cell_length_a   4.12393625
_cell_length_b   4.12393625
_cell_length_c   14.11019406
_cell_angle_alpha   90.00000042
_cell_angle_beta   98.40290689
_cell_angle_gamma   59.99999759
_symmetry_Int_Tables_number   1
_chemical_formula_structural   CdIn2(SeS)2
_chemical_formula_sum   'Cd1 In2 Se2 S2'
_cell_volume   204.84005392
_cell_formula_units_Z   1
loop_
 _symmetry_equiv_pos_site_id
 _symmetry_equiv_pos_as_xyz
  1  'x, y, z'
loop_
 _atom_site_type_symbol
 _atom_site_label
 _atom_site_symmetry_multiplicity
 _atom_site_fract_x
 _atom_site_fract_y
 _atom_site_fract_z
 _atom_site_occupancy
  Cd  Cd0  1  0.45881560  0.77059220  0.68822340  1
  In  In1  1  0.99906447  0.00046777  0.99859670  1
  In  In2  1  0.53356897  0.23321551  0.30035346  1
  Se  Se3  1  0.40892387  0.29553806  0.11338581  1
  Se  Se4  1  0.60127477  0.69936262  0.90191215  1
  S  S5  1  0.24577300  0.87711350  0.36865950  1
  S  S6  1  0.76057932  0.11971034  0.64086898  1
