# generated using pymatgen
data_LiNiAsO4
_symmetry_space_group_name_H-M   'P 1'
_cell_length_a   4.93003278
_cell_length_b   5.98432846
_cell_length_c   10.44696011
_cell_angle_alpha   90.00000000
_cell_angle_beta   90.00000000
_cell_angle_gamma   90.00000000
_symmetry_Int_Tables_number   1
_chemical_formula_structural   LiNiAsO4
_chemical_formula_sum   'Li4 Ni4 As4 O16'
_cell_volume   308.21599003
_cell_formula_units_Z   4
loop_
 _symmetry_equiv_pos_site_id
 _symmetry_equiv_pos_as_xyz
  1  'x, y, z'
loop_
 _atom_site_type_symbol
 _atom_site_label
 _atom_site_symmetry_multiplicity
 _atom_site_fract_x
 _atom_site_fract_y
 _atom_site_fract_z
 _atom_site_occupancy
  Li  Li0  1  0.00000000  0.00000000  0.00000000  1
  Li  Li1  1  0.49999989  0.00000000  0.49999954  1
  Li  Li2  1  0.00000000  0.50000042  0.00000000  1
  Li  Li3  1  0.49999989  0.50000042  0.49999954  1
  O  O4  1  0.78190740  0.24999937  0.09636941  1
  O  O5  1  0.22715390  0.47213217  0.66987375  1
  O  O6  1  0.72715379  0.52786700  0.83012583  1
  O  O7  1  0.77284588  0.97213259  0.33012629  1
  O  O8  1  0.27284599  0.02786658  0.16987421  1
  O  O9  1  0.77284588  0.52786700  0.33012629  1
  O  O10  1  0.27284599  0.47213217  0.16987421  1
  O  O11  1  0.22715390  0.02786658  0.66987375  1
  O  O12  1  0.21809238  0.74999979  0.90363063  1
  O  O13  1  0.71809430  0.24999937  0.59636896  1
  O  O14  1  0.72715379  0.97213259  0.83012583  1
  O  O15  1  0.28190751  0.74999979  0.40363109  1
  O  O16  1  0.70486024  0.74999979  0.05745613  1
  O  O17  1  0.29513954  0.24999937  0.94254391  1
  O  O18  1  0.20486035  0.24999937  0.44254437  1
  O  O19  1  0.79513942  0.74999979  0.55745567  1
  Ni  Ni20  1  0.00632723  0.74999979  0.72800637  1
  Ni  Ni21  1  0.99367254  0.24999937  0.27199271  1
  Ni  Ni22  1  0.49367265  0.74999979  0.22800683  1
  Ni  Ni23  1  0.50632712  0.24999937  0.77199322  1
  As  As24  1  0.06439338  0.24999937  0.59379689  1
  As  As25  1  0.43560651  0.24999937  0.09379638  1
  As  As26  1  0.93560640  0.74999979  0.40620316  1
  As  As27  1  0.56439327  0.74999979  0.90620366  1
