# generated using pymatgen
data_K2MgH12(SO7)2
_symmetry_space_group_name_H-M   'P 1'
_cell_length_a   6.18556002
_cell_length_b   9.14992541
_cell_length_c   12.39413421
_cell_angle_alpha   90.00000000
_cell_angle_beta   90.00000000
_cell_angle_gamma   104.38097547
_symmetry_Int_Tables_number   1
_chemical_formula_structural   K2MgH12(SO7)2
_chemical_formula_sum   'K4 Mg2 H24 S4 O28'
_cell_volume   679.49566047
_cell_formula_units_Z   2
loop_
 _symmetry_equiv_pos_site_id
 _symmetry_equiv_pos_as_xyz
  1  'x, y, z'
loop_
 _atom_site_type_symbol
 _atom_site_label
 _atom_site_symmetry_multiplicity
 _atom_site_fract_x
 _atom_site_fract_y
 _atom_site_fract_z
 _atom_site_occupancy
  H  H0  1  0.66210244  0.60609478  0.43666315  1
  H  H1  1  0.33789756  0.89390522  0.93666315  1
  H  H2  1  0.33789756  0.39390522  0.56333685  1
  H  H3  1  0.66210244  0.10609478  0.06333685  1
  H  H4  1  0.33313013  0.52558498  0.64619374  1
  H  H5  1  0.66686987  0.97441502  0.14619374  1
  H  H6  1  0.66686987  0.47441502  0.35380626  1
  H  H7  1  0.33313013  0.02558498  0.85380626  1
  H  H8  1  0.06976894  0.77262708  0.60037483  1
  H  H9  1  0.93023106  0.72737292  0.10037483  1
  H  H10  1  0.99998823  0.64505841  0.68882288  1
  H  H11  1  0.00001177  0.85494159  0.18882288  1
  H  H12  1  0.00001177  0.35494159  0.31117712  1
  H  H13  1  0.99998823  0.14505841  0.81117712  1
  H  H14  1  0.32837510  0.71794180  0.40923767  1
  H  H15  1  0.67162490  0.78205820  0.90923767  1
  H  H16  1  0.67162490  0.28205820  0.59076233  1
  H  H17  1  0.32837510  0.21794180  0.09076233  1
  H  H18  1  0.09447780  0.74649493  0.37217332  1
  H  H19  1  0.90552220  0.75350507  0.87217332  1
  H  H20  1  0.90552220  0.25350507  0.62782668  1
  H  H21  1  0.09447780  0.24649493  0.12782668  1
  H  H22  1  0.93023106  0.22737292  0.39962517  1
  H  H23  1  0.06976894  0.27262708  0.89962517  1
  O  O24  1  0.24013501  0.94503771  0.58001605  1
  O  O25  1  0.24013501  0.44503771  0.91998395  1
  O  O26  1  0.17198165  0.16687422  0.11050045  1
  O  O27  1  0.82801835  0.33312578  0.61050045  1
  O  O28  1  0.82801835  0.83312578  0.88949955  1
  O  O29  1  0.17198165  0.66687422  0.38949955  1
  O  O30  1  0.03107030  0.82945292  0.11331224  1
  O  O31  1  0.75986499  0.55496229  0.08001605  1
  O  O32  1  0.96892970  0.17054708  0.88668776  1
  O  O33  1  0.03107030  0.32945292  0.38668776  1
  O  O34  1  0.70591598  0.00941026  0.07091084  1
  O  O35  1  0.29408402  0.49058974  0.57091084  1
  O  O36  1  0.29408402  0.99058974  0.92908916  1
  O  O37  1  0.70591598  0.50941026  0.42908916  1
  O  O38  1  0.94957238  0.88697867  0.32521868  1
  O  O39  1  0.05042762  0.61302133  0.82521868  1
  O  O40  1  0.05042762  0.11302133  0.67478132  1
  O  O41  1  0.94957238  0.38697867  0.17478132  1
  O  O42  1  0.57808132  0.90571399  0.26680467  1
  O  O43  1  0.42191868  0.59428601  0.76680467  1
  O  O44  1  0.42191868  0.09428601  0.73319533  1
  O  O45  1  0.57808132  0.40571399  0.23319533  1
  O  O46  1  0.96892970  0.67054708  0.61331224  1
  O  O47  1  0.38222858  0.71561107  0.93691959  1
  O  O48  1  0.38222858  0.21561107  0.56308041  1
  O  O49  1  0.61777142  0.28438893  0.06308041  1
  O  O50  1  0.75986499  0.05496229  0.41998395  1
  O  O51  1  0.61777142  0.78438893  0.43691959  1
  Mg  Mg52  1  0.00000000  0.00000000  0.00000000  1
  Mg  Mg53  1  0.00000000  0.50000000  0.50000000  1
  S  S54  1  0.27141514  0.59079817  0.86185264  1
  S  S55  1  0.72858486  0.40920183  0.13814736  1
  S  S56  1  0.27141514  0.09079817  0.63814736  1
  S  S57  1  0.72858486  0.90920183  0.36185264  1
  K  K58  1  0.65341978  0.36778577  0.84719720  1
  K  K59  1  0.34658022  0.13221423  0.34719720  1
  K  K60  1  0.34658022  0.63221423  0.15280280  1
  K  K61  1  0.65341978  0.86778577  0.65280280  1
