# generated using pymatgen
data_RbGa2P2H5O11
_symmetry_space_group_name_H-M   'P 1'
_cell_length_a   9.76488261
_cell_length_b   9.74515892
_cell_length_c   9.84630505
_cell_angle_alpha   90.00000000
_cell_angle_beta   102.39899830
_cell_angle_gamma   90.00000000
_symmetry_Int_Tables_number   1
_chemical_formula_structural   RbGa2P2H5O11
_chemical_formula_sum   'Rb4 Ga8 P8 H20 O44'
_cell_volume   915.12362922
_cell_formula_units_Z   4
loop_
 _symmetry_equiv_pos_site_id
 _symmetry_equiv_pos_as_xyz
  1  'x, y, z'
loop_
 _atom_site_type_symbol
 _atom_site_label
 _atom_site_symmetry_multiplicity
 _atom_site_fract_x
 _atom_site_fract_y
 _atom_site_fract_z
 _atom_site_occupancy
  H  H0  1  0.76843196  0.41758814  0.96787271  1
  H  H1  1  0.73156804  0.91758814  0.53212729  1
  H  H2  1  0.23156804  0.58241186  0.03212729  1
  H  H3  1  0.26843196  0.08241186  0.46787271  1
  H  H4  1  0.76856484  0.36462903  0.12088430  1
  H  H5  1  0.73143516  0.86462903  0.37911570  1
  H  H6  1  0.23143516  0.63537097  0.87911570  1
  H  H7  1  0.26856484  0.13537097  0.62088430  1
  H  H8  1  0.10677935  0.52677740  0.17661856  1
  H  H9  1  0.39322065  0.02677740  0.32338144  1
  H  H10  1  0.89322065  0.47322260  0.82338144  1
  H  H11  1  0.60677935  0.97322260  0.67661856  1
  H  H12  1  0.94526818  0.47620257  0.10522358  1
  H  H13  1  0.55473182  0.97620257  0.39477642  1
  H  H14  1  0.05473182  0.52379743  0.89477642  1
  H  H15  1  0.44526818  0.02379743  0.60522358  1
  H  H16  1  0.57006534  0.70371808  0.52190875  1
  H  H17  1  0.92993466  0.20371808  0.97809125  1
  H  H18  1  0.42993466  0.29628192  0.47809125  1
  H  H19  1  0.07006534  0.79628192  0.02190875  1
  O  O20  1  0.82007548  0.35976899  0.04390430  1
  O  O21  1  0.67992452  0.85976899  0.45609570  1
  O  O22  1  0.17992452  0.64023101  0.95609570  1
  O  O23  1  0.32007548  0.14023101  0.54390430  1
  O  O24  1  0.00618672  0.55366903  0.15120042  1
  O  O25  1  0.49381328  0.05366903  0.34879958  1
  O  O26  1  0.99381328  0.44633097  0.84879958  1
  O  O27  1  0.50618672  0.94633097  0.65120042  1
  O  O28  1  0.50386908  0.64363697  0.55730367  1
  O  O29  1  0.99613092  0.14363697  0.94269633  1
  O  O30  1  0.49613092  0.35636303  0.44269633  1
  O  O31  1  0.00386908  0.85636303  0.05730367  1
  O  O32  1  0.73973339  0.50888241  0.51182828  1
  O  O33  1  0.76026661  0.00888241  0.98817172  1
  O  O34  1  0.26026661  0.49111759  0.48817172  1
  O  O35  1  0.23973339  0.99111759  0.01182828  1
  O  O36  1  0.78737907  0.88403664  0.22026326  1
  O  O37  1  0.71262093  0.38403664  0.27973674  1
  O  O38  1  0.21262093  0.11596336  0.77973674  1
  O  O39  1  0.28737907  0.61596336  0.72026326  1
  O  O40  1  0.44486654  0.41209141  0.70141616  1
  O  O41  1  0.05513346  0.91209141  0.79858384  1
  O  O42  1  0.55513346  0.58790859  0.29858384  1
  O  O43  1  0.94486654  0.08790859  0.20141616  1
  O  O44  1  0.81830557  0.62035882  0.31622621  1
  O  O45  1  0.68169443  0.12035882  0.18377379  1
  O  O46  1  0.18169443  0.37964118  0.68377379  1
  O  O47  1  0.31830557  0.87964118  0.81622621  1
  O  O48  1  0.72253032  0.53672208  0.80228372  1
  O  O49  1  0.77746968  0.03672208  0.69771628  1
  O  O50  1  0.27746968  0.46327792  0.19771628  1
  O  O51  1  0.22253032  0.96327792  0.30228372  1
  O  O52  1  0.69646189  0.28082947  0.69650083  1
  O  O53  1  0.80353811  0.78082947  0.80349917  1
  O  O54  1  0.30353811  0.71917053  0.30349917  1
  O  O55  1  0.19646189  0.21917053  0.19650083  1
  O  O56  1  0.05550653  0.77116469  0.33942060  1
  O  O57  1  0.44449347  0.27116469  0.16057940  1
  O  O58  1  0.94449347  0.22883531  0.66057940  1
  O  O59  1  0.55550653  0.72883531  0.83942060  1
  O  O60  1  0.75946420  0.66778547  0.02646344  1
  O  O61  1  0.74053580  0.16778547  0.47353656  1
  O  O62  1  0.24053580  0.33221453  0.97353656  1
  O  O63  1  0.25946420  0.83221453  0.52646344  1
  P  P64  1  0.70449465  0.52712107  0.35009011  1
  P  P65  1  0.79550535  0.02712107  0.14990989  1
  P  P66  1  0.29550535  0.47287893  0.64990989  1
  P  P67  1  0.20449465  0.97287893  0.85009011  1
  P  P68  1  0.70984685  0.68289701  0.86785490  1
  P  P69  1  0.79015315  0.18289701  0.63214510  1
  P  P70  1  0.29015315  0.31710299  0.13214510  1
  P  P71  1  0.20984685  0.81710299  0.36785490  1
  Ga  Ga72  1  0.90255592  0.72796680  0.18489529  1
  Ga  Ga73  1  0.59744408  0.22796680  0.31510471  1
  Ga  Ga74  1  0.09744408  0.27203320  0.81510471  1
  Ga  Ga75  1  0.40255592  0.77203320  0.68489529  1
  Ga  Ga76  1  0.61141425  0.45500784  0.62909872  1
  Ga  Ga77  1  0.88858575  0.95500784  0.87090128  1
  Ga  Ga78  1  0.38858575  0.54499216  0.37090128  1
  Ga  Ga79  1  0.11141425  0.04499216  0.12909872  1
  Rb  Rb80  1  0.98324459  0.69403542  0.60067091  1
  Rb  Rb81  1  0.51675541  0.19403542  0.89932909  1
  Rb  Rb82  1  0.01675541  0.30596458  0.39932909  1
  Rb  Rb83  1  0.48324459  0.80596458  0.10067091  1
