# generated using pymatgen
data_Ba5Ho8Mn4O21
_symmetry_space_group_name_H-M   'P 1'
_cell_length_a   5.78201045
_cell_length_b   10.29325923
_cell_length_c   10.29325923
_cell_angle_alpha   85.47554768
_cell_angle_beta   73.68822662
_cell_angle_gamma   73.68822659
_symmetry_Int_Tables_number   1
_chemical_formula_structural   Ba5Ho8Mn4O21
_chemical_formula_sum   'Ba5 Ho8 Mn4 O21'
_cell_volume   564.28533161
_cell_formula_units_Z   1
loop_
 _symmetry_equiv_pos_site_id
 _symmetry_equiv_pos_as_xyz
  1  'x, y, z'
loop_
 _atom_site_type_symbol
 _atom_site_label
 _atom_site_symmetry_multiplicity
 _atom_site_fract_x
 _atom_site_fract_y
 _atom_site_fract_z
 _atom_site_occupancy
  O  O0  1  0.10203383  0.89384220  0.40575905  1
  O  O1  1  0.50779163  0.59424143  0.89384186  1
  O  O2  1  0.99587546  0.40575908  0.10615817  1
  O  O3  1  0.40163391  0.10615831  0.59424089  1
  O  O4  1  0.89796745  0.10615831  0.59424073  1
  O  O5  1  0.49220784  0.40575908  0.10615822  1
  O  O6  1  0.00412401  0.59424143  0.89384190  1
  O  O7  1  0.59836556  0.89384220  0.40575918  1
  O  O8  1  0.92504072  0.87181595  0.77390220  1
  O  O9  1  0.69894360  0.22609760  0.87181582  1
  O  O10  1  0.79685683  0.77390190  0.12818440  1
  O  O11  1  0.57075971  0.12818355  0.22609801  1
  O  O12  1  0.07495926  0.12818355  0.22609787  1
  O  O13  1  0.30105638  0.77390190  0.12818425  1
  O  O14  1  0.20314315  0.22609760  0.87181567  1
  O  O15  1  0.42924027  0.87181595  0.77390206  1
  O  O16  1  0.37275023  0.66650595  0.58799521  1
  O  O17  1  0.50000058  0.00000000  0.00000038  1
  O  O18  1  0.62725156  0.33349355  0.41200458  1
  O  O19  1  0.96074451  0.41200417  0.66650581  1
  O  O20  1  0.03925546  0.58799533  0.33349426  1
  Mn  Mn21  1  0.95999182  0.79200152  0.28801570  1
  Mn  Mn22  1  0.24800702  0.71198376  0.79200123  1
  Mn  Mn23  1  0.75199296  0.28801574  0.20799884  1
  Mn  Mn24  1  0.04000765  0.20799899  0.71198437  1
  Ba  Ba25  1  0.46532588  0.39529483  0.67405357  1
  Ba  Ba26  1  0.13937880  0.32594644  0.39529500  1
  Ba  Ba27  1  0.86062067  0.67405408  0.60470507  1
  Ba  Ba28  1  0.53467359  0.60470569  0.32594650  1
  Ba  Ba29  1  0.00000000  0.00000000  0.00000000  1
  Ho  Ho30  1  0.58948613  0.05134854  0.76968065  1
  Ho  Ho31  1  0.35916506  0.23031982  0.05134917  1
  Ho  Ho32  1  0.64083441  0.76968069  0.94865090  1
  Ho  Ho33  1  0.41051385  0.94865096  0.23031942  1
  Ho  Ho34  1  0.75165527  0.07793042  0.41875886  1
  Ho  Ho35  1  0.17041425  0.58124061  0.07793007  1
  Ho  Ho36  1  0.82958573  0.41875889  0.92207000  1
  Ho  Ho37  1  0.24834420  0.92207009  0.58124121  1
