# generated using pymatgen
data_K2Sb4S7
_symmetry_space_group_name_H-M   'P 1'
_cell_length_a   6.62572822
_cell_length_b   6.62572822
_cell_length_c   17.81284635
_cell_angle_alpha   86.73137532
_cell_angle_beta   86.73137530
_cell_angle_gamma   75.15584084
_symmetry_Int_Tables_number   1
_chemical_formula_structural   K2Sb4S7
_chemical_formula_sum   'K4 Sb8 S14'
_cell_volume   753.93216742
_cell_formula_units_Z   2
loop_
 _symmetry_equiv_pos_site_id
 _symmetry_equiv_pos_as_xyz
  1  'x, y, z'
loop_
 _atom_site_type_symbol
 _atom_site_label
 _atom_site_symmetry_multiplicity
 _atom_site_fract_x
 _atom_site_fract_y
 _atom_site_fract_z
 _atom_site_occupancy
  S  S0  1  0.48766973  0.73533769  0.65613438  1
  S  S1  1  0.47625156  0.97479534  0.87263011  1
  S  S2  1  0.51233027  0.26466231  0.34386562  1
  S  S3  1  0.73533769  0.48766973  0.15613438  1
  S  S4  1  0.00178580  0.99821420  0.25000000  1
  S  S5  1  0.99821420  0.00178580  0.75000000  1
  S  S6  1  0.97479534  0.47625156  0.37263011  1
  S  S7  1  0.52374844  0.02520466  0.12736989  1
  S  S8  1  0.02520466  0.52374844  0.62736989  1
  S  S9  1  0.68115660  0.27064172  0.53900663  1
  S  S10  1  0.27064172  0.68115660  0.03900663  1
  S  S11  1  0.31884340  0.72935828  0.46099337  1
  S  S12  1  0.26466231  0.51233027  0.84386562  1
  S  S13  1  0.72935828  0.31884340  0.96099337  1
  K  K14  1  0.78547888  0.55120058  0.79538091  1
  K  K15  1  0.44879942  0.21452112  0.70461909  1
  K  K16  1  0.21452112  0.44879942  0.20461909  1
  K  K17  1  0.55120058  0.78547888  0.29538091  1
  Sb  Sb18  1  0.36321467  0.30612930  0.96668325  1
  Sb  Sb19  1  0.30612930  0.36321467  0.46668325  1
  Sb  Sb20  1  0.63678533  0.69387070  0.03331675  1
  Sb  Sb21  1  0.69387070  0.63678533  0.53331675  1
  Sb  Sb22  1  0.88109603  0.13943561  0.38108036  1
  Sb  Sb23  1  0.86056439  0.11890397  0.11891964  1
  Sb  Sb24  1  0.11890397  0.86056439  0.61891964  1
  Sb  Sb25  1  0.13943561  0.88109603  0.88108036  1
