# generated using pymatgen
data_Tl3PbBr5
_symmetry_space_group_name_H-M   'P 1'
_cell_length_a   8.71619281
_cell_length_b   9.24136682
_cell_length_c   15.68687620
_cell_angle_alpha   90.00000000
_cell_angle_beta   90.00000000
_cell_angle_gamma   90.00000000
_symmetry_Int_Tables_number   1
_chemical_formula_structural   Tl3PbBr5
_chemical_formula_sum   'Tl12 Pb4 Br20'
_cell_volume   1263.57058400
_cell_formula_units_Z   4
loop_
 _symmetry_equiv_pos_site_id
 _symmetry_equiv_pos_as_xyz
  1  'x, y, z'
loop_
 _atom_site_type_symbol
 _atom_site_label
 _atom_site_symmetry_multiplicity
 _atom_site_fract_x
 _atom_site_fract_y
 _atom_site_fract_z
 _atom_site_occupancy
  Br  Br0  1  0.98640973  0.90380290  0.09952021  1
  Br  Br1  1  0.48640973  0.09619710  0.40047979  1
  Br  Br2  1  0.51359027  0.40380290  0.90047979  1
  Br  Br3  1  0.01359027  0.59619710  0.59952021  1
  Br  Br4  1  0.52915030  0.53889808  0.52407031  1
  Br  Br5  1  0.02915030  0.46110192  0.97592969  1
  Br  Br6  1  0.97084970  0.03889808  0.47592969  1
  Br  Br7  1  0.47084970  0.96110192  0.02407031  1
  Br  Br8  1  0.16537133  0.10263567  0.88560742  1
  Br  Br9  1  0.66537133  0.89736433  0.61439258  1
  Br  Br10  1  0.33462867  0.60263567  0.11439258  1
  Br  Br11  1  0.83462867  0.39736433  0.38560742  1
  Br  Br12  1  0.85479033  0.80519947  0.86107513  1
  Br  Br13  1  0.35479033  0.19480053  0.63892487  1
  Br  Br14  1  0.64520967  0.30519947  0.13892487  1
  Br  Br15  1  0.14520967  0.69480053  0.36107513  1
  Br  Br16  1  0.32472701  0.74674714  0.77478021  1
  Br  Br17  1  0.82472701  0.25325286  0.72521979  1
  Br  Br18  1  0.17527299  0.24674714  0.22521979  1
  Br  Br19  1  0.67527299  0.75325286  0.27478021  1
  Tl  Tl20  1  0.02222266  0.95617550  0.69877916  1
  Tl  Tl21  1  0.52222266  0.04382450  0.80122084  1
  Tl  Tl22  1  0.47777734  0.45617550  0.30122084  1
  Tl  Tl23  1  0.97777734  0.54382450  0.19877916  1
  Tl  Tl24  1  0.16297216  0.41738824  0.77208678  1
  Tl  Tl25  1  0.66297216  0.58261176  0.72791322  1
  Tl  Tl26  1  0.33702784  0.91738824  0.22791322  1
  Tl  Tl27  1  0.83702784  0.08261176  0.27208678  1
  Tl  Tl28  1  0.18589413  0.33715975  0.46512712  1
  Tl  Tl29  1  0.68589413  0.66284025  0.03487288  1
  Tl  Tl30  1  0.31410587  0.83715975  0.53487288  1
  Tl  Tl31  1  0.81410587  0.16284025  0.96512712  1
  Pb  Pb32  1  0.82669030  0.70263784  0.45540610  1
  Pb  Pb33  1  0.32669030  0.29736216  0.04459390  1
  Pb  Pb34  1  0.67330970  0.20263784  0.54459390  1
  Pb  Pb35  1  0.17330970  0.79736216  0.95540610  1
