# generated using pymatgen
data_Ba3Al5
_symmetry_space_group_name_H-M   'P 1'
_cell_length_a   6.07890004
_cell_length_b   6.07890004
_cell_length_c   14.76753442
_cell_angle_alpha   90.00000000
_cell_angle_beta   90.00000000
_cell_angle_gamma   120.00000001
_symmetry_Int_Tables_number   1
_chemical_formula_structural   Ba3Al5
_chemical_formula_sum   'Ba6 Al10'
_cell_volume   472.59446114
_cell_formula_units_Z   2
loop_
 _symmetry_equiv_pos_site_id
 _symmetry_equiv_pos_as_xyz
  1  'x, y, z'
loop_
 _atom_site_type_symbol
 _atom_site_label
 _atom_site_symmetry_multiplicity
 _atom_site_fract_x
 _atom_site_fract_y
 _atom_site_fract_z
 _atom_site_occupancy
  Al  Al0  1  0.84552275  0.69104550  0.75000000  1
  Al  Al1  1  0.15447725  0.84552275  0.25000000  1
  Al  Al2  1  0.69104550  0.84552275  0.25000000  1
  Al  Al3  1  0.30895450  0.15447725  0.75000000  1
  Al  Al4  1  0.84552275  0.15447725  0.75000000  1
  Al  Al5  1  0.15447725  0.30895450  0.25000000  1
  Al  Al6  1  0.33333333  0.66666667  0.11567558  1
  Al  Al7  1  0.66666667  0.33333333  0.61567558  1
  Al  Al8  1  0.66666667  0.33333333  0.88432442  1
  Al  Al9  1  0.33333333  0.66666667  0.38432442  1
  Ba  Ba10  1  0.00000000  0.00000000  0.50000000  1
  Ba  Ba11  1  0.00000000  0.00000000  0.00000000  1
  Ba  Ba12  1  0.33333333  0.66666667  0.87448014  1
  Ba  Ba13  1  0.66666667  0.33333333  0.37448014  1
  Ba  Ba14  1  0.66666667  0.33333333  0.12551986  1
  Ba  Ba15  1  0.33333333  0.66666667  0.62551986  1
