# generated using pymatgen
data_H5BrO2
_symmetry_space_group_name_H-M   'P 1'
_cell_length_a   4.26466779
_cell_length_b   6.97744452
_cell_length_c   12.62576419
_cell_angle_alpha   90.00000000
_cell_angle_beta   90.00000000
_cell_angle_gamma   100.92784043
_symmetry_Int_Tables_number   1
_chemical_formula_structural   H5BrO2
_chemical_formula_sum   'H20 Br4 O8'
_cell_volume   368.88569063
_cell_formula_units_Z   4
loop_
 _symmetry_equiv_pos_site_id
 _symmetry_equiv_pos_as_xyz
  1  'x, y, z'
loop_
 _atom_site_type_symbol
 _atom_site_label
 _atom_site_symmetry_multiplicity
 _atom_site_fract_x
 _atom_site_fract_y
 _atom_site_fract_z
 _atom_site_occupancy
  H  H0  1  0.77238167  0.09942104  0.60238399  1
  H  H1  1  0.22761833  0.40057896  0.10238399  1
  H  H2  1  0.22761833  0.90057896  0.39761601  1
  H  H3  1  0.77238167  0.59942104  0.89761601  1
  H  H4  1  0.78016762  0.19968342  0.48688168  1
  H  H5  1  0.21983238  0.30031658  0.98688168  1
  H  H6  1  0.21983238  0.80031658  0.51311832  1
  H  H7  1  0.78016762  0.69968342  0.01311832  1
  H  H8  1  0.61121067  0.57798335  0.64714689  1
  H  H9  1  0.38878933  0.92201665  0.14714689  1
  H  H10  1  0.38878933  0.42201665  0.35285311  1
  H  H11  1  0.61121067  0.07798335  0.85285311  1
  H  H12  1  0.57054408  0.83404059  0.90198356  1
  H  H13  1  0.42945592  0.66595941  0.40198356  1
  H  H14  1  0.42945592  0.16595941  0.09801644  1
  H  H15  1  0.57054408  0.33404059  0.59801644  1
  H  H16  1  0.30819829  0.91977306  0.80876381  1
  H  H17  1  0.69180171  0.58022694  0.30876381  1
  H  H18  1  0.69180171  0.08022694  0.19123619  1
  H  H19  1  0.30819829  0.41977306  0.69123619  1
  O  O20  1  0.68424342  0.19536821  0.55891994  1
  O  O21  1  0.31575658  0.30463179  0.05891994  1
  O  O22  1  0.31575658  0.80463179  0.44108006  1
  O  O23  1  0.68424342  0.69536821  0.94108006  1
  O  O24  1  0.44804813  0.45868983  0.62796927  1
  O  O25  1  0.55195187  0.04131017  0.12796927  1
  O  O26  1  0.55195187  0.54131017  0.37203073  1
  O  O27  1  0.44804813  0.95868983  0.87203073  1
  Br  Br28  1  0.97798248  0.34212341  0.83166400  1
  Br  Br29  1  0.02201752  0.15787659  0.33166400  1
  Br  Br30  1  0.02201752  0.65787659  0.16833600  1
  Br  Br31  1  0.97798248  0.84212341  0.66833600  1
