# generated using pymatgen
data_TlCdBr3
_symmetry_space_group_name_H-M   'P 1'
_cell_length_a   4.21979673
_cell_length_b   9.64021373
_cell_length_c   15.78138653
_cell_angle_alpha   90.00000000
_cell_angle_beta   90.00000000
_cell_angle_gamma   90.00000000
_symmetry_Int_Tables_number   1
_chemical_formula_structural   TlCdBr3
_chemical_formula_sum   'Tl4 Cd4 Br12'
_cell_volume   641.98273835
_cell_formula_units_Z   4
loop_
 _symmetry_equiv_pos_site_id
 _symmetry_equiv_pos_as_xyz
  1  'x, y, z'
loop_
 _atom_site_type_symbol
 _atom_site_label
 _atom_site_symmetry_multiplicity
 _atom_site_fract_x
 _atom_site_fract_y
 _atom_site_fract_z
 _atom_site_occupancy
  Br  Br0  1  0.25000000  0.52089887  0.60236570  1
  Br  Br1  1  0.75000000  0.47910113  0.39763430  1
  Br  Br2  1  0.25000000  0.02089887  0.89763430  1
  Br  Br3  1  0.75000000  0.97910113  0.10236570  1
  Br  Br4  1  0.25000000  0.66606404  0.00623928  1
  Br  Br5  1  0.75000000  0.33393596  0.99376072  1
  Br  Br6  1  0.25000000  0.16606404  0.49376072  1
  Br  Br7  1  0.75000000  0.83393596  0.50623928  1
  Br  Br8  1  0.75000000  0.71251335  0.78862387  1
  Br  Br9  1  0.25000000  0.28748665  0.21137613  1
  Br  Br10  1  0.75000000  0.21251335  0.71137613  1
  Br  Br11  1  0.25000000  0.78748665  0.28862387  1
  Cd  Cd12  1  0.25000000  0.66767593  0.44467850  1
  Cd  Cd13  1  0.75000000  0.33232407  0.55532150  1
  Cd  Cd14  1  0.25000000  0.16767593  0.05532150  1
  Cd  Cd15  1  0.75000000  0.83232407  0.94467850  1
  Tl  Tl16  1  0.25000000  0.93848441  0.67731582  1
  Tl  Tl17  1  0.75000000  0.06151559  0.32268418  1
  Tl  Tl18  1  0.25000000  0.43848441  0.82268418  1
  Tl  Tl19  1  0.75000000  0.56151559  0.17731582  1
