# generated using pymatgen
data_AgBiSe2
_symmetry_space_group_name_H-M   'P 1'
_cell_length_a   4.20023096
_cell_length_b   4.20023096
_cell_length_c   19.89378982
_cell_angle_alpha   90.00000000
_cell_angle_beta   90.00000000
_cell_angle_gamma   120.00000002
_symmetry_Int_Tables_number   1
_chemical_formula_structural   AgBiSe2
_chemical_formula_sum   'Ag3 Bi3 Se6'
_cell_volume   303.94464776
_cell_formula_units_Z   3
loop_
 _symmetry_equiv_pos_site_id
 _symmetry_equiv_pos_as_xyz
  1  'x, y, z'
loop_
 _atom_site_type_symbol
 _atom_site_label
 _atom_site_symmetry_multiplicity
 _atom_site_fract_x
 _atom_site_fract_y
 _atom_site_fract_z
 _atom_site_occupancy
  Se  Se0  1  0.66666667  0.33333333  0.58746052  1
  Se  Se1  1  0.33333333  0.66666667  0.41253948  1
  Se  Se2  1  0.66666667  0.33333333  0.07925299  1
  Se  Se3  1  0.33333333  0.66666667  0.92074701  1
  Se  Se4  1  0.00000000  0.00000000  0.25427636  1
  Se  Se5  1  0.00000000  0.00000000  0.74572364  1
  Ag  Ag6  1  0.33333333  0.66666667  0.66702317  1
  Ag  Ag7  1  0.66666667  0.33333333  0.33297683  1
  Ag  Ag8  1  0.00000000  0.00000000  0.00000000  1
  Bi  Bi9  1  0.33333333  0.66666667  0.16671514  1
  Bi  Bi10  1  0.00000000  0.00000000  0.50000000  1
  Bi  Bi11  1  0.66666667  0.33333333  0.83328486  1
