# generated using pymatgen
data_LiTi2(PO4)3
_symmetry_space_group_name_H-M   'P 1'
_cell_length_a   8.60880970
_cell_length_b   12.05375632
_cell_length_c   8.70179274
_cell_angle_alpha   90.00000000
_cell_angle_beta   90.00000000
_cell_angle_gamma   90.66574776
_symmetry_Int_Tables_number   1
_chemical_formula_structural   LiTi2(PO4)3
_chemical_formula_sum   'Li4 Ti8 P12 O48'
_cell_volume   902.91097516
_cell_formula_units_Z   4
loop_
 _symmetry_equiv_pos_site_id
 _symmetry_equiv_pos_as_xyz
  1  'x, y, z'
loop_
 _atom_site_type_symbol
 _atom_site_label
 _atom_site_symmetry_multiplicity
 _atom_site_fract_x
 _atom_site_fract_y
 _atom_site_fract_z
 _atom_site_occupancy
  Li  Li0  1  0.20530565  0.17921898  0.78025416  1
  Li  Li1  1  0.29469435  0.32078102  0.28025416  1
  Li  Li2  1  0.70530565  0.67921898  0.71974584  1
  Li  Li3  1  0.79469435  0.82078102  0.21974584  1
  O  O4  1  0.05873331  0.43364196  0.86391799  1
  O  O5  1  0.06973261  0.86112061  0.89195763  1
  O  O6  1  0.07659399  0.59185247  0.67252568  1
  O  O7  1  0.07411221  0.15888715  0.59045117  1
  O  O8  1  0.11334136  0.57033368  0.36596628  1
  O  O9  1  0.12917088  0.83165996  0.20924611  1
  O  O10  1  0.15632985  0.97261772  0.42378510  1
  O  O11  1  0.16452013  0.23331810  0.98924127  1
  O  O12  1  0.16012406  0.42776765  0.16433077  1
  O  O13  1  0.17008470  0.17793381  0.26866917  1
  O  O14  1  0.17967900  0.03338480  0.05785030  1
  O  O15  1  0.19090408  0.77191184  0.48597434  1
  O  O16  1  0.30909592  0.72808816  0.98597434  1
  O  O17  1  0.32032100  0.46661520  0.55785030  1
  O  O18  1  0.32991530  0.32206619  0.76866917  1
  O  O19  1  0.33987594  0.07223235  0.66433077  1
  O  O20  1  0.33547987  0.26668190  0.48924127  1
  O  O21  1  0.34367015  0.52738228  0.92378510  1
  O  O22  1  0.37082912  0.66834004  0.70924611  1
  O  O23  1  0.38665864  0.92966632  0.86596628  1
  O  O24  1  0.42340601  0.90814753  0.17252568  1
  O  O25  1  0.43026739  0.63887939  0.39195763  1
  O  O26  1  0.42588779  0.34111285  0.09045117  1
  O  O27  1  0.44126669  0.06635804  0.36391799  1
  O  O28  1  0.55873331  0.93364196  0.63608201  1
  O  O29  1  0.57411221  0.65888715  0.90954883  1
  O  O30  1  0.56973261  0.36112061  0.60804237  1
  O  O31  1  0.57659399  0.09185247  0.82747432  1
  O  O32  1  0.61334136  0.07033368  0.13403372  1
  O  O33  1  0.62917088  0.33165996  0.29075389  1
  O  O34  1  0.65632985  0.47261772  0.07621490  1
  O  O35  1  0.66452013  0.73331810  0.51075873  1
  O  O36  1  0.66012406  0.92776765  0.33566923  1
  O  O37  1  0.67008470  0.67793381  0.23133083  1
  O  O38  1  0.67967900  0.53338480  0.44214970  1
  O  O39  1  0.69090408  0.27191184  0.01402566  1
  O  O40  1  0.80909592  0.22808816  0.51402566  1
  O  O41  1  0.82032100  0.96661520  0.94214970  1
  O  O42  1  0.82991530  0.82206619  0.73133083  1
  O  O43  1  0.83987594  0.57223235  0.83566923  1
  O  O44  1  0.83547987  0.76668190  0.01075873  1
  O  O45  1  0.84367015  0.02738228  0.57621490  1
  O  O46  1  0.87082912  0.16834004  0.79075389  1
  O  O47  1  0.88665864  0.42966632  0.63403372  1
  O  O48  1  0.92588779  0.84111285  0.40954883  1
  O  O49  1  0.92340601  0.40814753  0.32747432  1
  O  O50  1  0.93026739  0.13887939  0.10804237  1
  O  O51  1  0.94126669  0.56635804  0.13608201  1
  P  P52  1  0.03189799  0.49300764  0.25076382  1
  P  P53  1  0.10312511  0.85251653  0.38188082  1
  P  P54  1  0.10855369  0.14382723  0.10649024  1
  P  P55  1  0.39687489  0.64748347  0.88188082  1
  P  P56  1  0.39144631  0.35617277  0.60649024  1
  P  P57  1  0.46810201  0.00699236  0.75076382  1
  P  P58  1  0.53189799  0.99300764  0.24923618  1
  P  P59  1  0.60855369  0.64382723  0.39350976  1
  P  P60  1  0.60312511  0.35251653  0.11811918  1
  P  P61  1  0.89144631  0.85617277  0.89350976  1
  P  P62  1  0.89687489  0.14748347  0.61811918  1
  P  P63  1  0.96810201  0.50699236  0.74923618  1
  Ti  Ti64  1  0.24985045  0.62015495  0.52843457  1
  Ti  Ti65  1  0.25014955  0.87984505  0.02843457  1
  Ti  Ti66  1  0.24589821  0.39003630  0.95989396  1
  Ti  Ti67  1  0.25410179  0.10996370  0.45989396  1
  Ti  Ti68  1  0.74589821  0.89003630  0.54010604  1
  Ti  Ti69  1  0.75410179  0.60996370  0.04010604  1
  Ti  Ti70  1  0.74985045  0.12015495  0.97156543  1
  Ti  Ti71  1  0.75014955  0.37984505  0.47156543  1
