# generated using pymatgen
data_Au2Se2O7
_symmetry_space_group_name_H-M   'P 1'
_cell_length_a   4.29759924
_cell_length_b   7.25735962
_cell_length_c   11.58750280
_cell_angle_alpha   90.00000000
_cell_angle_beta   90.00000000
_cell_angle_gamma   90.00000000
_symmetry_Int_Tables_number   1
_chemical_formula_structural   Au2Se2O7
_chemical_formula_sum   'Au4 Se4 O14'
_cell_volume   361.40521101
_cell_formula_units_Z   2
loop_
 _symmetry_equiv_pos_site_id
 _symmetry_equiv_pos_as_xyz
  1  'x, y, z'
loop_
 _atom_site_type_symbol
 _atom_site_label
 _atom_site_symmetry_multiplicity
 _atom_site_fract_x
 _atom_site_fract_y
 _atom_site_fract_z
 _atom_site_occupancy
  O  O0  1  0.77332653  0.50000000  0.50000000  1
  O  O1  1  0.77332653  0.00000000  0.00000000  1
  O  O2  1  0.16535711  0.87936274  0.37457345  1
  O  O3  1  0.16535711  0.12063726  0.62542655  1
  O  O4  1  0.16535711  0.62063726  0.87457345  1
  O  O5  1  0.16535711  0.37936274  0.12542655  1
  O  O6  1  0.47669998  0.53740869  0.29076019  1
  O  O7  1  0.47669998  0.46259131  0.70923981  1
  O  O8  1  0.56575180  0.33654924  0.91509193  1
  O  O9  1  0.56575180  0.66345076  0.08490807  1
  O  O10  1  0.56575180  0.16345076  0.41509193  1
  O  O11  1  0.56575180  0.83654924  0.58490807  1
  O  O12  1  0.47669998  0.03740869  0.20923981  1
  O  O13  1  0.47669998  0.96259131  0.79076019  1
  Se  Se14  1  0.24834276  0.60197620  0.17165951  1
  Se  Se15  1  0.24834276  0.39802380  0.82834049  1
  Se  Se16  1  0.24834276  0.89802380  0.67165951  1
  Se  Se17  1  0.24834276  0.10197620  0.32834049  1
  Au  Au18  1  0.49238510  0.69366984  0.43660105  1
  Au  Au19  1  0.49238510  0.30633016  0.56339895  1
  Au  Au20  1  0.49238510  0.80633016  0.93660105  1
  Au  Au21  1  0.49238510  0.19366984  0.06339895  1
