# generated using pymatgen
data_As4(Pb3S5)3
_symmetry_space_group_name_H-M   'P 1'
_cell_length_a   10.77728168
_cell_length_b   10.77728169
_cell_length_c   10.77728169
_cell_angle_alpha   114.25965370
_cell_angle_beta   114.25965370
_cell_angle_gamma   114.25965363
_symmetry_Int_Tables_number   1
_chemical_formula_structural   As4(Pb3S5)3
_chemical_formula_sum   'As4 Pb9 S15'
_cell_volume   745.65236407
_cell_formula_units_Z   1
loop_
 _symmetry_equiv_pos_site_id
 _symmetry_equiv_pos_as_xyz
  1  'x, y, z'
loop_
 _atom_site_type_symbol
 _atom_site_label
 _atom_site_symmetry_multiplicity
 _atom_site_fract_x
 _atom_site_fract_y
 _atom_site_fract_z
 _atom_site_occupancy
  S  S0  1  0.47517284  0.92173322  0.92173322  1
  S  S1  1  0.92173322  0.92173322  0.47517284  1
  S  S2  1  0.92173322  0.47517284  0.92173322  1
  S  S3  1  0.32242823  0.12902106  0.12902106  1
  S  S4  1  0.12902106  0.12902106  0.32242823  1
  S  S5  1  0.12902106  0.32242823  0.12902106  1
  S  S6  1  0.88780930  0.63139606  0.63139606  1
  S  S7  1  0.63139606  0.63139606  0.88780930  1
  S  S8  1  0.63139606  0.88780930  0.63139606  1
  S  S9  1  0.03972059  0.58623711  0.39480307  1
  S  S10  1  0.58623711  0.39480307  0.03972059  1
  S  S11  1  0.39480307  0.03972059  0.58623711  1
  S  S12  1  0.39480307  0.58623711  0.03972059  1
  S  S13  1  0.03972059  0.39480307  0.58623711  1
  S  S14  1  0.58623711  0.03972059  0.39480307  1
  As  As15  1  0.05593681  0.05593681  0.05593681  1
  As  As16  1  0.84246726  0.40748948  0.40748948  1
  As  As17  1  0.40748948  0.40748948  0.84246726  1
  As  As18  1  0.40748948  0.84246726  0.40748948  1
  Pb  Pb19  1  0.33436533  0.59823427  0.59823427  1
  Pb  Pb20  1  0.59823427  0.59823427  0.33436533  1
  Pb  Pb21  1  0.59823427  0.33436533  0.59823427  1
  Pb  Pb22  1  0.77442044  0.24332747  0.97857734  1
  Pb  Pb23  1  0.24332747  0.97857734  0.77442044  1
  Pb  Pb24  1  0.97857734  0.77442044  0.24332747  1
  Pb  Pb25  1  0.97857734  0.24332747  0.77442044  1
  Pb  Pb26  1  0.24332747  0.77442044  0.97857734  1
  Pb  Pb27  1  0.77442044  0.97857734  0.24332747  1
