# generated using pymatgen
data_CeEr
_symmetry_space_group_name_H-M   'P 1'
_cell_length_a   3.54558819
_cell_length_b   3.54558722
_cell_length_c   16.85601383
_cell_angle_alpha   83.96287952
_cell_angle_beta   90.00000239
_cell_angle_gamma   119.99999098
_symmetry_Int_Tables_number   1
_chemical_formula_structural   CeEr
_chemical_formula_sum   'Ce3 Er3'
_cell_volume   182.15268955
_cell_formula_units_Z   3
loop_
 _symmetry_equiv_pos_site_id
 _symmetry_equiv_pos_as_xyz
  1  'x, y, z'
loop_
 _atom_site_type_symbol
 _atom_site_label
 _atom_site_symmetry_multiplicity
 _atom_site_fract_x
 _atom_site_fract_y
 _atom_site_fract_z
 _atom_site_occupancy
  Ce  Ce0  1  0.99967435  0.99934870  0.00097695  1
  Ce  Ce1  1  0.50010250  0.00020499  0.49969251  1
  Ce  Ce2  1  0.61187681  0.22375361  0.16436958  1
  Er  Er3  1  0.11118661  0.22237321  0.66644018  1
  Er  Er4  1  0.88859728  0.77719457  0.33420815  1
  Er  Er5  1  0.38856246  0.77712491  0.83431263  1
