# generated using pymatgen
data_Fe(MoS2)2
_symmetry_space_group_name_H-M   'P 1'
_cell_length_a   6.49006579
_cell_length_b   6.75447666
_cell_length_c   12.20936671
_cell_angle_alpha   84.18574365
_cell_angle_beta   74.58656088
_cell_angle_gamma   61.28670679
_symmetry_Int_Tables_number   1
_chemical_formula_structural   Fe(MoS2)2
_chemical_formula_sum   'Fe4 Mo8 S16'
_cell_volume   452.30469484
_cell_formula_units_Z   4
loop_
 _symmetry_equiv_pos_site_id
 _symmetry_equiv_pos_as_xyz
  1  'x, y, z'
loop_
 _atom_site_type_symbol
 _atom_site_label
 _atom_site_symmetry_multiplicity
 _atom_site_fract_x
 _atom_site_fract_y
 _atom_site_fract_z
 _atom_site_occupancy
  Fe  Fe0  1  0.01463240  0.26663071  0.45030826  1
  Fe  Fe1  1  0.76842863  0.76663071  0.95030826  1
  Fe  Fe2  1  0.25071510  0.78786539  0.94870719  1
  Fe  Fe3  1  0.51271233  0.28786539  0.44870719  1
  Mo  Mo4  1  0.42456474  0.22747126  0.70610395  1
  Mo  Mo5  1  0.14186004  0.72747126  0.20610395  1
  Mo  Mo6  1  0.84470621  0.82554367  0.69297112  1
  Mo  Mo7  1  0.13677900  0.32554367  0.19297112  1
  Mo  Mo8  1  0.37801267  0.83697447  0.68966971  1
  Mo  Mo9  1  0.59534315  0.33697447  0.18966971  1
  Mo  Mo10  1  0.89245043  0.21529531  0.70730543  1
  Mo  Mo11  1  0.68494882  0.71529531  0.20730543  1
  S  S12  1  0.62580396  0.95394198  0.55017912  1
  S  S13  1  0.37007494  0.45394198  0.05017912  1
  S  S14  1  0.64512924  0.10015111  0.84822596  1
  S  S15  1  0.90649368  0.60015111  0.34822596  1
  S  S16  1  0.16217979  0.61985126  0.80753995  1
  S  S17  1  0.91042900  0.11985126  0.30753995  1
  S  S18  1  0.10714268  0.43283699  0.59068639  1
  S  S19  1  0.36933394  0.93283699  0.09068639  1
  S  S20  1  0.65299161  0.61044742  0.81565357  1
  S  S21  1  0.42090741  0.11044742  0.31565357  1
  S  S22  1  0.61519260  0.44415786  0.58355319  1
  S  S23  1  0.85709635  0.94415786  0.08355319  1
  S  S24  1  0.12403603  0.93230442  0.55950697  1
  S  S25  1  0.88415259  0.43230442  0.05950697  1
  S  S26  1  0.14562984  0.11952814  0.83858919  1
  S  S27  1  0.39625283  0.61952814  0.33858919  1
