# generated using pymatgen
data_OsO3F2
_symmetry_space_group_name_H-M   'P 1'
_cell_length_a   5.16111457
_cell_length_b   5.67608772
_cell_length_c   12.63792194
_cell_angle_alpha   99.27243270
_cell_angle_beta   90.00000000
_cell_angle_gamma   90.00000000
_symmetry_Int_Tables_number   1
_chemical_formula_structural   OsO3F2
_chemical_formula_sum   'Os4 O12 F8'
_cell_volume   365.38952629
_cell_formula_units_Z   4
loop_
 _symmetry_equiv_pos_site_id
 _symmetry_equiv_pos_as_xyz
  1  'x, y, z'
loop_
 _atom_site_type_symbol
 _atom_site_label
 _atom_site_symmetry_multiplicity
 _atom_site_fract_x
 _atom_site_fract_y
 _atom_site_fract_z
 _atom_site_occupancy
  O  O0  1  0.92531096  0.67510090  0.59650198  1
  O  O1  1  0.42531096  0.32489910  0.90349802  1
  O  O2  1  0.07468904  0.32489910  0.40349802  1
  O  O3  1  0.57468904  0.67510090  0.09650198  1
  O  O4  1  0.40045984  0.75515101  0.52694157  1
  O  O5  1  0.90045984  0.24484899  0.97305843  1
  O  O6  1  0.59954016  0.24484899  0.47305843  1
  O  O7  1  0.09954016  0.75515101  0.02694157  1
  O  O8  1  0.33700641  0.61634935  0.71758223  1
  O  O9  1  0.16299359  0.61634935  0.21758223  1
  O  O10  1  0.66299359  0.38365065  0.28241777  1
  O  O11  1  0.83700641  0.38365065  0.78241777  1
  F  F12  1  0.88347081  0.87698168  0.38354480  1
  F  F13  1  0.02579401  0.95925209  0.78683345  1
  F  F14  1  0.47420599  0.95925209  0.28683345  1
  F  F15  1  0.97420599  0.04074791  0.21316655  1
  F  F16  1  0.11652919  0.12301832  0.61645520  1
  F  F17  1  0.61652919  0.87698168  0.88354480  1
  F  F18  1  0.38347081  0.12301832  0.11645520  1
  F  F19  1  0.52579401  0.04074791  0.71316655  1
  Os  Os20  1  0.21169729  0.80937563  0.63963138  1
  Os  Os21  1  0.71169729  0.19062437  0.86036862  1
  Os  Os22  1  0.78830271  0.19062437  0.36036862  1
  Os  Os23  1  0.28830271  0.80937563  0.13963138  1
