# generated using pymatgen
data_Tl6SBr4
_symmetry_space_group_name_H-M   'P 1'
_cell_length_a   9.00879850
_cell_length_b   9.00879850
_cell_length_c   9.56734126
_cell_angle_alpha   90.00000000
_cell_angle_beta   90.00000000
_cell_angle_gamma   90.00000000
_symmetry_Int_Tables_number   1
_chemical_formula_structural   Tl6SBr4
_chemical_formula_sum   'Tl12 S2 Br8'
_cell_volume   776.47059124
_cell_formula_units_Z   2
loop_
 _symmetry_equiv_pos_site_id
 _symmetry_equiv_pos_as_xyz
  1  'x, y, z'
loop_
 _atom_site_type_symbol
 _atom_site_label
 _atom_site_symmetry_multiplicity
 _atom_site_fract_x
 _atom_site_fract_y
 _atom_site_fract_z
 _atom_site_occupancy
  S  S0  1  0.00000000  0.00000000  0.50000000  1
  S  S1  1  0.50000000  0.50000000  0.00000000  1
  Br  Br2  1  0.16993089  0.33006911  0.75000000  1
  Br  Br3  1  0.66993089  0.16993089  0.75000000  1
  Br  Br4  1  0.33006911  0.83006911  0.75000000  1
  Br  Br5  1  0.83006911  0.66993089  0.75000000  1
  Br  Br6  1  0.83006911  0.66993089  0.25000000  1
  Br  Br7  1  0.33006911  0.83006911  0.25000000  1
  Br  Br8  1  0.66993089  0.16993089  0.25000000  1
  Br  Br9  1  0.16993089  0.33006911  0.25000000  1
  Tl  Tl10  1  0.68681802  0.89418397  0.50000000  1
  Tl  Tl11  1  0.31318198  0.10581603  0.50000000  1
  Tl  Tl12  1  0.60581603  0.81318198  0.00000000  1
  Tl  Tl13  1  0.10581603  0.68681802  0.50000000  1
  Tl  Tl14  1  0.89418397  0.31318198  0.50000000  1
  Tl  Tl15  1  0.18681802  0.60581603  0.00000000  1
  Tl  Tl16  1  0.81318198  0.39418397  0.00000000  1
  Tl  Tl17  1  0.39418397  0.18681802  0.00000000  1
  Tl  Tl18  1  0.00000000  0.00000000  0.80040195  1
  Tl  Tl19  1  0.50000000  0.50000000  0.69959805  1
  Tl  Tl20  1  0.00000000  0.00000000  0.19959805  1
  Tl  Tl21  1  0.50000000  0.50000000  0.30040195  1
