# generated using pymatgen
data_Ba3(SnP2)2
_symmetry_space_group_name_H-M   'P 1'
_cell_length_a   7.98012705
_cell_length_b   7.97555949
_cell_length_c   19.56392362
_cell_angle_alpha   90.00000000
_cell_angle_beta   90.00000000
_cell_angle_gamma   112.77190892
_symmetry_Int_Tables_number   1
_chemical_formula_structural   Ba3(SnP2)2
_chemical_formula_sum   'Ba12 Sn8 P16'
_cell_volume   1148.10821331
_cell_formula_units_Z   4
loop_
 _symmetry_equiv_pos_site_id
 _symmetry_equiv_pos_as_xyz
  1  'x, y, z'
loop_
 _atom_site_type_symbol
 _atom_site_label
 _atom_site_symmetry_multiplicity
 _atom_site_fract_x
 _atom_site_fract_y
 _atom_site_fract_z
 _atom_site_occupancy
  P  P0  1  0.68520848  0.55748767  0.31005568  1
  P  P1  1  0.81479152  0.44251233  0.81005568  1
  P  P2  1  0.31479152  0.44251233  0.68994432  1
  P  P3  1  0.18520848  0.55748767  0.18994432  1
  P  P4  1  0.72069260  0.52868472  0.07131087  1
  P  P5  1  0.77930740  0.47131528  0.57131087  1
  P  P6  1  0.27930740  0.47131528  0.92868913  1
  P  P7  1  0.22069260  0.52868472  0.42868913  1
  P  P8  1  0.70109656  0.06920448  0.18080687  1
  P  P9  1  0.79890344  0.93079552  0.68080687  1
  P  P10  1  0.29890344  0.93079552  0.81919313  1
  P  P11  1  0.20109656  0.06920448  0.31919313  1
  P  P12  1  0.78897692  0.97468147  0.94338246  1
  P  P13  1  0.28897692  0.97468147  0.55661754  1
  P  P14  1  0.21102308  0.02531853  0.05661754  1
  P  P15  1  0.71102308  0.02531853  0.44338246  1
  Sn  Sn16  1  0.41449986  0.35316654  0.37887332  1
  Sn  Sn17  1  0.08550014  0.64683346  0.87887332  1
  Sn  Sn18  1  0.58550014  0.64683346  0.62112668  1
  Sn  Sn19  1  0.91449986  0.35316654  0.12112668  1
  Sn  Sn20  1  0.94528609  0.77329006  0.99424535  1
  Sn  Sn21  1  0.44528609  0.77329006  0.50575465  1
  Sn  Sn22  1  0.05471391  0.22670994  0.00575465  1
  Sn  Sn23  1  0.55471391  0.22670994  0.49424535  1
  Ba  Ba24  1  0.93384070  0.29664148  0.31156196  1
  Ba  Ba25  1  0.56615930  0.70335852  0.81156196  1
  Ba  Ba26  1  0.06615930  0.70335852  0.68843804  1
  Ba  Ba27  1  0.43384070  0.29664148  0.18843804  1
  Ba  Ba28  1  0.54313638  0.23144371  0.93673057  1
  Ba  Ba29  1  0.95686362  0.76855629  0.43673057  1
  Ba  Ba30  1  0.45686362  0.76855629  0.06326943  1
  Ba  Ba31  1  0.04313638  0.23144371  0.56326943  1
  Ba  Ba32  1  0.55037722  0.18300763  0.69468009  1
  Ba  Ba33  1  0.94962278  0.81699237  0.19468009  1
  Ba  Ba34  1  0.44962278  0.81699237  0.30531991  1
  Ba  Ba35  1  0.05037722  0.18300763  0.80531991  1
