# generated using pymatgen
data_Li3PO4
_symmetry_space_group_name_H-M   'P 1'
_cell_length_a   5.00111902
_cell_length_b   6.17677140
_cell_length_c   10.61503437
_cell_angle_alpha   90.00000000
_cell_angle_beta   90.00000000
_cell_angle_gamma   90.00000000
_symmetry_Int_Tables_number   1
_chemical_formula_structural   Li3PO4
_chemical_formula_sum   'Li12 P4 O16'
_cell_volume   327.90657392
_cell_formula_units_Z   4
loop_
 _symmetry_equiv_pos_site_id
 _symmetry_equiv_pos_as_xyz
  1  'x, y, z'
loop_
 _atom_site_type_symbol
 _atom_site_label
 _atom_site_symmetry_multiplicity
 _atom_site_fract_x
 _atom_site_fract_y
 _atom_site_fract_z
 _atom_site_occupancy
  Li  Li0  1  0.69793521  0.49826105  0.83639115  1
  Li  Li1  1  0.19793521  0.50173895  0.66360885  1
  Li  Li2  1  0.30206479  0.99826105  0.16360885  1
  Li  Li3  1  0.80206479  0.00173895  0.33639115  1
  Li  Li4  1  0.30206479  0.50173895  0.16360885  1
  Li  Li5  1  0.80206479  0.49826105  0.33639115  1
  Li  Li6  1  0.69793521  0.00173895  0.83639115  1
  Li  Li7  1  0.19793521  0.99826105  0.66360885  1
  Li  Li8  1  0.79687937  0.25000000  0.57470476  1
  Li  Li9  1  0.29687937  0.75000000  0.92529524  1
  Li  Li10  1  0.20312063  0.75000000  0.42529524  1
  Li  Li11  1  0.70312063  0.25000000  0.07470476  1
  O  O12  1  0.61830416  0.25000000  0.41035710  1
  O  O13  1  0.79632726  0.95618574  0.65864904  1
  O  O14  1  0.11830416  0.75000000  0.08964290  1
  O  O15  1  0.38169584  0.75000000  0.58964290  1
  O  O16  1  0.79632726  0.54381426  0.65864904  1
  O  O17  1  0.29632726  0.04381426  0.84135096  1
  O  O18  1  0.20367274  0.45618574  0.34135096  1
  O  O19  1  0.70367274  0.54381426  0.15864904  1
  O  O20  1  0.20367274  0.04381426  0.34135096  1
  O  O21  1  0.70367274  0.95618574  0.15864904  1
  O  O22  1  0.79723837  0.75000000  0.45068236  1
  O  O23  1  0.29632726  0.45618574  0.84135096  1
  O  O24  1  0.70276163  0.75000000  0.95068236  1
  O  O25  1  0.20276163  0.25000000  0.54931764  1
  O  O26  1  0.29723837  0.25000000  0.04931764  1
  O  O27  1  0.88169584  0.25000000  0.91035710  1
  P  P28  1  0.69367071  0.75000000  0.58881550  1
  P  P29  1  0.80632929  0.75000000  0.08881550  1
  P  P30  1  0.30632929  0.25000000  0.41118450  1
  P  P31  1  0.19367071  0.25000000  0.91118450  1
