# generated using pymatgen
data_Sn4OF6
_symmetry_space_group_name_H-M   'P 1'
_cell_length_a   5.12763588
_cell_length_b   10.93392965
_cell_length_c   16.58333138
_cell_angle_alpha   90.00000000
_cell_angle_beta   90.00000000
_cell_angle_gamma   90.00000000
_symmetry_Int_Tables_number   1
_chemical_formula_structural   Sn4OF6
_chemical_formula_sum   'Sn16 O4 F24'
_cell_volume   929.74795603
_cell_formula_units_Z   4
loop_
 _symmetry_equiv_pos_site_id
 _symmetry_equiv_pos_as_xyz
  1  'x, y, z'
loop_
 _atom_site_type_symbol
 _atom_site_label
 _atom_site_symmetry_multiplicity
 _atom_site_fract_x
 _atom_site_fract_y
 _atom_site_fract_z
 _atom_site_occupancy
  O  O0  1  0.42509632  0.61465231  0.38344492  1
  O  O1  1  0.92509632  0.38534769  0.11655508  1
  O  O2  1  0.07490368  0.11465231  0.61655508  1
  O  O3  1  0.57490368  0.88534769  0.88344492  1
  F  F4  1  0.90809870  0.72510373  0.32695894  1
  F  F5  1  0.40809870  0.27489627  0.17304106  1
  F  F6  1  0.59190130  0.22510373  0.67304106  1
  F  F7  1  0.09190130  0.77489627  0.82695894  1
  F  F8  1  0.44670076  0.87021670  0.37096350  1
  F  F9  1  0.94670076  0.12978330  0.12903650  1
  F  F10  1  0.05329924  0.37021670  0.62903650  1
  F  F11  1  0.55329924  0.62978330  0.87096350  1
  F  F12  1  0.98404821  0.48391760  0.78472911  1
  F  F13  1  0.48404821  0.51608240  0.71527089  1
  F  F14  1  0.51595179  0.98391760  0.21527089  1
  F  F15  1  0.01595179  0.01608240  0.28472911  1
  F  F16  1  0.61558336  0.95628543  0.04637639  1
  F  F17  1  0.11558336  0.04371457  0.45362361  1
  F  F18  1  0.88441664  0.45628543  0.95362361  1
  F  F19  1  0.38441664  0.54371457  0.54637639  1
  F  F20  1  0.88895950  0.01989774  0.78855760  1
  F  F21  1  0.38895950  0.98010226  0.71144240  1
  F  F22  1  0.61104050  0.51989774  0.21144240  1
  F  F23  1  0.11104050  0.48010226  0.28855760  1
  F  F24  1  0.08905168  0.96904381  0.95549934  1
  F  F25  1  0.58905168  0.03095619  0.54450066  1
  F  F26  1  0.41094832  0.46904381  0.04450066  1
  F  F27  1  0.91094832  0.53095619  0.45549934  1
  Sn  Sn28  1  0.71609532  0.84158294  0.76781991  1
  Sn  Sn29  1  0.21609532  0.15841706  0.73218009  1
  Sn  Sn30  1  0.78390468  0.34158294  0.23218009  1
  Sn  Sn31  1  0.28390468  0.65841706  0.26781991  1
  Sn  Sn32  1  0.71238470  0.72035136  0.44043006  1
  Sn  Sn33  1  0.21238470  0.27964864  0.05956994  1
  Sn  Sn34  1  0.78761530  0.22035136  0.55956994  1
  Sn  Sn35  1  0.28761530  0.77964864  0.94043006  1
  Sn  Sn36  1  0.21422264  0.95135222  0.56537521  1
  Sn  Sn37  1  0.71422264  0.04864778  0.93462479  1
  Sn  Sn38  1  0.28577736  0.45135222  0.43462479  1
  Sn  Sn39  1  0.78577736  0.54864778  0.06537521  1
  Sn  Sn40  1  0.12071064  0.55510356  0.66007711  1
  Sn  Sn41  1  0.62071064  0.44489644  0.83992289  1
  Sn  Sn42  1  0.37928936  0.05510356  0.33992289  1
  Sn  Sn43  1  0.87928936  0.94489644  0.16007711  1
