# generated using pymatgen
data_KNO2
_symmetry_space_group_name_H-M   'P 1'
_cell_length_a   4.56160017
_cell_length_b   7.26702877
_cell_length_c   9.72633011
_cell_angle_alpha   90.00000000
_cell_angle_beta   90.00000000
_cell_angle_gamma   109.50185660
_symmetry_Int_Tables_number   1
_chemical_formula_structural   KNO2
_chemical_formula_sum   'K4 N4 O8'
_cell_volume   303.92377074
_cell_formula_units_Z   4
loop_
 _symmetry_equiv_pos_site_id
 _symmetry_equiv_pos_as_xyz
  1  'x, y, z'
loop_
 _atom_site_type_symbol
 _atom_site_label
 _atom_site_symmetry_multiplicity
 _atom_site_fract_x
 _atom_site_fract_y
 _atom_site_fract_z
 _atom_site_occupancy
  N  N0  1  0.92650747  0.68859832  0.08783554  1
  N  N1  1  0.07349253  0.31140168  0.91216446  1
  N  N2  1  0.92650747  0.18859832  0.41216446  1
  N  N3  1  0.07349253  0.81140168  0.58783554  1
  O  O4  1  0.16302692  0.90996241  0.69740411  1
  O  O5  1  0.16302692  0.40996241  0.80259589  1
  O  O6  1  0.83697308  0.59003759  0.19740411  1
  O  O7  1  0.83697308  0.09003759  0.30259589  1
  O  O8  1  0.79424478  0.69449725  0.58939300  1
  O  O9  1  0.20575522  0.80550275  0.08939300  1
  O  O10  1  0.20575522  0.30550275  0.41060700  1
  O  O11  1  0.79424478  0.19449725  0.91060700  1
  K  K12  1  0.58498991  0.29004720  0.64027495  1
  K  K13  1  0.41501009  0.20995280  0.14027495  1
  K  K14  1  0.41501009  0.70995280  0.35972505  1
  K  K15  1  0.58498991  0.79004720  0.85972505  1
