# generated using pymatgen
data_Al13(TlS7)3
_symmetry_space_group_name_H-M   'P 1'
_cell_length_a   9.38658369
_cell_length_b   14.86421527
_cell_length_c   14.86421526
_cell_angle_alpha   61.26300294
_cell_angle_beta   78.22679413
_cell_angle_gamma   78.22679412
_symmetry_Int_Tables_number   1
_chemical_formula_structural   Al13(TlS7)3
_chemical_formula_sum   'Al26 Tl6 S42'
_cell_volume   1766.62013854
_cell_formula_units_Z   2
loop_
 _symmetry_equiv_pos_site_id
 _symmetry_equiv_pos_as_xyz
  1  'x, y, z'
loop_
 _atom_site_type_symbol
 _atom_site_label
 _atom_site_symmetry_multiplicity
 _atom_site_fract_x
 _atom_site_fract_y
 _atom_site_fract_z
 _atom_site_occupancy
  Al  Al0  1  0.69855067  0.17890980  0.64394297  1
  Al  Al1  1  0.69855067  0.64394297  0.17890980  1
  Al  Al2  1  0.03399733  0.22303897  0.71615057  1
  Al  Al3  1  0.03399733  0.71615057  0.22303897  1
  Al  Al4  1  0.05209454  0.20890882  0.46734468  1
  Al  Al5  1  0.05209454  0.46734468  0.20890882  1
  Al  Al6  1  0.36886546  0.86009618  0.10260793  1
  Al  Al7  1  0.36886546  0.10260793  0.86009618  1
  Al  Al8  1  0.71499010  0.15134570  0.40633103  1
  Al  Al9  1  0.71499010  0.40633103  0.15134570  1
  Al  Al10  1  0.71433460  0.40540644  0.40540644  1
  Al  Al11  1  0.36664839  0.60037382  0.09890534  1
  Al  Al12  1  0.36664839  0.09890534  0.60037382  1
  Al  Al13  1  0.03732492  0.48236083  0.94750207  1
  Al  Al14  1  0.03732492  0.94750207  0.48236083  1
  Al  Al15  1  0.04407532  0.71338947  0.71338947  1
  Al  Al16  1  0.71186774  0.90547603  0.15456687  1
  Al  Al17  1  0.71186774  0.15456687  0.90547603  1
  Al  Al18  1  0.70269490  0.41396518  0.90663174  1
  Al  Al19  1  0.70269490  0.90663174  0.41396518  1
  Al  Al20  1  0.36905860  0.34750115  0.84840673  1
  Al  Al21  1  0.36905860  0.84840673  0.34750115  1
  Al  Al22  1  0.37794712  0.59898519  0.85274678  1
  Al  Al23  1  0.37794712  0.85274678  0.59898519  1
  Al  Al24  1  0.06362287  0.46036170  0.70987093  1
  Al  Al25  1  0.06362287  0.70987093  0.46036170  1
  S  S26  1  0.29399681  0.94884557  0.19253936  1
  S  S27  1  0.29399681  0.19253936  0.94884557  1
  S  S28  1  0.95842035  0.64829505  0.88095539  1
  S  S29  1  0.95842035  0.88095539  0.64829505  1
  S  S30  1  0.96655564  0.38256837  0.38256837  1
  S  S31  1  0.62546103  0.08483987  0.57865763  1
  S  S32  1  0.62546103  0.57865763  0.08483987  1
  S  S33  1  0.95174306  0.14245394  0.63664207  1
  S  S34  1  0.95174306  0.63664207  0.14245394  1
  S  S35  1  0.30754884  0.44401786  0.69053899  1
  S  S36  1  0.30754884  0.69053899  0.44401786  1
  S  S37  1  0.28868021  0.69845632  0.18603545  1
  S  S38  1  0.28868021  0.18603545  0.69845632  1
  S  S39  1  0.29261485  0.20177765  0.44548765  1
  S  S40  1  0.29261485  0.44548765  0.20177765  1
  S  S41  1  0.63644007  0.32563019  0.32563019  1
  S  S42  1  0.31200212  0.69445579  0.93750983  1
  S  S43  1  0.31200212  0.93750983  0.69445579  1
  S  S44  1  0.31871696  0.93933300  0.93933300  1
  S  S45  1  0.95947700  0.39092266  0.88271918  1
  S  S46  1  0.95947700  0.88271918  0.39092266  1
  S  S47  1  0.96813425  0.12582906  0.39425025  1
  S  S48  1  0.96813425  0.39425025  0.12582906  1
  S  S49  1  0.95627948  0.88265333  0.12804019  1
  S  S50  1  0.95627948  0.12804019  0.88265333  1
  S  S51  1  0.29746153  0.69125205  0.69125205  1
  S  S52  1  0.28821920  0.94342629  0.44037490  1
  S  S53  1  0.28821920  0.44037490  0.94342629  1
  S  S54  1  0.62573825  0.83337523  0.32833225  1
  S  S55  1  0.62573825  0.32833225  0.83337523  1
  S  S56  1  0.97452243  0.39274339  0.63062449  1
  S  S57  1  0.97452243  0.63062449  0.39274339  1
  S  S58  1  0.96695239  0.63359096  0.63359096  1
  S  S59  1  0.61619263  0.34375265  0.56893136  1
  S  S60  1  0.61619263  0.56893136  0.34375265  1
  S  S61  1  0.64987026  0.07841796  0.32448203  1
  S  S62  1  0.64987026  0.32448203  0.07841796  1
  S  S63  1  0.62471892  0.81803103  0.08784513  1
  S  S64  1  0.62471892  0.08784513  0.81803103  1
  S  S65  1  0.62079155  0.57826673  0.81306871  1
  S  S66  1  0.62079155  0.81306871  0.57826673  1
  S  S67  1  0.64508025  0.07687780  0.07687780  1
  Tl  Tl68  1  0.59405984  0.81715091  0.81715091  1
  Tl  Tl69  1  0.04245850  0.88841213  0.88841213  1
  Tl  Tl70  1  0.27980662  0.45103067  0.45103067  1
  Tl  Tl71  1  0.62062113  0.58087417  0.58087417  1
  Tl  Tl72  1  0.38934446  0.17910722  0.17910722  1
  Tl  Tl73  1  0.96034493  0.11004034  0.11004034  1
