# generated using pymatgen
data_Cr8Co7
_symmetry_space_group_name_H-M   'P 1'
_cell_length_a   4.51085271
_cell_length_b   8.58433910
_cell_length_c   8.58433910
_cell_angle_alpha   90.00000000
_cell_angle_beta   90.00000000
_cell_angle_gamma   90.00000000
_symmetry_Int_Tables_number   1
_chemical_formula_structural   Cr8Co7
_chemical_formula_sum   'Cr16 Co14'
_cell_volume   332.40869575
_cell_formula_units_Z   2
loop_
 _symmetry_equiv_pos_site_id
 _symmetry_equiv_pos_as_xyz
  1  'x, y, z'
loop_
 _atom_site_type_symbol
 _atom_site_label
 _atom_site_symmetry_multiplicity
 _atom_site_fract_x
 _atom_site_fract_y
 _atom_site_fract_z
 _atom_site_occupancy
  Cr  Cr0  1  0.49978190  0.36932820  0.96511113  1
  Cr  Cr1  1  0.49978190  0.63067180  0.03488887  1
  Cr  Cr2  1  0.99978190  0.13067180  0.46511113  1
  Cr  Cr3  1  0.99978190  0.86932820  0.53488887  1
  Cr  Cr4  1  0.49978190  0.96511113  0.36932820  1
  Cr  Cr5  1  0.49978190  0.03488887  0.63067180  1
  Cr  Cr6  1  0.99978190  0.46511113  0.13067180  1
  Cr  Cr7  1  0.99978190  0.53488887  0.86932820  1
  Cr  Cr8  1  0.50013482  0.10003090  0.89996910  1
  Cr  Cr9  1  0.50013482  0.89996910  0.10003090  1
  Cr  Cr10  1  0.00013482  0.39996910  0.39996910  1
  Cr  Cr11  1  0.00013482  0.60003090  0.60003090  1
  Cr  Cr12  1  0.74246823  0.68931500  0.31068500  1
  Cr  Cr13  1  0.74246823  0.31068500  0.68931500  1
  Cr  Cr14  1  0.24246823  0.81068500  0.81068500  1
  Cr  Cr15  1  0.24246823  0.18931500  0.18931500  1
  Co  Co16  1  0.50539282  0.23820369  0.43579794  1
  Co  Co17  1  0.50539282  0.76179631  0.56420206  1
  Co  Co18  1  0.00539282  0.26179631  0.93579794  1
  Co  Co19  1  0.00539282  0.73820369  0.06420206  1
  Co  Co20  1  0.50539282  0.43579794  0.23820369  1
  Co  Co21  1  0.50539282  0.56420206  0.76179631  1
  Co  Co22  1  0.00539282  0.93579794  0.26179631  1
  Co  Co23  1  0.00539282  0.06420206  0.73820369  1
  Co  Co24  1  0.50862533  0.50000000  0.50000000  1
  Co  Co25  1  0.00862533  0.00000000  0.00000000  1
  Co  Co26  1  0.24273485  0.32003476  0.67996524  1
  Co  Co27  1  0.24273485  0.67996524  0.32003476  1
  Co  Co28  1  0.74273485  0.17996524  0.17996524  1
  Co  Co29  1  0.74273485  0.82003476  0.82003476  1
