# generated using pymatgen
data_Hf3P3Pd4
_symmetry_space_group_name_H-M   'P 1'
_cell_length_a   3.80818126
_cell_length_b   10.05877721
_cell_length_c   16.47941851
_cell_angle_alpha   90.00000000
_cell_angle_beta   90.00000000
_cell_angle_gamma   90.00000000
_symmetry_Int_Tables_number   1
_chemical_formula_structural   Hf3P3Pd4
_chemical_formula_sum   'Hf12 P12 Pd16'
_cell_volume   631.25478606
_cell_formula_units_Z   4
loop_
 _symmetry_equiv_pos_site_id
 _symmetry_equiv_pos_as_xyz
  1  'x, y, z'
loop_
 _atom_site_type_symbol
 _atom_site_label
 _atom_site_symmetry_multiplicity
 _atom_site_fract_x
 _atom_site_fract_y
 _atom_site_fract_z
 _atom_site_occupancy
  P  P0  1  0.25000000  0.10984710  0.82317635  1
  P  P1  1  0.75000000  0.89015290  0.17682365  1
  P  P2  1  0.75000000  0.60984710  0.67682365  1
  P  P3  1  0.25000000  0.39015290  0.32317635  1
  P  P4  1  0.25000000  0.96675915  0.61351493  1
  P  P5  1  0.75000000  0.03324085  0.38648507  1
  P  P6  1  0.75000000  0.46675915  0.88648507  1
  P  P7  1  0.25000000  0.53324085  0.11351493  1
  P  P8  1  0.25000000  0.32046417  0.54316345  1
  P  P9  1  0.75000000  0.67953583  0.45683655  1
  P  P10  1  0.75000000  0.82046417  0.95683655  1
  P  P11  1  0.25000000  0.17953583  0.04316345  1
  Pd  Pd12  1  0.25000000  0.31087982  0.17576925  1
  Pd  Pd13  1  0.75000000  0.68912018  0.82423075  1
  Pd  Pd14  1  0.75000000  0.81087982  0.32423075  1
  Pd  Pd15  1  0.25000000  0.18912018  0.67576925  1
  Pd  Pd16  1  0.25000000  0.73171436  0.20575658  1
  Pd  Pd17  1  0.75000000  0.26828564  0.79424342  1
  Pd  Pd18  1  0.75000000  0.23171436  0.29424342  1
  Pd  Pd19  1  0.25000000  0.76828564  0.70575658  1
  Pd  Pd20  1  0.25000000  0.61742395  0.37181308  1
  Pd  Pd21  1  0.75000000  0.38257605  0.62818692  1
  Pd  Pd22  1  0.75000000  0.11742395  0.12818692  1
  Pd  Pd23  1  0.25000000  0.88257605  0.87181308  1
  Pd  Pd24  1  0.25000000  0.18117940  0.41949845  1
  Pd  Pd25  1  0.75000000  0.81882060  0.58050155  1
  Pd  Pd26  1  0.75000000  0.68117940  0.08050155  1
  Pd  Pd27  1  0.25000000  0.31882060  0.91949845  1
  Hf  Hf28  1  0.25000000  0.91205408  0.06110522  1
  Hf  Hf29  1  0.75000000  0.08794592  0.93889478  1
  Hf  Hf30  1  0.75000000  0.41205408  0.43889478  1
  Hf  Hf31  1  0.25000000  0.58794592  0.56110522  1
  Hf  Hf32  1  0.25000000  0.61814970  0.95222970  1
  Hf  Hf33  1  0.75000000  0.38185030  0.04777030  1
  Hf  Hf34  1  0.75000000  0.11814970  0.54777030  1
  Hf  Hf35  1  0.25000000  0.88185030  0.45222970  1
  Hf  Hf36  1  0.25000000  0.47879898  0.76039725  1
  Hf  Hf37  1  0.75000000  0.52120102  0.23960275  1
  Hf  Hf38  1  0.75000000  0.97879898  0.73960275  1
  Hf  Hf39  1  0.25000000  0.02120102  0.26039725  1
