# generated using pymatgen
data_TlBSe3
_symmetry_space_group_name_H-M   'P 1'
_cell_length_a   6.23936051
_cell_length_b   7.31631855
_cell_length_c   7.27001172
_cell_angle_alpha   109.45046255
_cell_angle_beta   103.27038465
_cell_angle_gamma   113.36660485
_symmetry_Int_Tables_number   1
_chemical_formula_structural   TlBSe3
_chemical_formula_sum   'Tl2 B2 Se6'
_cell_volume   260.99640635
_cell_formula_units_Z   2
loop_
 _symmetry_equiv_pos_site_id
 _symmetry_equiv_pos_as_xyz
  1  'x, y, z'
loop_
 _atom_site_type_symbol
 _atom_site_label
 _atom_site_symmetry_multiplicity
 _atom_site_fract_x
 _atom_site_fract_y
 _atom_site_fract_z
 _atom_site_occupancy
  B  B0  1  0.34912968  0.77349968  0.04500835  1
  B  B1  1  0.80412133  0.72849133  0.95499165  1
  Se  Se2  1  0.58890452  0.69964475  0.67299084  1
  Se  Se3  1  0.41591368  0.02665392  0.32700916  1
  Se  Se4  1  0.09171707  0.07163324  0.12916670  1
  Se  Se5  1  0.46255037  0.94246654  0.87083330  1
  Se  Se6  1  0.96328533  0.52820926  0.89835442  1
  Se  Se7  1  0.56493091  0.62985484  0.10164558  1
  Tl  Tl8  1  0.93000175  0.44865141  0.33967638  1
  Tl  Tl9  1  0.09032537  0.10897503  0.66032362  1
