# generated using pymatgen
data_LaCu4
_symmetry_space_group_name_H-M   'P 1'
_cell_length_a   8.89007753
_cell_length_b   8.89007765
_cell_length_c   11.46436079
_cell_angle_alpha   112.81312397
_cell_angle_beta   112.81312432
_cell_angle_gamma   89.99999600
_symmetry_Int_Tables_number   1
_chemical_formula_structural   LaCu4
_chemical_formula_sum   'La9 Cu36'
_cell_volume   757.71150707
_cell_formula_units_Z   9
loop_
 _symmetry_equiv_pos_site_id
 _symmetry_equiv_pos_as_xyz
  1  'x, y, z'
loop_
 _atom_site_type_symbol
 _atom_site_label
 _atom_site_symmetry_multiplicity
 _atom_site_fract_x
 _atom_site_fract_y
 _atom_site_fract_z
 _atom_site_occupancy
  Cu  Cu0  1  0.24593858  0.24593858  0.00000000  1
  Cu  Cu1  1  0.24593858  0.75406142  0.00000000  1
  Cu  Cu2  1  0.75406142  0.24593858  0.00000000  1
  Cu  Cu3  1  0.75406142  0.75406142  0.00000000  1
  Cu  Cu4  1  0.55295570  0.20904689  0.41809378  1
  Cu  Cu5  1  0.79095311  0.44704430  0.58190622  1
  Cu  Cu6  1  0.79095311  0.13486191  0.58190622  1
  Cu  Cu7  1  0.86513809  0.20904689  0.41809378  1
  Cu  Cu8  1  0.15124141  0.79419074  0.58838148  1
  Cu  Cu9  1  0.20580926  0.84875859  0.41161852  1
  Cu  Cu10  1  0.20580926  0.56285993  0.41161852  1
  Cu  Cu11  1  0.43714007  0.79419074  0.58838148  1
  Cu  Cu12  1  0.92296950  0.66878535  0.33757070  1
  Cu  Cu13  1  0.33121465  0.07703050  0.66242930  1
  Cu  Cu14  1  0.33121465  0.58539880  0.66242930  1
  Cu  Cu15  1  0.41460120  0.66878535  0.33757070  1
  Cu  Cu16  1  0.69780791  0.54144535  0.08289071  1
  Cu  Cu17  1  0.45855465  0.30219209  0.91710929  1
  Cu  Cu18  1  0.45855465  0.61491721  0.91710929  1
  Cu  Cu19  1  0.38508279  0.54144535  0.08289071  1
  Cu  Cu20  1  0.36536382  0.07926145  0.15852290  1
  Cu  Cu21  1  0.92073855  0.63463618  0.84147710  1
  Cu  Cu22  1  0.92073855  0.20684092  0.84147710  1
  Cu  Cu23  1  0.79315908  0.07926145  0.15852290  1
  Cu  Cu24  1  0.00438557  0.50438557  0.50000000  1
  Cu  Cu25  1  0.00438557  0.99561443  0.50000000  1
  Cu  Cu26  1  0.49561443  0.50438557  0.50000000  1
  Cu  Cu27  1  0.49561443  0.99561443  0.50000000  1
  Cu  Cu28  1  0.28226840  0.35490140  0.24217977  1
  Cu  Cu29  1  0.11272164  0.71773160  0.75782023  1
  Cu  Cu30  1  0.64509860  0.04008863  0.75782023  1
  Cu  Cu31  1  0.11272164  0.04008863  0.75782023  1
  Cu  Cu32  1  0.64509860  0.71773160  0.75782023  1
  Cu  Cu33  1  0.95991137  0.88727836  0.24217977  1
  Cu  Cu34  1  0.95991137  0.35490140  0.24217977  1
  Cu  Cu35  1  0.28226840  0.88727836  0.24217977  1
  La  La36  1  0.00000000  0.00000000  0.00000000  1
  La  La37  1  0.20675563  0.20675563  0.41351126  1
  La  La38  1  0.79324437  0.79324437  0.58648874  1
  La  La39  1  0.05182042  0.55182042  0.10364084  1
  La  La40  1  0.44817958  0.94817958  0.89635916  1
  La  La41  1  0.61841361  0.37413127  0.74826255  1
  La  La42  1  0.62586873  0.38158639  0.25173745  1
  La  La43  1  0.62586873  0.87015106  0.25173745  1
  La  La44  1  0.12984894  0.37413127  0.74826255  1
