# generated using pymatgen
data_Ga3Ni13Ge6
_symmetry_space_group_name_H-M   'P 1'
_cell_length_a   7.89462549
_cell_length_b   7.89462586
_cell_length_c   15.11128266
_cell_angle_alpha   90.00000000
_cell_angle_beta   90.00000000
_cell_angle_gamma   119.99999850
_symmetry_Int_Tables_number   1
_chemical_formula_structural   Ga3Ni13Ge6
_chemical_formula_sum   'Ga9 Ni39 Ge18'
_cell_volume   815.63349586
_cell_formula_units_Z   3
loop_
 _symmetry_equiv_pos_site_id
 _symmetry_equiv_pos_as_xyz
  1  'x, y, z'
loop_
 _atom_site_type_symbol
 _atom_site_label
 _atom_site_symmetry_multiplicity
 _atom_site_fract_x
 _atom_site_fract_y
 _atom_site_fract_z
 _atom_site_occupancy
  Ni  Ni0  1  0.00827977  0.00000000  0.33333333  1
  Ni  Ni1  1  1.00000000  0.00827977  0.66666667  1
  Ni  Ni2  1  0.99172023  0.99172023  0.00000000  1
  Ni  Ni3  1  0.49175813  0.00000000  0.33333333  1
  Ni  Ni4  1  0.00000000  0.49175813  0.66666667  1
  Ni  Ni5  1  0.50824187  0.50824187  0.00000000  1
  Ni  Ni6  1  0.99823552  0.00000000  0.83333333  1
  Ni  Ni7  1  0.00000000  0.99823552  0.16666667  1
  Ni  Ni8  1  0.00176448  0.00176448  0.50000000  1
  Ni  Ni9  1  0.50234488  0.99671915  0.99828098  1
  Ni  Ni10  1  0.00328085  0.50562573  0.33161431  1
  Ni  Ni11  1  0.49437427  0.49765512  0.66494765  1
  Ni  Ni12  1  0.50562573  0.00328085  0.66838569  1
  Ni  Ni13  1  0.49765512  0.49437427  0.33505235  1
  Ni  Ni14  1  0.99671915  0.50234488  0.00171902  1
  Ni  Ni15  1  0.49675332  0.00222879  0.16631328  1
  Ni  Ni16  1  0.99777121  0.49452453  0.49964661  1
  Ni  Ni17  1  0.50547547  0.50324668  0.83297995  1
  Ni  Ni18  1  0.49452453  0.99777121  0.50035339  1
  Ni  Ni19  1  0.50324668  0.50547547  0.16702005  1
  Ni  Ni20  1  0.00222879  0.49675332  0.83368672  1
  Ni  Ni21  1  0.67958362  0.34215500  0.24626975  1
  Ni  Ni22  1  0.65784500  0.33742863  0.57960308  1
  Ni  Ni23  1  0.66257137  0.32041638  0.91293641  1
  Ni  Ni24  1  0.33742863  0.65784500  0.42039692  1
  Ni  Ni25  1  0.32041638  0.66257137  0.08706359  1
  Ni  Ni26  1  0.34215500  0.67958362  0.75373025  1
  Ni  Ni27  1  0.34097520  0.18170023  0.42640654  1
  Ni  Ni28  1  0.81829977  0.15927497  0.75973987  1
  Ni  Ni29  1  0.84072503  0.65902480  0.09307321  1
  Ni  Ni30  1  0.15927497  0.81829977  0.24026013  1
  Ni  Ni31  1  0.65902480  0.84072503  0.90692679  1
  Ni  Ni32  1  0.18170023  0.34097520  0.57359346  1
  Ni  Ni33  1  0.34065975  0.16481987  0.75098903  1
  Ni  Ni34  1  0.83518013  0.17583987  0.08432236  1
  Ni  Ni35  1  0.82416013  0.65934025  0.41765569  1
  Ni  Ni36  1  0.17583987  0.83518013  0.91567764  1
  Ni  Ni37  1  0.65934025  0.82416013  0.58234431  1
  Ni  Ni38  1  0.16481987  0.34065975  0.24901097  1
  Ga  Ga39  1  0.48995690  0.00000000  0.83333333  1
  Ga  Ga40  1  0.00000000  0.48995690  0.16666667  1
  Ga  Ga41  1  0.51004310  0.51004310  0.50000000  1
  Ga  Ga42  1  0.30550256  0.19414887  0.92005842  1
  Ga  Ga43  1  0.80585113  0.11135369  0.25339175  1
  Ga  Ga44  1  0.88864631  0.69449744  0.58672508  1
  Ga  Ga45  1  0.11135369  0.80585113  0.74660825  1
  Ga  Ga46  1  0.69449744  0.88864631  0.41327492  1
  Ga  Ga47  1  0.19414887  0.30550256  0.07994158  1
  Ge  Ge48  1  0.61321283  0.30628976  0.07772387  1
  Ge  Ge49  1  0.69371024  0.30692307  0.41105720  1
  Ge  Ge50  1  0.69307693  0.38678717  0.74439054  1
  Ge  Ge51  1  0.30692307  0.69371024  0.58894280  1
  Ge  Ge52  1  0.38678717  0.69307693  0.25560946  1
  Ge  Ge53  1  0.30628976  0.61321283  0.92227613  1
  Ge  Ge54  1  0.33387397  0.16713261  0.25214663  1
  Ge  Ge55  1  0.83286739  0.16674136  0.58547996  1
  Ge  Ge56  1  0.83325864  0.66612603  0.91881330  1
  Ge  Ge57  1  0.16674136  0.83286739  0.41452004  1
  Ge  Ge58  1  0.66612603  0.83325864  0.08118670  1
  Ge  Ge59  1  0.16713261  0.33387397  0.74785337  1
  Ge  Ge60  1  0.30711779  0.11372138  0.58948440  1
  Ge  Ge61  1  0.88627862  0.19339641  0.92281773  1
  Ge  Ge62  1  0.80660359  0.69288221  0.25615107  1
  Ge  Ge63  1  0.19339641  0.88627862  0.07718227  1
  Ge  Ge64  1  0.69288221  0.80660359  0.74384893  1
  Ge  Ge65  1  0.11372138  0.30711779  0.41051560  1
