# generated using pymatgen
data_Si5Pt6
_symmetry_space_group_name_H-M   'P 1'
_cell_length_a   3.54992161
_cell_length_b   6.22869051
_cell_length_c   15.59068021
_cell_angle_alpha   93.74528316
_cell_angle_beta   90.00000000
_cell_angle_gamma   90.00000000
_symmetry_Int_Tables_number   1
_chemical_formula_structural   Si5Pt6
_chemical_formula_sum   'Si10 Pt12'
_cell_volume   343.99494927
_cell_formula_units_Z   2
loop_
 _symmetry_equiv_pos_site_id
 _symmetry_equiv_pos_as_xyz
  1  'x, y, z'
loop_
 _atom_site_type_symbol
 _atom_site_label
 _atom_site_symmetry_multiplicity
 _atom_site_fract_x
 _atom_site_fract_y
 _atom_site_fract_z
 _atom_site_occupancy
  Si  Si0  1  0.25000000  0.94678711  0.11919581  1
  Si  Si1  1  0.75000000  0.05321289  0.88080419  1
  Si  Si2  1  0.75000000  0.43481951  0.06464796  1
  Si  Si3  1  0.25000000  0.56518049  0.93535204  1
  Si  Si4  1  0.75000000  0.76787517  0.33453874  1
  Si  Si5  1  0.25000000  0.23212483  0.66546126  1
  Si  Si6  1  0.75000000  0.30959027  0.27999566  1
  Si  Si7  1  0.25000000  0.69040973  0.72000434  1
  Si  Si8  1  0.25000000  0.22361383  0.42742912  1
  Si  Si9  1  0.75000000  0.77638617  0.57257088  1
  Pt  Pt10  1  0.75000000  0.80220194  0.00168292  1
  Pt  Pt11  1  0.25000000  0.19779806  0.99831708  1
  Pt  Pt12  1  0.75000000  0.72059337  0.17836058  1
  Pt  Pt13  1  0.25000000  0.27940663  0.82163942  1
  Pt  Pt14  1  0.25000000  0.34348723  0.17436159  1
  Pt  Pt15  1  0.75000000  0.65651277  0.82563841  1
  Pt  Pt16  1  0.25000000  0.00974340  0.28116328  1
  Pt  Pt17  1  0.75000000  0.99025660  0.71883672  1
  Pt  Pt18  1  0.25000000  0.85239513  0.44741642  1
  Pt  Pt19  1  0.75000000  0.14760487  0.55258358  1
  Pt  Pt20  1  0.75000000  0.47295900  0.42308879  1
  Pt  Pt21  1  0.25000000  0.52704100  0.57691121  1
