# generated using pymatgen
data_Bi3Pd5
_symmetry_space_group_name_H-M   'P 1'
_cell_length_a   4.26102690
_cell_length_b   4.25871892
_cell_length_c   11.18807299
_cell_angle_alpha   90.00000000
_cell_angle_beta   90.00000000
_cell_angle_gamma   60.01791600
_symmetry_Int_Tables_number   1
_chemical_formula_structural   Bi3Pd5
_chemical_formula_sum   'Bi3 Pd5'
_cell_volume   175.85614651
_cell_formula_units_Z   1
loop_
 _symmetry_equiv_pos_site_id
 _symmetry_equiv_pos_as_xyz
  1  'x, y, z'
loop_
 _atom_site_type_symbol
 _atom_site_label
 _atom_site_symmetry_multiplicity
 _atom_site_fract_x
 _atom_site_fract_y
 _atom_site_fract_z
 _atom_site_occupancy
  Bi  Bi0  1  0.33350568  0.33324716  0.87500000  1
  Bi  Bi1  1  0.66648681  0.66675659  0.14950109  1
  Bi  Bi2  1  0.66648681  0.66675659  0.60049891  1
  Pd  Pd3  1  0.00001213  0.99999393  0.25714168  1
  Pd  Pd4  1  0.00000149  0.99999926  0.74578234  1
  Pd  Pd5  1  0.00000149  0.99999926  0.00421766  1
  Pd  Pd6  1  0.00001213  0.99999393  0.49285832  1
  Pd  Pd7  1  0.33349345  0.33325327  0.37500000  1
