# generated using pymatgen
data_LiMo2(PO4)3
_symmetry_space_group_name_H-M   'P 1'
_cell_length_a   8.62355801
_cell_length_b   8.67469800
_cell_length_c   9.12362721
_cell_angle_alpha   118.74875643
_cell_angle_beta   90.73201315
_cell_angle_gamma   119.22039726
_symmetry_Int_Tables_number   1
_chemical_formula_structural   LiMo2(PO4)3
_chemical_formula_sum   'Li2 Mo4 P6 O24'
_cell_volume   494.14557857
_cell_formula_units_Z   2
loop_
 _symmetry_equiv_pos_site_id
 _symmetry_equiv_pos_as_xyz
  1  'x, y, z'
loop_
 _atom_site_type_symbol
 _atom_site_label
 _atom_site_symmetry_multiplicity
 _atom_site_fract_x
 _atom_site_fract_y
 _atom_site_fract_z
 _atom_site_occupancy
  Li  Li0  1  0.23760597  0.77573086  0.58854084  1
  Li  Li1  1  0.76239435  0.22426947  0.41145857  1
  O  O2  1  0.43916640  0.74096503  0.26883525  1
  O  O3  1  0.73997878  0.10897373  0.56517455  1
  O  O4  1  0.81445578  0.28854062  0.90169819  1
  O  O5  1  0.89796750  0.49318222  0.75511116  1
  O  O6  1  0.10020934  0.86499805  0.74562001  1
  O  O7  1  0.26002075  0.89102502  0.43482525  1
  O  O8  1  0.18554454  0.71145973  0.09830234  1
  O  O9  1  0.10203283  0.50681813  0.24488936  1
  O  O10  1  0.27933484  0.69417772  0.77918361  1
  O  O11  1  0.03010529  0.13179123  0.94093285  1
  O  O12  1  0.89979098  0.13500230  0.25438052  1
  O  O13  1  0.46811918  0.76099844  0.59743585  1
  O  O14  1  0.18634878  0.17483418  0.72038895  1
  O  O15  1  0.15599324  0.13253698  0.38160581  1
  O  O16  1  0.63326940  0.90997341  0.91687521  1
  O  O17  1  0.46027369  0.52203625  0.69040600  1
  O  O18  1  0.72066548  0.30582263  0.22081691  1
  O  O19  1  0.36673092  0.09002694  0.08312531  1
  O  O20  1  0.84400513  0.86746177  0.61839286  1
  O  O21  1  0.81365075  0.82516458  0.27961085  1
  O  O22  1  0.53188114  0.23900191  0.40256467  1
  O  O23  1  0.56083391  0.25903531  0.73116416  1
  O  O24  1  0.96989503  0.86820912  0.05906768  1
  O  O25  1  0.53972663  0.47796410  0.30959453  1
  P  P26  1  0.75370296  0.28698889  0.74485823  1
  P  P27  1  0.95692190  0.98692518  0.24585043  1
  P  P28  1  0.53531486  0.27817284  0.25259096  1
  P  P29  1  0.46468546  0.72182751  0.74740957  1
  P  P30  1  0.24629736  0.71301146  0.25514230  1
  P  P31  1  0.04307842  0.01307517  0.75415009  1
  Mo  Mo32  1  0.13217750  0.79020004  0.93126466  1
  Mo  Mo33  1  0.64062326  0.78936000  0.43568237  1
  Mo  Mo34  1  0.35937706  0.21064035  0.56431815  1
  Mo  Mo35  1  0.86782166  0.20980030  0.06873474  1
