# generated using pymatgen
data_NdO2
_symmetry_space_group_name_H-M   'P 1'
_cell_length_a   3.93735438
_cell_length_b   3.93735438
_cell_length_c   6.55708076
_cell_angle_alpha   83.26261593
_cell_angle_beta   83.26261594
_cell_angle_gamma   61.95949782
_symmetry_Int_Tables_number   1
_chemical_formula_structural   NdO2
_chemical_formula_sum   'Nd2 O4'
_cell_volume   88.87640677
_cell_formula_units_Z   2
loop_
 _symmetry_equiv_pos_site_id
 _symmetry_equiv_pos_as_xyz
  1  'x, y, z'
loop_
 _atom_site_type_symbol
 _atom_site_label
 _atom_site_symmetry_multiplicity
 _atom_site_fract_x
 _atom_site_fract_y
 _atom_site_fract_z
 _atom_site_occupancy
  O  O0  1  0.84768656  0.84768656  0.85870280  1
  O  O1  1  0.15231344  0.15231344  0.14129720  1
  O  O2  1  0.57890048  0.57890048  0.57114872  1
  O  O3  1  0.42109952  0.42109952  0.42885128  1
  Nd  Nd4  1  0.80176676  0.80176676  0.23040797  1
  Nd  Nd5  1  0.19823324  0.19823324  0.76959203  1
