# generated using pymatgen
data_Y(PO3)3
_symmetry_space_group_name_H-M   'P 1'
_cell_length_a   7.09810311
_cell_length_b   9.80218231
_cell_length_c   11.14837132
_cell_angle_alpha   90.00000000
_cell_angle_beta   92.07682083
_cell_angle_gamma   90.00000000
_symmetry_Int_Tables_number   1
_chemical_formula_structural   Y(PO3)3
_chemical_formula_sum   'Y4 P12 O36'
_cell_volume   775.15961576
_cell_formula_units_Z   4
loop_
 _symmetry_equiv_pos_site_id
 _symmetry_equiv_pos_as_xyz
  1  'x, y, z'
loop_
 _atom_site_type_symbol
 _atom_site_label
 _atom_site_symmetry_multiplicity
 _atom_site_fract_x
 _atom_site_fract_y
 _atom_site_fract_z
 _atom_site_occupancy
  O  O0  1  0.65352460  0.62523766  0.19651493  1
  O  O1  1  0.34647540  0.12523766  0.80348507  1
  O  O2  1  0.34647540  0.37476234  0.80348507  1
  O  O3  1  0.65352460  0.87476234  0.19651493  1
  O  O4  1  0.20411169  0.37194319  0.27775781  1
  O  O5  1  0.79588831  0.87194319  0.72224219  1
  O  O6  1  0.79588831  0.62805681  0.72224219  1
  O  O7  1  0.20411169  0.12805681  0.27775781  1
  O  O8  1  0.87367080  0.75000000  0.05518609  1
  O  O9  1  0.12632920  0.25000000  0.94481391  1
  O  O10  1  0.99267527  0.25000000  0.42441391  1
  O  O11  1  0.00732473  0.75000000  0.57558609  1
  O  O12  1  0.51111490  0.75000000  0.01874465  1
  O  O13  1  0.48888510  0.25000000  0.98125535  1
  O  O14  1  0.35425798  0.25000000  0.45953738  1
  O  O15  1  0.64574202  0.75000000  0.54046262  1
  O  O16  1  0.21900618  0.91078887  0.16375814  1
  O  O17  1  0.78099382  0.41078887  0.83624186  1
  O  O18  1  0.78099382  0.08921113  0.83624186  1
  O  O19  1  0.21900618  0.58921113  0.16375814  1
  O  O20  1  0.82611879  0.08512970  0.12162283  1
  O  O21  1  0.17388121  0.58512970  0.87837717  1
  O  O22  1  0.17388121  0.91487030  0.87837717  1
  O  O23  1  0.82611879  0.41487030  0.12162283  1
  O  O24  1  0.26949232  0.90809258  0.39434327  1
  O  O25  1  0.73050768  0.40809258  0.60565673  1
  O  O26  1  0.73050768  0.09190742  0.60565673  1
  O  O27  1  0.26949232  0.59190742  0.39434327  1
  O  O28  1  0.94973135  0.94995844  0.30448596  1
  O  O29  1  0.05026865  0.44995844  0.69551404  1
  O  O30  1  0.05026865  0.05004156  0.69551404  1
  O  O31  1  0.94973135  0.55004156  0.30448596  1
  O  O32  1  0.65176811  0.08544565  0.32032112  1
  O  O33  1  0.34823189  0.58544565  0.67967888  1
  O  O34  1  0.34823189  0.91455435  0.67967888  1
  O  O35  1  0.65176811  0.41455435  0.32032112  1
  P  P36  1  0.32059270  0.25000000  0.89611141  1
  P  P37  1  0.67940730  0.75000000  0.10388859  1
  P  P38  1  0.81427529  0.75000000  0.62606164  1
  P  P39  1  0.18572471  0.25000000  0.37393836  1
  P  P40  1  0.17263649  0.53370256  0.28417515  1
  P  P41  1  0.82736351  0.03370256  0.71582485  1
  P  P42  1  0.82736351  0.46629744  0.71582485  1
  P  P43  1  0.17263649  0.96629744  0.28417515  1
  P  P44  1  0.76732666  0.48955331  0.23191421  1
  P  P45  1  0.23267334  0.98955331  0.76808579  1
  P  P46  1  0.23267334  0.51044669  0.76808579  1
  P  P47  1  0.76732666  0.01044669  0.23191421  1
  Y  Y48  1  0.67450287  0.25000000  0.46273308  1
  Y  Y49  1  0.32549713  0.75000000  0.53726692  1
  Y  Y50  1  0.18933618  0.75000000  0.01948109  1
  Y  Y51  1  0.81066382  0.25000000  0.98051891  1
