# generated using pymatgen
data_Li3Mn3(PO4)4
_symmetry_space_group_name_H-M   'P 1'
_cell_length_a   7.71108848
_cell_length_b   8.20532814
_cell_length_c   10.05413936
_cell_angle_alpha   90.00000000
_cell_angle_beta   92.62253599
_cell_angle_gamma   90.00000000
_symmetry_Int_Tables_number   1
_chemical_formula_structural   Li3Mn3(PO4)4
_chemical_formula_sum   'Li6 Mn6 P8 O32'
_cell_volume   635.47935179
_cell_formula_units_Z   2
loop_
 _symmetry_equiv_pos_site_id
 _symmetry_equiv_pos_as_xyz
  1  'x, y, z'
loop_
 _atom_site_type_symbol
 _atom_site_label
 _atom_site_symmetry_multiplicity
 _atom_site_fract_x
 _atom_site_fract_y
 _atom_site_fract_z
 _atom_site_occupancy
  Li  Li0  1  0.08363165  0.36982311  0.29990560  1
  Li  Li1  1  0.41636810  0.86982312  0.95009431  1
  Li  Li2  1  0.59837656  0.14171306  0.54905307  1
  Li  Li3  1  0.58852521  0.13556194  0.04795535  1
  Li  Li4  1  0.90162270  0.64171306  0.70094759  1
  Li  Li5  1  0.91147484  0.63556195  0.20204511  1
  O  O6  1  0.25772905  0.85598103  0.77327688  1
  O  O7  1  0.95152580  0.85958114  0.58843510  1
  O  O8  1  0.88242696  0.81601034  0.34316499  1
  O  O9  1  0.84381707  0.43285693  0.27258201  1
  O  O10  1  0.90220490  0.81415412  0.84779149  1
  O  O11  1  0.85243264  0.42284625  0.76213433  1
  O  O12  1  0.04757301  0.15075228  0.90345998  1
  O  O13  1  0.03756053  0.12954352  0.41043853  1
  O  O14  1  0.11168455  0.17855683  0.65429568  1
  O  O15  1  0.15728878  0.56368539  0.73779053  1
  O  O16  1  0.09558681  0.19204280  0.15446896  1
  O  O17  1  0.15986719  0.56747617  0.22413962  1
  O  O18  1  0.95567413  0.87834655  0.09080993  1
  O  O19  1  0.24292812  0.35990714  0.97355503  1
  O  O20  1  0.25707292  0.85990715  0.27644492  1
  O  O21  1  0.24227199  0.35598103  0.47672307  1
  O  O22  1  0.34271096  0.06368538  0.51220937  1
  O  O23  1  0.38831649  0.67855684  0.59570427  1
  O  O24  1  0.34013335  0.06747616  0.02586009  1
  O  O25  1  0.46244051  0.62954353  0.83956142  1
  O  O26  1  0.76839364  0.64252665  0.02289558  1
  O  O27  1  0.45242674  0.65075229  0.34653993  1
  O  O28  1  0.54847347  0.35958113  0.66156456  1
  O  O29  1  0.54432592  0.37834654  0.15919054  1
  O  O30  1  0.61757231  0.31601033  0.90683467  1
  O  O31  1  0.65618349  0.93285694  0.97741870  1
  O  O32  1  0.59779566  0.31415412  0.40220922  1
  O  O33  1  0.64756792  0.92284626  0.48786538  1
  O  O34  1  0.75304942  0.63268531  0.52170169  1
  O  O35  1  0.74694984  0.13268530  0.72829797  1
  O  O36  1  0.73160641  0.14252665  0.22710389  1
  O  O37  1  0.40441243  0.69204281  0.09553070  1
  P  P38  1  0.80690460  0.80562190  0.48415320  1
  P  P39  1  0.81038385  0.82031045  0.98551077  1
  P  P40  1  0.68961671  0.32031045  0.26448894  1
  P  P41  1  0.69309597  0.30562189  0.76584651  1
  P  P42  1  0.30904529  0.68324528  0.22638064  1
  P  P43  1  0.31505328  0.68374872  0.74006480  1
  P  P44  1  0.18494647  0.18374871  0.50993510  1
  P  P45  1  0.19095394  0.18324527  0.02362003  1
  Mn  Mn46  1  0.09227563  0.36101131  0.81225540  1
  Mn  Mn47  1  0.40772411  0.86101132  0.43774450  1
  Mn  Mn48  1  0.50415145  0.49229336  0.50228971  1
  Mn  Mn49  1  0.52642267  0.50971740  0.00173613  1
  Mn  Mn50  1  0.99584782  0.99229337  0.74771094  1
  Mn  Mn51  1  0.97357738  0.00971739  0.24826434  1
