# generated using pymatgen
data_Li4Co(PO4)2
_symmetry_space_group_name_H-M   'P 1'
_cell_length_a   8.20215462
_cell_length_b   10.42871365
_cell_length_c   8.24200216
_cell_angle_alpha   90.00000000
_cell_angle_beta   104.76564705
_cell_angle_gamma   90.00000000
_symmetry_Int_Tables_number   1
_chemical_formula_structural   Li4Co(PO4)2
_chemical_formula_sum   'Li16 Co4 P8 O32'
_cell_volume   681.72195628
_cell_formula_units_Z   4
loop_
 _symmetry_equiv_pos_site_id
 _symmetry_equiv_pos_as_xyz
  1  'x, y, z'
loop_
 _atom_site_type_symbol
 _atom_site_label
 _atom_site_symmetry_multiplicity
 _atom_site_fract_x
 _atom_site_fract_y
 _atom_site_fract_z
 _atom_site_occupancy
  Li  Li0  1  0.09986638  0.66381192  0.60219927  1
  Li  Li1  1  0.90013405  0.33618775  0.39780031  1
  Li  Li2  1  0.84242280  0.83741030  0.34516776  1
  Li  Li3  1  0.77249680  0.57273222  0.52228187  1
  Li  Li4  1  0.84975757  0.65171800  0.85097676  1
  Li  Li5  1  0.15757763  0.16258937  0.65483181  1
  Li  Li6  1  0.22750363  0.42726841  0.47771771  1
  Li  Li7  1  0.15024286  0.34828167  0.14902281  1
  Li  Li8  1  0.34975661  0.84828198  0.85097717  1
  Li  Li9  1  0.27249710  0.92726776  0.52228260  1
  Li  Li10  1  0.34242184  0.66258968  0.34516818  1
  Li  Li11  1  0.40013309  0.16381257  0.39780072  1
  Li  Li12  1  0.59986608  0.83618806  0.60219976  1
  Li  Li13  1  0.65757733  0.33740999  0.65483230  1
  Li  Li14  1  0.72750333  0.07273191  0.47771819  1
  Li  Li15  1  0.65024256  0.15171769  0.14902330  1
  O  O16  1  0.02139644  0.45316614  0.27376705  1
  O  O17  1  0.81504955  0.60452318  0.07204117  1
  O  O18  1  0.91183632  0.65477438  0.38330159  1
  O  O19  1  0.99020475  0.94743258  0.24508856  1
  O  O20  1  0.00979568  0.05256709  0.75491102  1
  O  O21  1  0.08816285  0.34522529  0.61669888  1
  O  O22  1  0.18494962  0.39547649  0.92795809  1
  O  O23  1  0.88442731  0.32955021  0.80398108  1
  O  O24  1  0.12907572  0.84932685  0.66129643  1
  O  O25  1  0.05893996  0.16728503  0.13770347  1
  O  O26  1  0.11557186  0.67045042  0.19601939  1
  O  O27  1  0.87092470  0.15067282  0.33870436  1
  O  O28  1  0.31348971  0.60092202  0.56210056  1
  O  O29  1  0.38442761  0.17045010  0.80398059  1
  O  O30  1  0.44105950  0.66728534  0.86229652  1
  O  O31  1  0.37092500  0.34932750  0.33870387  1
  O  O32  1  0.47860302  0.95316550  0.72623294  1
  O  O33  1  0.31504985  0.89547680  0.07204190  1
  O  O34  1  0.41183662  0.84522560  0.38330110  1
  O  O35  1  0.50979538  0.44743226  0.75491151  1
  O  O36  1  0.49020505  0.55256741  0.24508929  1
  O  O37  1  0.58816381  0.15477407  0.61669847  1
  O  O38  1  0.68495058  0.10452383  0.92795890  1
  O  O39  1  0.52139614  0.04683417  0.27376632  1
  O  O40  1  0.62907542  0.65067313  0.66129570  1
  O  O41  1  0.55893966  0.33271529  0.13770274  1
  O  O42  1  0.61557282  0.82954957  0.19601898  1
  O  O43  1  0.68651071  0.39907861  0.43789902  1
  O  O44  1  0.81348942  0.89907796  0.56210105  1
  O  O45  1  0.97860399  0.54683449  0.72623375  1
  O  O46  1  0.94106046  0.83271464  0.86229732  1
  O  O47  1  0.18651101  0.10092171  0.43789853  1
  P  P48  1  0.53459804  0.09351728  0.76763513  1
  P  P49  1  0.46540238  0.90648335  0.23236445  1
  P  P50  1  0.52580709  0.40788141  0.28996918  1
  P  P51  1  0.97419304  0.90788172  0.71003089  1
  P  P52  1  0.03459834  0.40648303  0.76763586  1
  P  P53  1  0.02580739  0.09211891  0.28996869  1
  P  P54  1  0.47419334  0.59211826  0.71003162  1
  P  P55  1  0.96540208  0.59351664  0.23236494  1
  Co  Co56  1  0.91100925  0.15599322  0.90639559  1
  Co  Co57  1  0.58899087  0.65599257  0.09360448  1
  Co  Co58  1  0.41100829  0.34400710  0.90639478  1
  Co  Co59  1  0.08899117  0.84400741  0.09360521  1
