# generated using pymatgen
data_Dy3GaO6
_symmetry_space_group_name_H-M   'P 1'
_cell_length_a   5.44631305
_cell_length_b   7.14296570
_cell_length_c   7.14296570
_cell_angle_alpha   102.84988281
_cell_angle_beta   90.00000000
_cell_angle_gamma   90.00000000
_symmetry_Int_Tables_number   1
_chemical_formula_structural   Dy3GaO6
_chemical_formula_sum   'Dy6 Ga2 O12'
_cell_volume   270.92232286
_cell_formula_units_Z   2
loop_
 _symmetry_equiv_pos_site_id
 _symmetry_equiv_pos_as_xyz
  1  'x, y, z'
loop_
 _atom_site_type_symbol
 _atom_site_label
 _atom_site_symmetry_multiplicity
 _atom_site_fract_x
 _atom_site_fract_y
 _atom_site_fract_z
 _atom_site_occupancy
  O  O0  1  0.83732466  0.78440004  0.21559996  1
  O  O1  1  0.33732466  0.21559996  0.78440004  1
  O  O2  1  0.35775470  0.96142463  0.03857537  1
  O  O3  1  0.85775470  0.03857537  0.96142463  1
  O  O4  1  0.30271539  0.32375088  0.35598451  1
  O  O5  1  0.80271539  0.67624912  0.64401549  1
  O  O6  1  0.30271539  0.64401549  0.67624912  1
  O  O7  1  0.80271539  0.35598451  0.32375088  1
  O  O8  1  0.82091171  0.42202757  0.89428259  1
  O  O9  1  0.32091171  0.57797243  0.10571741  1
  O  O10  1  0.82091171  0.10571741  0.57797243  1
  O  O11  1  0.32091171  0.89428259  0.42202757  1
  Ga  Ga12  1  0.49981618  0.80701211  0.19298789  1
  Ga  Ga13  1  -0.00018382  0.19298789  0.80701211  1
  Dy  Dy14  1  0.07755092  0.60192753  0.39807247  1
  Dy  Dy15  1  0.57755092  0.39807247  0.60192753  1
  Dy  Dy16  1  0.03021466  0.08821198  0.29896522  1
  Dy  Dy17  1  0.53021466  0.91178802  0.70103478  1
  Dy  Dy18  1  0.03021466  0.70103478  0.91178802  1
  Dy  Dy19  1  0.53021466  0.29896522  0.08821198  1
