# generated using pymatgen
data_ErMg2
_symmetry_space_group_name_H-M   'P 1'
_cell_length_a   6.02060238
_cell_length_b   6.02060238
_cell_length_c   9.76755584
_cell_angle_alpha   90.00000000
_cell_angle_beta   90.00000000
_cell_angle_gamma   119.99999999
_symmetry_Int_Tables_number   1
_chemical_formula_structural   ErMg2
_chemical_formula_sum   'Er4 Mg8'
_cell_volume   306.61713868
_cell_formula_units_Z   4
loop_
 _symmetry_equiv_pos_site_id
 _symmetry_equiv_pos_as_xyz
  1  'x, y, z'
loop_
 _atom_site_type_symbol
 _atom_site_label
 _atom_site_symmetry_multiplicity
 _atom_site_fract_x
 _atom_site_fract_y
 _atom_site_fract_z
 _atom_site_occupancy
  Mg  Mg0  1  0.17091279  0.34182558  0.75000000  1
  Mg  Mg1  1  0.82908721  0.17091279  0.25000000  1
  Mg  Mg2  1  0.34182558  0.17091279  0.25000000  1
  Mg  Mg3  1  0.65817442  0.82908721  0.75000000  1
  Mg  Mg4  1  0.00000000  0.00000000  0.00000000  1
  Mg  Mg5  1  0.00000000  0.00000000  0.50000000  1
  Mg  Mg6  1  0.82908721  0.65817442  0.25000000  1
  Mg  Mg7  1  0.17091279  0.82908721  0.75000000  1
  Er  Er8  1  0.33333333  0.66666667  0.43636032  1
  Er  Er9  1  0.66666667  0.33333333  0.93636032  1
  Er  Er10  1  0.66666667  0.33333333  0.56363968  1
  Er  Er11  1  0.33333333  0.66666667  0.06363968  1
