# generated using pymatgen
data_LiNi(PO3)3
_symmetry_space_group_name_H-M   'P 1'
_cell_length_a   9.65614053
_cell_length_b   9.38449455
_cell_length_c   9.38311206
_cell_angle_alpha   108.74578301
_cell_angle_beta   104.66659844
_cell_angle_gamma   109.69849171
_symmetry_Int_Tables_number   1
_chemical_formula_structural   LiNi(PO3)3
_chemical_formula_sum   'Li4 Ni4 P12 O36'
_cell_volume   692.93480862
_cell_formula_units_Z   4
loop_
 _symmetry_equiv_pos_site_id
 _symmetry_equiv_pos_as_xyz
  1  'x, y, z'
loop_
 _atom_site_type_symbol
 _atom_site_label
 _atom_site_symmetry_multiplicity
 _atom_site_fract_x
 _atom_site_fract_y
 _atom_site_fract_z
 _atom_site_occupancy
  Li  Li0  1  0.50380858  0.93294773  0.34720242  1
  Li  Li1  1  0.32712813  0.15414814  0.36020024  1
  Li  Li2  1  0.67287221  0.84585192  0.63980049  1
  Li  Li3  1  0.49619070  0.06705234  0.65279697  1
  O  O4  1  0.09173576  0.13969821  0.19123625  1
  O  O5  1  0.99424025  0.72721770  0.04803544  1
  O  O6  1  0.83121823  0.16713661  0.09444311  1
  O  O7  1  0.80571660  0.37626297  -0.00009453  1
  O  O8  1  0.06220319  0.80990761  0.63211521  1
  O  O9  1  0.00575902  0.27278235  0.95196501  1
  O  O10  1  0.16878105  0.83286345  0.90555628  1
  O  O11  1  0.19428268  0.62373710  1.00009392  1
  O  O12  1  0.13694367  0.69409148  0.40409981  1
  O  O13  1  0.04690494  0.17619370  0.63601989  1
  O  O14  1  0.18939044  0.09693528  0.88292971  1
  O  O15  1  0.32214024  0.42767215  0.97059988  1
  O  O16  1  0.36730682  0.63616173  0.84748194  1
  O  O17  1  0.28742085  0.59288015  0.56621575  1
  O  O18  1  0.29776337  0.92573876  0.21415196  1
  O  O19  1  0.93779715  0.19009245  0.36788552  1
  O  O20  1  0.25199523  0.51814351  0.26989503  1
  O  O21  1  0.44331427  0.82237524  0.49701199  1
  O  O22  1  0.35558653  0.37679657  0.63394320  1
  O  O23  1  0.25153215  0.01477321  0.56204048  1
  O  O24  1  0.57979907  0.67987403  0.73258417  1
  O  O25  1  0.50374716  0.25132856  0.84507458  1
  O  O26  1  0.49625211  0.74867149  0.15492587  1
  O  O27  1  0.42020128  0.32012604  0.26741551  1
  O  O28  1  0.86305668  0.30590859  0.59589986  1
  O  O29  1  0.64441381  0.62320349  0.36605754  1
  O  O30  1  0.55668608  0.17762483  0.50298768  1
  O  O31  1  0.74800512  0.48185656  0.73010464  1
  O  O32  1  0.90826351  0.86030185  0.80876314  1
  O  O33  1  0.70223698  0.07426129  0.78584878  1
  O  O34  1  0.71257842  0.40711991  0.43378364  1
  O  O35  1  0.63269246  0.36383833  0.15251745  1
  O  O36  1  0.67786011  0.57232792  0.02939980  1
  O  O37  1  0.81060829  0.90306351  0.11706912  1
  O  O38  1  0.95309540  0.82380636  0.36398085  1
  O  O39  1  0.74846820  0.98522685  0.43796026  1
  P  P40  1  0.92456648  0.08989161  0.18759668  1
  P  P41  1  0.89941368  0.15195892  0.51350509  1
  P  P42  1  0.83937404  0.21335427  0.94352257  1
  P  P43  1  0.64687777  0.39288987  0.99739777  1
  P  P44  1  0.07543279  0.91010845  0.81240271  1
  P  P45  1  0.10058504  0.84803987  0.48649481  1
  P  P46  1  0.16062631  0.78664579  0.05647710  1
  P  P47  1  0.29158861  0.65891609  0.42728706  1
  P  P48  1  0.70841066  0.34108396  0.57271339  1
  P  P49  1  0.35312258  0.60711020  0.00260190  1
  P  P50  1  0.59216192  0.43697801  0.30784867  1
  P  P51  1  0.40783735  0.56302204  0.69215178  1
  Ni  Ni52  1  0.27597815  0.22863656  0.75020903  1
  Ni  Ni53  1  0.21186288  0.29653676  0.09667625  1
  Ni  Ni54  1  0.78813640  0.70346329  0.90332420  1
  Ni  Ni55  1  0.72402220  0.77136350  0.24979064  1
