# generated using pymatgen
data_Ca5P3ClO12
_symmetry_space_group_name_H-M   'P 1'
_cell_length_a   9.82756406
_cell_length_b   9.82756378
_cell_length_c   6.76295874
_cell_angle_alpha   90.00000000
_cell_angle_beta   90.00000000
_cell_angle_gamma   120.00000095
_symmetry_Int_Tables_number   1
_chemical_formula_structural   Ca5P3ClO12
_chemical_formula_sum   'Ca10 P6 Cl2 O24'
_cell_volume   565.66475463
_cell_formula_units_Z   2
loop_
 _symmetry_equiv_pos_site_id
 _symmetry_equiv_pos_as_xyz
  1  'x, y, z'
loop_
 _atom_site_type_symbol
 _atom_site_label
 _atom_site_symmetry_multiplicity
 _atom_site_fract_x
 _atom_site_fract_y
 _atom_site_fract_z
 _atom_site_occupancy
  Ca  Ca0  1  0.24932066  0.98355173  0.24796123  1
  Ca  Ca1  1  0.01644827  0.26576893  0.24796123  1
  Ca  Ca2  1  0.33333300  0.66666700  0.99507324  1
  Ca  Ca3  1  0.33333300  0.66666700  0.50352445  1
  Ca  Ca4  1  0.26576893  0.24932066  0.74796123  1
  Ca  Ca5  1  0.73423107  0.75067934  0.24796123  1
  Ca  Ca6  1  0.66666700  0.33333300  0.49507324  1
  Ca  Ca7  1  0.66666700  0.33333300  0.00352445  1
  Ca  Ca8  1  0.98355173  0.73423107  0.74796123  1
  Ca  Ca9  1  0.75067934  0.01644827  0.74796123  1
  Cl  Cl10  1  0.00000000  0.00000000  0.43188831  1
  Cl  Cl11  1  0.00000000  0.00000000  0.93188831  1
  O  O12  1  0.08122999  0.73406330  0.06941162  1
  O  O13  1  0.08830154  0.72879951  0.43880662  1
  O  O14  1  0.13030155  0.53665017  0.24513949  1
  O  O15  1  0.14607558  0.49682498  0.75332116  1
  O  O16  1  0.35074940  0.85392442  0.75332116  1
  O  O17  1  0.40634862  0.86969845  0.24513949  1
  O  O18  1  0.27120049  0.35950203  0.43880662  1
  O  O19  1  0.26593670  0.34716669  0.06941162  1
  O  O20  1  0.46334983  0.59365138  0.24513949  1
  O  O21  1  0.50317502  0.64925060  0.75332116  1
  O  O22  1  0.64049797  0.91169846  0.43880662  1
  O  O23  1  0.65283331  0.91877001  0.06941162  1
  O  O24  1  0.35950203  0.08830154  0.93880662  1
  O  O25  1  0.34716669  0.08122999  0.56941162  1
  O  O26  1  0.49682498  0.35074940  0.25332116  1
  O  O27  1  0.53665017  0.40634862  0.74513949  1
  O  O28  1  0.72879951  0.64049797  0.93880662  1
  O  O29  1  0.73406330  0.65283331  0.56941162  1
  O  O30  1  0.59365138  0.13030155  0.74513949  1
  O  O31  1  0.64925060  0.14607558  0.25332116  1
  O  O32  1  0.85392442  0.50317502  0.25332116  1
  O  O33  1  0.86969845  0.46334983  0.74513949  1
  O  O34  1  0.91877001  0.26593670  0.56941162  1
  O  O35  1  0.91169846  0.27120049  0.93880662  1
  P  P36  1  0.03209923  0.62272803  0.25169788  1
  P  P37  1  0.59062880  0.96790077  0.25169788  1
  P  P38  1  0.37727197  0.40937120  0.25169788  1
  P  P39  1  0.62272803  0.59062880  0.75169788  1
  P  P40  1  0.40937120  0.03209923  0.75169788  1
  P  P41  1  0.96790077  0.37727197  0.75169788  1
