# generated using pymatgen
data_CaScAlSiO6
_symmetry_space_group_name_H-M   'P 1'
_cell_length_a   5.51265327
_cell_length_b   13.53162423
_cell_length_c   10.02813988
_cell_angle_alpha   42.17572202
_cell_angle_beta   73.99704232
_cell_angle_gamma   78.21097024
_symmetry_Int_Tables_number   1
_chemical_formula_structural   CaScAlSiO6
_chemical_formula_sum   'Ca4 Sc4 Al4 Si4 O24'
_cell_volume   482.78283597
_cell_formula_units_Z   4
loop_
 _symmetry_equiv_pos_site_id
 _symmetry_equiv_pos_as_xyz
  1  'x, y, z'
loop_
 _atom_site_type_symbol
 _atom_site_label
 _atom_site_symmetry_multiplicity
 _atom_site_fract_x
 _atom_site_fract_y
 _atom_site_fract_z
 _atom_site_occupancy
  Al  Al0  1  0.26673733  0.40992861  0.37855112  1
  Al  Al1  1  0.76673733  0.09007139  0.19840834  1
  Al  Al2  1  0.23326267  0.90992861  0.80159166  1
  Al  Al3  1  0.73326267  0.59007139  0.62144888  1
  Ca  Ca4  1  0.25162056  0.18932822  0.30761518  1
  Ca  Ca5  1  0.24837944  0.68932822  0.31372838  1
  Ca  Ca6  1  0.75162056  0.31067178  0.68627162  1
  Ca  Ca7  1  0.74837944  0.81067178  0.69238482  1
  O  O8  1  0.01564081  0.01582091  0.33496545  1
  O  O9  1  0.99304859  0.52553887  0.32942952  1
  O  O10  1  0.16132016  0.24424387  0.62654828  1
  O  O11  1  0.35877730  0.40896971  0.19720826  1
  O  O12  1  0.13812435  0.40826958  0.97035011  1
  O  O13  1  0.17283288  0.74785702  0.61550341  1
  O  O14  1  0.50695141  0.02553887  0.61949274  1
  O  O15  1  0.32716712  0.24785702  0.88878255  1
  O  O16  1  0.36187565  0.90826957  0.21311074  1
  O  O17  1  0.66132016  0.25575613  0.11503602  1
  O  O18  1  0.51564081  0.48417909  0.36660726  1
  O  O19  1  0.14122270  0.90896971  0.98485232  1
  O  O20  1  0.85877730  0.09103029  0.01514768  1
  O  O21  1  0.48435919  0.51582091  0.63339274  1
  O  O22  1  0.33867984  0.74424387  0.88496398  1
  O  O23  1  0.63812435  0.09173043  0.78688926  1
  O  O24  1  0.67283288  0.75214298  0.11121745  1
  O  O25  1  0.49304859  0.97446113  0.38050726  1
  O  O26  1  0.82716712  0.25214298  0.38449659  1
  O  O27  1  0.86187565  0.59173042  0.02964989  1
  O  O28  1  0.64122270  0.59103029  0.80279174  1
  O  O29  1  0.83867984  0.75575613  0.37345172  1
  O  O30  1  0.00695141  0.47446113  0.67057048  1
  O  O31  1  0.98435919  0.98417909  0.66503455  1
  Sc  Sc32  1  0.24180433  0.09750895  0.90019894  1
  Sc  Sc33  1  0.25819567  0.59750895  0.90478316  1
  Sc  Sc34  1  0.74180433  0.40249105  0.09521684  1
  Sc  Sc35  1  0.75819567  0.90249105  0.09980106  1
  Si  Si36  1  0.23349328  0.40733305  0.79975185  1
  Si  Si37  1  0.26650672  0.90733305  0.38558206  1
  Si  Si38  1  0.73349328  0.09266695  0.61441794  1
  Si  Si39  1  0.76650672  0.59266695  0.20024815  1
