# generated using pymatgen
data_Sm3S3N
_symmetry_space_group_name_H-M   'P 1'
_cell_length_a   3.95208408
_cell_length_b   12.20386708
_cell_length_c   13.10427800
_cell_angle_alpha   90.00000000
_cell_angle_beta   90.00000000
_cell_angle_gamma   90.00000000
_symmetry_Int_Tables_number   1
_chemical_formula_structural   Sm3S3N
_chemical_formula_sum   'Sm12 S12 N4'
_cell_volume   632.02861627
_cell_formula_units_Z   4
loop_
 _symmetry_equiv_pos_site_id
 _symmetry_equiv_pos_as_xyz
  1  'x, y, z'
loop_
 _atom_site_type_symbol
 _atom_site_label
 _atom_site_symmetry_multiplicity
 _atom_site_fract_x
 _atom_site_fract_y
 _atom_site_fract_z
 _atom_site_occupancy
  N  N0  1  0.75000000  0.46126720  0.29848643  1
  N  N1  1  0.25000000  0.03873280  0.79848643  1
  N  N2  1  0.75000000  0.96126720  0.20151357  1
  N  N3  1  0.25000000  0.53873280  0.70151357  1
  S  S4  1  0.75000000  0.22535741  0.69358138  1
  S  S5  1  0.75000000  0.41022256  0.89585757  1
  S  S6  1  0.25000000  0.08977744  0.39585757  1
  S  S7  1  0.25000000  0.58977744  0.10414243  1
  S  S8  1  0.25000000  0.36549375  0.49219767  1
  S  S9  1  0.75000000  0.63450625  0.50780233  1
  S  S10  1  0.25000000  0.86549375  0.00780233  1
  S  S11  1  0.75000000  0.13450625  0.99219767  1
  S  S12  1  0.25000000  0.77464259  0.30641862  1
  S  S13  1  0.75000000  0.72535741  0.80641862  1
  S  S14  1  0.25000000  0.27464259  0.19358138  1
  S  S15  1  0.75000000  0.91022256  0.60414243  1
  Sm  Sm16  1  0.25000000  0.04613288  0.14549235  1
  Sm  Sm17  1  0.75000000  0.95386712  0.85450765  1
  Sm  Sm18  1  0.25000000  0.54613288  0.35450765  1
  Sm  Sm19  1  0.75000000  0.45386712  0.64549235  1
  Sm  Sm20  1  0.25000000  0.21510903  0.86265530  1
  Sm  Sm21  1  0.75000000  0.78489097  0.13734470  1
  Sm  Sm22  1  0.25000000  0.71510903  0.63734470  1
  Sm  Sm23  1  0.75000000  0.28489097  0.36265530  1
  Sm  Sm24  1  0.25000000  0.57162516  0.86942183  1
  Sm  Sm25  1  0.75000000  0.42837484  0.13057817  1
  Sm  Sm26  1  0.25000000  0.07162516  0.63057817  1
  Sm  Sm27  1  0.75000000  0.92837484  0.36942183  1
