# generated using pymatgen
data_Na(Pr2Se3)4
_symmetry_space_group_name_H-M   'P 1'
_cell_length_a   23.43130719
_cell_length_b   9.00984956
_cell_length_c   9.00984984
_cell_angle_alpha   90.00000014
_cell_angle_beta   54.77542293
_cell_angle_gamma   54.77542169
_symmetry_Int_Tables_number   1
_chemical_formula_structural   Na(Pr2Se3)4
_chemical_formula_sum   'Na2 Pr16 Se24'
_cell_volume   1100.32918780
_cell_formula_units_Z   2
loop_
 _symmetry_equiv_pos_site_id
 _symmetry_equiv_pos_as_xyz
  1  'x, y, z'
loop_
 _atom_site_type_symbol
 _atom_site_label
 _atom_site_symmetry_multiplicity
 _atom_site_fract_x
 _atom_site_fract_y
 _atom_site_fract_z
 _atom_site_occupancy
  Na  Na0  1  0.08333300  0.62500000  0.37500000  1
  Na  Na1  1  0.58333300  0.87500000  0.12500000  1
  Pr  Pr2  1  0.00217152  0.11804391  0.74316999  1
  Pr  Pr3  1  0.16449548  0.25683001  0.62455846  1
  Pr  Pr4  1  0.24849923  0.87725116  0.12725116  1
  Pr  Pr5  1  0.33333300  0.36988160  0.25000000  1
  Pr  Pr6  1  0.33333300  0.13011840  0.75000000  1
  Pr  Pr7  1  0.16449548  0.74968455  0.88195609  1
  Pr  Pr8  1  0.41816777  0.62274884  0.37274884  1
  Pr  Pr9  1  0.50217152  0.24316999  0.61804391  1
  Pr  Pr10  1  0.66449548  0.38195609  0.24968455  1
  Pr  Pr11  1  0.66449548  0.12455846  0.75683001  1
  Pr  Pr12  1  0.50217152  0.75031545  0.87544154  1
  Pr  Pr13  1  0.74849923  0.62725116  0.37725116  1
  Pr  Pr14  1  0.83333300  0.25000000  0.63011840  1
  Pr  Pr15  1  0.00217152  0.37544154  0.25031545  1
  Pr  Pr16  1  0.91816777  0.87274884  0.12274884  1
  Pr  Pr17  1  0.83333300  0.75000000  0.86988160  1
  Se  Se18  1  0.11537000  0.49922478  1.00133896  1
  Se  Se19  1  0.05129600  0.34744997  0.50077522  1
  Se  Se20  1  0.05129600  -0.00133896  0.34533578  1
  Se  Se21  1  0.28879252  0.13754907  0.14051097  1
  Se  Se22  1  0.28879252  0.49607336  0.99311147  1
  Se  Se23  1  0.11537000  0.65466422  0.65255003  1
  Se  Se24  1  0.21703952  0.85043008  0.49993883  1
  Se  Se25  1  0.44962748  0.50154864  1.00006117  1
  Se  Se26  1  0.37787448  0.36245093  0.50688853  1
  Se  Se27  1  0.21703952  0.99845136  0.84894262  1
  Se  Se28  1  0.37787448  0.00392664  0.35948903  1
  Se  Se29  1  0.61537000  0.15255003  0.15466422  1
  Se  Se30  1  0.61537000  0.50133896  0.99922478  1
  Se  Se31  1  0.44962748  0.64956992  0.65105738  1
  Se  Se32  1  0.55129600  0.84533578  0.49866104  1
  Se  Se33  1  0.78879252  0.49311147  0.99607336  1
  Se  Se34  1  0.71703952  0.34894262  0.49845136  1
  Se  Se35  1  0.55129600  0.00077522  0.84744997  1
  Se  Se36  1  0.71703952  -0.00006117  0.35043008  1
  Se  Se37  1  0.94962748  0.15105738  0.14956992  1
  Se  Se38  1  0.94962748  0.50006117  0.00154864  1
  Se  Se39  1  0.78879252  0.64051097  0.63754907  1
  Se  Se40  1  0.87787448  0.85948903  0.50392664  1
  Se  Se41  1  0.87787448  0.00688853  0.86245093  1
