# generated using pymatgen
data_K6Fe2O5
_symmetry_space_group_name_H-M   'P 1'
_cell_length_a   6.78917472
_cell_length_b   6.77134864
_cell_length_c   6.77134859
_cell_angle_alpha   117.64684029
_cell_angle_beta   91.47084198
_cell_angle_gamma   91.47085025
_symmetry_Int_Tables_number   1
_chemical_formula_structural   K6Fe2O5
_chemical_formula_sum   'K6 Fe2 O5'
_cell_volume   275.41051363
_cell_formula_units_Z   1
loop_
 _symmetry_equiv_pos_site_id
 _symmetry_equiv_pos_as_xyz
  1  'x, y, z'
loop_
 _atom_site_type_symbol
 _atom_site_label
 _atom_site_symmetry_multiplicity
 _atom_site_fract_x
 _atom_site_fract_y
 _atom_site_fract_z
 _atom_site_occupancy
  K  K0  1  0.99430232  0.20948480  0.78732529  1
  K  K1  1  0.17130902  0.36417079  0.36417079  1
  K  K2  1  0.50302283  0.75635328  0.24273337  1
  K  K3  1  0.50302283  0.24273337  0.75635328  1
  K  K4  1  0.82699444  0.64403775  0.64403775  1
  K  K5  1  0.99430232  0.78732529  0.20948480  1
  Fe  Fe6  1  0.33127654  0.79054295  0.79054295  1
  Fe  Fe7  1  0.69662615  0.18964384  0.18964384  1
  O  O8  1  0.21904945  0.84232649  0.56105801  1
  O  O9  1  0.21904945  0.56105801  0.84232649  1
  O  O10  1  0.58722161  0.92837437  0.92837437  1
  O  O11  1  0.77146152  0.16548276  0.44686629  1
  O  O12  1  0.77146152  0.44686629  0.16548276  1
