# generated using pymatgen
data_Sr6(RhO3)5
_symmetry_space_group_name_H-M   'P 1'
_cell_length_a   7.17353822
_cell_length_b   7.17353822
_cell_length_c   7.17353823
_cell_angle_alpha   86.13172741
_cell_angle_beta   86.13172744
_cell_angle_gamma   86.13172742
_symmetry_Int_Tables_number   1
_chemical_formula_structural   Sr6(RhO3)5
_chemical_formula_sum   'Sr6 Rh5 O15'
_cell_volume   366.73310051
_cell_formula_units_Z   1
loop_
 _symmetry_equiv_pos_site_id
 _symmetry_equiv_pos_as_xyz
  1  'x, y, z'
loop_
 _atom_site_type_symbol
 _atom_site_label
 _atom_site_symmetry_multiplicity
 _atom_site_fract_x
 _atom_site_fract_y
 _atom_site_fract_z
 _atom_site_occupancy
  O  O0  1  0.56704078  0.26945648  0.34383337  1
  O  O1  1  0.26945648  0.34383337  0.56704078  1
  O  O2  1  0.34383337  0.56704078  0.26945648  1
  O  O3  1  0.65616663  0.73054352  0.43295922  1
  O  O4  1  0.73054352  0.43295922  0.65616663  1
  O  O5  1  0.43295922  0.65616663  0.73054352  1
  O  O6  1  0.83514172  0.00000000  0.16485828  1
  O  O7  1  0.00000000  0.16485828  0.83514172  1
  O  O8  1  0.16485828  0.83514172  0.00000000  1
  O  O9  1  0.01738518  0.34783518  0.21143740  1
  O  O10  1  0.34783518  0.21143740  0.01738518  1
  O  O11  1  0.98261482  0.78856260  0.65216482  1
  O  O12  1  0.65216482  0.98261482  0.78856260  1
  O  O13  1  0.78856260  0.65216482  0.98261482  1
  O  O14  1  0.21143740  0.01738518  0.34783518  1
  Sr  Sr15  1  0.68274583  0.31725417  0.00000000  1
  Sr  Sr16  1  0.00000000  0.68274583  0.31725417  1
  Sr  Sr17  1  0.31725417  0.00000000  0.68274583  1
  Sr  Sr18  1  0.85279898  0.14720102  0.50000000  1
  Sr  Sr19  1  0.50000000  0.85279898  0.14720102  1
  Sr  Sr20  1  0.14720102  0.50000000  0.85279898  1
  Rh  Rh21  1  0.90324963  0.90324963  0.90324963  1
  Rh  Rh22  1  0.09675037  0.09675037  0.09675037  1
  Rh  Rh23  1  0.70745505  0.70745505  0.70745505  1
  Rh  Rh24  1  0.29254495  0.29254495  0.29254495  1
  Rh  Rh25  1  0.50000000  0.50000000  0.50000000  1
