# generated using pymatgen
data_Tb3CrSe6
_symmetry_space_group_name_H-M   'P 1'
_cell_length_a   3.95626131
_cell_length_b   13.99726751
_cell_length_c   16.79928913
_cell_angle_alpha   90.00000000
_cell_angle_beta   90.00000000
_cell_angle_gamma   90.00000000
_symmetry_Int_Tables_number   1
_chemical_formula_structural   Tb3CrSe6
_chemical_formula_sum   'Tb12 Cr4 Se24'
_cell_volume   930.29167891
_cell_formula_units_Z   4
loop_
 _symmetry_equiv_pos_site_id
 _symmetry_equiv_pos_as_xyz
  1  'x, y, z'
loop_
 _atom_site_type_symbol
 _atom_site_label
 _atom_site_symmetry_multiplicity
 _atom_site_fract_x
 _atom_site_fract_y
 _atom_site_fract_z
 _atom_site_occupancy
  Tb  Tb0  1  0.00000000  0.31996403  0.14820921  1
  Tb  Tb1  1  0.00000000  0.68003597  0.85179079  1
  Tb  Tb2  1  0.50000000  0.81996403  0.35179079  1
  Tb  Tb3  1  0.50000000  0.18003597  0.64820921  1
  Tb  Tb4  1  0.00000000  0.55161847  0.27824881  1
  Tb  Tb5  1  0.00000000  0.44838153  0.72175119  1
  Tb  Tb6  1  0.50000000  0.05161847  0.22175119  1
  Tb  Tb7  1  0.50000000  0.94838153  0.77824881  1
  Tb  Tb8  1  0.00000000  0.75773795  0.09639692  1
  Tb  Tb9  1  0.00000000  0.24226205  0.90360308  1
  Tb  Tb10  1  0.50000000  0.25773795  0.40360308  1
  Tb  Tb11  1  0.50000000  0.74226205  0.59639692  1
  Se  Se12  1  0.00000000  0.10323884  0.75549232  1
  Se  Se13  1  0.00000000  0.89676116  0.24450768  1
  Se  Se14  1  0.50000000  0.60323884  0.74450768  1
  Se  Se15  1  0.50000000  0.39676116  0.25549232  1
  Se  Se16  1  0.00000000  0.12134877  0.10800781  1
  Se  Se17  1  0.00000000  0.87865123  0.89199219  1
  Se  Se18  1  0.50000000  0.62134877  0.39199219  1
  Se  Se19  1  0.50000000  0.37865123  0.60800781  1
  Se  Se20  1  0.00000000  0.18969229  0.28993091  1
  Se  Se21  1  0.00000000  0.81030771  0.71006909  1
  Se  Se22  1  0.50000000  0.68969229  0.21006909  1
  Se  Se23  1  0.50000000  0.31030771  0.78993091  1
  Se  Se24  1  0.00000000  0.18068268  0.52047415  1
  Se  Se25  1  0.00000000  0.81931732  0.47952585  1
  Se  Se26  1  0.50000000  0.68068268  0.97952585  1
  Se  Se27  1  0.50000000  0.31931732  0.02047415  1
  Se  Se28  1  0.00000000  0.41928158  0.42321509  1
  Se  Se29  1  0.00000000  0.58071842  0.57678491  1
  Se  Se30  1  0.50000000  0.91928158  0.07678491  1
  Se  Se31  1  0.50000000  0.08071842  0.92321509  1
  Se  Se32  1  0.00000000  0.52322071  0.09775266  1
  Se  Se33  1  0.00000000  0.47677929  0.90224734  1
  Se  Se34  1  0.50000000  0.02322071  0.40224734  1
  Se  Se35  1  0.50000000  0.97677929  0.59775266  1
  Cr  Cr36  1  0.00000000  0.00000000  0.50000000  1
  Cr  Cr37  1  0.50000000  0.50000000  0.00000000  1
  Cr  Cr38  1  0.00000000  0.00000000  0.00000000  1
  Cr  Cr39  1  0.50000000  0.50000000  0.50000000  1
