# generated using pymatgen
data_Fe3BO5
_symmetry_space_group_name_H-M   'P 1'
_cell_length_a   3.10429196
_cell_length_b   5.58781894
_cell_length_c   10.79728445
_cell_angle_alpha   93.35196634
_cell_angle_beta   90.00000000
_cell_angle_gamma   90.00000000
_symmetry_Int_Tables_number   1
_chemical_formula_structural   Fe3BO5
_chemical_formula_sum   'Fe6 B2 O10'
_cell_volume   186.97166663
_cell_formula_units_Z   2
loop_
 _symmetry_equiv_pos_site_id
 _symmetry_equiv_pos_as_xyz
  1  'x, y, z'
loop_
 _atom_site_type_symbol
 _atom_site_label
 _atom_site_symmetry_multiplicity
 _atom_site_fract_x
 _atom_site_fract_y
 _atom_site_fract_z
 _atom_site_occupancy
  B  B0  1  0.00000000  0.71450565  0.24233971  1
  B  B1  1  0.00000000  0.28549335  0.75765929  1
  O  O2  1  0.00000000  0.29519409  0.88707130  1
  O  O3  1  0.49999900  0.17853542  0.08767216  1
  O  O4  1  0.00000000  0.70480591  0.11292870  1
  O  O5  1  0.49999900  0.82146558  0.91232784  1
  O  O6  1  0.00000000  0.50350686  0.30344787  1
  O  O7  1  0.00000000  0.49649414  0.69655213  1
  O  O8  1  0.49999900  0.23286449  0.46843216  1
  O  O9  1  0.00000000  0.93629574  0.30795262  1
  O  O10  1  0.00000000  0.06370326  0.69204738  1
  O  O11  1  0.49999900  0.76713651  0.53156784  1
  Fe  Fe12  1  0.49999900  0.78007726  0.72735036  1
  Fe  Fe13  1  0.49999900  0.21992174  0.27264864  1
  Fe  Fe14  1  0.00000000  0.50000100  0.50000000  1
  Fe  Fe15  1  0.00000000  0.00000000  0.50000000  1
  Fe  Fe16  1  0.49999900  0.50000000  0.00000000  1
  Fe  Fe17  1  0.00000000  0.00000000  0.00000000  1
