# generated using pymatgen
data_Bi4(TeSe)3
_symmetry_space_group_name_H-M   'P 1'
_cell_length_a   4.30493617
_cell_length_b   4.30493617
_cell_length_c   20.81931781
_cell_angle_alpha   95.93430020
_cell_angle_beta   95.93430020
_cell_angle_gamma   60.00000758
_symmetry_Int_Tables_number   1
_chemical_formula_structural   Bi4(TeSe)3
_chemical_formula_sum   'Bi4 Te3 Se3'
_cell_volume   331.75197806
_cell_formula_units_Z   1
loop_
 _symmetry_equiv_pos_site_id
 _symmetry_equiv_pos_as_xyz
  1  'x, y, z'
loop_
 _atom_site_type_symbol
 _atom_site_label
 _atom_site_symmetry_multiplicity
 _atom_site_fract_x
 _atom_site_fract_y
 _atom_site_fract_z
 _atom_site_occupancy
  Bi  Bi0  1  0.80143935  0.80143935  0.40431804  1
  Bi  Bi1  1  0.30375100  0.30375100  0.91125300  1
  Bi  Bi2  1  0.69787248  0.69787248  0.09361743  1
  Bi  Bi3  1  0.19518902  0.19518902  0.58556707  1
  Te  Te4  1  0.60812627  0.60812627  0.82437882  1
  Te  Te5  1  0.39347384  0.39347384  0.18042152  1
  Te  Te6  1  0.89088023  0.89088023  0.67264068  1
  Se  Se7  1  0.00059210  0.00059210  0.00177629  1
  Se  Se8  1  0.49823128  0.49823128  0.49469385  1
  Se  Se9  1  0.11044443  0.11044443  0.33133328  1
