# generated using pymatgen
data_Na6Al4Fe(Si4O13)2
_symmetry_space_group_name_H-M   'P 1'
_cell_length_a   8.10162877
_cell_length_b   8.60781022
_cell_length_c   10.49971088
_cell_angle_alpha   110.74796031
_cell_angle_beta   89.83982130
_cell_angle_gamma   117.80300738
_symmetry_Int_Tables_number   1
_chemical_formula_structural   Na6Al4Fe(Si4O13)2
_chemical_formula_sum   'Na6 Al4 Fe1 Si8 O26'
_cell_volume   593.89319451
_cell_formula_units_Z   1
loop_
 _symmetry_equiv_pos_site_id
 _symmetry_equiv_pos_as_xyz
  1  'x, y, z'
loop_
 _atom_site_type_symbol
 _atom_site_label
 _atom_site_symmetry_multiplicity
 _atom_site_fract_x
 _atom_site_fract_y
 _atom_site_fract_z
 _atom_site_occupancy
  Al  Al0  1  0.15992414  0.71266245  0.34684656  1
  Al  Al1  1  0.44573222  0.28709104  0.65158885  1
  Al  Al2  1  0.74879119  0.88014306  0.65885070  1
  Al  Al3  1  0.86972441  0.12003005  0.34332381  1
  Fe  Fe4  1  0.99134112  0.00024622  0.00005127  1
  Na  Na5  1  0.15823428  0.31871345  0.89160828  1
  Na  Na6  1  0.27733884  0.54030666  0.55813090  1
  Na  Na7  1  0.48062343  0.93529848  0.16739607  1
  Na  Na8  1  0.53642084  0.06394575  0.83209443  1
  Na  Na9  1  0.73662464  0.45988170  0.44221522  1
  Na  Na10  1  0.83627165  0.68086382  0.10792816  1
  O  O11  1  0.06406758  0.79786677  -0.01610436  1
  O  O12  1  0.05861906  0.72287908  0.49723762  1
  O  O13  1  0.01486500  0.46142154  0.79153775  1
  O  O14  1  0.25697546  0.92557918  0.32030924  1
  O  O15  1  0.20087797  0.77898420  0.74410482  1
  O  O16  1  0.05260032  0.08194839  0.27463296  1
  O  O17  1  0.33695087  0.65333901  0.36552599  1
  O  O18  1  0.35537761  0.73158817  0.93682659  1
  O  O19  1  0.27712232  0.20333528  1.00960837  1
  O  O20  1  0.33679051  0.27687793  0.50052009  1
  O  O21  1  0.57343126  0.78109266  0.74969985  1
  O  O22  1  0.43366238  0.46179299  0.79535333  1
  O  O23  1  0.66638678  0.90416480  0.32323254  1
  O  O24  1  0.32878979  0.07283737  0.67647539  1
  O  O25  1  0.55716174  0.53879723  0.20991542  1
  O  O26  1  0.42066547  0.21806251  0.25212032  1
  O  O27  1  0.66319600  0.71477793  0.48378832  1
  O  O28  1  0.70665987  0.80145336  -0.00138183  1
  O  O29  1  0.63054136  0.26856663  0.06328714  1
  O  O30  1  0.68227050  0.34657194  0.63454293  1
  O  O31  1  0.96999402  0.91798755  0.72521475  1
  O  O32  1  0.79493356  0.22253061  0.25433197  1
  O  O33  1  0.76133038  0.09725391  0.68017675  1
  O  O34  1  0.97509698  0.53863764  0.20321169  1
  O  O35  1  0.94943408  0.28457713  0.51844975  1
  O  O36  1  0.91537553  0.19774137  1.00788020  1
  Si  Si37  1  0.13554191  0.87762947  0.65851735  1
  Si  Si38  1  0.14990045  0.69705235  0.86869656  1
  Si  Si39  1  0.25863887  0.12177071  0.33918038  1
  Si  Si40  1  0.53280824  0.69540679  0.87126367  1
  Si  Si41  1  0.55524888  0.70794990  0.34883551  1
  Si  Si42  1  0.45638143  0.30281108  0.12888131  1
  Si  Si43  1  0.84127790  0.30541372  0.13137327  1
  Si  Si44  1  0.84599917  0.29211816  0.65272012  1
