# generated using pymatgen
data_MgGeO3
_symmetry_space_group_name_H-M   'P 1'
_cell_length_a   5.42014571
_cell_length_b   9.07498663
_cell_length_c   19.07442383
_cell_angle_alpha   90.00000000
_cell_angle_beta   90.00000000
_cell_angle_gamma   90.00000000
_symmetry_Int_Tables_number   1
_chemical_formula_structural   MgGeO3
_chemical_formula_sum   'Mg16 Ge16 O48'
_cell_volume   938.22798790
_cell_formula_units_Z   16
loop_
 _symmetry_equiv_pos_site_id
 _symmetry_equiv_pos_as_xyz
  1  'x, y, z'
loop_
 _atom_site_type_symbol
 _atom_site_label
 _atom_site_symmetry_multiplicity
 _atom_site_fract_x
 _atom_site_fract_y
 _atom_site_fract_z
 _atom_site_occupancy
  O  O0  1  0.37253068  0.32180456  0.94485635  1
  O  O1  1  0.87253068  0.67819544  0.55514365  1
  O  O2  1  0.12746932  0.82180456  0.05514365  1
  O  O3  1  0.62746932  0.17819544  0.44485635  1
  O  O4  1  0.62746932  0.67819544  0.05514365  1
  O  O5  1  0.12746932  0.32180456  0.44485635  1
  O  O6  1  0.87253068  0.17819544  0.94485635  1
  O  O7  1  0.37253068  0.82180456  0.55514365  1
  O  O8  1  0.32841531  0.01273699  0.92999376  1
  O  O9  1  0.82841531  0.98726301  0.57000624  1
  O  O10  1  0.17158469  0.51273699  0.07000624  1
  O  O11  1  0.67158469  0.48726301  0.42999376  1
  O  O12  1  0.67158469  0.98726301  0.07000624  1
  O  O13  1  0.17158469  0.01273699  0.42999376  1
  O  O14  1  0.82841531  0.48726301  0.92999376  1
  O  O15  1  0.32841531  0.51273699  0.57000624  1
  O  O16  1  0.18676905  0.16192124  0.06510891  1
  O  O17  1  0.68676905  0.83807876  0.43489109  1
  O  O18  1  0.31323095  0.66192124  0.93489109  1
  O  O19  1  0.96179968  0.98668448  0.81327730  1
  O  O20  1  0.81323095  0.33807876  0.56510891  1
  O  O21  1  0.31323095  0.16192124  0.56510891  1
  O  O22  1  0.68676905  0.33807876  0.06510891  1
  O  O23  1  0.18676905  0.66192124  0.43489109  1
  O  O24  1  0.15863037  0.29171744  0.80671051  1
  O  O25  1  0.65863037  0.70828256  0.69328949  1
  O  O26  1  0.34136963  0.79171744  0.19328949  1
  O  O27  1  0.84136963  0.20828256  0.30671051  1
  O  O28  1  0.84136963  0.70828256  0.19328949  1
  O  O29  1  0.34136963  0.29171744  0.30671051  1
  O  O30  1  0.65863037  0.20828256  0.80671051  1
  O  O31  1  0.15863037  0.79171744  0.69328949  1
  O  O32  1  0.97690121  0.65969302  0.82097082  1
  O  O33  1  0.47690121  0.34030698  0.67902918  1
  O  O34  1  0.52309879  0.15969302  0.17902918  1
  O  O35  1  0.02309879  0.84030698  0.32097082  1
  O  O36  1  0.02309879  0.34030698  0.17902918  1
  O  O37  1  0.52309879  0.65969302  0.32097082  1
  O  O38  1  0.47690121  0.84030698  0.82097082  1
  O  O39  1  0.97690121  0.15969302  0.67902918  1
  O  O40  1  0.96179968  0.48668448  0.68672270  1
  O  O41  1  0.46179968  0.51331552  0.81327730  1
  O  O42  1  0.53820032  0.98668448  0.31327730  1
  O  O43  1  0.03820032  0.01331552  0.18672270  1
  O  O44  1  0.03820032  0.51331552  0.31327730  1
  O  O45  1  0.53820032  0.48668448  0.18672270  1
  O  O46  1  0.46179968  0.01331552  0.68672270  1
  O  O47  1  0.81323095  0.83807876  0.93489109  1
  Mg  Mg48  1  0.64736275  0.65574012  0.87653516  1
  Mg  Mg49  1  0.14736275  0.34425988  0.62346484  1
  Mg  Mg50  1  0.85263725  0.15574012  0.12346484  1
  Mg  Mg51  1  0.35263725  0.84425988  0.37653516  1
  Mg  Mg52  1  0.35263725  0.34425988  0.12346484  1
  Mg  Mg53  1  0.85263725  0.65574012  0.37653516  1
  Mg  Mg54  1  0.14736275  0.84425988  0.87653516  1
  Mg  Mg55  1  0.64736275  0.15574012  0.62346484  1
  Mg  Mg56  1  0.65523734  0.51162761  0.62228761  1
  Mg  Mg57  1  0.15523734  0.48837239  0.87771239  1
  Mg  Mg58  1  0.84476266  0.01162761  0.37771239  1
  Mg  Mg59  1  0.34476266  0.98837239  0.12228761  1
  Mg  Mg60  1  0.34476266  0.48837239  0.37771239  1
  Mg  Mg61  1  0.84476266  0.51162761  0.12228761  1
  Mg  Mg62  1  0.15523734  0.98837239  0.62228761  1
  Mg  Mg63  1  0.65523734  0.01162761  0.87771239  1
  Ge  Ge64  1  0.95685224  0.65490927  0.72926257  1
  Ge  Ge65  1  0.45685224  0.34509073  0.77073743  1
  Ge  Ge66  1  0.54314776  0.15490927  0.27073743  1
  Ge  Ge67  1  0.04314776  0.84509073  0.22926257  1
  Ge  Ge68  1  0.04314776  0.34509073  0.27073743  1
  Ge  Ge69  1  0.54314776  0.65490927  0.22926257  1
  Ge  Ge70  1  0.45685224  0.84509073  0.72926257  1
  Ge  Ge71  1  0.95685224  0.15490927  0.77073743  1
  Ge  Ge72  1  0.19482753  0.66011261  0.52736252  1
  Ge  Ge73  1  0.69482753  0.33988739  0.97263748  1
  Ge  Ge74  1  0.30517247  0.16011261  0.47263748  1
  Ge  Ge75  1  0.80517247  0.83988739  0.02736252  1
  Ge  Ge76  1  0.80517247  0.33988739  0.47263748  1
  Ge  Ge77  1  0.30517247  0.66011261  0.02736252  1
  Ge  Ge78  1  0.69482753  0.83988739  0.52736252  1
  Ge  Ge79  1  0.19482753  0.16011261  0.97263748  1
