# generated using pymatgen
data_Tl2SeO4
_symmetry_space_group_name_H-M   'P 1'
_cell_length_a   5.98999599
_cell_length_b   8.14918705
_cell_length_c   11.68176108
_cell_angle_alpha   90.00000000
_cell_angle_beta   90.00000000
_cell_angle_gamma   90.00000000
_symmetry_Int_Tables_number   1
_chemical_formula_structural   Tl2SeO4
_chemical_formula_sum   'Tl8 Se4 O16'
_cell_volume   570.22878639
_cell_formula_units_Z   4
loop_
 _symmetry_equiv_pos_site_id
 _symmetry_equiv_pos_as_xyz
  1  'x, y, z'
loop_
 _atom_site_type_symbol
 _atom_site_label
 _atom_site_symmetry_multiplicity
 _atom_site_fract_x
 _atom_site_fract_y
 _atom_site_fract_z
 _atom_site_occupancy
  O  O0  1  0.25000000  0.51776971  0.11685312  1
  O  O1  1  0.75000000  0.48223029  0.88314688  1
  O  O2  1  0.25000000  0.01776971  0.38314688  1
  O  O3  1  0.75000000  0.98223029  0.61685312  1
  O  O4  1  0.25000000  0.72495183  0.92646243  1
  O  O5  1  0.75000000  0.27504817  0.07353757  1
  O  O6  1  0.25000000  0.22495183  0.57353757  1
  O  O7  1  0.75000000  0.77504817  0.42646243  1
  O  O8  1  0.98257223  0.19262786  0.88194147  1
  O  O9  1  0.48257223  0.80737214  0.11805853  1
  O  O10  1  0.51742777  0.69262786  0.61805853  1
  O  O11  1  0.01742777  0.30737214  0.38194147  1
  O  O12  1  0.98257223  0.69262786  0.61805853  1
  O  O13  1  0.48257223  0.30737214  0.38194147  1
  O  O14  1  0.51742777  0.19262786  0.88194147  1
  O  O15  1  0.01742777  0.80737214  0.11805853  1
  Se  Se16  1  0.25000000  0.71243467  0.07091162  1
  Se  Se17  1  0.75000000  0.28756533  0.92908838  1
  Se  Se18  1  0.25000000  0.21243467  0.42908838  1
  Se  Se19  1  0.75000000  0.78756533  0.57091162  1
  Tl  Tl20  1  0.25000000  0.68311338  0.41791135  1
  Tl  Tl21  1  0.75000000  0.31688662  0.58208865  1
  Tl  Tl22  1  0.25000000  0.18311338  0.08208865  1
  Tl  Tl23  1  0.75000000  0.81688662  0.91791135  1
  Tl  Tl24  1  0.25000000  0.47581131  0.77667648  1
  Tl  Tl25  1  0.75000000  0.52418869  0.22332352  1
  Tl  Tl26  1  0.25000000  0.97581131  0.72332352  1
  Tl  Tl27  1  0.75000000  0.02418869  0.27667648  1
