# generated using pymatgen
data_Nb2(PO4)3
_symmetry_space_group_name_H-M   'P 1'
_cell_length_a   8.81396543
_cell_length_b   8.81149170
_cell_length_c   9.14583933
_cell_angle_alpha   60.96652683
_cell_angle_beta   118.98340692
_cell_angle_gamma   119.96998482
_symmetry_Int_Tables_number   1
_chemical_formula_structural   Nb2(PO4)3
_chemical_formula_sum   'Nb4 P6 O24'
_cell_volume   509.77595183
_cell_formula_units_Z   2
loop_
 _symmetry_equiv_pos_site_id
 _symmetry_equiv_pos_as_xyz
  1  'x, y, z'
loop_
 _atom_site_type_symbol
 _atom_site_label
 _atom_site_symmetry_multiplicity
 _atom_site_fract_x
 _atom_site_fract_y
 _atom_site_fract_z
 _atom_site_occupancy
  Nb  Nb0  1  0.14097356  0.85851068  0.92638954  1
  Nb  Nb1  1  0.35814758  0.64285637  0.57056726  1
  Nb  Nb2  1  0.64185242  0.35714363  0.42943274  1
  Nb  Nb3  1  0.85902644  0.14148932  0.07361046  1
  O  O4  1  0.29317181  0.92565027  0.78347913  1
  O  O5  1  0.01085678  0.21757563  0.92325736  1
  O  O6  1  0.14450012  0.73778221  0.40437500  1
  O  O7  1  0.19741355  0.43109645  0.71755918  1
  O  O8  1  0.07438996  0.08786724  0.77455943  1
  O  O9  1  0.44615398  0.80540363  0.71233143  1
  O  O10  1  0.26645148  0.48690183  0.41835530  1
  O  O11  1  0.36216917  1.00224181  0.08685242  1
  O  O12  1  0.21572634  0.63230023  0.08902335  1
  O  O13  1  0.08341132  0.28728587  0.22573113  1
  O  O14  1  0.51072446  0.85384977  0.41193366  1
  O  O15  1  0.57390697  0.55225137  0.72212578  1
  O  O16  1  0.42609303  0.44774863  0.27787422  1
  O  O17  1  0.48927554  0.14615023  0.58806634  1
  O  O18  1  0.91658868  0.71271413  0.77426887  1
  O  O19  1  0.78427366  0.36769977  0.91097665  1
  O  O20  1  0.63783083  -0.00224181  0.91314758  1
  O  O21  1  0.73354852  0.51309817  0.58164470  1
  O  O22  1  0.55384602  0.19459637  0.28766857  1
  O  O23  1  0.92561004  0.91213276  0.22544057  1
  O  O24  1  0.80258645  0.56890355  0.28244082  1
  O  O25  1  0.85549988  0.26221779  0.59562500  1
  O  O26  1  0.98914322  0.78242437  0.07674264  1
  O  O27  1  0.70682819  0.07434973  0.21652087  1
  P  P28  1  0.03362028  0.25025037  0.75254540  1
  P  P29  1  0.46802551  0.96987773  0.74897883  1
  P  P30  1  0.24839166  0.46482261  0.25300640  1
  P  P31  1  0.75160834  0.53517739  0.74699360  1
  P  P32  1  0.53197449  0.03012227  0.25102117  1
  P  P33  1  0.96637972  0.74974963  0.24745460  1
