# generated using pymatgen
data_NaCa9Ti9Nb(SiO5)10
_symmetry_space_group_name_H-M   'P 1'
_cell_length_a   5.51383403
_cell_length_b   27.61315912
_cell_length_c   7.88351827
_cell_angle_alpha   61.77396482
_cell_angle_beta   114.36167240
_cell_angle_gamma   105.39689072
_symmetry_Int_Tables_number   1
_chemical_formula_structural   NaCa9Ti9Nb(SiO5)10
_chemical_formula_sum   'Na1 Ca9 Ti9 Nb1 Si10 O50'
_cell_volume   959.69006570
_cell_formula_units_Z   1
loop_
 _symmetry_equiv_pos_site_id
 _symmetry_equiv_pos_as_xyz
  1  'x, y, z'
loop_
 _atom_site_type_symbol
 _atom_site_label
 _atom_site_symmetry_multiplicity
 _atom_site_fract_x
 _atom_site_fract_y
 _atom_site_fract_z
 _atom_site_occupancy
  Na  Na0  1  0.17652946  0.81495328  0.76447513  1
  Ca  Ca1  1  0.17247614  0.61431437  0.75515757  1
  Ca  Ca2  1  0.17169235  0.41529646  0.75047851  1
  Ca  Ca3  1  0.82663288  0.98487468  0.24655399  1
  Ca  Ca4  1  0.17160528  0.21572198  0.74979482  1
  Ca  Ca5  1  0.82408921  0.78721521  0.23002573  1
  Ca  Ca6  1  0.17206181  0.01609113  0.74941910  1
  Ca  Ca7  1  0.82857864  0.58335972  0.25248609  1
  Ca  Ca8  1  0.82804233  0.38382165  0.25101011  1
  Ca  Ca9  1  0.82772438  0.18436036  0.25000856  1
  Ti  Ti10  1  0.49643049  0.90040871  0.99191747  1
  Ti  Ti11  1  0.49989467  0.69711066  0.01459049  1
  Ti  Ti12  1  0.50153298  0.49783272  0.00735116  1
  Ti  Ti13  1  0.49967914  0.59787379  0.51059287  1
  Ti  Ti14  1  0.50118033  0.29892079  0.00391275  1
  Ti  Ti15  1  0.49877514  0.39890692  0.50553903  1
  Ti  Ti16  1  0.50107269  0.09995310  0.00051432  1
  Ti  Ti17  1  0.49892520  0.19974777  0.50243790  1
  Ti  Ti18  1  0.49737446  0.00060023  0.49709131  1
  Nb  Nb19  1  0.50305627  0.80076176  0.50695349  1
  Si  Si20  1  0.17854007  0.91617019  0.24036023  1
  Si  Si21  1  0.17937333  0.71231019  0.25299839  1
  Si  Si22  1  0.82445679  0.88824753  0.75028568  1
  Si  Si23  1  0.18041610  0.51323751  0.25164870  1
  Si  Si24  1  0.81788335  0.68456402  0.75334289  1
  Si  Si25  1  0.18039660  0.31393072  0.24955355  1
  Si  Si26  1  0.81971805  0.48521759  0.75219931  1
  Si  Si27  1  0.18035139  0.11466457  0.24749027  1
  Si  Si28  1  0.81959574  0.28611465  0.74969400  1
  Si  Si29  1  0.81943095  0.08675706  0.74761826  1
  O  O30  1  0.12514539  0.87080280  0.90768365  1
  O  O31  1  0.42993941  0.96466153  0.74402070  1
  O  O32  1  0.12288768  0.66837955  0.90919095  1
  O  O33  1  0.25296947  0.94530092  0.39881457  1
  O  O34  1  0.18461852  0.84827305  0.36628497  1
  O  O35  1  0.62418400  0.86255630  0.88626220  1
  O  O36  1  0.43148375  0.76335238  0.75481837  1
  O  O37  1  0.12342697  0.46776764  0.90859394  1
  O  O38  1  0.23994317  0.74328889  0.40354780  1
  O  O39  1  0.38693278  0.94125911  0.10969882  1
  O  O40  1  0.18761928  0.64482851  0.39085433  1
  O  O41  1  0.81375839  0.95565958  0.61267208  1
  O  O42  1  0.61242463  0.65970048  0.88600327  1
  O  O43  1  0.74533984  0.85966623  0.58942410  1
  O  O44  1  0.42874175  0.56243672  0.75154888  1
  O  O45  1  0.12362184  0.26881727  0.90586259  1
  O  O46  1  0.57531325  0.83740275  0.24487993  1
  O  O47  1  0.24922832  0.54239472  0.40857277  1
  O  O48  1  0.39657218  0.73578824  0.13142359  1
  O  O49  1  0.18760662  0.44560068  0.38497144  1
  O  O50  1  0.80105698  0.75173884  0.61126079  1
  O  O51  1  0.61543822  0.45989045  0.88645494  1
  O  O52  1  0.75149430  0.65401684  0.60060616  1
  O  O53  1  0.43138649  0.36372361  0.74928696  1
  O  O54  1  0.12383733  0.06967170  0.90403379  1
  O  O55  1  0.87540706  0.93398357  0.08675062  1
  O  O56  1  0.56701422  0.63454907  0.25244184  1
  O  O57  1  0.25017817  0.34320522  0.40645156  1
  O  O58  1  0.38542532  0.53829257  0.11789339  1
  O  O59  1  0.18767148  0.24630893  0.38320570  1
  O  O60  1  0.81128865  0.55279675  0.61901252  1
  O  O61  1  0.61526937  0.26084207  0.88390697  1
  O  O62  1  0.75014934  0.45625033  0.59420519  1
  O  O63  1  0.43167702  0.16455564  0.74721908  1
  O  O64  1  0.87629730  0.72929989  0.09413994  1
  O  O65  1  0.56960704  0.43592955  0.25080018  1
  O  O66  1  0.25028732  0.14390603  0.40461978  1
  O  O67  1  0.38496502  0.33909556  0.11554478  1
  O  O68  1  0.18804398  0.04703609  0.38069512  1
  O  O69  1  0.81173770  0.35372580  0.61632726  1
  O  O70  1  0.61509182  0.06169727  0.88174643  1
  O  O71  1  0.75035588  0.25703831  0.59210153  1
  O  O72  1  0.87689975  0.53086274  0.09396064  1
  O  O73  1  0.56885635  0.23676827  0.24837041  1
  O  O74  1  0.38489523  0.13995654  0.11336653  1
  O  O75  1  0.81159160  0.15442697  0.61405644  1
  O  O76  1  0.74998200  0.05750343  0.59087099  1
  O  O77  1  0.87671545  0.33145108  0.09281549  1
  O  O78  1  0.57109799  0.03783325  0.24658617  1
  O  O79  1  0.87700817  0.13236994  0.09063917  1
