# generated using pymatgen
data_MnFeH4O2F5
_symmetry_space_group_name_H-M   'P 1'
_cell_length_a   6.65233934
_cell_length_b   7.55266003
_cell_length_c   7.55266002
_cell_angle_alpha   61.28083912
_cell_angle_beta   63.87077737
_cell_angle_gamma   63.87077810
_symmetry_Int_Tables_number   1
_chemical_formula_structural   MnFeH4O2F5
_chemical_formula_sum   'Mn2 Fe2 H8 O4 F10'
_cell_volume   285.88679944
_cell_formula_units_Z   2
loop_
 _symmetry_equiv_pos_site_id
 _symmetry_equiv_pos_as_xyz
  1  'x, y, z'
loop_
 _atom_site_type_symbol
 _atom_site_label
 _atom_site_symmetry_multiplicity
 _atom_site_fract_x
 _atom_site_fract_y
 _atom_site_fract_z
 _atom_site_occupancy
  Mn  Mn0  1  0.00000000  0.00000000  0.00000000  1
  Mn  Mn1  1  0.50000000  0.50000000  0.50000000  1
  Fe  Fe2  1  0.50000000  0.00000000  0.50000000  1
  Fe  Fe3  1  0.50000000  0.50000000  0.00000000  1
  F  F4  1  0.42245278  0.83916255  0.41191797  1
  F  F5  1  0.17353330  0.66083745  0.08808203  1
  F  F6  1  0.57754722  0.58808203  0.16083745  1
  F  F7  1  0.82646670  0.91191797  0.33916255  1
  F  F8  1  0.57754722  0.16083745  0.58808203  1
  F  F9  1  0.82646670  0.33916255  0.91191797  1
  F  F10  1  0.42245278  0.41191797  0.83916255  1
  F  F11  1  0.17353330  0.08808203  0.66083745  1
  F  F12  1  0.43215671  0.25000000  0.25000000  1
  F  F13  1  0.56784329  0.75000000  0.75000000  1
  O  O14  1  0.23296930  0.07025164  0.07025164  1
  O  O15  1  0.87347259  0.42974836  0.42974836  1
  O  O16  1  0.76703070  0.92974836  0.92974836  1
  O  O17  1  0.12652741  0.57025164  0.57025164  1
  H  H18  1  0.29191796  0.98968949  0.19441856  1
  H  H19  1  0.97602601  0.51031051  0.30558144  1
  H  H20  1  0.70808204  0.80558144  0.01031051  1
  H  H21  1  0.02397399  0.69441856  0.48968949  1
  H  H22  1  0.70808204  0.01031051  0.80558144  1
  H  H23  1  0.02397399  0.48968949  0.69441856  1
  H  H24  1  0.29191796  0.19441856  0.98968949  1
  H  H25  1  0.97602601  0.30558144  0.51031051  1
