# generated using pymatgen
data_Cs6Fe2O5
_symmetry_space_group_name_H-M   'P 1'
_cell_length_a   7.32733962
_cell_length_b   7.32734058
_cell_length_c   7.48680734
_cell_angle_alpha   92.52173506
_cell_angle_beta   92.52173586
_cell_angle_gamma   117.68756595
_symmetry_Int_Tables_number   1
_chemical_formula_structural   Cs6Fe2O5
_chemical_formula_sum   'Cs6 Fe2 O5'
_cell_volume   354.64927467
_cell_formula_units_Z   1
loop_
 _symmetry_equiv_pos_site_id
 _symmetry_equiv_pos_as_xyz
  1  'x, y, z'
loop_
 _atom_site_type_symbol
 _atom_site_label
 _atom_site_symmetry_multiplicity
 _atom_site_fract_x
 _atom_site_fract_y
 _atom_site_fract_z
 _atom_site_occupancy
  Cs  Cs0  1  0.64435053  0.64435053  0.81173505  1
  Cs  Cs1  1  0.35564947  0.35564947  0.18826495  1
  Cs  Cs2  1  0.75798777  0.24201223  0.50000000  1
  Cs  Cs3  1  0.24201223  0.75798777  0.50000000  1
  Cs  Cs4  1  0.21293363  0.78706637  1.00000000  1
  Cs  Cs5  1  0.78706637  0.21293363  0.00000000  1
  Fe  Fe6  1  0.80327167  0.80327167  0.31415212  1
  Fe  Fe7  1  0.19672833  0.19672833  0.68584788  1
  O  O8  1  0.42927928  0.16756716  0.77543328  1
  O  O9  1  0.83243284  0.57072072  0.22456672  1
  O  O10  1  0.57072072  0.83243284  0.22456672  1
  O  O11  1  0.16756716  0.42927928  0.77543328  1
  O  O12  1  0.00000000  0.00000000  0.50000000  1
