# generated using pymatgen
data_FePH4NO4F
_symmetry_space_group_name_H-M   'P 1'
_cell_length_a   6.51480866
_cell_length_b   10.82108903
_cell_length_c   13.13696739
_cell_angle_alpha   90.00000000
_cell_angle_beta   90.00000000
_cell_angle_gamma   90.00000000
_symmetry_Int_Tables_number   1
_chemical_formula_structural   FePH4NO4F
_chemical_formula_sum   'Fe8 P8 H32 N8 O32 F8'
_cell_volume   926.12105334
_cell_formula_units_Z   8
loop_
 _symmetry_equiv_pos_site_id
 _symmetry_equiv_pos_as_xyz
  1  'x, y, z'
loop_
 _atom_site_type_symbol
 _atom_site_label
 _atom_site_symmetry_multiplicity
 _atom_site_fract_x
 _atom_site_fract_y
 _atom_site_fract_z
 _atom_site_occupancy
  Fe  Fe0  1  0.48822943  0.00241712  0.38655013  1
  Fe  Fe1  1  0.51177057  0.50241712  0.61344987  1
  Fe  Fe2  1  0.01177057  0.00241712  0.88655013  1
  Fe  Fe3  1  0.98822943  0.50241712  0.11344987  1
  Fe  Fe4  1  0.25211450  0.25429621  0.24932972  1
  Fe  Fe5  1  0.74788550  0.75429621  0.75067028  1
  Fe  Fe6  1  0.24788550  0.25429621  0.74932972  1
  Fe  Fe7  1  0.75211450  0.75429621  0.25067028  1
  P  P8  1  0.33061167  0.25014853  0.50337666  1
  P  P9  1  0.66938833  0.75014853  0.49662334  1
  P  P10  1  0.16938833  0.25014853  0.00337666  1
  P  P11  1  0.83061167  0.75014853  0.99662334  1
  P  P12  1  0.49887273  0.50654098  0.18426428  1
  P  P13  1  0.50112727  0.00654098  0.81573572  1
  P  P14  1  1.00112727  0.50654098  0.68426428  1
  P  P15  1  -0.00112727  0.00654098  0.31573572  1
  F  F16  1  0.47380793  0.13382700  0.27675947  1
  F  F17  1  0.52619207  0.63382700  0.72324053  1
  F  F18  1  0.02619207  0.13382700  0.77675947  1
  F  F19  1  0.97380793  0.63382700  0.22324053  1
  F  F20  1  0.03495660  0.38487679  0.23246020  1
  F  F21  1  0.96504340  0.88487679  0.76753980  1
  F  F22  1  0.46504340  0.38487679  0.73246020  1
  F  F23  1  0.53495660  0.88487679  0.26753980  1
  O  O24  1  0.47036218  0.13546116  0.48915065  1
  O  O25  1  0.52963782  0.63546116  0.51084935  1
  O  O26  1  0.02963782  0.13546116  0.98915065  1
  O  O27  1  0.97036218  0.63546116  0.01084935  1
  O  O28  1  0.47488742  0.36332093  0.52076440  1
  O  O29  1  0.52511258  0.86332093  0.47923560  1
  O  O30  1  0.02511258  0.36332093  0.02076440  1
  O  O31  1  0.97488742  0.86332093  0.97923560  1
  O  O32  1  0.20235163  0.27396411  0.40568620  1
  O  O33  1  0.79764837  0.77396411  0.59431380  1
  O  O34  1  0.29764837  0.27396411  0.90568620  1
  O  O35  1  0.70235163  0.77396411  0.09431380  1
  O  O36  1  0.18928109  0.23369011  0.59736960  1
  O  O37  1  0.81071891  0.73369011  0.40263040  1
  O  O38  1  0.31071891  0.23369011  0.09736960  1
  O  O39  1  0.68928109  0.73369011  0.90263040  1
  O  O40  1  0.30755301  0.53397658  0.11543846  1
  O  O41  1  0.69244699  0.03397658  0.88456154  1
  O  O42  1  0.19244699  0.53397658  0.61543846  1
  O  O43  1  0.80755301  0.03397658  0.38456154  1
  O  O44  1  0.68689258  0.47872893  0.11604067  1
  O  O45  1  0.31310742  0.97872893  0.88395933  1
  O  O46  1  0.81310742  0.47872893  0.61604067  1
  O  O47  1  0.18689258  0.97872893  0.38395933  1
  O  O48  1  0.54060727  0.62103546  0.25317067  1
  O  O49  1  0.45939273  0.12103546  0.74682933  1
  O  O50  1  0.95939273  0.62103546  0.75317067  1
  O  O51  1  0.04060727  0.12103546  0.24682933  1
  O  O52  1  0.45432380  0.39432485  0.25469713  1
  O  O53  1  0.54567620  0.89432485  0.74530287  1
  O  O54  1  0.04567620  0.39432485  0.75469713  1
  O  O55  1  0.95432380  0.89432485  0.24530287  1
  N  N56  1  0.78259468  0.30440761  0.38954171  1
  N  N57  1  0.21740532  0.80440761  0.61045829  1
  N  N58  1  0.71740532  0.30440761  0.88954171  1
  N  N59  1  0.28259468  0.80440761  0.11045829  1
  N  N60  1  0.66339917  0.06752102  0.09583860  1
  N  N61  1  0.33660083  0.56752102  0.90416140  1
  N  N62  1  0.83660083  0.06752102  0.59583860  1
  N  N63  1  0.16339917  0.56752102  0.40416140  1
  H  H64  1  0.93923014  0.31642010  0.40000450  1
  H  H65  1  0.06076986  0.81642010  0.59999550  1
  H  H66  1  0.56076986  0.31642010  0.90000450  1
  H  H67  1  0.43923014  0.81642010  0.09999550  1
  H  H68  1  0.76122976  0.20983313  0.38288193  1
  H  H69  1  0.23877024  0.70983313  0.61711807  1
  H  H70  1  0.73877024  0.20983313  0.88288193  1
  H  H71  1  0.26122976  0.70983313  0.11711807  1
  H  H72  1  0.72878938  0.34569247  0.32417494  1
  H  H73  1  0.27121062  0.84569247  0.67582506  1
  H  H74  1  0.77121062  0.34569247  0.82417494  1
  H  H75  1  0.22878938  0.84569247  0.17582506  1
  H  H76  1  0.69413500  0.33702980  0.45004162  1
  H  H77  1  0.30586500  0.83702980  0.54995838  1
  H  H78  1  0.80586500  0.33702980  0.95004162  1
  H  H79  1  0.19413500  0.83702980  0.04995838  1
  H  H80  1  0.64334312  0.99145582  0.14161312  1
  H  H81  1  0.35665688  0.49145682  0.85838688  1
  H  H82  1  0.85665688  0.99145582  0.64161312  1
  H  H83  1  0.14334312  0.49145682  0.35838688  1
  H  H84  1  0.54427230  0.12983575  0.10738789  1
  H  H85  1  0.45572770  0.62983575  0.89261211  1
  H  H86  1  0.95572770  0.12983575  0.60738789  1
  H  H87  1  0.04427230  0.62983575  0.39261211  1
  H  H88  1  0.66607790  0.04249817  0.01887963  1
  H  H89  1  0.33392210  0.54249817  0.98112037  1
  H  H90  1  0.83392210  0.04249817  0.51887963  1
  H  H91  1  0.16607790  0.54249817  0.48112037  1
  H  H92  1  0.80361646  0.10609739  0.11383551  1
  H  H93  1  0.19638354  0.60609739  0.88616449  1
  H  H94  1  0.69638354  0.10609739  0.61383551  1
  H  H95  1  0.30361646  0.60609739  0.38616449  1
