# generated using pymatgen
data_Te3MoCl16
_symmetry_space_group_name_H-M   'P 1'
_cell_length_a   10.47926017
_cell_length_b   10.47925980
_cell_length_c   12.59573027
_cell_angle_alpha   90.00000000
_cell_angle_beta   90.00000000
_cell_angle_gamma   102.48675123
_symmetry_Int_Tables_number   1
_chemical_formula_structural   Te3MoCl16
_chemical_formula_sum   'Te6 Mo2 Cl32'
_cell_volume   1350.48059032
_cell_formula_units_Z   2
loop_
 _symmetry_equiv_pos_site_id
 _symmetry_equiv_pos_as_xyz
  1  'x, y, z'
loop_
 _atom_site_type_symbol
 _atom_site_label
 _atom_site_symmetry_multiplicity
 _atom_site_fract_x
 _atom_site_fract_y
 _atom_site_fract_z
 _atom_site_occupancy
  Te  Te0  1  0.46058306  0.73711353  0.00291970  1
  Te  Te1  1  0.53941694  0.26288647  0.50291970  1
  Te  Te2  1  0.26288647  0.53941694  0.50291970  1
  Te  Te3  1  0.73711353  0.46058306  0.00291970  1
  Te  Te4  1  0.86428457  0.86428457  0.26678500  1
  Te  Te5  1  0.13571543  0.13571543  0.76678500  1
  Mo  Mo6  1  0.32980145  0.32980145  0.02261864  1
  Mo  Mo7  1  0.67019855  0.67019855  0.52261864  1
  Cl  Cl8  1  0.26699147  0.75175475  0.91157347  1
  Cl  Cl9  1  0.73300853  0.24824525  0.41157347  1
  Cl  Cl10  1  0.24824525  0.73300853  0.41157347  1
  Cl  Cl11  1  0.75175475  0.26699147  0.91157347  1
  Cl  Cl12  1  0.43532620  0.88523595  0.13731292  1
  Cl  Cl13  1  0.56467380  0.11476405  0.63731292  1
  Cl  Cl14  1  0.11476405  0.56467380  0.63731292  1
  Cl  Cl15  1  0.88523595  0.43532620  0.13731292  1
  Cl  Cl16  1  0.59588915  0.89162664  0.88979979  1
  Cl  Cl17  1  0.40411085  0.10837336  0.38979979  1
  Cl  Cl18  1  0.10837336  0.40411085  0.38979979  1
  Cl  Cl19  1  0.89162664  0.59588915  0.88979979  1
  Cl  Cl20  1  -0.00049310  -0.00049310  0.38963313  1
  Cl  Cl21  1  1.00049310  1.00049310  0.88963313  1
  Cl  Cl22  1  0.82534036  0.04413271  0.16693662  1
  Cl  Cl23  1  0.17465964  0.95586729  0.66693662  1
  Cl  Cl24  1  0.95586729  0.17465964  0.66693662  1
  Cl  Cl25  1  0.04413271  0.82534036  0.16693662  1
  Cl  Cl26  1  0.35213112  0.14745238  0.91418136  1
  Cl  Cl27  1  0.64786888  0.85254762  0.41418136  1
  Cl  Cl28  1  0.85254762  0.64786888  0.41418136  1
  Cl  Cl29  1  0.14745238  0.35213112  0.91418136  1
  Cl  Cl30  1  0.20423133  0.20423133  0.14720481  1
  Cl  Cl31  1  0.79576867  0.79576867  0.64720481  1
  Cl  Cl32  1  0.31313231  0.52634041  0.12122932  1
  Cl  Cl33  1  0.68686769  0.47365959  0.62122932  1
  Cl  Cl34  1  0.47365959  0.68686769  0.62122932  1
  Cl  Cl35  1  0.52634041  0.31313231  0.12122932  1
  Cl  Cl36  1  0.47674984  0.47674984  0.89779207  1
  Cl  Cl37  1  0.52325016  0.52325016  0.39779207  1
  Cl  Cl38  1  0.69230538  0.69230538  0.11120999  1
  Cl  Cl39  1  0.30769462  0.30769462  0.61120999  1
