# generated using pymatgen
data_Y2WO6
_symmetry_space_group_name_H-M   'P 1'
_cell_length_a   5.29463648
_cell_length_b   9.17595549
_cell_length_c   10.02531335
_cell_angle_alpha   90.00000000
_cell_angle_beta   90.00000000
_cell_angle_gamma   90.00000000
_symmetry_Int_Tables_number   1
_chemical_formula_structural   Y2WO6
_chemical_formula_sum   'Y8 W4 O24'
_cell_volume   487.06329407
_cell_formula_units_Z   4
loop_
 _symmetry_equiv_pos_site_id
 _symmetry_equiv_pos_as_xyz
  1  'x, y, z'
loop_
 _atom_site_type_symbol
 _atom_site_label
 _atom_site_symmetry_multiplicity
 _atom_site_fract_x
 _atom_site_fract_y
 _atom_site_fract_z
 _atom_site_occupancy
  O  O0  1  0.25313110  0.08859011  0.50573285  1
  O  O1  1  0.75313110  0.41140989  0.49426715  1
  O  O2  1  0.74686890  0.58859111  0.99426715  1
  O  O3  1  0.24686790  0.91140989  0.00573285  1
  O  O4  1  0.73169219  0.11495528  0.56825413  1
  O  O5  1  0.23169319  0.38504372  0.43174487  1
  O  O6  1  0.26830581  0.61495528  0.93174587  1
  O  O7  1  0.76830781  0.88504372  0.06825513  1
  O  O8  1  0.58669970  0.84310407  0.53111592  1
  O  O9  1  0.08670070  0.65689593  0.46888408  1
  O  O10  1  0.41329930  0.34310407  0.96888408  1
  O  O11  1  0.91330030  0.15689593  0.03111592  1
  O  O12  1  0.19210206  0.85939126  0.26381117  1
  O  O13  1  0.69210206  0.64060774  0.73618883  1
  O  O14  1  0.80789794  0.35939226  0.23618883  1
  O  O15  1  0.30789894  0.14060774  0.76381117  1
  O  O16  1  0.82592513  0.04768896  0.29835121  1
  O  O17  1  0.32592613  0.45231104  0.70164779  1
  O  O18  1  0.18102445  0.86243916  0.68103186  1
  O  O19  1  0.67407487  0.95231104  0.79835121  1
  O  O20  1  0.31897655  0.13756184  0.18103186  1
  O  O21  1  0.81897655  0.36243816  0.81896814  1
  O  O22  1  0.68102445  0.63756184  0.31896814  1
  O  O23  1  0.17407587  0.54768896  0.20164779  1
  Y  Y24  1  0.48096215  0.60329251  0.53514426  1
  Y  Y25  1  0.98096215  0.89670649  0.46485674  1
  Y  Y26  1  0.51903885  0.10329251  0.96485674  1
  Y  Y27  1  0.01903685  0.39670649  0.03514426  1
  Y  Y28  1  0.96130836  0.78102612  0.87038455  1
  Y  Y29  1  0.46130736  0.71897388  0.12961545  1
  Y  Y30  1  0.53869164  0.21897388  0.37038455  1
  Y  Y31  1  0.03869264  0.28102612  0.62961545  1
  W  W32  1  0.46101443  0.99552796  0.65158088  1
  W  W33  1  0.96101643  0.50447104  0.34841912  1
  W  W34  1  0.53898357  0.49552796  0.84841912  1
  W  W35  1  0.03898457  0.00447204  0.15158088  1
