# generated using pymatgen
data_Cs3B12H12Br
_symmetry_space_group_name_H-M   'P 1'
_cell_length_a   7.32989758
_cell_length_b   7.32989784
_cell_length_c   7.32989798
_cell_angle_alpha   92.99512909
_cell_angle_beta   92.99512920
_cell_angle_gamma   92.99512874
_symmetry_Int_Tables_number   1
_chemical_formula_structural   Cs3B12H12Br
_chemical_formula_sum   'Cs3 B12 H12 Br1'
_cell_volume   392.14385250
_cell_formula_units_Z   1
loop_
 _symmetry_equiv_pos_site_id
 _symmetry_equiv_pos_as_xyz
  1  'x, y, z'
loop_
 _atom_site_type_symbol
 _atom_site_label
 _atom_site_symmetry_multiplicity
 _atom_site_fract_x
 _atom_site_fract_y
 _atom_site_fract_z
 _atom_site_occupancy
  Cs  Cs0  1  0.50000000  0.50000000  0.00000000  1
  Cs  Cs1  1  0.00000000  0.50000000  0.50000000  1
  Cs  Cs2  1  0.50000000  0.00000000  0.50000000  1
  Br  Br3  1  0.50000000  0.50000000  0.50000000  1
  B  B4  1  0.94369623  0.77641074  0.94369623  1
  B  B5  1  0.94369623  0.94369623  0.77641074  1
  B  B6  1  0.77641074  0.94369623  0.94369623  1
  B  B7  1  0.22358926  0.05630377  0.05630377  1
  B  B8  1  0.05630377  0.22358926  0.05630377  1
  B  B9  1  0.05630377  0.05630377  0.22358926  1
  B  B10  1  0.11681806  0.84599344  0.11681806  1
  B  B11  1  0.11681806  0.11681806  0.84599344  1
  B  B12  1  0.84599344  0.11681806  0.11681806  1
  B  B13  1  0.15400656  0.88318194  0.88318194  1
  B  B14  1  0.88318194  0.15400656  0.88318194  1
  B  B15  1  0.88318194  0.88318194  0.15400656  1
  H  H16  1  0.09553281  0.38281503  0.09553281  1
  H  H17  1  0.09553281  0.09553281  0.38281503  1
  H  H18  1  0.38281503  0.09553281  0.09553281  1
  H  H19  1  0.61718497  0.90446719  0.90446719  1
  H  H20  1  0.90446719  0.61718497  0.90446719  1
  H  H21  1  0.90446719  0.90446719  0.61718497  1
  H  H22  1  0.20072938  0.73706183  0.20072938  1
  H  H23  1  0.20072938  0.20072938  0.73706183  1
  H  H24  1  0.73706183  0.20072938  0.20072938  1
  H  H25  1  0.26293817  0.79927062  0.79927062  1
  H  H26  1  0.79927062  0.26293817  0.79927062  1
  H  H27  1  0.79927062  0.79927062  0.26293817  1
