# generated using pymatgen
data_RbIn3S5
_symmetry_space_group_name_H-M   'P 1'
_cell_length_a   3.84557535
_cell_length_b   12.57983524
_cell_length_c   15.60404698
_cell_angle_alpha   112.39779725
_cell_angle_beta   90.00000000
_cell_angle_gamma   90.00000000
_symmetry_Int_Tables_number   1
_chemical_formula_structural   RbIn3S5
_chemical_formula_sum   'Rb3 In9 S15'
_cell_volume   697.92531136
_cell_formula_units_Z   3
loop_
 _symmetry_equiv_pos_site_id
 _symmetry_equiv_pos_as_xyz
  1  'x, y, z'
loop_
 _atom_site_type_symbol
 _atom_site_label
 _atom_site_symmetry_multiplicity
 _atom_site_fract_x
 _atom_site_fract_y
 _atom_site_fract_z
 _atom_site_occupancy
  In  In0  1  0.50000000  0.82641459  0.83541088  1
  In  In1  1  0.50000000  0.17358541  0.16458912  1
  In  In2  1  0.50000000  0.50000000  0.50000000  1
  In  In3  1  0.00000000  0.52229601  0.71356002  1
  In  In4  1  0.00000000  0.47770399  0.28643998  1
  In  In5  1  0.50000000  0.22782641  0.73009768  1
  In  In6  1  0.50000000  0.77217359  0.26990232  1
  In  In7  1  0.00000000  0.11717764  0.93018094  1
  In  In8  1  0.00000000  0.88282236  0.06981906  1
  S  S9  1  0.00000000  0.73222968  0.89810110  1
  S  S10  1  0.00000000  0.26777032  0.10189890  1
  S  S11  1  0.50000000  0.44440096  0.78888581  1
  S  S12  1  0.50000000  0.55559904  0.21111419  1
  S  S13  1  0.00000000  0.93379212  0.78294851  1
  S  S14  1  0.00000000  0.06620788  0.21705149  1
  S  S15  1  0.00000000  0.38418033  0.54260036  1
  S  S16  1  0.00000000  0.61581967  0.45739964  1
  S  S17  1  0.50000000  0.23260628  0.89340073  1
  S  S18  1  0.50000000  0.76739372  0.10659927  1
  S  S19  1  0.00000000  0.12994584  0.63098601  1
  S  S20  1  0.00000000  0.87005416  0.36901399  1
  S  S21  1  0.50000000  0.64448012  0.67936331  1
  S  S22  1  0.50000000  0.35551988  0.32063669  1
  S  S23  1  0.50000000  0.00000000  0.00000000  1
  Rb  Rb24  1  0.00000000  0.50000000  0.00000000  1
  Rb  Rb25  1  0.50000000  0.86453362  0.57354754  1
  Rb  Rb26  1  0.50000000  0.13546638  0.42645246  1
