# generated using pymatgen
data_Fe2CoAs2(H5O7)2
_symmetry_space_group_name_H-M   'P 1'
_cell_length_a   5.63784350
_cell_length_b   9.69253300
_cell_length_c   10.44336907
_cell_angle_alpha   90.00000000
_cell_angle_beta   93.96792619
_cell_angle_gamma   90.00000000
_symmetry_Int_Tables_number   1
_chemical_formula_structural   Fe2CoAs2(H5O7)2
_chemical_formula_sum   'Fe4 Co2 As4 H20 O28'
_cell_volume   569.30979055
_cell_formula_units_Z   2
loop_
 _symmetry_equiv_pos_site_id
 _symmetry_equiv_pos_as_xyz
  1  'x, y, z'
loop_
 _atom_site_type_symbol
 _atom_site_label
 _atom_site_symmetry_multiplicity
 _atom_site_fract_x
 _atom_site_fract_y
 _atom_site_fract_z
 _atom_site_occupancy
  Co  Co0  1  0.00000000  0.00000000  0.00000000  1
  Co  Co1  1  0.50000000  0.50000000  0.00000000  1
  Fe  Fe2  1  0.66163131  0.86424134  0.54937891  1
  Fe  Fe3  1  0.83836869  0.36424134  0.45062109  1
  Fe  Fe4  1  0.33836869  0.13575866  0.45062109  1
  Fe  Fe5  1  0.16163131  0.63575866  0.54937891  1
  As  As6  1  0.67246100  0.56840026  0.70644518  1
  As  As7  1  0.82753900  0.06840026  0.29355482  1
  As  As8  1  0.32753900  0.43159974  0.29355482  1
  As  As9  1  0.17246100  0.93159974  0.70644518  1
  O  O10  1  0.88025601  0.51342673  0.59962847  1
  O  O11  1  0.61974399  0.01342673  0.40037153  1
  O  O12  1  0.11974399  0.48657327  0.40037153  1
  O  O13  1  0.38025601  0.98657327  0.59962847  1
  O  O14  1  0.39645765  0.50465491  0.65001657  1
  O  O15  1  0.10354235  0.00465491  0.34998343  1
  O  O16  1  0.60354235  0.49534509  0.34998343  1
  O  O17  1  0.89645765  0.99534509  0.65001657  1
  O  O18  1  0.74572325  0.50078561  0.85403743  1
  O  O19  1  0.75427675  1.00078561  0.14596257  1
  O  O20  1  0.25427675  0.49921439  0.14596257  1
  O  O21  1  0.24572325  -0.00078561  0.85403743  1
  O  O22  1  0.68027301  0.74619274  0.70974829  1
  O  O23  1  0.81972699  0.24619274  0.29025171  1
  O  O24  1  0.31972699  0.25380726  0.29025171  1
  O  O25  1  0.18027301  0.75380726  0.70974829  1
  O  O26  1  0.92939390  0.77188368  0.46538230  1
  O  O27  1  0.57060610  0.27188368  0.53461770  1
  O  O28  1  0.07060610  0.22811632  0.53461770  1
  O  O29  1  0.42939390  0.72811632  0.46538230  1
  O  O30  1  0.71141141  0.09659397  0.87489227  1
  O  O31  1  0.78858859  0.59659397  0.12510773  1
  O  O32  1  0.28858859  0.90340603  0.12510773  1
  O  O33  1  0.21141141  0.40340603  0.87489227  1
  O  O34  1  0.87483411  0.80910347  0.95410244  1
  O  O35  1  0.62516589  0.30910347  0.04589756  1
  O  O36  1  0.12516589  0.19089653  0.04589756  1
  O  O37  1  0.37483411  0.69089653  0.95410244  1
  H  H38  1  0.01757739  0.84151896  0.41770660  1
  H  H39  1  0.48242261  0.34151896  0.58229240  1
  H  H40  1  0.98242261  0.15848104  0.58229240  1
  H  H41  1  0.51757739  0.65848104  0.41770660  1
  H  H42  1  0.75838393  0.08456761  0.78589106  1
  H  H43  1  0.74161607  0.58456761  0.21410894  1
  H  H44  1  0.24161607  0.91543239  0.21410894  1
  H  H45  1  0.25838393  0.41543239  0.78589106  1
  H  H46  1  0.54651522  0.05797407  0.87412323  1
  H  H47  1  0.95348478  0.55797407  0.12587677  1
  H  H48  1  0.45348478  0.94202593  0.12587677  1
  H  H49  1  0.04651522  0.44202593  0.87412323  1
  H  H50  1  0.78420826  0.78725871  0.87176205  1
  H  H51  1  0.71579174  0.28725871  0.12823795  1
  H  H52  1  0.21579174  0.21274129  0.12823795  1
  H  H53  1  0.28420826  0.71274129  0.87176205  1
  H  H54  1  0.81983959  0.74723084  0.02115723  1
  H  H55  1  0.68016041  0.24723084  0.97884277  1
  H  H56  1  0.18016041  0.25276916  0.97884277  1
  H  H57  1  0.31983959  0.75276916  0.02115723  1
