# generated using pymatgen
data_Ba11Sb10
_symmetry_space_group_name_H-M   'P 1'
_cell_length_a   12.84344191
_cell_length_b   13.37461044
_cell_length_c   13.57689687
_cell_angle_alpha   119.50834868
_cell_angle_beta   118.22848601
_cell_angle_gamma   89.99999905
_symmetry_Int_Tables_number   1
_chemical_formula_structural   Ba11Sb10
_chemical_formula_sum   'Ba22 Sb20'
_cell_volume   1703.73398344
_cell_formula_units_Z   2
loop_
 _symmetry_equiv_pos_site_id
 _symmetry_equiv_pos_as_xyz
  1  'x, y, z'
loop_
 _atom_site_type_symbol
 _atom_site_label
 _atom_site_symmetry_multiplicity
 _atom_site_fract_x
 _atom_site_fract_y
 _atom_site_fract_z
 _atom_site_occupancy
  Sb  Sb0  1  0.38575161  0.38575161  0.77150322  1
  Sb  Sb1  1  0.61424839  0.61424839  0.22849678  1
  Sb  Sb2  1  0.74489684  0.24489684  0.48979368  1
  Sb  Sb3  1  0.25510316  0.75510316  0.51020632  1
  Sb  Sb4  1  0.50000000  0.84883808  1.00000000  1
  Sb  Sb5  1  0.50000000  0.15116192  0.00000000  1
  Sb  Sb6  1  0.11482003  0.50000000  1.00000000  1
  Sb  Sb7  1  0.88517997  0.50000000  0.00000000  1
  Sb  Sb8  1  0.39827458  0.39521501  0.36910040  1
  Sb  Sb9  1  0.02917418  0.60478499  0.63089960  1
  Sb  Sb10  1  0.60172542  0.02611461  0.63089960  1
  Sb  Sb11  1  0.97082582  0.97388539  0.36910040  1
  Sb  Sb12  1  0.60172542  0.60478499  0.63089960  1
  Sb  Sb13  1  0.97082582  0.39521501  0.36910040  1
  Sb  Sb14  1  0.39827458  0.97388539  0.36910040  1
  Sb  Sb15  1  0.02917418  0.02611461  0.63089960  1
  Sb  Sb16  1  0.10953273  0.12990229  1.00000000  1
  Sb  Sb17  1  0.10953273  0.87009771  0.00000000  1
  Sb  Sb18  1  0.89046727  0.12990229  1.00000000  1
  Sb  Sb19  1  0.89046727  0.87009771  0.00000000  1
  Ba  Ba20  1  0.11006023  0.43289728  0.22012045  1
  Ba  Ba21  1  0.88993977  0.56710272  0.77987955  1
  Ba  Ba22  1  0.88993977  0.21277683  0.77987955  1
  Ba  Ba23  1  0.11006023  0.78722317  0.22012045  1
  Ba  Ba24  1  0.14889584  0.14889584  0.29779169  1
  Ba  Ba25  1  0.85110416  0.85110416  0.70220831  1
  Ba  Ba26  1  0.31315445  0.56532231  0.62630890  1
  Ba  Ba27  1  0.68684555  0.43467769  0.37369110  1
  Ba  Ba28  1  0.68684555  0.93901341  0.37369110  1
  Ba  Ba29  1  0.31315445  0.06098659  0.62630890  1
  Ba  Ba30  1  0.42829538  0.10018196  0.20036391  1
  Ba  Ba31  1  0.22793147  0.89981804  0.79963609  1
  Ba  Ba32  1  0.57170462  0.89981804  0.79963609  1
  Ba  Ba33  1  0.77206853  0.10018196  0.20036391  1
  Ba  Ba34  1  0.55367601  0.30408841  0.60817681  1
  Ba  Ba35  1  0.94549920  0.69591159  0.39182319  1
  Ba  Ba36  1  0.44632399  0.69591159  0.39182319  1
  Ba  Ba37  1  0.05450080  0.30408841  0.60817681  1
  Ba  Ba38  1  0.32602021  0.33523793  1.00000000  1
  Ba  Ba39  1  0.32602021  0.66476207  0.00000000  1
  Ba  Ba40  1  0.67397979  0.33523793  1.00000000  1
  Ba  Ba41  1  0.67397979  0.66476207  0.00000000  1
