# generated using pymatgen
data_Ca2La3Cu4AgO12
_symmetry_space_group_name_H-M   'P 1'
_cell_length_a   5.38238237
_cell_length_b   5.38368938
_cell_length_c   10.12962608
_cell_angle_alpha   90.00000000
_cell_angle_beta   74.59292238
_cell_angle_gamma   90.00000000
_symmetry_Int_Tables_number   1
_chemical_formula_structural   Ca2La3Cu4AgO12
_chemical_formula_sum   'Ca2 La3 Cu4 Ag1 O12'
_cell_volume   282.97833574
_cell_formula_units_Z   1
loop_
 _symmetry_equiv_pos_site_id
 _symmetry_equiv_pos_as_xyz
  1  'x, y, z'
loop_
 _atom_site_type_symbol
 _atom_site_label
 _atom_site_symmetry_multiplicity
 _atom_site_fract_x
 _atom_site_fract_y
 _atom_site_fract_z
 _atom_site_occupancy
  Ca  Ca0  1  0.50828635  0.50000000  0.98342730  1
  Ca  Ca1  1  0.99833552  0.00000000  0.00332897  1
  La  La2  1  0.17431216  0.00000000  0.65137568  1
  La  La3  1  0.81995586  0.00000000  0.36008828  1
  La  La4  1  0.32184385  0.50000000  0.35631230  1
  Cu  Cu5  1  0.41676819  0.00000000  0.16646362  1
  Cu  Cu6  1  0.91430060  0.50000000  0.17139879  1
  Cu  Cu7  1  0.09137026  0.50000000  0.81725948  1
  Cu  Cu8  1  0.59059947  0.00000000  0.81880105  1
  Ag  Ag9  1  0.68884016  0.50000000  0.62231967  1
  O  O10  1  0.29410077  0.00000000  0.41179846  1
  O  O11  1  0.80458147  0.50000000  0.39083707  1
  O  O12  1  0.20332372  0.50000000  0.59335255  1
  O  O13  1  0.70292473  0.00000000  0.59415053  1
  O  O14  1  0.32051779  0.24285897  0.84450919  1
  O  O15  1  0.83497302  0.75714103  0.84450919  1
  O  O16  1  0.83497302  0.24285897  0.84450919  1
  O  O17  1  0.32051779  0.75714103  0.84450919  1
  O  O18  1  0.16584633  0.24935950  0.17026237  1
  O  O19  1  0.66389130  0.75064050  0.17026237  1
  O  O20  1  0.66389130  0.24935950  0.17026237  1
  O  O21  1  0.16584633  0.75064050  0.17026237  1
