# generated using pymatgen
data_BaNaCe2C4O12F
_symmetry_space_group_name_H-M   'P 1'
_cell_length_a   5.14827906
_cell_length_b   5.14827877
_cell_length_c   23.18747046
_cell_angle_alpha   90.00000000
_cell_angle_beta   90.00000000
_cell_angle_gamma   120.00000185
_symmetry_Int_Tables_number   1
_chemical_formula_structural   BaNaCe2C4O12F
_chemical_formula_sum   'Ba2 Na2 Ce4 C8 O24 F2'
_cell_volume   532.24076206
_cell_formula_units_Z   2
loop_
 _symmetry_equiv_pos_site_id
 _symmetry_equiv_pos_as_xyz
  1  'x, y, z'
loop_
 _atom_site_type_symbol
 _atom_site_label
 _atom_site_symmetry_multiplicity
 _atom_site_fract_x
 _atom_site_fract_y
 _atom_site_fract_z
 _atom_site_occupancy
  Ba  Ba0  1  0.00000000  0.00000000  0.00000000  1
  Ba  Ba1  1  0.00000000  0.00000000  0.50000000  1
  Ce  Ce2  1  0.33333300  0.66666700  0.35311701  1
  Ce  Ce3  1  0.66666700  0.33333300  0.85311701  1
  Ce  Ce4  1  0.66666700  0.33333300  0.64688299  1
  Ce  Ce5  1  0.33333300  0.66666700  0.14688299  1
  Na  Na6  1  0.33333300  0.66666700  0.75000000  1
  Na  Na7  1  0.66666700  0.33333300  0.25000000  1
  F  F8  1  0.33333300  0.66666700  0.25000000  1
  F  F9  1  0.66666700  0.33333300  0.75000000  1
  C  C10  1  0.00000000  0.00000000  0.67739659  1
  C  C11  1  0.00000000  0.00000000  0.17739659  1
  C  C12  1  0.00000000  0.00000000  0.32260341  1
  C  C13  1  0.00000000  0.00000000  0.82260341  1
  O  O14  1  0.14518193  0.29036387  0.67611719  1
  O  O15  1  0.85481807  0.14518193  0.17611719  1
  O  O16  1  0.29036387  0.14518193  0.17611719  1
  O  O17  1  0.70963613  0.85481807  0.67611719  1
  O  O18  1  0.14518193  0.85481807  0.67611719  1
  O  O19  1  0.85481807  0.70963613  0.32388281  1
  O  O20  1  0.85481807  0.14518193  0.32388281  1
  O  O21  1  0.85481807  0.70963613  0.17611719  1
  O  O22  1  0.29036387  0.14518193  0.32388281  1
  O  O23  1  0.70963613  0.85481807  0.82388281  1
  O  O24  1  0.14518193  0.29036387  0.82388281  1
  O  O25  1  0.14518193  0.85481807  0.82388281  1
  C  C26  1  0.66666700  0.33333300  0.43298687  1
  C  C27  1  0.33333300  0.66666700  0.93298687  1
  C  C28  1  0.33333300  0.66666700  0.56701313  1
  C  C29  1  0.66666700  0.33333300  0.06701313  1
  O  O30  1  0.52110893  0.04221786  0.43433177  1
  O  O31  1  0.47889107  0.52110893  0.93433177  1
  O  O32  1  0.04221786  0.52110893  0.93433177  1
  O  O33  1  0.95778214  0.47889107  0.43433177  1
  O  O34  1  0.52110893  0.47889107  0.43433177  1
  O  O35  1  0.47889107  0.95778214  0.56566823  1
  O  O36  1  0.47889107  0.52110893  0.56566823  1
  O  O37  1  0.47889107  0.95778214  0.93433177  1
  O  O38  1  0.04221786  0.52110893  0.56566823  1
  O  O39  1  0.95778214  0.47889107  0.06566823  1
  O  O40  1  0.52110893  0.04221786  0.06566823  1
  O  O41  1  0.52110893  0.47889107  0.06566823  1
