# generated using pymatgen
data_Sr5Cd3
_symmetry_space_group_name_H-M   'P 1'
_cell_length_a   8.66345616
_cell_length_b   8.66345606
_cell_length_c   10.42247046
_cell_angle_alpha   114.55801296
_cell_angle_beta   114.55801264
_cell_angle_gamma   89.99999685
_symmetry_Int_Tables_number   1
_chemical_formula_structural   Sr5Cd3
_chemical_formula_sum   'Sr10 Cd6'
_cell_volume   632.87451817
_cell_formula_units_Z   2
loop_
 _symmetry_equiv_pos_site_id
 _symmetry_equiv_pos_as_xyz
  1  'x, y, z'
loop_
 _atom_site_type_symbol
 _atom_site_label
 _atom_site_symmetry_multiplicity
 _atom_site_fract_x
 _atom_site_fract_y
 _atom_site_fract_z
 _atom_site_occupancy
  Sr  Sr0  1  0.97885408  0.47885408  0.29469098  1
  Sr  Sr1  1  0.81583690  0.97885408  0.29469098  1
  Sr  Sr2  1  0.68416310  0.18416310  0.70530902  1
  Sr  Sr3  1  0.50000000  0.50000000  0.00000000  1
  Sr  Sr4  1  0.52114592  0.68416310  0.70530902  1
  Sr  Sr5  1  0.47885408  0.31583690  0.29469098  1
  Sr  Sr6  1  0.31583690  0.81583690  0.29469098  1
  Sr  Sr7  1  0.18416310  0.02114592  0.70530902  1
  Sr  Sr8  1  0.00000000  0.00000000  0.00000000  1
  Sr  Sr9  1  0.02114592  0.52114592  0.70530902  1
  Cd  Cd10  1  0.87752688  0.62247312  0.00000000  1
  Cd  Cd11  1  0.37752688  0.87752688  1.00000000  1
  Cd  Cd12  1  0.62247312  0.12247312  0.00000000  1
  Cd  Cd13  1  0.25000000  0.25000000  0.50000000  1
  Cd  Cd14  1  0.12247312  0.37752688  1.00000000  1
  Cd  Cd15  1  0.75000000  0.75000000  0.50000000  1
