# generated using pymatgen
data_LaNbO4
_symmetry_space_group_name_H-M   'P 1'
_cell_length_a   5.36072070
_cell_length_b   5.51639115
_cell_length_c   6.96834192
_cell_angle_alpha   112.57141969
_cell_angle_beta   111.85858249
_cell_angle_gamma   91.78527669
_symmetry_Int_Tables_number   1
_chemical_formula_structural   LaNbO4
_chemical_formula_sum   'La2 Nb2 O8'
_cell_volume   172.92123173
_cell_formula_units_Z   2
loop_
 _symmetry_equiv_pos_site_id
 _symmetry_equiv_pos_as_xyz
  1  'x, y, z'
loop_
 _atom_site_type_symbol
 _atom_site_label
 _atom_site_symmetry_multiplicity
 _atom_site_fract_x
 _atom_site_fract_y
 _atom_site_fract_z
 _atom_site_occupancy
  La  La0  1  0.37671543  0.12671543  0.75343086  1
  La  La1  1  0.62328457  0.87328457  0.24656914  1
  Nb  Nb2  1  0.86511262  0.61511262  0.73022524  1
  Nb  Nb3  1  0.13488738  0.38488738  0.26977476  1
  O  O4  1  0.79925942  0.13707711  0.08395587  1
  O  O5  1  0.28469645  0.44687876  0.08395587  1
  O  O6  1  0.20074058  0.86292289  0.91604413  1
  O  O7  1  0.71530355  0.55312124  0.91604413  1
  O  O8  1  0.60757687  0.77997203  0.57155870  1
  O  O9  1  0.96398183  0.29158668  0.57155870  1
  O  O10  1  0.39242313  0.22002797  0.42844130  1
  O  O11  1  0.03601817  0.70841332  0.42844130  1
