# generated using pymatgen
data_NbPO5
_symmetry_space_group_name_H-M   'P 1'
_cell_length_a   5.39285384
_cell_length_b   13.28328921
_cell_length_c   13.32904917
_cell_angle_alpha   118.98963161
_cell_angle_beta   90.00000000
_cell_angle_gamma   90.00000000
_symmetry_Int_Tables_number   1
_chemical_formula_structural   NbPO5
_chemical_formula_sum   'Nb8 P8 O40'
_cell_volume   835.19187655
_cell_formula_units_Z   8
loop_
 _symmetry_equiv_pos_site_id
 _symmetry_equiv_pos_as_xyz
  1  'x, y, z'
loop_
 _atom_site_type_symbol
 _atom_site_label
 _atom_site_symmetry_multiplicity
 _atom_site_fract_x
 _atom_site_fract_y
 _atom_site_fract_z
 _atom_site_occupancy
  Nb  Nb0  1  0.75680637  0.36575170  0.30273147  1
  Nb  Nb1  1  0.25680637  0.13424830  0.19726853  1
  Nb  Nb2  1  0.24319363  0.63424830  0.69726853  1
  Nb  Nb3  1  0.74319363  0.86575170  0.80273147  1
  Nb  Nb4  1  0.74635935  0.19733582  0.63400865  1
  Nb  Nb5  1  0.24635935  0.30266418  0.86599135  1
  Nb  Nb6  1  0.25364065  0.80266418  0.36599135  1
  Nb  Nb7  1  0.75364065  0.69733582  0.13400865  1
  P  P8  1  0.73963468  0.40859461  0.06246276  1
  P  P9  1  0.23963468  0.09140539  0.43753724  1
  P  P10  1  0.26036532  0.59140539  0.93753724  1
  P  P11  1  0.76036532  0.90859461  0.56246276  1
  P  P12  1  0.23524313  0.06287273  0.90921800  1
  P  P13  1  0.73524313  0.43712727  0.59078200  1
  P  P14  1  0.76475687  0.93712727  0.09078200  1
  P  P15  1  0.26475687  0.56287273  0.40921800  1
  O  O16  1  0.75273495  0.37250075  0.15670222  1
  O  O17  1  0.25273495  0.12749925  0.34329778  1
  O  O18  1  0.24726505  0.62749925  0.84329778  1
  O  O19  1  0.74726505  0.87250075  0.65670222  1
  O  O20  1  0.76106276  0.37746098  0.45882793  1
  O  O21  1  0.26106276  0.12253902  0.04117207  1
  O  O22  1  0.23893724  0.62253902  0.54117207  1
  O  O23  1  0.73893724  0.87746098  0.95882793  1
  O  O24  1  0.47061147  0.26603348  0.25854550  1
  O  O25  1  0.97061147  0.23396652  0.24145450  1
  O  O26  1  0.52938853  0.73396652  0.74145450  1
  O  O27  1  0.02938853  0.76603348  0.75854550  1
  O  O28  1  0.52175524  0.50780492  0.37261492  1
  O  O29  1  0.02175524  0.99219508  0.12738508  1
  O  O30  1  0.47824476  0.49219508  0.62738508  1
  O  O31  1  0.97824476  0.00780492  0.87261492  1
  O  O32  1  0.05739548  0.47363983  0.35306292  1
  O  O33  1  0.55739548  0.02636017  0.14693708  1
  O  O34  1  0.94260452  0.52636017  0.64693708  1
  O  O35  1  0.44260452  0.97363983  0.85306292  1
  O  O36  1  0.76546537  0.34393337  0.62789375  1
  O  O37  1  0.26546537  0.15606663  0.87210625  1
  O  O38  1  0.23453463  0.65606663  0.37210625  1
  O  O39  1  0.73453463  0.84393337  0.12789375  1
  O  O40  1  0.72173807  0.04036847  0.62080194  1
  O  O41  1  0.22173807  0.45963153  0.87919806  1
  O  O42  1  0.27826193  0.95963153  0.37919806  1
  O  O43  1  0.77826193  0.54036847  0.12080194  1
  O  O44  1  0.52632801  0.26194571  0.76420580  1
  O  O45  1  0.02632801  0.23805429  0.73579420  1
  O  O46  1  0.47367199  0.73805429  0.23579420  1
  O  O47  1  0.97367199  0.76194571  0.26420580  1
  O  O48  1  0.98332176  0.12356664  0.49438715  1
  O  O49  1  0.48332176  0.37643336  0.00561285  1
  O  O50  1  0.01667824  0.87643336  0.50561285  1
  O  O51  1  0.51667824  0.62356664  0.99438715  1
  O  O52  1  0.44728111  0.15314038  0.52468248  1
  O  O53  1  0.94728111  0.34685962  0.97531752  1
  O  O54  1  0.55271889  0.84685962  0.47531752  1
  O  O55  1  0.05271889  0.65314038  0.02468248  1
