# generated using pymatgen
data_YCuPbS3
_symmetry_space_group_name_H-M   'P 1'
_cell_length_a   3.92604989
_cell_length_b   10.28004472
_cell_length_c   13.03333008
_cell_angle_alpha   90.00000000
_cell_angle_beta   90.00000000
_cell_angle_gamma   90.00000000
_symmetry_Int_Tables_number   1
_chemical_formula_structural   YCuPbS3
_chemical_formula_sum   'Y4 Cu4 Pb4 S12'
_cell_volume   526.02479072
_cell_formula_units_Z   4
loop_
 _symmetry_equiv_pos_site_id
 _symmetry_equiv_pos_as_xyz
  1  'x, y, z'
loop_
 _atom_site_type_symbol
 _atom_site_label
 _atom_site_symmetry_multiplicity
 _atom_site_fract_x
 _atom_site_fract_y
 _atom_site_fract_z
 _atom_site_occupancy
  Y  Y0  1  0.75000000  0.50632894  0.75029762  1
  Y  Y1  1  0.25000000  0.49367106  0.24970238  1
  Y  Y2  1  0.75000000  0.00632894  0.74970238  1
  Y  Y3  1  0.25000000  0.99367106  0.25029762  1
  Cu  Cu4  1  0.75000000  0.24367327  0.21729373  1
  Cu  Cu5  1  0.25000000  0.75632673  0.78270627  1
  Cu  Cu6  1  0.75000000  0.74367327  0.28270627  1
  Cu  Cu7  1  0.25000000  0.25632673  0.71729373  1
  Pb  Pb8  1  0.75000000  0.25521918  0.50209019  1
  Pb  Pb9  1  0.25000000  0.74478082  0.49790981  1
  Pb  Pb10  1  0.75000000  0.75521918  0.99790981  1
  Pb  Pb11  1  0.25000000  0.24478082  0.00209019  1
  S  S12  1  0.75000000  0.75616769  0.67532727  1
  S  S13  1  0.25000000  0.24383231  0.32467273  1
  S  S14  1  0.75000000  0.25616769  0.82467273  1
  S  S15  1  0.25000000  0.74383231  0.17532727  1
  S  S16  1  0.75000000  0.56128996  0.38811938  1
  S  S17  1  0.25000000  0.43871004  0.61188062  1
  S  S18  1  0.75000000  0.06128996  0.11188062  1
  S  S19  1  0.25000000  0.93871004  0.88811938  1
  S  S20  1  0.75000000  0.92549521  0.38820659  1
  S  S21  1  0.25000000  0.07450479  0.61179341  1
  S  S22  1  0.75000000  0.42549521  0.11179341  1
  S  S23  1  0.25000000  0.57450479  0.88820659  1
