# generated using pymatgen
data_Sr2GeO4
_symmetry_space_group_name_H-M   'P 1'
_cell_length_a   5.91828062
_cell_length_b   7.29468940
_cell_length_c   10.05339300
_cell_angle_alpha   90.00000000
_cell_angle_beta   94.49213554
_cell_angle_gamma   90.00000000
_symmetry_Int_Tables_number   1
_chemical_formula_structural   Sr2GeO4
_chemical_formula_sum   'Sr8 Ge4 O16'
_cell_volume   432.69198799
_cell_formula_units_Z   4
loop_
 _symmetry_equiv_pos_site_id
 _symmetry_equiv_pos_as_xyz
  1  'x, y, z'
loop_
 _atom_site_type_symbol
 _atom_site_label
 _atom_site_symmetry_multiplicity
 _atom_site_fract_x
 _atom_site_fract_y
 _atom_site_fract_z
 _atom_site_occupancy
  Sr  Sr0  1  0.27071600  0.34525168  0.56901636  1
  Sr  Sr1  1  0.22928400  0.84525168  0.93098364  1
  Sr  Sr2  1  0.72928400  0.65474832  0.43098364  1
  Sr  Sr3  1  0.77071600  0.15474832  0.06901636  1
  Sr  Sr4  1  0.27934872  0.99489122  0.29965958  1
  Sr  Sr5  1  0.22065128  0.49489122  0.20034042  1
  Sr  Sr6  1  0.72065128  0.00510878  0.70034042  1
  Sr  Sr7  1  0.77934872  0.50510878  0.79965958  1
  Ge  Ge8  1  0.23527652  0.78386908  0.58401589  1
  Ge  Ge9  1  0.26472348  0.28386908  0.91598411  1
  Ge  Ge10  1  0.76472348  0.21613092  0.41598411  1
  Ge  Ge11  1  0.73527652  0.71613092  0.08401589  1
  O  O12  1  0.28259524  0.01780818  0.55699075  1
  O  O13  1  0.21740476  0.51780818  0.94300925  1
  O  O14  1  0.71740476  0.98219182  0.44300925  1
  O  O15  1  0.78259524  0.48219182  0.05699075  1
  O  O16  1  0.15890271  0.66596440  0.42951307  1
  O  O17  1  0.34109729  0.16596440  0.07048693  1
  O  O18  1  0.84109729  0.33403560  0.57048693  1
  O  O19  1  0.65890271  0.83403560  0.92951307  1
  O  O20  1  0.49650912  0.67410568  0.63994718  1
  O  O21  1  0.00349088  0.17410568  0.86005282  1
  O  O22  1  0.50349088  0.32589432  0.36005282  1
  O  O23  1  0.99650912  0.82589432  0.13994718  1
  O  O24  1  0.02146492  0.75210025  0.69681356  1
  O  O25  1  0.47853508  0.25210025  0.80318644  1
  O  O26  1  0.97853508  0.24789975  0.30318644  1
  O  O27  1  0.52146492  0.74789975  0.19681356  1
