# generated using pymatgen
data_CaMg2(SO4)3
_symmetry_space_group_name_H-M   'P 1'
_cell_length_a   8.46958484
_cell_length_b   8.46958463
_cell_length_c   7.44717587
_cell_angle_alpha   90.00000000
_cell_angle_beta   90.00000000
_cell_angle_gamma   120.00000081
_symmetry_Int_Tables_number   1
_chemical_formula_structural   CaMg2(SO4)3
_chemical_formula_sum   'Ca2 Mg4 S6 O24'
_cell_volume   462.64350835
_cell_formula_units_Z   2
loop_
 _symmetry_equiv_pos_site_id
 _symmetry_equiv_pos_as_xyz
  1  'x, y, z'
loop_
 _atom_site_type_symbol
 _atom_site_label
 _atom_site_symmetry_multiplicity
 _atom_site_fract_x
 _atom_site_fract_y
 _atom_site_fract_z
 _atom_site_occupancy
  Ca  Ca0  1  0.00000000  0.00000000  0.00000000  1
  Ca  Ca1  1  0.00000000  0.00000000  0.50000000  1
  Mg  Mg2  1  0.66666700  0.33333300  0.95283903  1
  Mg  Mg3  1  0.33333300  0.66666700  0.04716097  1
  Mg  Mg4  1  0.33333300  0.66666700  0.45283903  1
  Mg  Mg5  1  0.66666700  0.33333300  0.54716097  1
  S  S6  1  0.03349910  0.67006361  0.75000000  1
  S  S7  1  0.67006361  0.63656451  0.25000000  1
  S  S8  1  0.63656451  0.96650090  0.75000000  1
  S  S9  1  0.36343549  0.03349910  0.25000000  1
  S  S10  1  0.96650090  0.32993639  0.25000000  1
  S  S11  1  0.32993639  0.36343549  0.75000000  1
  O  O12  1  0.87239229  0.48022254  0.75000000  1
  O  O13  1  0.16277672  0.96333750  0.25000000  1
  O  O14  1  0.44152740  0.14234543  0.08580209  1
  O  O15  1  0.19943922  0.16277672  0.75000000  1
  O  O16  1  0.60783025  0.12760771  0.75000000  1
  O  O17  1  0.51977746  0.39216975  0.75000000  1
  O  O18  1  0.85765457  0.29918197  0.08580209  1
  O  O19  1  0.14234543  0.70081803  0.58580209  1
  O  O20  1  0.29918197  0.44152740  0.58580209  1
  O  O21  1  0.12760771  0.51977746  0.25000000  1
  O  O22  1  0.03666250  0.19943922  0.25000000  1
  O  O23  1  0.96333750  0.80056078  0.75000000  1
  O  O24  1  0.80056078  0.83722328  0.25000000  1
  O  O25  1  0.29918197  0.44152740  0.91419791  1
  O  O26  1  0.14234543  0.70081803  0.91419791  1
  O  O27  1  0.48022254  0.60783025  0.25000000  1
  O  O28  1  0.70081803  0.55847260  0.08580209  1
  O  O29  1  0.44152740  0.14234543  0.41419791  1
  O  O30  1  0.39216975  0.87239229  0.25000000  1
  O  O31  1  0.85765457  0.29918197  0.41419791  1
  O  O32  1  0.70081803  0.55847260  0.41419791  1
  O  O33  1  0.83722328  0.03666250  0.75000000  1
  O  O34  1  0.55847260  0.85765457  0.58580209  1
  O  O35  1  0.55847260  0.85765457  0.91419791  1
