# generated using pymatgen
data_ZnS
_symmetry_space_group_name_H-M   'P 1'
_cell_length_a   3.85275261
_cell_length_b   3.85275250
_cell_length_c   88.21958997
_cell_angle_alpha   90.00000000
_cell_angle_beta   90.00000000
_cell_angle_gamma   120.00000086
_symmetry_Int_Tables_number   1
_chemical_formula_structural   ZnS
_chemical_formula_sum   'Zn28 S28'
_cell_volume   1134.06486880
_cell_formula_units_Z   28
loop_
 _symmetry_equiv_pos_site_id
 _symmetry_equiv_pos_as_xyz
  1  'x, y, z'
loop_
 _atom_site_type_symbol
 _atom_site_label
 _atom_site_symmetry_multiplicity
 _atom_site_fract_x
 _atom_site_fract_y
 _atom_site_fract_z
 _atom_site_occupancy
  Zn  Zn0  1  0.66666700  0.33333300  0.07142677  1
  Zn  Zn1  1  0.00000000  0.00000000  0.92858935  1
  Zn  Zn2  1  0.00000000  0.00000000  0.64288338  1
  Zn  Zn3  1  0.00000000  0.00000000  0.21430594  1
  Zn  Zn4  1  0.66666700  0.33333300  0.39286034  1
  Zn  Zn5  1  0.33333300  0.66666700  0.10716061  1
  Zn  Zn6  1  0.33333300  0.66666700  0.46427450  1
  Zn  Zn7  1  0.33333300  0.66666700  0.53573900  1
  Zn  Zn8  1  0.00000000  0.00000000  0.85717325  1
  Zn  Zn9  1  0.00000000  0.00000000  0.78572307  1
  Zn  Zn10  1  0.66666700  0.33333300  0.96429859  1
  Zn  Zn11  1  0.33333300  0.66666700  0.32144798  1
  Zn  Zn12  1  0.00000000  0.00000000  0.14283885  1
  Zn  Zn13  1  0.00000000  0.00000000  0.35712660  1
  Zn  Zn14  1  0.00000000  0.00000000  0.00002511  1
  Zn  Zn15  1  0.66666700  0.33333300  0.60714794  1
  Zn  Zn16  1  0.33333300  0.66666700  0.67856312  1
  Zn  Zn17  1  0.66666700  0.33333300  0.71429851  1
  Zn  Zn18  1  0.66666700  0.33333300  0.82145576  1
  Zn  Zn19  1  0.66666700  0.33333300  0.28571461  1
  Zn  Zn20  1  0.33333300  0.66666700  0.03569784  1
  Zn  Zn21  1  0.33333300  0.66666700  0.89287710  1
  Zn  Zn22  1  0.33333300  0.66666700  0.24998359  1
  Zn  Zn23  1  0.66666700  0.33333300  0.17857127  1
  Zn  Zn24  1  0.66666700  0.33333300  0.50000620  1
  Zn  Zn25  1  0.00000000  0.00000000  0.57141600  1
  Zn  Zn26  1  0.00000000  0.00000000  0.42859610  1
  Zn  Zn27  1  0.33333300  0.66666700  0.75003837  1
  S  S28  1  0.66666700  0.33333300  0.20537573  1
  S  S29  1  0.33333300  0.66666700  0.56249007  1
  S  S30  1  0.33333300  0.66666700  0.70532200  1
  S  S31  1  0.66666700  0.33333300  0.63395293  1
  S  S32  1  0.00000000  0.00000000  0.02677426  1
  S  S33  1  0.00000000  0.00000000  0.38388320  1
  S  S34  1  0.66666700  0.33333300  0.99109898  1
  S  S35  1  0.66666700  0.33333300  0.84825552  1
  S  S36  1  0.66666700  0.33333300  0.41966496  1
  S  S37  1  0.66666700  0.33333300  0.52680971  1
  S  S38  1  0.33333300  0.66666700  0.06245228  1
  S  S39  1  0.66666700  0.33333300  0.09823087  1
  S  S40  1  0.00000000  0.00000000  0.45534767  1
  S  S41  1  0.66666700  0.33333300  0.31251835  1
  S  S42  1  0.00000000  0.00000000  0.88391344  1
  S  S43  1  0.00000000  0.00000000  0.59817266  1
  S  S44  1  0.00000000  0.00000000  0.66963632  1
  S  S45  1  0.33333300  0.66666700  0.77679666  1
  S  S46  1  0.00000000  0.00000000  0.95533144  1
  S  S47  1  0.00000000  0.00000000  0.16959496  1
  S  S48  1  0.00000000  0.00000000  0.24105735  1
  S  S49  1  0.33333300  0.66666700  0.91967287  1
  S  S50  1  0.66666700  0.33333300  0.74110518  1
  S  S51  1  0.33333300  0.66666700  0.34819959  1
  S  S52  1  0.33333300  0.66666700  0.27673922  1
  S  S53  1  0.00000000  0.00000000  0.81248039  1
  S  S54  1  0.33333300  0.66666700  0.13391242  1
  S  S55  1  0.33333300  0.66666700  0.49103122  1
