# generated using pymatgen
data_CsTaPS6
_symmetry_space_group_name_H-M   'P 1'
_cell_length_a   8.94039459
_cell_length_b   13.28803547
_cell_length_c   17.65152972
_cell_angle_alpha   90.00000000
_cell_angle_beta   99.28068054
_cell_angle_gamma   90.00000000
_symmetry_Int_Tables_number   1
_chemical_formula_structural   CsTaPS6
_chemical_formula_sum   'Cs8 Ta8 P8 S48'
_cell_volume   2069.55718047
_cell_formula_units_Z   8
loop_
 _symmetry_equiv_pos_site_id
 _symmetry_equiv_pos_as_xyz
  1  'x, y, z'
loop_
 _atom_site_type_symbol
 _atom_site_label
 _atom_site_symmetry_multiplicity
 _atom_site_fract_x
 _atom_site_fract_y
 _atom_site_fract_z
 _atom_site_occupancy
  Cs  Cs0  1  0.69042029  0.39094106  0.21906501  1
  Cs  Cs1  1  0.30957971  0.60905894  0.78093499  1
  Cs  Cs2  1  0.69042029  0.10905894  0.71906501  1
  Cs  Cs3  1  0.30957971  0.89094106  0.28093499  1
  Cs  Cs4  1  0.15850559  0.56178668  0.17650576  1
  Cs  Cs5  1  0.84149441  0.43821332  0.82349424  1
  Cs  Cs6  1  0.84149441  0.06178668  0.32349424  1
  Cs  Cs7  1  0.15850559  0.93821332  0.67650576  1
  Ta  Ta8  1  0.16095369  0.31494320  0.63665970  1
  Ta  Ta9  1  0.40819200  0.24142235  0.00757976  1
  Ta  Ta10  1  0.16095369  0.18505680  0.13665970  1
  Ta  Ta11  1  0.83904631  0.81494320  0.86334030  1
  Ta  Ta12  1  0.83904631  0.68505680  0.36334030  1
  Ta  Ta13  1  0.40819200  0.25857765  0.50757976  1
  Ta  Ta14  1  0.59180800  0.74142235  0.49242024  1
  Ta  Ta15  1  0.59180800  0.75857765  0.99242024  1
  P  P16  1  0.77922486  0.24461499  0.50657906  1
  P  P17  1  0.22077514  0.74461499  0.99342094  1
  P  P18  1  0.70316261  0.73697627  0.17971690  1
  P  P19  1  0.70316261  0.76302373  0.67971690  1
  P  P20  1  0.29683739  0.23697627  0.32028310  1
  P  P21  1  0.77922486  0.25538501  0.00657906  1
  P  P22  1  0.22077514  0.75538501  0.49342094  1
  P  P23  1  0.29683739  0.26302373  0.82028310  1
  S  S24  1  0.39466051  0.34114138  0.73934223  1
  S  S25  1  0.10932367  0.29325485  0.24874569  1
  S  S26  1  0.60533949  0.84114138  0.76065777  1
  S  S27  1  0.14078946  0.79977656  0.08380847  1
  S  S28  1  0.35076800  0.84578046  0.94082146  1
  S  S29  1  0.34047664  0.41827431  0.56913366  1
  S  S30  1  0.64923200  0.34578046  0.55917854  1
  S  S31  1  0.33508296  0.15635869  0.59857890  1
  S  S32  1  0.74936907  0.64341799  0.09430670  1
  S  S33  1  0.04655495  0.81447286  0.41260396  1
  S  S34  1  0.97753954  0.94662447  0.84215513  1
  S  S35  1  0.97753954  0.55337553  0.34215513  1
  S  S36  1  0.39466051  0.15885862  0.23934223  1
  S  S37  1  0.38546439  0.86509864  0.51946683  1
  S  S38  1  0.95344505  0.18552714  0.58739604  1
  S  S39  1  0.89067633  0.70674515  0.75125431  1
  S  S40  1  0.60533949  0.65885862  0.26065777  1
  S  S41  1  0.33508296  0.34364131  0.09857890  1
  S  S42  1  0.15474424  0.35805677  0.49659711  1
  S  S43  1  0.95344505  0.31447286  0.08739604  1
  S  S44  1  0.66491704  0.84364131  0.40142110  1
  S  S45  1  0.74936907  0.85658201  0.59430670  1
  S  S46  1  0.61453561  0.36509864  0.98053317  1
  S  S47  1  0.25063093  0.35658201  0.90569330  1
  S  S48  1  0.34047664  0.08172569  0.06913366  1
  S  S49  1  0.38546439  0.63490136  0.01946683  1
  S  S50  1  0.10932367  0.20674515  0.74874569  1
  S  S51  1  0.14078946  0.70022344  0.58380847  1
  S  S52  1  0.85921054  0.20022344  0.91619153  1
  S  S53  1  0.65952336  0.58172569  0.43086634  1
  S  S54  1  0.42858810  0.15313224  0.87641449  1
  S  S55  1  0.84525576  0.85805677  0.00340289  1
  S  S56  1  0.35076800  0.65421954  0.44082146  1
  S  S57  1  0.02246046  0.44662447  0.65784487  1
  S  S58  1  0.57141190  0.84686776  0.12358551  1
  S  S59  1  0.15474424  0.14194323  0.99659711  1
  S  S60  1  0.04655495  0.68552714  0.91260396  1
  S  S61  1  0.65952336  0.91827431  0.93086634  1
  S  S62  1  0.61453561  0.13490136  0.48053317  1
  S  S63  1  0.84525576  0.64194323  0.50340289  1
  S  S64  1  0.66491704  0.65635869  0.90142110  1
  S  S65  1  0.64923200  0.15421954  0.05917854  1
  S  S66  1  0.89067633  0.79325485  0.25125431  1
  S  S67  1  0.57141190  0.65313224  0.62358551  1
  S  S68  1  0.42858810  0.34686776  0.37641449  1
  S  S69  1  0.85921054  0.29977656  0.41619153  1
  S  S70  1  0.02246046  0.05337553  0.15784487  1
  S  S71  1  0.25063093  0.14341799  0.40569330  1
