# generated using pymatgen
data_FeCoPO5
_symmetry_space_group_name_H-M   'P 1'
_cell_length_a   6.53003067
_cell_length_b   7.41591638
_cell_length_c   7.47954981
_cell_angle_alpha   90.00000000
_cell_angle_beta   90.00000000
_cell_angle_gamma   90.00000000
_symmetry_Int_Tables_number   1
_chemical_formula_structural   FeCoPO5
_chemical_formula_sum   'Fe4 Co4 P4 O20'
_cell_volume   362.20588635
_cell_formula_units_Z   4
loop_
 _symmetry_equiv_pos_site_id
 _symmetry_equiv_pos_as_xyz
  1  'x, y, z'
loop_
 _atom_site_type_symbol
 _atom_site_label
 _atom_site_symmetry_multiplicity
 _atom_site_fract_x
 _atom_site_fract_y
 _atom_site_fract_z
 _atom_site_occupancy
  Co  Co0  1  0.00000000  0.00000000  0.00000000  1
  Co  Co1  1  0.50000000  0.00000000  0.00000000  1
  Co  Co2  1  0.50000000  0.50000000  0.50000000  1
  Co  Co3  1  0.00000000  0.50000000  0.50000000  1
  Fe  Fe4  1  0.75000000  0.84817879  0.28377683  1
  Fe  Fe5  1  0.25000000  0.15182121  0.71622317  1
  Fe  Fe6  1  0.75000000  0.34817879  0.21622317  1
  Fe  Fe7  1  0.25000000  0.65182121  0.78377683  1
  P  P8  1  0.75000000  0.62267746  0.86693701  1
  P  P9  1  0.25000000  0.37732254  0.13306299  1
  P  P10  1  0.75000000  0.12267746  0.63306299  1
  P  P11  1  0.25000000  0.87732254  0.36693701  1
  O  O12  1  0.75000000  0.59643935  0.35699424  1
  O  O13  1  0.25000000  0.40356065  0.64300576  1
  O  O14  1  0.75000000  0.09643935  0.14300576  1
  O  O15  1  0.25000000  0.90356065  0.85699424  1
  O  O16  1  0.75000000  0.79371550  0.98936833  1
  O  O17  1  0.25000000  0.20628450  0.01063167  1
  O  O18  1  0.75000000  0.29371550  0.51063167  1
  O  O19  1  0.25000000  0.70628450  0.48936833  1
  O  O20  1  0.75000000  0.95017013  0.52196264  1
  O  O21  1  0.25000000  0.04982987  0.47803736  1
  O  O22  1  0.75000000  0.45017013  0.97803736  1
  O  O23  1  0.25000000  0.54982987  0.02196264  1
  O  O24  1  0.94080180  0.63004653  0.74267442  1
  O  O25  1  0.44080180  0.36995347  0.25732558  1
  O  O26  1  0.55919820  0.13004653  0.75732558  1
  O  O27  1  0.05919820  0.86995347  0.24267442  1
  O  O28  1  0.05919820  0.36995347  0.25732558  1
  O  O29  1  0.55919820  0.63004653  0.74267442  1
  O  O30  1  0.44080180  0.86995347  0.24267442  1
  O  O31  1  0.94080180  0.13004653  0.75732558  1
