# generated using pymatgen
data_KNaMo6H14PtO30
_symmetry_space_group_name_H-M   'P 1'
_cell_length_a   10.48990692
_cell_length_b   12.45335194
_cell_length_c   12.73680326
_cell_angle_alpha   62.32052522
_cell_angle_beta   76.34850247
_cell_angle_gamma   75.01170761
_symmetry_Int_Tables_number   1
_chemical_formula_structural   KNaMo6H14PtO30
_chemical_formula_sum   'K2 Na2 Mo12 H28 Pt2 O60'
_cell_volume   1410.20485011
_cell_formula_units_Z   2
loop_
 _symmetry_equiv_pos_site_id
 _symmetry_equiv_pos_as_xyz
  1  'x, y, z'
loop_
 _atom_site_type_symbol
 _atom_site_label
 _atom_site_symmetry_multiplicity
 _atom_site_fract_x
 _atom_site_fract_y
 _atom_site_fract_z
 _atom_site_occupancy
  K  K0  1  0.77972583  0.85863922  0.62795724  1
  K  K1  1  0.22366017  0.13789139  0.37377532  1
  Na  Na2  1  0.49606052  0.50437478  0.99702480  1
  Na  Na3  1  0.08166234  0.48102794  0.07829694  1
  Mo  Mo4  1  0.76347196  0.63445796  0.46055116  1
  Mo  Mo5  1  0.23752875  0.36545621  0.53761073  1
  Mo  Mo6  1  0.67059171  0.09073239  0.10779137  1
  Mo  Mo7  1  0.32909443  0.90952055  0.89398204  1
  Mo  Mo8  1  0.07060799  0.94291219  0.75485005  1
  Mo  Mo9  1  0.92948387  0.05845488  0.24536348  1
  Mo  Mo10  1  0.82337940  0.37984472  0.40819258  1
  Mo  Mo11  1  0.17806011  0.61923621  0.58919900  1
  Mo  Mo12  1  0.74369776  0.03691296  0.85903407  1
  Mo  Mo13  1  0.25608316  0.96419329  0.14180928  1
  Mo  Mo14  1  0.56023651  0.24644920  0.44435010  1
  Mo  Mo15  1  0.43995825  0.75238801  0.55527041  1
  H  H16  1  0.89812433  0.14432083  0.63670559  1
  H  H17  1  0.10134260  0.85592233  0.36381163  1
  H  H18  1  0.92259185  0.74122170  0.96381551  1
  H  H19  1  0.07985496  0.26154802  0.03386785  1
  H  H20  1  0.63661391  0.61103437  0.28258442  1
  H  H21  1  0.36695227  0.38984088  0.71403170  1
  H  H22  1  0.82701738  0.66648189  0.07359893  1
  H  H23  1  0.16306988  0.34787135  0.92470536  1
  H  H24  1  0.67778255  0.68441694  0.89895945  1
  H  H25  1  0.33211568  0.29971431  0.11733063  1
  H  H26  1  0.86350126  0.22288619  0.89217193  1
  H  H27  1  0.13628419  0.77952370  0.10415107  1
  H  H28  1  0.41048649  0.48801385  0.26026341  1
  H  H29  1  0.58777556  0.51376100  0.74242388  1
  H  H30  1  0.62760516  0.28547640  0.64014107  1
  H  H31  1  0.37390348  0.71559533  0.35752647  1
  H  H32  1  0.39761583  0.13661542  0.64762477  1
  H  H33  1  0.60358495  0.86319549  0.35249637  1
  H  H34  1  0.87733711  0.85472268  0.20662419  1
  H  H35  1  0.12427112  0.14575981  0.79355596  1
  H  H36  1  0.30693979  0.57347215  0.17123331  1
  H  H37  1  0.69738114  0.42993968  0.82526179  1
  H  H38  1  0.25841339  0.67549405  0.89575980  1
  H  H39  1  0.73213479  0.33130217  0.10103846  1
  H  H40  1  0.69485053  0.60422938  0.82908376  1
  H  H41  1  0.32404186  0.38305901  0.18269835  1
  H  H42  1  0.28932873  0.58486502  0.83951751  1
  H  H43  1  0.69755692  0.41678250  0.16320158  1
  Pt  Pt44  1  0.00004180  0.00062271  0.00029522  1
  Pt  Pt45  1  0.50077108  0.50015846  0.49847126  1
  O  O46  1  0.65153058  0.17984079  0.77385170  1
  O  O47  1  0.34817437  0.82112707  0.22587589  1
  O  O48  1  0.15443937  0.02870923  0.61749571  1
  O  O49  1  0.84597359  0.97201512  0.38243996  1
  O  O50  1  0.84870069  0.71857715  0.31998843  1
  O  O51  1  0.15247819  0.28209250  0.67865551  1
  O  O52  1  0.62583171  0.33677146  0.55084346  1
  O  O53  1  0.37589597  0.66324884  0.44683367  1
  O  O54  1  0.87569867  0.94571830  0.15617288  1
  O  O55  1  0.12535762  0.05490858  0.84448651  1
  O  O56  1  0.86214665  0.34654210  0.83103014  1
  O  O57  1  0.12541899  0.64935913  0.14580029  1
  O  O58  1  0.42380895  0.42603894  0.42295478  1
  O  O59  1  0.57750847  0.57361397  0.57449692  1
  O  O60  1  0.90491220  0.08121717  0.72224500  1
  O  O61  1  0.09515629  0.91998795  0.27815488  1
  O  O62  1  0.28221676  0.58618017  0.91726199  1
  O  O63  1  0.69299241  0.41688223  0.08722231  1
  O  O64  1  0.73198738  0.66692540  0.83308080  1
  O  O65  1  0.27088147  0.34137737  0.16320811  1
  O  O66  1  0.81773171  0.65877355  0.56401364  1
  O  O67  1  0.18407806  0.33927643  0.43479384  1
  O  O68  1  0.83964043  0.13074383  0.94314159  1
  O  O69  1  0.15984240  0.86848803  0.05927314  1
  O  O70  1  0.66066591  0.68235664  0.14733831  1
  O  O71  1  0.35588190  0.31180235  0.85043327  1
  O  O72  1  0.93006007  0.43894656  0.27711669  1
  O  O73  1  0.07446401  0.55479924  0.71952854  1
  O  O74  1  0.90399037  0.23333610  0.49636146  1
  O  O75  1  0.09431821  0.76572274  0.50344546  1
  O  O76  1  0.40024598  0.22100043  0.57845575  1
  O  O77  1  0.60111313  0.77855676  0.42158221  1
  O  O78  1  0.93250257  0.92400999  0.92175583  1
  O  O79  1  0.06795666  0.07793463  0.07790027  1
  O  O80  1  0.69908226  0.34027083  0.34251372  1
  O  O81  1  0.30163255  0.65840476  0.65689457  1
  O  O82  1  0.66042208  0.00025998  0.01968607  1
  O  O83  1  0.33955845  0.00046134  0.98114300  1
  O  O84  1  0.84393665  0.46673679  0.49579880  1
  O  O85  1  0.15857211  0.53306655  0.49949006  1
  O  O86  1  0.59623352  0.99723957  0.24810265  1
  O  O87  1  0.40521846  0.00123962  0.75375105  1
  O  O88  1  0.38931015  0.51232833  0.17973681  1
  O  O89  1  0.60934486  0.48448769  0.82357660  1
  O  O90  1  0.01112015  0.83584970  0.73720992  1
  O  O91  1  0.98916229  0.16486726  0.26414293  1
  O  O92  1  0.64803472  0.10410192  0.52827104  1
  O  O93  1  0.35219715  0.89483380  0.47100983  1
  O  O94  1  0.49388169  0.22864012  0.34258314  1
  O  O95  1  0.50424630  0.77033884  0.65796714  1
  O  O96  1  0.55467642  0.22300957  0.05054388  1
  O  O97  1  0.44093403  0.77500947  0.95391666  1
  O  O98  1  0.65597879  0.55620905  0.37013312  1
  O  O99  1  0.34600774  0.44362613  0.62716660  1
  O  O100  1  0.91918035  0.65930987  0.03008144  1
  O  O101  1  0.09004894  0.34815653  0.98863094  1
  O  O102  1  0.21319863  0.83949646  0.84904489  1
  O  O103  1  0.78623589  0.16088417  0.15194535  1
  O  O104  1  0.70134555  0.92743964  0.83327454  1
  O  O105  1  0.29914522  0.07301179  0.16843656  1
