# generated using pymatgen
data_OsO4
_symmetry_space_group_name_H-M   'P 1'
_cell_length_a   4.79265552
_cell_length_b   4.92671384
_cell_length_c   5.24604806
_cell_angle_alpha   115.68881865
_cell_angle_beta   117.20605188
_cell_angle_gamma   90.03626043
_symmetry_Int_Tables_number   1
_chemical_formula_structural   OsO4
_chemical_formula_sum   'Os1 O4'
_cell_volume   96.17416639
_cell_formula_units_Z   1
loop_
 _symmetry_equiv_pos_site_id
 _symmetry_equiv_pos_as_xyz
  1  'x, y, z'
loop_
 _atom_site_type_symbol
 _atom_site_label
 _atom_site_symmetry_multiplicity
 _atom_site_fract_x
 _atom_site_fract_y
 _atom_site_fract_z
 _atom_site_occupancy
  O  O0  1  0.33715510  0.92952130  0.25737165  1
  Os  Os1  1  0.99960014  -0.00009417  0.99998868  1
  O  O2  1  0.90559010  0.31968795  0.22733382  1
  O  O3  1  0.07970798  0.07080454  0.74284767  1
  O  O4  1  0.67794669  0.68008039  0.77245819  1
