# generated using pymatgen
data_Ca5P3ClO12
_symmetry_space_group_name_H-M   'P 1'
_cell_length_a   9.83135951
_cell_length_b   9.83135966
_cell_length_c   6.73251427
_cell_angle_alpha   90.00000000
_cell_angle_beta   90.00000000
_cell_angle_gamma   119.99999948
_symmetry_Int_Tables_number   1
_chemical_formula_structural   Ca5P3ClO12
_chemical_formula_sum   'Ca10 P6 Cl2 O24'
_cell_volume   563.55340523
_cell_formula_units_Z   2
loop_
 _symmetry_equiv_pos_site_id
 _symmetry_equiv_pos_as_xyz
  1  'x, y, z'
loop_
 _atom_site_type_symbol
 _atom_site_label
 _atom_site_symmetry_multiplicity
 _atom_site_fract_x
 _atom_site_fract_y
 _atom_site_fract_z
 _atom_site_occupancy
  Ca  Ca0  1  0.01862120  0.75439246  0.75000000  1
  Ca  Ca1  1  0.26422874  0.01862120  0.25000000  1
  Ca  Ca2  1  0.66666700  0.33333300  0.50435221  1
  Ca  Ca3  1  0.24560754  0.26422874  0.75000000  1
  Ca  Ca4  1  0.75439246  0.73577126  0.25000000  1
  Ca  Ca5  1  0.33333300  0.66666700  0.49564779  1
  Ca  Ca6  1  0.98137880  0.24560754  0.25000000  1
  Ca  Ca7  1  0.66666700  0.33333300  0.99564779  1
  Ca  Ca8  1  0.33333300  0.66666700  0.00435221  1
  Ca  Ca9  1  0.73577126  0.98137880  0.75000000  1
  P  P10  1  0.58941169  0.62130241  0.75000000  1
  P  P11  1  0.03189073  0.41058831  0.75000000  1
  P  P12  1  0.37869759  0.96810927  0.75000000  1
  P  P13  1  0.41058831  0.37869759  0.25000000  1
  P  P14  1  0.62130241  0.03189073  0.25000000  1
  P  P15  1  0.96810927  0.58941169  0.25000000  1
  Cl  Cl16  1  0.00000000  0.00000000  0.50000000  1
  Cl  Cl17  1  0.00000000  0.00000000  0.00000000  1
  O  O18  1  0.49779144  0.14611337  0.75000000  1
  O  O19  1  0.64587625  0.73034287  0.56462066  1
  O  O20  1  0.53534228  0.13007767  0.25000000  1
  O  O21  1  0.50220856  0.85388663  0.25000000  1
  O  O22  1  0.35412375  0.26965713  0.06462066  1
  O  O23  1  0.85388663  0.35167808  0.75000000  1
  O  O24  1  0.91553338  0.64587625  0.06462066  1
  O  O25  1  0.26965713  0.91553338  0.56462066  1
  O  O26  1  0.91553338  0.64587625  0.43537934  1
  O  O27  1  0.13007767  0.59473539  0.75000000  1
  O  O28  1  0.26965713  0.91553338  0.93537934  1
  O  O29  1  0.59473539  0.46465772  0.25000000  1
  O  O30  1  0.40526461  0.53534228  0.75000000  1
  O  O31  1  0.08446662  0.35412375  0.93537934  1
  O  O32  1  0.86992233  0.40526461  0.25000000  1
  O  O33  1  0.35412375  0.26965713  0.43537934  1
  O  O34  1  0.73034287  0.08446662  0.06462066  1
  O  O35  1  0.14611337  0.64832192  0.25000000  1
  O  O36  1  0.64587625  0.73034287  0.93537934  1
  O  O37  1  0.08446662  0.35412375  0.56462066  1
  O  O38  1  0.73034287  0.08446662  0.43537934  1
  O  O39  1  0.46465772  0.86992233  0.75000000  1
  O  O40  1  0.35167808  0.49779144  0.25000000  1
  O  O41  1  0.64832192  0.50220856  0.75000000  1
