# generated using pymatgen
data_Ba2PrNbO6
_symmetry_space_group_name_H-M   'P 1'
_cell_length_a   6.13322445
_cell_length_b   6.13324694
_cell_length_c   6.13327621
_cell_angle_alpha   60.58980286
_cell_angle_beta   60.58988833
_cell_angle_gamma   60.58968064
_symmetry_Int_Tables_number   1
_chemical_formula_structural   Ba2PrNbO6
_chemical_formula_sum   'Ba2 Pr1 Nb1 O6'
_cell_volume   165.31186792
_cell_formula_units_Z   1
loop_
 _symmetry_equiv_pos_site_id
 _symmetry_equiv_pos_as_xyz
  1  'x, y, z'
loop_
 _atom_site_type_symbol
 _atom_site_label
 _atom_site_symmetry_multiplicity
 _atom_site_fract_x
 _atom_site_fract_y
 _atom_site_fract_z
 _atom_site_occupancy
  O  O0  1  0.78765590  0.67234700  0.27399249  1
  Ba  Ba1  1  0.25078623  0.25078578  0.25079115  1
  O  O2  1  0.27398210  0.78765494  0.67234697  1
  O  O3  1  0.67234088  0.27397991  0.78766177  1
  O  O4  1  0.21234259  0.32765908  0.72599694  1
  Ba  Ba5  1  0.74920762  0.74921375  0.74920941  1
  Pr  Pr6  1  1.00000496  -0.00000016  0.99999915  1
  O  O7  1  0.32765562  0.72601874  0.21234537  1
  Nb  Nb8  1  0.50000863  0.49999476  0.50000368  1
  O  O9  1  0.72601545  0.21234619  0.32765307  1
