# generated using pymatgen
data_ZnS
_symmetry_space_group_name_H-M   'P 1'
_cell_length_a   3.85261826
_cell_length_b   3.85261815
_cell_length_c   75.59397373
_cell_angle_alpha   90.00000000
_cell_angle_beta   90.00000000
_cell_angle_gamma   120.00000092
_symmetry_Int_Tables_number   1
_chemical_formula_structural   ZnS
_chemical_formula_sum   'Zn24 S24'
_cell_volume   971.69450847
_cell_formula_units_Z   24
loop_
 _symmetry_equiv_pos_site_id
 _symmetry_equiv_pos_as_xyz
  1  'x, y, z'
loop_
 _atom_site_type_symbol
 _atom_site_label
 _atom_site_symmetry_multiplicity
 _atom_site_fract_x
 _atom_site_fract_y
 _atom_site_fract_z
 _atom_site_occupancy
  Zn  Zn0  1  0.00000000  0.00000000  0.16666838  1
  Zn  Zn1  1  0.33333300  0.66666700  0.79166782  1
  Zn  Zn2  1  0.66666700  0.33333300  0.45833859  1
  Zn  Zn3  1  0.00000000  0.00000000  0.41666859  1
  Zn  Zn4  1  0.66666700  0.33333300  0.08333032  1
  Zn  Zn5  1  0.33333300  0.66666700  0.33333335  1
  Zn  Zn6  1  0.33333300  0.66666700  0.20834287  1
  Zn  Zn7  1  0.00000000  0.00000000  0.58333089  1
  Zn  Zn8  1  0.00000000  0.00000000  0.70833419  1
  Zn  Zn9  1  0.66666700  0.33333300  0.75000204  1
  Zn  Zn10  1  0.66666700  0.33333300  0.91666892  1
  Zn  Zn11  1  0.66666700  0.33333300  0.62501159  1
  Zn  Zn12  1  0.00000000  0.00000000  0.83333120  1
  Zn  Zn13  1  0.33333300  0.66666700  0.66667193  1
  Zn  Zn14  1  0.33333300  0.66666700  0.12500691  1
  Zn  Zn15  1  0.33333300  0.66666700  0.04167724  1
  Zn  Zn16  1  0.00000000  0.00000000  0.99999832  1
  Zn  Zn17  1  0.00000000  0.00000000  0.29167161  1
  Zn  Zn18  1  0.33333300  0.66666700  0.87500724  1
  Zn  Zn19  1  0.33333300  0.66666700  0.95833887  1
  Zn  Zn20  1  0.66666700  0.33333300  0.54167741  1
  Zn  Zn21  1  0.66666700  0.33333300  0.25000131  1
  Zn  Zn22  1  0.66666700  0.33333300  0.37499734  1
  Zn  Zn23  1  0.33333300  0.66666700  0.49999835  1
  S  S24  1  0.00000000  0.00000000  0.19793931  1
  S  S25  1  0.33333300  0.66666700  0.53127198  1
  S  S26  1  0.33333300  0.66666700  0.90622272  1
  S  S27  1  0.66666700  0.33333300  0.94793956  1
  S  S28  1  0.33333300  0.66666700  0.15622234  1
  S  S29  1  0.66666700  0.33333300  0.28124776  1
  S  S30  1  0.66666700  0.33333300  0.11460256  1
  S  S31  1  0.00000000  0.00000000  0.61460391  1
  S  S32  1  0.66666700  0.33333300  0.40622346  1
  S  S33  1  0.00000000  0.00000000  0.73957870  1
  S  S34  1  0.66666700  0.33333300  0.78124801  1
  S  S35  1  0.66666700  0.33333300  0.48955326  1
  S  S36  1  0.33333300  0.66666700  0.82289123  1
  S  S37  1  0.00000000  0.00000000  0.32291521  1
  S  S38  1  0.66666700  0.33333300  0.65624731  1
  S  S39  1  0.00000000  0.00000000  0.86460382  1
  S  S40  1  0.33333300  0.66666700  0.07289003  1
  S  S41  1  0.33333300  0.66666700  0.36457738  1
  S  S42  1  0.33333300  0.66666700  0.69791555  1
  S  S43  1  0.33333300  0.66666700  0.23957594  1
  S  S44  1  0.33333300  0.66666700  0.98955323  1
  S  S45  1  0.00000000  0.00000000  0.44793924  1
  S  S46  1  0.66666700  0.33333300  0.57289020  1
  S  S47  1  0.00000000  0.00000000  0.03127201  1
