# generated using pymatgen
data_Cu6PS5Br
_symmetry_space_group_name_H-M   'P 1'
_cell_length_a   6.84551322
_cell_length_b   6.83087871
_cell_length_c   11.93692143
_cell_angle_alpha   73.26902261
_cell_angle_beta   73.33617040
_cell_angle_gamma   59.93576900
_symmetry_Int_Tables_number   1
_chemical_formula_structural   Cu6PS5Br
_chemical_formula_sum   'Cu12 P2 S10 Br2'
_cell_volume   455.74250772
_cell_formula_units_Z   2
loop_
 _symmetry_equiv_pos_site_id
 _symmetry_equiv_pos_as_xyz
  1  'x, y, z'
loop_
 _atom_site_type_symbol
 _atom_site_label
 _atom_site_symmetry_multiplicity
 _atom_site_fract_x
 _atom_site_fract_y
 _atom_site_fract_z
 _atom_site_occupancy
  Cu  Cu0  1  0.03951744  0.88193761  0.10685830  1
  Cu  Cu1  1  0.63482715  0.24769780  0.38593449  1
  Cu  Cu2  1  0.46542872  0.41738292  0.11629838  1
  Cu  Cu3  1  0.73168224  0.74773694  0.88596660  1
  Cu  Cu4  1  0.50388471  0.84622283  0.11129488  1
  Cu  Cu5  1  1.00081147  0.91723241  0.61631926  1
  Cu  Cu6  1  0.85367337  0.60492892  0.38725635  1
  Cu  Cu7  1  0.37723206  0.50648747  0.88862922  1
  Cu  Cu8  1  0.22795378  0.00632412  0.38863754  1
  Cu  Cu9  1  0.15444455  0.10499145  0.88721392  1
  Cu  Cu10  1  0.53835670  0.34639786  0.61116037  1
  Cu  Cu11  1  0.97128563  0.38182946  0.60700557  1
  P  P12  1  0.49939410  0.87599403  0.62434533  1
  P  P13  1  0.00025624  0.37597034  0.12436407  1
  S  S14  1  0.55749268  0.93967394  0.43951994  1
  S  S15  1  0.06342552  0.43972394  0.93953199  1
  S  S16  1  0.80645867  0.70566001  0.68763360  1
  S  S17  1  0.83077027  0.68415960  0.18734145  1
  S  S18  1  0.29768193  0.18418009  0.68729497  1
  S  S19  1  0.80026078  0.20561031  0.18757036  1
  S  S20  1  0.33071745  0.67432295  0.68974126  1
  S  S21  1  0.38410402  0.75185071  0.98575949  1
  S  S22  1  0.87838032  0.25170068  0.48574930  1
  S  S23  1  0.30513279  0.17438308  0.18980977  1
  Br  Br24  1  0.75427385  0.12493279  0.87225880  1
  Br  Br25  1  0.24855356  0.62466773  0.37250479  1
