# generated using pymatgen
data_Sr(GaO2)2
_symmetry_space_group_name_H-M   'P 1'
_cell_length_a   8.21509346
_cell_length_b   9.18291714
_cell_length_c   10.87682601
_cell_angle_alpha   90.00000000
_cell_angle_beta   90.00000000
_cell_angle_gamma   91.69560761
_symmetry_Int_Tables_number   1
_chemical_formula_structural   Sr(GaO2)2
_chemical_formula_sum   'Sr8 Ga16 O32'
_cell_volume   820.17239936
_cell_formula_units_Z   8
loop_
 _symmetry_equiv_pos_site_id
 _symmetry_equiv_pos_as_xyz
  1  'x, y, z'
loop_
 _atom_site_type_symbol
 _atom_site_label
 _atom_site_symmetry_multiplicity
 _atom_site_fract_x
 _atom_site_fract_y
 _atom_site_fract_z
 _atom_site_occupancy
  Sr  Sr0  1  0.49506900  0.77482956  0.10954543  1
  Sr  Sr1  1  0.50493100  0.22517044  0.89045457  1
  Sr  Sr2  1  0.99506900  0.27482956  0.39045457  1
  Sr  Sr3  1  0.00336494  0.29991660  0.84774035  1
  Sr  Sr4  1  0.00493100  0.72517044  0.60954543  1
  Sr  Sr5  1  0.49663506  0.20008340  0.34774035  1
  Sr  Sr6  1  0.50336494  0.79991660  0.65225965  1
  Sr  Sr7  1  0.99663506  0.70008340  0.15225965  1
  Ga  Ga8  1  0.80820352  0.90745669  0.36510947  1
  Ga  Ga9  1  0.71883044  0.56758810  0.36223506  1
  Ga  Ga10  1  0.21883044  0.06758810  0.13776494  1
  Ga  Ga11  1  0.30820352  0.40745669  0.13489053  1
  Ga  Ga12  1  0.82816400  0.06937769  0.11357289  1
  Ga  Ga13  1  0.73714895  0.40502400  0.11336788  1
  Ga  Ga14  1  0.76285105  0.09497600  0.61336788  1
  Ga  Ga15  1  0.78116956  0.93241190  0.86223506  1
  Ga  Ga16  1  0.67183600  0.43062231  0.61357289  1
  Ga  Ga17  1  0.26285105  0.59497600  0.88663212  1
  Ga  Ga18  1  0.23714895  0.90502400  0.38663212  1
  Ga  Ga19  1  0.69179648  0.59254331  0.86510947  1
  Ga  Ga20  1  0.32816400  0.56937769  0.38642711  1
  Ga  Ga21  1  0.17183600  0.93062231  0.88642711  1
  Ga  Ga22  1  0.28116956  0.43241190  0.63776494  1
  Ga  Ga23  1  0.19179648  0.09254331  0.63489053  1
  O  O24  1  0.84828995  0.45336871  0.25859951  1
  O  O25  1  0.28612871  0.25209735  0.71900087  1
  O  O26  1  0.19219791  0.44550307  0.48089178  1
  O  O27  1  0.21387129  0.24790265  0.21900087  1
  O  O28  1  0.27010731  0.07788241  0.47518751  1
  O  O29  1  0.22989269  0.42211759  0.97518751  1
  O  O30  1  0.52020037  0.33835980  0.11339080  1
  O  O31  1  0.80780209  0.55449693  0.51910822  1
  O  O32  1  0.51910215  0.47192617  0.36482453  1
  O  O33  1  0.65171005  0.04663129  0.75859951  1
  O  O34  1  0.72989269  0.92211759  0.52481249  1
  O  O35  1  0.83043001  0.24867279  0.03449589  1
  O  O36  1  0.78612871  0.75209735  0.78099913  1
  O  O37  1  0.30780209  0.05449693  0.98089178  1
  O  O38  1  0.33043001  0.74867279  0.46550411  1
  O  O39  1  0.98089785  0.02807383  0.86482453  1
  O  O40  1  0.15171005  0.54663129  0.74140049  1
  O  O41  1  0.73296181  0.41649606  0.78281605  1
  O  O42  1  0.76703819  0.08350394  0.28281605  1
  O  O43  1  0.69219791  0.94550307  0.01910822  1
  O  O44  1  0.23296181  0.91649606  0.71718395  1
  O  O45  1  0.97979963  0.16164020  0.61339080  1
  O  O46  1  0.71387129  0.74790265  0.28099913  1
  O  O47  1  0.66956999  0.25132721  0.53449589  1
  O  O48  1  0.77010731  0.57788241  0.02481249  1
  O  O49  1  0.01910215  0.97192617  0.13517547  1
  O  O50  1  0.48089785  0.52807383  0.63517547  1
  O  O51  1  0.34828995  0.95336871  0.24140049  1
  O  O52  1  0.16956999  0.75132721  0.96550411  1
  O  O53  1  0.26703819  0.58350394  0.21718395  1
  O  O54  1  0.02020037  0.83835980  0.38660920  1
  O  O55  1  0.47979963  0.66164020  0.88660920  1
