# generated using pymatgen
data_ZrSCl6O
_symmetry_space_group_name_H-M   'P 1'
_cell_length_a   7.20825183
_cell_length_b   7.56793844
_cell_length_c   23.99233876
_cell_angle_alpha   90.00000000
_cell_angle_beta   90.00000000
_cell_angle_gamma   113.66406028
_symmetry_Int_Tables_number   1
_chemical_formula_structural   ZrSCl6O
_chemical_formula_sum   'Zr4 S4 Cl24 O4'
_cell_volume   1198.76783265
_cell_formula_units_Z   4
loop_
 _symmetry_equiv_pos_site_id
 _symmetry_equiv_pos_as_xyz
  1  'x, y, z'
loop_
 _atom_site_type_symbol
 _atom_site_label
 _atom_site_symmetry_multiplicity
 _atom_site_fract_x
 _atom_site_fract_y
 _atom_site_fract_z
 _atom_site_occupancy
  Zr  Zr0  1  0.00780708  0.15344769  0.07041567  1
  Zr  Zr1  1  0.99219292  0.84655231  0.92958433  1
  Zr  Zr2  1  0.49219292  0.84655231  0.57041567  1
  Zr  Zr3  1  0.50780708  0.15344769  0.42958433  1
  S  S4  1  0.87311802  0.32135964  0.62898464  1
  S  S5  1  0.37311802  0.32135964  0.87101536  1
  S  S6  1  0.12688198  0.67864036  0.37101536  1
  S  S7  1  0.62688198  0.67864036  0.12898464  1
  Cl  Cl8  1  0.74445795  0.33584130  0.70526993  1
  Cl  Cl9  1  0.23671527  0.44849746  0.03257339  1
  Cl  Cl10  1  0.24654980  0.74636397  0.89772290  1
  Cl  Cl11  1  0.19166187  0.95665288  0.02341325  1
  Cl  Cl12  1  0.73671527  0.44849746  0.46742661  1
  Cl  Cl13  1  0.30833813  0.04334712  0.52341325  1
  Cl  Cl14  1  0.17959099  0.15803664  0.15550653  1
  Cl  Cl15  1  0.25345020  0.25363603  0.39772290  1
  Cl  Cl16  1  0.25554205  0.66415870  0.29473007  1
  Cl  Cl17  1  0.41531281  0.77970017  0.15622739  1
  Cl  Cl18  1  0.58468719  0.22029983  0.84377261  1
  Cl  Cl19  1  0.82040901  0.84196336  0.84449347  1
  Cl  Cl20  1  0.69166187  0.95665288  0.47658675  1
  Cl  Cl21  1  0.91531281  0.77970017  0.34377261  1
  Cl  Cl22  1  0.76328473  0.55150254  0.96742661  1
  Cl  Cl23  1  0.80833813  0.04334712  0.97658675  1
  Cl  Cl24  1  0.26328473  0.55150254  0.53257339  1
  Cl  Cl25  1  0.74654980  0.74636397  0.60227710  1
  Cl  Cl26  1  0.75345020  0.25363603  0.10227710  1
  Cl  Cl27  1  0.32040901  0.84196336  0.65550653  1
  Cl  Cl28  1  0.67959099  0.15803664  0.34449347  1
  Cl  Cl29  1  0.08468719  0.22029983  0.65622739  1
  Cl  Cl30  1  0.75554205  0.66415870  0.20526993  1
  Cl  Cl31  1  0.24445795  0.33584130  0.79473007  1
  O  O32  1  0.78060551  0.83549365  0.09722100  1
  O  O33  1  0.28060551  0.83549365  0.40277900  1
  O  O34  1  0.21939449  0.16450635  0.90277900  1
  O  O35  1  0.71939449  0.16450635  0.59722100  1
