# generated using pymatgen
data_Lu3B5O12
_symmetry_space_group_name_H-M   'P 1'
_cell_length_a   4.58706964
_cell_length_b   12.49146166
_cell_length_c   12.78505413
_cell_angle_alpha   90.00000000
_cell_angle_beta   90.00000000
_cell_angle_gamma   90.00000000
_symmetry_Int_Tables_number   1
_chemical_formula_structural   Lu3B5O12
_chemical_formula_sum   'Lu12 B20 O48'
_cell_volume   732.57343165
_cell_formula_units_Z   4
loop_
 _symmetry_equiv_pos_site_id
 _symmetry_equiv_pos_as_xyz
  1  'x, y, z'
loop_
 _atom_site_type_symbol
 _atom_site_label
 _atom_site_symmetry_multiplicity
 _atom_site_fract_x
 _atom_site_fract_y
 _atom_site_fract_z
 _atom_site_occupancy
  Lu  Lu0  1  0.99632469  0.69335520  0.63541511  1
  Lu  Lu1  1  0.00000000  0.50000000  0.86813888  1
  Lu  Lu2  1  0.00000000  0.00000000  0.63186112  1
  Lu  Lu3  1  0.00000000  0.50000000  0.13186112  1
  Lu  Lu4  1  0.99632469  0.80664480  0.13541511  1
  Lu  Lu5  1  0.00000000  0.00000000  0.36813888  1
  Lu  Lu6  1  0.00367531  0.30664480  0.63541511  1
  Lu  Lu7  1  0.00367531  0.30664480  0.36458489  1
  Lu  Lu8  1  0.99632469  0.80664480  0.86458489  1
  Lu  Lu9  1  0.00367531  0.19335520  0.13541511  1
  Lu  Lu10  1  0.99632469  0.69335520  0.36458489  1
  Lu  Lu11  1  0.00367531  0.19335520  0.86458489  1
  B  B12  1  0.45789959  0.12705282  0.00000000  1
  B  B13  1  0.53240988  0.15096252  0.29809120  1
  B  B14  1  0.46759012  0.84903748  0.70190880  1
  B  B15  1  0.50000000  0.50000000  0.33826083  1
  B  B16  1  0.45789959  0.37294718  0.50000000  1
  B  B17  1  0.50000000  0.00000000  0.83826083  1
  B  B18  1  0.53240988  0.34903748  0.20190880  1
  B  B19  1  0.46759012  0.84903748  0.29809120  1
  B  B20  1  0.46759012  0.65096252  0.79809120  1
  B  B21  1  0.46759012  0.65096252  0.20190880  1
  B  B22  1  0.53864809  0.85115083  0.50000000  1
  B  B23  1  0.53240988  0.34903748  0.79809120  1
  B  B24  1  0.54210041  0.62705282  0.50000000  1
  B  B25  1  0.50000000  0.50000000  0.66173917  1
  B  B26  1  0.46135191  0.14884917  0.50000000  1
  B  B27  1  0.53240988  0.15096252  0.70190880  1
  B  B28  1  0.53864809  0.64884917  0.00000000  1
  B  B29  1  0.54210041  0.87294718  0.00000000  1
  B  B30  1  0.46135191  0.35115083  0.00000000  1
  B  B31  1  0.50000000  0.00000000  0.16173917  1
  O  O32  1  0.66529444  0.92513312  0.09615328  1
  O  O33  1  0.69293993  0.06426265  0.76667318  1
  O  O34  1  0.69293993  0.43573735  0.26667318  1
  O  O35  1  0.76219176  0.14108573  0.00000000  1
  O  O36  1  0.78004770  0.84787882  0.70421608  1
  O  O37  1  0.30706007  0.56426265  0.73332682  1
  O  O38  1  0.78004770  0.65212118  0.79578392  1
  O  O39  1  0.76219176  0.35891427  0.50000000  1
  O  O40  1  0.66529444  0.57486688  0.40384672  1
  O  O41  1  0.23780824  0.85891427  0.00000000  1
  O  O42  1  0.76106030  0.93065751  0.50000000  1
  O  O43  1  0.21995230  0.15212118  0.70421608  1
  O  O44  1  0.30706007  0.56426265  0.26667318  1
  O  O45  1  0.23893970  0.43065751  0.00000000  1
  O  O46  1  0.76106030  0.56934249  0.00000000  1
  O  O47  1  0.21995230  0.34787882  0.20421608  1
  O  O48  1  0.23893970  0.06934249  0.50000000  1
  O  O49  1  0.23780824  0.64108573  0.50000000  1
  O  O50  1  0.66034970  0.35549325  0.09485451  1
  O  O51  1  0.66300352  0.25000000  0.75000000  1
  O  O52  1  0.33470556  0.42513312  0.40384672  1
  O  O53  1  0.33965030  0.85549325  0.40514549  1
  O  O54  1  0.30706007  0.93573735  0.76667318  1
  O  O55  1  0.66529444  0.92513312  0.90384672  1
  O  O56  1  0.33965030  0.85549325  0.59485451  1
  O  O57  1  0.66034970  0.14450675  0.59485451  1
  O  O58  1  0.69293993  0.06426265  0.23332682  1
  O  O59  1  0.69293993  0.43573735  0.73332682  1
  O  O60  1  0.33470556  0.07486688  0.90384672  1
  O  O61  1  0.69870254  0.73885183  0.50000000  1
  O  O62  1  0.30706007  0.93573735  0.23332682  1
  O  O63  1  0.21995230  0.15212118  0.29578392  1
  O  O64  1  0.78004770  0.65212118  0.20421608  1
  O  O65  1  0.33699648  0.75000000  0.75000000  1
  O  O66  1  0.33470556  0.42513312  0.59615328  1
  O  O67  1  0.66034970  0.14450675  0.40514549  1
  O  O68  1  0.30129746  0.23885183  0.00000000  1
  O  O69  1  0.33965030  0.64450675  0.09485451  1
  O  O70  1  0.66034970  0.35549325  0.90514549  1
  O  O71  1  0.33699648  0.75000000  0.25000000  1
  O  O72  1  0.30129746  0.26114817  0.50000000  1
  O  O73  1  0.21995230  0.34787882  0.79578392  1
  O  O74  1  0.66300352  0.25000000  0.25000000  1
  O  O75  1  0.33965030  0.64450675  0.90514549  1
  O  O76  1  0.78004770  0.84787882  0.29578392  1
  O  O77  1  0.33470556  0.07486688  0.09615328  1
  O  O78  1  0.66529444  0.57486688  0.59615328  1
  O  O79  1  0.69870254  0.76114817  0.00000000  1
