# generated using pymatgen
data_NaTi2Ga5O12
_symmetry_space_group_name_H-M   'P 1'
_cell_length_a   3.02744604
_cell_length_b   9.46364396
_cell_length_c   15.93639253
_cell_angle_alpha   90.00000000
_cell_angle_beta   90.00000000
_cell_angle_gamma   90.00000000
_symmetry_Int_Tables_number   1
_chemical_formula_structural   NaTi2Ga5O12
_chemical_formula_sum   'Na2 Ti4 Ga10 O24'
_cell_volume   456.58834617
_cell_formula_units_Z   2
loop_
 _symmetry_equiv_pos_site_id
 _symmetry_equiv_pos_as_xyz
  1  'x, y, z'
loop_
 _atom_site_type_symbol
 _atom_site_label
 _atom_site_symmetry_multiplicity
 _atom_site_fract_x
 _atom_site_fract_y
 _atom_site_fract_z
 _atom_site_occupancy
  Na  Na0  1  0.50000000  0.50000000  0.00000000  1
  Na  Na1  1  0.50000000  0.00000000  0.50000000  1
  Ti  Ti2  1  0.50000000  0.72865777  0.35718219  1
  Ti  Ti3  1  0.50000000  0.27134223  0.64281781  1
  Ti  Ti4  1  0.50000000  0.77134223  0.85718219  1
  Ti  Ti5  1  0.50000000  0.22865777  0.14281781  1
  Ga  Ga6  1  0.00000000  0.00000000  0.00000000  1
  Ga  Ga7  1  0.00000000  0.49140385  0.80043741  1
  Ga  Ga8  1  0.00000000  0.00859615  0.30043741  1
  Ga  Ga9  1  0.00000000  0.50859615  0.19956259  1
  Ga  Ga10  1  0.50000000  0.19452137  0.85288941  1
  Ga  Ga11  1  0.50000000  0.80547863  0.14711059  1
  Ga  Ga12  1  0.00000000  0.99140385  0.69956259  1
  Ga  Ga13  1  0.50000000  0.69452137  0.64711059  1
  Ga  Ga14  1  0.50000000  0.30547863  0.35288941  1
  Ga  Ga15  1  0.00000000  0.50000000  0.50000000  1
  O  O16  1  0.50000000  0.39355596  0.55357049  1
  O  O17  1  0.00000000  0.13823483  0.90823163  1
  O  O18  1  0.50000000  0.10798858  0.35624133  1
  O  O19  1  0.00000000  0.35913139  0.70358139  1
  O  O20  1  0.50000000  0.39201142  0.85624133  1
  O  O21  1  0.50000000  0.60798858  0.14375867  1
  O  O22  1  0.50000000  0.10644404  0.05357049  1
  O  O23  1  0.00000000  0.86176517  0.09176837  1
  O  O24  1  0.00000000  0.63823483  0.59176837  1
  O  O25  1  0.00000000  0.85913139  0.79641861  1
  O  O26  1  0.00000000  0.14086861  0.20358139  1
  O  O27  1  0.00000000  0.14383536  0.60474852  1
  O  O28  1  0.50000000  0.61333113  0.75495597  1
  O  O29  1  0.00000000  0.85616464  0.39525148  1
  O  O30  1  0.00000000  0.64086861  0.29641861  1
  O  O31  1  0.00000000  0.64383536  0.89525148  1
  O  O32  1  0.50000000  0.89355596  0.94642951  1
  O  O33  1  0.50000000  0.11333113  0.74504403  1
  O  O34  1  0.50000000  0.60644404  0.44642951  1
  O  O35  1  0.50000000  0.88666887  0.25495597  1
  O  O36  1  0.00000000  0.36176517  0.40823163  1
  O  O37  1  0.50000000  0.38666887  0.24504403  1
  O  O38  1  0.00000000  0.35616464  0.10474852  1
  O  O39  1  0.50000000  0.89201142  0.64375867  1
