# generated using pymatgen
data_Ba2TiO4
_symmetry_space_group_name_H-M   'P 1'
_cell_length_a   6.20926669
_cell_length_b   10.69316263
_cell_length_c   23.32857651
_cell_angle_alpha   90.00000000
_cell_angle_beta   90.00000000
_cell_angle_gamma   90.00000000
_symmetry_Int_Tables_number   1
_chemical_formula_structural   Ba2TiO4
_chemical_formula_sum   'Ba24 Ti12 O48'
_cell_volume   1548.94046165
_cell_formula_units_Z   12
loop_
 _symmetry_equiv_pos_site_id
 _symmetry_equiv_pos_as_xyz
  1  'x, y, z'
loop_
 _atom_site_type_symbol
 _atom_site_label
 _atom_site_symmetry_multiplicity
 _atom_site_fract_x
 _atom_site_fract_y
 _atom_site_fract_z
 _atom_site_occupancy
  Ba  Ba0  1  0.23693127  0.57828181  0.88970804  1
  Ba  Ba1  1  0.26185111  0.20121614  0.83553876  1
  Ba  Ba2  1  0.76185111  0.79878386  0.16446124  1
  Ba  Ba3  1  0.71465945  0.42847594  0.44486068  1
  Ba  Ba4  1  0.76000160  0.07348371  0.27988532  1
  Ba  Ba5  1  0.71256962  0.79981263  0.49762963  1
  Ba  Ba6  1  0.23693127  0.92171819  0.38970804  1
  Ba  Ba7  1  0.74798652  0.80173550  0.83026295  1
  Ba  Ba8  1  0.71256962  0.70018737  0.99762963  1
  Ba  Ba9  1  0.73693127  0.07828181  0.61029196  1
  Ba  Ba10  1  0.74798652  0.69826450  0.33026295  1
  Ba  Ba11  1  0.26185111  0.29878386  0.33553876  1
  Ba  Ba12  1  0.21465945  0.57152406  0.55513932  1
  Ba  Ba13  1  0.76000160  0.42651629  0.77988532  1
  Ba  Ba14  1  0.76185111  0.70121614  0.66446124  1
  Ba  Ba15  1  0.73693127  0.42171819  0.11029196  1
  Ba  Ba16  1  0.21256962  0.20018737  0.50237037  1
  Ba  Ba17  1  0.71465945  0.07152406  0.94486068  1
  Ba  Ba18  1  0.24798652  0.19826450  0.16973705  1
  Ba  Ba19  1  0.24798652  0.30173550  0.66973705  1
  Ba  Ba20  1  0.21465945  0.92847594  0.05513932  1
  Ba  Ba21  1  0.21256962  0.29981263  0.00237037  1
  Ba  Ba22  1  0.26000160  0.57348371  0.22011468  1
  Ba  Ba23  1  0.26000160  0.92651629  0.72011468  1
  Ti  Ti24  1  0.24468467  0.58559214  0.07252395  1
  Ti  Ti25  1  0.72001088  0.08568557  0.09470053  1
  Ti  Ti26  1  0.25159588  0.91301654  0.24048991  1
  Ti  Ti27  1  0.74468467  0.41440786  0.92747605  1
  Ti  Ti28  1  0.24468467  0.91440786  0.57252395  1
  Ti  Ti29  1  0.22001088  0.91431443  0.90529947  1
  Ti  Ti30  1  0.22001088  0.58568557  0.40529947  1
  Ti  Ti31  1  0.74468467  0.08559214  0.42747605  1
  Ti  Ti32  1  0.72001088  0.41431443  0.59470053  1
  Ti  Ti33  1  0.25159588  0.58698346  0.74048991  1
  Ti  Ti34  1  0.75159588  0.41301654  0.25951009  1
  Ti  Ti35  1  0.75159588  0.08698346  0.75951009  1
  O  O36  1  0.48583638  0.64843230  0.42469500  1
  O  O37  1  0.96329715  0.20487065  0.74871083  1
  O  O38  1  0.46329715  0.79512935  0.25128917  1
  O  O39  1  0.53050890  0.20314905  0.41932382  1
  O  O40  1  0.17334859  0.06105424  0.60971492  1
  O  O41  1  0.18120493  0.43673481  0.44458700  1
  O  O42  1  0.19154267  0.56061787  0.66530106  1
  O  O43  1  0.31638199  0.55449085  0.99827802  1
  O  O44  1  0.81638199  0.44550915  0.00172198  1
  O  O45  1  0.99759903  0.63988079  0.77298730  1
  O  O46  1  0.32011805  0.06144119  0.27699794  1
  O  O47  1  0.81638199  0.05449085  0.50172198  1
  O  O48  1  0.17334859  0.43894576  0.10971492  1
  O  O49  1  0.99523684  0.14056507  0.39354254  1
  O  O50  1  0.01142335  0.69779117  0.42635948  1
  O  O51  1  0.69091110  0.44478242  0.67060481  1
  O  O52  1  0.46329715  0.70487065  0.75128917  1
  O  O53  1  0.99759903  0.86011921  0.27298730  1
  O  O54  1  0.68120493  0.93673481  0.05541300  1
  O  O55  1  0.96329715  0.29512935  0.24871083  1
  O  O56  1  0.19154267  0.93938213  0.16530106  1
  O  O57  1  0.53050890  0.29685095  0.91932382  1
  O  O58  1  0.82011805  0.93855881  0.72300206  1
  O  O59  1  0.98583638  0.35156770  0.57530500  1
  O  O60  1  0.69091110  0.05521758  0.17060481  1
  O  O61  1  0.49759903  0.36011921  0.22701270  1
  O  O62  1  0.19091110  0.55521758  0.32939519  1
  O  O63  1  0.67334859  0.93894576  0.39028508  1
  O  O64  1  0.49523684  0.64056507  0.10645746  1
  O  O65  1  0.32011805  0.43855881  0.77699794  1
  O  O66  1  0.03050890  0.70314905  0.08067618  1
  O  O67  1  0.67334859  0.56105424  0.89028508  1
  O  O68  1  0.18120493  0.06326519  0.94458700  1
  O  O69  1  0.03050890  0.79685095  0.58067618  1
  O  O70  1  0.19091110  0.94478242  0.82939519  1
  O  O71  1  0.69154267  0.06061787  0.83469894  1
  O  O72  1  0.69154267  0.43938213  0.33469894  1
  O  O73  1  0.68120493  0.56326519  0.55541300  1
  O  O74  1  0.98583638  0.14843230  0.07530500  1
  O  O75  1  0.31638199  0.94550915  0.49827802  1
  O  O76  1  0.99523684  0.35943493  0.89354254  1
  O  O77  1  0.01142335  0.80220883  0.92635948  1
  O  O78  1  0.82011805  0.56144119  0.22300206  1
  O  O79  1  0.49759903  0.13988079  0.72701270  1
  O  O80  1  0.49523684  0.85943493  0.60645746  1
  O  O81  1  0.48583638  0.85156770  0.92469500  1
  O  O82  1  0.51142335  0.19779117  0.07364052  1
  O  O83  1  0.51142335  0.30220883  0.57364052  1
