# generated using pymatgen
data_ZnS
_symmetry_space_group_name_H-M   'P 1'
_cell_length_a   3.85036487
_cell_length_b   3.85036477
_cell_length_c   75.56650545
_cell_angle_alpha   90.00000000
_cell_angle_beta   90.00000000
_cell_angle_gamma   120.00000097
_symmetry_Int_Tables_number   1
_chemical_formula_structural   ZnS
_chemical_formula_sum   'Zn24 S24'
_cell_volume   970.20548890
_cell_formula_units_Z   24
loop_
 _symmetry_equiv_pos_site_id
 _symmetry_equiv_pos_as_xyz
  1  'x, y, z'
loop_
 _atom_site_type_symbol
 _atom_site_label
 _atom_site_symmetry_multiplicity
 _atom_site_fract_x
 _atom_site_fract_y
 _atom_site_fract_z
 _atom_site_occupancy
  Zn  Zn0  1  0.66666700  0.33333300  0.83332112  1
  Zn  Zn1  1  0.33333300  0.66666700  0.79169408  1
  Zn  Zn2  1  0.66666700  0.33333300  0.33333772  1
  Zn  Zn3  1  0.33333300  0.66666700  0.29169555  1
  Zn  Zn4  1  0.00000000  0.00000000  0.37498642  1
  Zn  Zn5  1  0.33333300  0.66666700  0.20832101  1
  Zn  Zn6  1  0.33333300  0.66666700  0.70831984  1
  Zn  Zn7  1  0.66666700  0.33333300  0.08332094  1
  Zn  Zn8  1  0.00000000  0.00000000  0.54167699  1
  Zn  Zn9  1  0.66666700  0.33333300  0.91669399  1
  Zn  Zn10  1  0.00000000  0.00000000  0.12500517  1
  Zn  Zn11  1  0.66666700  0.33333300  0.16669397  1
  Zn  Zn12  1  0.33333300  0.66666700  0.04169418  1
  Zn  Zn13  1  0.00000000  0.00000000  0.87500532  1
  Zn  Zn14  1  0.33333300  0.66666700  0.41667129  1
  Zn  Zn15  1  0.00000000  0.00000000  0.62502849  1
  Zn  Zn16  1  0.33333300  0.66666700  0.95832105  1
  Zn  Zn17  1  0.00000000  0.00000000  0.45834317  1
  Zn  Zn18  1  0.33333300  0.66666700  0.58333969  1
  Zn  Zn19  1  0.00000000  0.00000000  0.25000528  1
  Zn  Zn20  1  0.66666700  0.33333300  0.66667219  1
  Zn  Zn21  1  0.66666700  0.33333300  0.50000518  1
  Zn  Zn22  1  0.00000000  0.00000000  1.00000542  1
  Zn  Zn23  1  0.00000000  0.00000000  0.75000540  1
  S  S24  1  0.66666700  0.33333300  0.94791025  1
  S  S25  1  0.00000000  0.00000000  0.48954571  1
  S  S26  1  0.00000000  0.00000000  0.40620550  1
  S  S27  1  0.00000000  0.00000000  0.65624882  1
  S  S28  1  0.66666700  0.33333300  0.69790355  1
  S  S29  1  0.33333300  0.66666700  0.44794207  1
  S  S30  1  0.00000000  0.00000000  0.03128030  1
  S  S31  1  0.66666700  0.33333300  0.53127484  1
  S  S32  1  0.33333300  0.66666700  0.98953925  1
  S  S33  1  0.00000000  0.00000000  0.78128037  1
  S  S34  1  0.00000000  0.00000000  0.57287982  1
  S  S35  1  0.00000000  0.00000000  0.90628014  1
  S  S36  1  0.33333300  0.66666700  0.73953945  1
  S  S37  1  0.00000000  0.00000000  0.28128065  1
  S  S38  1  0.66666700  0.33333300  0.36456827  1
  S  S39  1  0.33333300  0.66666700  0.07291033  1
  S  S40  1  0.66666700  0.33333300  0.11453911  1
  S  S41  1  0.66666700  0.33333300  0.86453918  1
  S  S42  1  0.33333300  0.66666700  0.82291025  1
  S  S43  1  0.00000000  0.00000000  0.15628004  1
  S  S44  1  0.33333300  0.66666700  0.23953922  1
  S  S45  1  0.33333300  0.66666700  0.61461368  1
  S  S46  1  0.33333300  0.66666700  0.32291552  1
  S  S47  1  0.66666700  0.33333300  0.19791021  1
