# generated using pymatgen
data_BSBr
_symmetry_space_group_name_H-M   'P 1'
_cell_length_a   4.95443598
_cell_length_b   14.68714502
_cell_length_c   18.34385528
_cell_angle_alpha   111.10061559
_cell_angle_beta   90.00000000
_cell_angle_gamma   90.00000000
_symmetry_Int_Tables_number   1
_chemical_formula_structural   BSBr
_chemical_formula_sum   'B12 S12 Br12'
_cell_volume   1245.31848180
_cell_formula_units_Z   12
loop_
 _symmetry_equiv_pos_site_id
 _symmetry_equiv_pos_as_xyz
  1  'x, y, z'
loop_
 _atom_site_type_symbol
 _atom_site_label
 _atom_site_symmetry_multiplicity
 _atom_site_fract_x
 _atom_site_fract_y
 _atom_site_fract_z
 _atom_site_occupancy
  B  B0  1  0.73883679  0.94442379  0.76903434  1
  B  B1  1  0.15412984  0.65182378  0.89970319  1
  B  B2  1  0.84587016  0.34817622  0.10029681  1
  B  B3  1  0.65988054  0.55141543  0.16394087  1
  B  B4  1  0.34011946  0.44858457  0.83605913  1
  B  B5  1  0.84011946  0.05141543  0.66394087  1
  B  B6  1  0.76116321  0.44442379  0.26903434  1
  B  B7  1  0.26116321  0.05557621  0.23096566  1
  B  B8  1  0.65412984  0.84817622  0.60029681  1
  B  B9  1  0.23883679  0.55557621  0.73096566  1
  B  B10  1  0.34587016  0.15182378  0.39970319  1
  B  B11  1  0.15988054  0.94858457  0.33605913  1
  S  S12  1  0.35575638  0.44148279  0.73577329  1
  S  S13  1  0.63404371  0.83244156  0.69335343  1
  S  S14  1  0.85575638  0.05851721  0.76422671  1
  S  S15  1  0.86595629  0.33244156  0.19335343  1
  S  S16  1  0.36595629  0.16755844  0.30664657  1
  S  S17  1  0.13404371  0.66755844  0.80664657  1
  S  S18  1  0.25581395  0.04732177  0.42423329  1
  S  S19  1  0.14424362  0.94148279  0.23577329  1
  S  S20  1  0.24418605  0.54732177  0.92423329  1
  S  S21  1  0.75581395  0.45267823  0.07576671  1
  S  S22  1  0.74418605  0.95267823  0.57576671  1
  S  S23  1  0.64424362  0.55851721  0.26422671  1
  Br  Br24  1  0.44079006  0.26632712  0.48837919  1
  Br  Br25  1  0.27355947  0.05864760  0.12670959  1
  Br  Br26  1  0.05376079  0.83073609  0.35171077  1
  Br  Br27  1  0.55920994  0.73367288  0.51162081  1
  Br  Br28  1  0.77355947  0.44135240  0.37329041  1
  Br  Br29  1  0.05920994  0.76632712  0.98837919  1
  Br  Br30  1  0.94079006  0.23367288  0.01162081  1
  Br  Br31  1  0.44623921  0.33073609  0.85171077  1
  Br  Br32  1  0.94623921  0.16926391  0.64828923  1
  Br  Br33  1  0.22644053  0.55864760  0.62670959  1
  Br  Br34  1  0.72644053  0.94135240  0.87329041  1
  Br  Br35  1  0.55376079  0.66926391  0.14828923  1
