# generated using pymatgen
data_ZnS
_symmetry_space_group_name_H-M   'P 1'
_cell_length_a   3.85218031
_cell_length_b   3.85218020
_cell_length_c   44.08512954
_cell_angle_alpha   90.00000000
_cell_angle_beta   90.00000000
_cell_angle_gamma   120.00000089
_symmetry_Int_Tables_number   1
_chemical_formula_structural   ZnS
_chemical_formula_sum   'Zn14 S14'
_cell_volume   566.54700805
_cell_formula_units_Z   14
loop_
 _symmetry_equiv_pos_site_id
 _symmetry_equiv_pos_as_xyz
  1  'x, y, z'
loop_
 _atom_site_type_symbol
 _atom_site_label
 _atom_site_symmetry_multiplicity
 _atom_site_fract_x
 _atom_site_fract_y
 _atom_site_fract_z
 _atom_site_occupancy
  Zn  Zn0  1  0.66666700  0.33333300  0.14286294  1
  Zn  Zn1  1  0.00000000  0.00000000  0.64285554  1
  Zn  Zn2  1  0.00000000  0.00000000  0.21428600  1
  Zn  Zn3  1  0.33333300  0.66666700  0.07144916  1
  Zn  Zn4  1  0.66666700  0.33333300  0.85714497  1
  Zn  Zn5  1  0.66666700  0.33333300  0.57144904  1
  Zn  Zn6  1  0.00000000  0.00000000  0.78573376  1
  Zn  Zn7  1  0.00000000  0.00000000  0.35716103  1
  Zn  Zn8  1  0.00000000  0.00000000  0.99999821  1
  Zn  Zn9  1  0.66666700  0.33333300  0.42856654  1
  Zn  Zn10  1  0.33333300  0.66666700  0.92856695  1
  Zn  Zn11  1  0.33333300  0.66666700  0.28571344  1
  Zn  Zn12  1  0.33333300  0.66666700  0.49999851  1
  Zn  Zn13  1  0.33333300  0.66666700  0.71428834  1
  S  S14  1  0.66666700  0.33333300  0.19642361  1
  S  S15  1  0.33333300  0.66666700  0.33932579  1
  S  S16  1  0.66666700  0.33333300  0.91070518  1
  S  S17  1  0.00000000  0.00000000  0.83927822  1
  S  S18  1  0.00000000  0.00000000  0.41070362  1
  S  S19  1  0.33333300  0.66666700  0.55361126  1
  S  S20  1  0.00000000  0.00000000  0.26781136  1
  S  S21  1  0.33333300  0.66666700  0.76789895  1
  S  S22  1  0.33333300  0.66666700  0.98209366  1
  S  S23  1  0.00000000  0.00000000  0.69638280  1
  S  S24  1  0.00000000  0.00000000  0.05361118  1
  S  S25  1  0.66666700  0.33333300  0.48209333  1
  S  S26  1  0.66666700  0.33333300  0.62499284  1
  S  S27  1  0.33333300  0.66666700  0.12499376  1
