# generated using pymatgen
data_RbTh3F13
_symmetry_space_group_name_H-M   'P 1'
_cell_length_a   7.52086438
_cell_length_b   8.25311032
_cell_length_c   8.72959385
_cell_angle_alpha   90.00000000
_cell_angle_beta   90.00000000
_cell_angle_gamma   90.00000000
_symmetry_Int_Tables_number   1
_chemical_formula_structural   RbTh3F13
_chemical_formula_sum   'Rb2 Th6 F26'
_cell_volume   541.85045960
_cell_formula_units_Z   2
loop_
 _symmetry_equiv_pos_site_id
 _symmetry_equiv_pos_as_xyz
  1  'x, y, z'
loop_
 _atom_site_type_symbol
 _atom_site_label
 _atom_site_symmetry_multiplicity
 _atom_site_fract_x
 _atom_site_fract_y
 _atom_site_fract_z
 _atom_site_occupancy
  Rb  Rb0  1  0.89477552  0.50000000  0.30483704  1
  Rb  Rb1  1  0.10522448  0.50000000  0.80483704  1
  Th  Th2  1  0.60331319  0.25253586  0.66509398  1
  Th  Th3  1  0.60331319  0.74746414  0.66509398  1
  Th  Th4  1  0.39668681  0.74746414  0.16509398  1
  Th  Th5  1  0.39668681  0.25253586  0.16509398  1
  Th  Th6  1  0.10829829  0.00000000  0.49980268  1
  Th  Th7  1  0.89170171  0.00000000  -0.00019732  1
  F  F8  1  0.69487993  0.82646102  0.13370751  1
  F  F9  1  0.56055221  0.50000000  0.15428032  1
  F  F10  1  0.11447967  0.80655164  0.04347385  1
  F  F11  1  0.82410141  0.74488173  0.85501987  1
  F  F12  1  0.36095314  0.00000000  0.32142378  1
  F  F13  1  0.03378530  0.00000000  0.76508605  1
  F  F14  1  0.88552033  0.19344836  0.54347385  1
  F  F15  1  0.43944779  0.50000000  0.65428032  1
  F  F16  1  0.96621470  0.00000000  0.26508605  1
  F  F17  1  0.45250502  0.69854880  0.90318949  1
  F  F18  1  0.77184151  0.50000000  0.63204038  1
  F  F19  1  0.45250502  0.30145120  0.90318949  1
  F  F20  1  0.54749498  0.69854880  0.40318949  1
  F  F21  1  0.59797660  0.00000000  0.54306036  1
  F  F22  1  0.30512007  0.82646102  0.63370751  1
  F  F23  1  0.22815849  0.50000000  0.13204038  1
  F  F24  1  0.82410141  0.25511827  0.85501987  1
  F  F25  1  0.17589859  0.74488173  0.35501987  1
  F  F26  1  0.17589859  0.25511827  0.35501987  1
  F  F27  1  0.30512007  0.17353898  0.63370751  1
  F  F28  1  0.69487993  0.17353898  0.13370751  1
  F  F29  1  0.63904686  0.00000000  0.82142378  1
  F  F30  1  0.40202340  0.00000000  0.04306036  1
  F  F31  1  0.11447967  0.19344836  0.04347385  1
  F  F32  1  0.54749498  0.30145120  0.40318949  1
  F  F33  1  0.88552033  0.80655164  0.54347385  1
