# generated using pymatgen
data_ZnS
_symmetry_space_group_name_H-M   'P 1'
_cell_length_a   3.85357189
_cell_length_b   3.85357178
_cell_length_c   63.00434165
_cell_angle_alpha   90.00000000
_cell_angle_beta   90.00000000
_cell_angle_gamma   120.00000084
_symmetry_Int_Tables_number   1
_chemical_formula_structural   ZnS
_chemical_formula_sum   'Zn20 S20'
_cell_volume   810.26676257
_cell_formula_units_Z   20
loop_
 _symmetry_equiv_pos_site_id
 _symmetry_equiv_pos_as_xyz
  1  'x, y, z'
loop_
 _atom_site_type_symbol
 _atom_site_label
 _atom_site_symmetry_multiplicity
 _atom_site_fract_x
 _atom_site_fract_y
 _atom_site_fract_z
 _atom_site_occupancy
  Zn  Zn0  1  0.00000000  0.00000000  0.39999944  1
  Zn  Zn1  1  0.33333300  0.66666700  0.45000929  1
  Zn  Zn2  1  0.33333300  0.66666700  0.34999774  1
  Zn  Zn3  1  0.33333300  0.66666700  0.19999965  1
  Zn  Zn4  1  0.66666700  0.33333300  0.79999966  1
  Zn  Zn5  1  0.66666700  0.33333300  0.64999973  1
  Zn  Zn6  1  0.00000000  0.00000000  0.59999739  1
  Zn  Zn7  1  0.66666700  0.33333300  0.94999981  1
  Zn  Zn8  1  0.66666700  0.33333300  0.10000306  1
  Zn  Zn9  1  0.00000000  0.00000000  0.89999725  1
  Zn  Zn10  1  0.33333300  0.66666700  0.55001404  1
  Zn  Zn11  1  0.66666700  0.33333300  0.30000283  1
  Zn  Zn12  1  0.00000000  0.00000000  0.00001374  1
  Zn  Zn13  1  0.33333300  0.66666700  0.05000257  1
  Zn  Zn14  1  0.00000000  0.00000000  0.14999773  1
  Zn  Zn15  1  0.33333300  0.66666700  0.85001394  1
  Zn  Zn16  1  0.00000000  0.00000000  0.25001382  1
  Zn  Zn17  1  0.00000000  0.00000000  0.70001386  1
  Zn  Zn18  1  0.66666700  0.33333300  0.49999926  1
  Zn  Zn19  1  0.33333300  0.66666700  0.74999779  1
  S  S20  1  0.00000000  0.00000000  0.63746616  1
  S  S21  1  0.33333300  0.66666700  0.88749424  1
  S  S22  1  0.66666700  0.33333300  0.83752824  1
  S  S23  1  0.00000000  0.00000000  0.03749466  1
  S  S24  1  0.00000000  0.00000000  0.43752752  1
  S  S25  1  0.33333300  0.66666700  0.08749708  1
  S  S26  1  0.33333300  0.66666700  0.23752808  1
  S  S27  1  0.00000000  0.00000000  0.73749420  1
  S  S28  1  0.00000000  0.00000000  0.28749456  1
  S  S29  1  0.66666700  0.33333300  0.68752823  1
  S  S30  1  0.66666700  0.33333300  0.98752808  1
  S  S31  1  0.66666700  0.33333300  0.53752782  1
  S  S32  1  0.66666700  0.33333300  0.33749661  1
  S  S33  1  0.33333300  0.66666700  0.58749420  1
  S  S34  1  0.33333300  0.66666700  0.48746540  1
  S  S35  1  0.33333300  0.66666700  0.38746654  1
  S  S36  1  0.66666700  0.33333300  0.13749669  1
  S  S37  1  0.33333300  0.66666700  0.78746622  1
  S  S38  1  0.00000000  0.00000000  0.93746623  1
  S  S39  1  0.00000000  0.00000000  0.18746663  1
