# generated using pymatgen
data_Ca4Mn5Al(Si3O14)2
_symmetry_space_group_name_H-M   'P 1'
_cell_length_a   6.03032873
_cell_length_b   8.71653851
_cell_length_c   10.37507178
_cell_angle_alpha   107.37218480
_cell_angle_beta   91.64991248
_cell_angle_gamma   89.47601725
_symmetry_Int_Tables_number   1
_chemical_formula_structural   Ca4Mn5Al(Si3O14)2
_chemical_formula_sum   'Ca4 Mn5 Al1 Si6 O28'
_cell_volume   520.25920344
_cell_formula_units_Z   1
loop_
 _symmetry_equiv_pos_site_id
 _symmetry_equiv_pos_as_xyz
  1  'x, y, z'
loop_
 _atom_site_type_symbol
 _atom_site_label
 _atom_site_symmetry_multiplicity
 _atom_site_fract_x
 _atom_site_fract_y
 _atom_site_fract_z
 _atom_site_occupancy
  Ca  Ca0  1  0.24698715  0.76289913  0.68230006  1
  Ca  Ca1  1  0.75301285  0.23710087  0.31769994  1
  Ca  Ca2  1  0.25331908  0.66523306  0.31160423  1
  Ca  Ca3  1  0.74668092  0.33476694  0.68839577  1
  Mn  Mn4  1  0.50000000  -0.00000000  0.50000000  1
  Mn  Mn5  1  0.00000000  -0.00000000  0.50000000  1
  Mn  Mn6  1  0.50000000  0.50000000  -0.00000000  1
  Mn  Mn7  1  0.00000000  0.50000000  -0.00000000  1
  Mn  Mn8  1  0.50000000  -0.00000000  -0.00000000  1
  Al  Al9  1  0.00000000  -0.00000000  -0.00000000  1
  Si  Si10  1  0.23832724  0.28219722  0.18626339  1
  Si  Si11  1  0.76167276  0.71780278  0.81373661  1
  Si  Si12  1  0.24736593  0.19507205  0.80851550  1
  Si  Si13  1  0.75263407  0.80492795  0.19148450  1
  Si  Si14  1  0.25063098  0.33438093  0.49618054  1
  Si  Si15  1  0.74936902  0.66561907  0.50381946  1
  O  O16  1  0.48209731  0.22865642  0.49440089  1
  O  O17  1  0.98006414  0.77377413  0.50461921  1
  O  O18  1  0.51790269  0.77134358  0.50559911  1
  O  O19  1  0.01993586  0.22622587  0.49538079  1
  O  O20  1  0.22592914  0.05623090  0.65612576  1
  O  O21  1  0.77407086  0.94376910  0.34387424  1
  O  O22  1  0.46705130  0.30801180  0.83141076  1
  O  O23  1  0.97248601  0.68866860  0.15844364  1
  O  O24  1  0.53294870  0.69198820  0.16858924  1
  O  O25  1  0.02751399  0.31133140  0.84155636  1
  O  O26  1  0.25833414  0.90839830  0.06298142  1
  O  O27  1  0.74166586  0.09160170  0.93701858  1
  O  O28  1  0.47269346  0.18421381  0.15608736  1
  O  O29  1  0.97672464  0.83251210  0.84499149  1
  O  O30  1  0.52730654  0.81578619  0.84391264  1
  O  O31  1  0.02327536  0.16748790  0.15500851  1
  O  O32  1  0.24556032  0.59237305  0.94366999  1
  O  O33  1  0.75443968  0.40762695  0.05633001  1
  O  O34  1  0.24394925  0.38300639  0.34920635  1
  O  O35  1  0.75605075  0.61699361  0.65079365  1
  O  O36  1  0.24846078  0.49833841  0.61627245  1
  O  O37  1  0.75153922  0.50166159  0.38372755  1
  O  O38  1  0.22502005  0.42474746  0.11050498  1
  O  O39  1  0.77497995  0.57525254  0.88949502  1
  O  O40  1  0.24957407  0.08424555  0.91499154  1
  O  O41  1  0.75042593  0.91575445  0.08500846  1
  O  O42  1  0.24312250  0.94228715  0.38829349  1
  O  O43  1  0.75687750  0.05771285  0.61170651  1
