# generated using pymatgen
data_BaLiZr2F11
_symmetry_space_group_name_H-M   'P 1'
_cell_length_a   8.21993446
_cell_length_b   8.21993443
_cell_length_c   8.21993363
_cell_angle_alpha   91.65120046
_cell_angle_beta   119.05130302
_cell_angle_gamma   119.05130267
_symmetry_Int_Tables_number   1
_chemical_formula_structural   BaLiZr2F11
_chemical_formula_sum   'Ba2 Li2 Zr4 F22'
_cell_volume   398.17891780
_cell_formula_units_Z   2
loop_
 _symmetry_equiv_pos_site_id
 _symmetry_equiv_pos_as_xyz
  1  'x, y, z'
loop_
 _atom_site_type_symbol
 _atom_site_label
 _atom_site_symmetry_multiplicity
 _atom_site_fract_x
 _atom_site_fract_y
 _atom_site_fract_z
 _atom_site_occupancy
  Ba  Ba0  1  0.00000000  0.80675586  0.80675586  1
  Ba  Ba1  1  1.00000000  0.19324414  0.19324414  1
  Li  Li2  1  0.50000000  0.75000000  0.25000000  1
  Li  Li3  1  0.50000000  0.25000000  0.75000000  1
  Zr  Zr4  1  0.85155593  0.21502051  0.63653542  1
  Zr  Zr5  1  0.42151491  0.63653542  0.78497949  1
  Zr  Zr6  1  0.14844407  0.78497949  0.36346458  1
  Zr  Zr7  1  0.57848509  0.36346458  0.21502051  1
  F  F8  1  0.13246504  0.32291567  0.60075327  1
  F  F9  1  0.69278979  0.87880608  0.81398371  1
  F  F10  1  0.56388744  0.51148785  0.72577328  1
  F  F11  1  0.21428543  0.05239959  0.48851215  1
  F  F12  1  0.72216240  0.19045063  0.32291567  1
  F  F13  1  0.27783760  0.60075327  0.46828823  1
  F  F14  1  0.21428543  0.72577328  0.16188583  1
  F  F15  1  0.13246504  0.53171177  0.80954937  1
  F  F16  1  0.78571457  0.27422672  0.83811417  1
  F  F17  1  0.93517764  0.81398371  0.12119392  1
  F  F18  1  0.50000000  0.00000000  0.50000000  1
  F  F19  1  0.06482236  0.18601629  0.87880608  1
  F  F20  1  0.43611256  0.48851215  0.27422672  1
  F  F21  1  0.27783760  0.80954937  0.67708433  1
  F  F22  1  0.86753496  0.46828823  0.19045063  1
  F  F23  1  0.86753496  0.67708433  0.39924673  1
  F  F24  1  0.72216240  0.39924673  0.53171177  1
  F  F25  1  0.78571457  0.94760041  0.51148785  1
  F  F26  1  0.50000000  0.50000000  0.00000000  1
  F  F27  1  0.56388744  0.83811417  0.05239959  1
  F  F28  1  0.30721021  0.12119392  0.18601629  1
  F  F29  1  0.43611256  0.16188583  0.94760041  1
