# generated using pymatgen
data_ZnS
_symmetry_space_group_name_H-M   'P 1'
_cell_length_a   3.85271359
_cell_length_b   3.85271349
_cell_length_c   75.59590266
_cell_angle_alpha   90.00000000
_cell_angle_beta   90.00000000
_cell_angle_gamma   120.00000097
_symmetry_Int_Tables_number   1
_chemical_formula_structural   ZnS
_chemical_formula_sum   'Zn24 S24'
_cell_volume   971.76739315
_cell_formula_units_Z   24
loop_
 _symmetry_equiv_pos_site_id
 _symmetry_equiv_pos_as_xyz
  1  'x, y, z'
loop_
 _atom_site_type_symbol
 _atom_site_label
 _atom_site_symmetry_multiplicity
 _atom_site_fract_x
 _atom_site_fract_y
 _atom_site_fract_z
 _atom_site_occupancy
  Zn  Zn0  1  0.66666700  0.33333300  0.70834323  1
  Zn  Zn1  1  0.33333300  0.66666700  0.79167217  1
  Zn  Zn2  1  0.66666700  0.33333300  0.33333025  1
  Zn  Zn3  1  0.00000000  0.00000000  0.41667135  1
  Zn  Zn4  1  0.66666700  0.33333300  0.08332886  1
  Zn  Zn5  1  0.33333300  0.66666700  0.20832876  1
  Zn  Zn6  1  0.66666700  0.33333300  0.83332921  1
  Zn  Zn7  1  0.66666700  0.33333300  0.91668164  1
  Zn  Zn8  1  0.00000000  0.00000000  0.12499868  1
  Zn  Zn9  1  0.66666700  0.33333300  0.16668168  1
  Zn  Zn10  1  0.00000000  0.00000000  0.58333083  1
  Zn  Zn11  1  0.33333300  0.66666700  0.66666894  1
  Zn  Zn12  1  0.33333300  0.66666700  0.04168171  1
  Zn  Zn13  1  0.66666700  0.33333300  0.45832905  1
  Zn  Zn14  1  0.00000000  0.00000000  0.75000134  1
  Zn  Zn15  1  0.33333300  0.66666700  0.29167730  1
  Zn  Zn16  1  0.33333300  0.66666700  0.37501121  1
  Zn  Zn17  1  0.33333300  0.66666700  0.95832878  1
  Zn  Zn18  1  0.00000000  0.00000000  0.87499874  1
  Zn  Zn19  1  0.66666700  0.33333300  0.54167731  1
  Zn  Zn20  1  0.66666700  0.33333300  0.62500732  1
  Zn  Zn21  1  0.00000000  0.00000000  0.99999869  1
  Zn  Zn22  1  0.33333300  0.66666700  0.49999873  1
  Zn  Zn23  1  0.00000000  0.00000000  0.24999871  1
  S  S24  1  0.33333300  0.66666700  0.53127259  1
  S  S25  1  0.33333300  0.66666700  0.32288977  1
  S  S26  1  0.66666700  0.33333300  0.86455389  1
  S  S27  1  0.00000000  0.00000000  0.78124805  1
  S  S28  1  0.66666700  0.33333300  0.94791407  1
  S  S29  1  0.33333300  0.66666700  0.98955343  1
  S  S30  1  0.66666700  0.33333300  0.11455344  1
  S  S31  1  0.00000000  0.00000000  0.61460352  1
  S  S32  1  0.00000000  0.00000000  0.03127326  1
  S  S33  1  0.00000000  0.00000000  0.90627326  1
  S  S34  1  0.66666700  0.33333300  0.48955412  1
  S  S35  1  0.00000000  0.00000000  0.28127261  1
  S  S36  1  0.66666700  0.33333300  0.36460312  1
  S  S37  1  0.33333300  0.66666700  0.82291515  1
  S  S38  1  0.66666700  0.33333300  0.65622252  1
  S  S39  1  0.33333300  0.66666700  0.07291421  1
  S  S40  1  0.66666700  0.33333300  0.73957593  1
  S  S41  1  0.33333300  0.66666700  0.69794014  1
  S  S42  1  0.00000000  0.00000000  0.15627316  1
  S  S43  1  0.33333300  0.66666700  0.23955356  1
  S  S44  1  0.66666700  0.33333300  0.57289000  1
  S  S45  1  0.33333300  0.66666700  0.40624715  1
  S  S46  1  0.00000000  0.00000000  0.44791432  1
  S  S47  1  0.66666700  0.33333300  0.19791422  1
