# generated using pymatgen
data_Na2V3O7
_symmetry_space_group_name_H-M   'P 1'
_cell_length_a   11.10469064
_cell_length_b   11.10469128
_cell_length_c   9.69129607
_cell_angle_alpha   90.00000000
_cell_angle_beta   90.00000000
_cell_angle_gamma   119.99999810
_symmetry_Int_Tables_number   1
_chemical_formula_structural   Na2V3O7
_chemical_formula_sum   'Na12 V18 O42'
_cell_volume   1034.96450347
_cell_formula_units_Z   6
loop_
 _symmetry_equiv_pos_site_id
 _symmetry_equiv_pos_as_xyz
  1  'x, y, z'
loop_
 _atom_site_type_symbol
 _atom_site_label
 _atom_site_symmetry_multiplicity
 _atom_site_fract_x
 _atom_site_fract_y
 _atom_site_fract_z
 _atom_site_occupancy
  Na  Na0  1  0.50987862  0.02352111  0.84665873  1
  Na  Na1  1  0.97647889  0.48635750  0.84665873  1
  Na  Na2  1  0.51364250  0.49012138  0.84665873  1
  Na  Na3  1  0.02352111  0.50987862  0.34665873  1
  Na  Na4  1  0.48635750  0.97647889  0.34665873  1
  Na  Na5  1  0.49012138  0.51364250  0.34665873  1
  Na  Na6  1  0.66666700  0.33333300  0.16760823  1
  Na  Na7  1  0.33333300  0.66666700  0.66760823  1
  Na  Na8  1  0.66666700  0.33333300  0.53320985  1
  Na  Na9  1  0.33333300  0.66666700  0.03320985  1
  Na  Na10  1  0.00000000  0.00000000  0.60381979  1
  Na  Na11  1  0.00000000  0.00000000  0.10381979  1
  V  V12  1  0.68299555  0.88017714  0.20088593  1
  V  V13  1  0.11982286  0.80281841  0.20088593  1
  V  V14  1  0.19718159  0.31700445  0.20088593  1
  V  V15  1  0.88017714  0.68299555  0.70088593  1
  V  V16  1  0.80281841  0.11982286  0.70088593  1
  V  V17  1  0.31700445  0.19718159  0.70088593  1
  V  V18  1  0.68565085  0.84302995  0.85175476  1
  V  V19  1  0.15697005  0.84262090  0.85175476  1
  V  V20  1  0.15737910  0.31434915  0.85175476  1
  V  V21  1  0.84302995  0.68565085  0.35175476  1
  V  V22  1  0.84262090  0.15697005  0.35175476  1
  V  V23  1  0.31434915  0.15737910  0.35175476  1
  V  V24  1  0.68313306  0.80295948  0.50219255  1
  V  V25  1  0.19704052  0.88017458  0.50219255  1
  V  V26  1  0.11982542  0.31686694  0.50219255  1
  V  V27  1  0.80295948  0.68313306  0.00219255  1
  V  V28  1  0.88017458  0.19704052  0.00219255  1
  V  V29  1  0.31686694  0.11982542  0.00219255  1
  O  O30  1  0.74212794  0.04007167  0.89053800  1
  O  O31  1  0.95992833  0.70205628  0.89053800  1
  O  O32  1  0.29794372  0.25787206  0.89053800  1
  O  O33  1  0.04007167  0.74212794  0.39053800  1
  O  O34  1  0.70205628  0.95992833  0.39053800  1
  O  O35  1  0.25787206  0.29794372  0.39053800  1
  O  O36  1  0.75727386  0.92809348  0.66880455  1
  O  O37  1  0.07190652  0.82918038  0.66880455  1
  O  O38  1  0.17081962  0.24272614  0.66880455  1
  O  O39  1  0.92809348  0.75727386  0.16880455  1
  O  O40  1  0.82918038  0.07190652  0.16880455  1
  O  O41  1  0.24272614  0.17081962  0.16880455  1
  O  O42  1  0.75821948  0.83003707  0.03447285  1
  O  O43  1  0.16996293  0.92818242  0.03447285  1
  O  O44  1  0.07181758  0.24178052  0.03447285  1
  O  O45  1  0.83003707  0.75821948  0.53447285  1
  O  O46  1  0.92818242  0.16996293  0.53447285  1
  O  O47  1  0.51211264  0.75501686  0.85108162  1
  O  O48  1  0.24178052  0.07181758  0.53447285  1
  O  O49  1  0.25666354  0.96006798  0.31249983  1
  O  O50  1  0.03993202  0.29659556  0.31249983  1
  O  O51  1  0.74333646  0.70340444  0.81249983  1
  O  O52  1  0.96006798  0.25666354  0.81249983  1
  O  O53  1  0.29659556  0.03993202  0.81249983  1
  O  O54  1  0.52077536  0.84368195  0.16439581  1
  O  O55  1  0.15631805  0.67709341  0.16439581  1
  O  O56  1  0.32290659  0.47922464  0.16439581  1
  O  O57  1  0.84368195  0.52077536  0.66439581  1
  O  O58  1  0.67709341  0.15631805  0.66439581  1
  O  O59  1  0.47922464  0.32290659  0.66439581  1
  O  O60  1  0.47851015  0.15421742  0.03820374  1
  O  O61  1  0.84578258  0.32429273  0.03820374  1
  O  O62  1  0.67570727  0.52148985  0.03820374  1
  O  O63  1  0.15421742  0.47851015  0.53820374  1
  O  O64  1  0.32429273  0.84578258  0.53820374  1
  O  O65  1  0.52148985  0.67570727  0.53820374  1
  O  O66  1  0.48788736  0.24290423  0.35108162  1
  O  O67  1  0.75709577  0.24498314  0.35108162  1
  O  O68  1  0.75501686  0.51211264  0.35108162  1
  O  O69  1  0.24290423  0.48788736  0.85108162  1
  O  O70  1  0.24498314  0.75709577  0.85108162  1
  O  O71  1  0.70340444  0.74333646  0.31249983  1
