# generated using pymatgen
data_BaNiF4
_symmetry_space_group_name_H-M   'P 1'
_cell_length_a   4.20427073
_cell_length_b   5.90878633
_cell_length_c   7.67984443
_cell_angle_alpha   90.00000000
_cell_angle_beta   105.88581375
_cell_angle_gamma   90.00000000
_symmetry_Int_Tables_number   1
_chemical_formula_structural   BaNiF4
_chemical_formula_sum   'Ba2 Ni2 F8'
_cell_volume   183.49754965
_cell_formula_units_Z   2
loop_
 _symmetry_equiv_pos_site_id
 _symmetry_equiv_pos_as_xyz
  1  'x, y, z'
loop_
 _atom_site_type_symbol
 _atom_site_label
 _atom_site_symmetry_multiplicity
 _atom_site_fract_x
 _atom_site_fract_y
 _atom_site_fract_z
 _atom_site_occupancy
  F  F0  1  0.66397808  0.72796966  0.32795615  1
  F  F1  1  0.92112332  0.51058486  0.84224664  1
  F  F2  1  0.52805412  0.31917830  0.05610824  1
  F  F3  1  0.47194588  0.81917830  0.94389176  1
  F  F4  1  0.69790873  0.19329249  0.39581745  1
  F  F5  1  0.30209127  0.69329249  0.60418255  1
  F  F6  1  0.33602192  0.22796966  0.67204385  1
  F  F7  1  0.07887668  0.01058486  0.15775336  1
  Ni  Ni8  1  0.58627997  0.00039352  0.17255994  1
  Ni  Ni9  1  0.41372003  0.50039352  0.82744006  1
  Ba  Ba10  1  0.85280986  0.95828117  0.70561971  1
  Ba  Ba11  1  0.14719014  0.45828117  0.29438029  1
