# generated using pymatgen
data_Na2Si2O5
_symmetry_space_group_name_H-M   'P 1'
_cell_length_a   4.89813412
_cell_length_b   8.48946127
_cell_length_c   12.19810870
_cell_angle_alpha   90.00000000
_cell_angle_beta   90.00000000
_cell_angle_gamma   90.56550471
_symmetry_Int_Tables_number   1
_chemical_formula_structural   Na2Si2O5
_chemical_formula_sum   'Na8 Si8 O20'
_cell_volume   507.20339220
_cell_formula_units_Z   4
loop_
 _symmetry_equiv_pos_site_id
 _symmetry_equiv_pos_as_xyz
  1  'x, y, z'
loop_
 _atom_site_type_symbol
 _atom_site_label
 _atom_site_symmetry_multiplicity
 _atom_site_fract_x
 _atom_site_fract_y
 _atom_site_fract_z
 _atom_site_occupancy
  Na  Na0  1  0.75727550  0.36974098  0.00281856  1
  Na  Na1  1  0.23385657  0.11947436  0.96217613  1
  Na  Na2  1  0.25727550  0.86974098  0.49718144  1
  Na  Na3  1  0.74272450  0.13025902  0.50281856  1
  Na  Na4  1  0.73385657  0.61947436  0.53782387  1
  Na  Na5  1  0.26614343  0.38052564  0.46217613  1
  Na  Na6  1  0.24272450  0.63025902  0.99718144  1
  Na  Na7  1  0.76614343  0.88052564  0.03782387  1
  Si  Si8  1  0.69567975  0.67606481  0.82117447  1
  Si  Si9  1  0.80626018  0.44952982  0.30271411  1
  Si  Si10  1  0.30626018  0.94952982  0.19728589  1
  Si  Si11  1  0.19373982  0.55047018  0.69728589  1
  Si  Si12  1  0.30432025  0.32393519  0.17882553  1
  Si  Si13  1  0.80432025  0.82393519  0.32117447  1
  Si  Si14  1  0.19567975  0.17606481  0.67882553  1
  Si  Si15  1  0.69373982  0.05047018  0.80271411  1
  O  O16  1  0.13228952  0.86173220  0.29665324  1
  O  O17  1  0.73914052  0.86469375  0.44652598  1
  O  O18  1  0.76085948  0.63530625  0.94652598  1
  O  O19  1  0.26085948  0.13530625  0.55347402  1
  O  O20  1  0.36617694  0.07446710  0.77181069  1
  O  O21  1  0.75237516  0.11316805  0.92451786  1
  O  O22  1  0.25486915  0.36153090  0.70925386  1
  O  O23  1  0.86617694  0.57446710  0.72818931  1
  O  O24  1  0.74513085  0.63846910  0.29074614  1
  O  O25  1  0.24762484  0.88683195  0.07548214  1
  O  O26  1  0.63382306  0.92553290  0.22818931  1
  O  O27  1  0.74762484  0.38683195  0.42451786  1
  O  O28  1  0.25237516  0.61316805  0.57548214  1
  O  O29  1  0.24513085  0.13846910  0.20925386  1
  O  O30  1  0.36771048  0.63826780  0.79665324  1
  O  O31  1  0.75486915  0.86153090  0.79074614  1
  O  O32  1  0.13382306  0.42553290  0.27181069  1
  O  O33  1  0.86771048  0.13826780  0.70334676  1
  O  O34  1  0.23914052  0.36469375  0.05347402  1
  O  O35  1  0.63228952  0.36173220  0.20334676  1
