# generated using pymatgen
data_ZnS
_symmetry_space_group_name_H-M   'P 1'
_cell_length_a   3.85195120
_cell_length_b   3.85195109
_cell_length_c   44.10287514
_cell_angle_alpha   90.00000000
_cell_angle_beta   90.00000000
_cell_angle_gamma   120.00000092
_symmetry_Int_Tables_number   1
_chemical_formula_structural   ZnS
_chemical_formula_sum   'Zn14 S14'
_cell_volume   566.70764489
_cell_formula_units_Z   14
loop_
 _symmetry_equiv_pos_site_id
 _symmetry_equiv_pos_as_xyz
  1  'x, y, z'
loop_
 _atom_site_type_symbol
 _atom_site_label
 _atom_site_symmetry_multiplicity
 _atom_site_fract_x
 _atom_site_fract_y
 _atom_site_fract_z
 _atom_site_occupancy
  Zn  Zn0  1  0.66666700  0.33333300  0.14286413  1
  Zn  Zn1  1  0.00000000  0.00000000  0.21428602  1
  Zn  Zn2  1  0.33333300  0.66666700  0.07143364  1
  Zn  Zn3  1  0.66666700  0.33333300  0.78572262  1
  Zn  Zn4  1  0.00000000  0.00000000  0.71429743  1
  Zn  Zn5  1  0.66666700  0.33333300  0.64285142  1
  Zn  Zn6  1  0.00000000  0.00000000  0.35716215  1
  Zn  Zn7  1  0.00000000  0.00000000  0.00001932  1
  Zn  Zn8  1  0.66666700  0.33333300  0.42857343  1
  Zn  Zn9  1  0.66666700  0.33333300  0.92858474  1
  Zn  Zn10  1  0.33333300  0.66666700  0.28571349  1
  Zn  Zn11  1  0.33333300  0.66666700  0.50000413  1
  Zn  Zn12  1  0.00000000  0.00000000  0.57142676  1
  Zn  Zn13  1  0.00000000  0.00000000  0.85714913  1
  S  S14  1  0.00000000  0.00000000  0.76784954  1
  S  S15  1  0.66666700  0.33333300  0.98217934  1
  S  S16  1  0.66666700  0.33333300  0.19642760  1
  S  S17  1  0.33333300  0.66666700  0.33932521  1
  S  S18  1  0.66666700  0.33333300  0.69642703  1
  S  S19  1  0.00000000  0.00000000  0.41070395  1
  S  S20  1  0.00000000  0.00000000  0.91070377  1
  S  S21  1  0.00000000  0.00000000  0.26781037  1
  S  S22  1  0.33333300  0.66666700  0.55356409  1
  S  S23  1  0.66666700  0.33333300  0.83927668  1
  S  S24  1  0.00000000  0.00000000  0.05356348  1
  S  S25  1  0.66666700  0.33333300  0.48213459  1
  S  S26  1  0.00000000  0.00000000  0.62495140  1
  S  S27  1  0.33333300  0.66666700  0.12499453  1
