# generated using pymatgen
data_Na2Si2O5
_symmetry_space_group_name_H-M   'P 1'
_cell_length_a   4.90594171
_cell_length_b   8.22170849
_cell_length_c   24.26300957
_cell_angle_alpha   90.00000000
_cell_angle_beta   90.00000000
_cell_angle_gamma   90.16007028
_symmetry_Int_Tables_number   1
_chemical_formula_structural   Na2Si2O5
_chemical_formula_sum   'Na16 Si16 O40'
_cell_volume   978.65007205
_cell_formula_units_Z   8
loop_
 _symmetry_equiv_pos_site_id
 _symmetry_equiv_pos_as_xyz
  1  'x, y, z'
loop_
 _atom_site_type_symbol
 _atom_site_label
 _atom_site_symmetry_multiplicity
 _atom_site_fract_x
 _atom_site_fract_y
 _atom_site_fract_z
 _atom_site_occupancy
  Na  Na0  1  0.27370651  0.35556896  0.51440766  1
  Na  Na1  1  0.75451927  0.77747329  0.21853506  1
  Na  Na2  1  0.24548073  0.72252671  0.71853506  1
  Na  Na3  1  0.24548073  0.22252671  0.78146494  1
  Na  Na4  1  0.77007231  0.97379346  0.76223441  1
  Na  Na5  1  0.74650681  0.10152196  0.52756481  1
  Na  Na6  1  0.72629349  0.14443104  0.01440766  1
  Na  Na7  1  0.25349319  0.39847804  0.02756481  1
  Na  Na8  1  0.25349319  0.89847804  0.47243519  1
  Na  Na9  1  0.74650681  0.60152196  0.97243519  1
  Na  Na10  1  0.72629349  0.64443104  0.48559234  1
  Na  Na11  1  0.77007231  0.47379346  0.73776559  1
  Na  Na12  1  0.27370651  0.85556896  0.98559234  1
  Na  Na13  1  0.22992769  0.02620654  0.23776559  1
  Na  Na14  1  0.75451927  0.27747329  0.28146494  1
  Na  Na15  1  0.22992769  0.52620654  0.26223441  1
  Si  Si16  1  0.79319188  0.98159230  0.38971881  1
  Si  Si17  1  0.29442292  0.19642278  0.36309451  1
  Si  Si18  1  0.70557708  0.80357722  0.63690549  1
  Si  Si19  1  0.29442292  0.69642278  0.13690549  1
  Si  Si20  1  0.31385215  0.85691446  0.84087343  1
  Si  Si21  1  0.68614785  0.64308554  0.34087343  1
  Si  Si22  1  0.18519268  0.53752704  0.40812002  1
  Si  Si23  1  0.68614785  0.14308554  0.15912657  1
  Si  Si24  1  0.79319188  0.48159230  0.11028119  1
  Si  Si25  1  0.20680812  0.01840770  0.61028119  1
  Si  Si26  1  0.70557708  0.30357722  0.86309451  1
  Si  Si27  1  0.81480732  0.96247296  0.90812002  1
  Si  Si28  1  0.20680812  0.51840770  0.88971881  1
  Si  Si29  1  0.18519268  0.03752704  0.09187998  1
  Si  Si30  1  0.81480732  0.46247296  0.59187998  1
  Si  Si31  1  0.31385215  0.35691446  0.65912657  1
  O  O32  1  0.75539039  0.16118099  0.91051871  1
  O  O33  1  0.14150698  0.44031121  0.60787980  1
  O  O34  1  0.26706440  0.07636160  0.54840426  1
  O  O35  1  0.38063260  0.35732170  0.86884177  1
  O  O36  1  0.23329687  0.75189766  0.19894088  1
  O  O37  1  0.76670313  0.24810234  0.80105912  1
  O  O38  1  0.35821222  0.61587046  0.35581772  1
  O  O39  1  0.23329687  0.25189766  0.30105912  1
  O  O40  1  0.24460961  0.33881901  0.41051871  1
  O  O41  1  0.61936740  0.14267830  0.36884177  1
  O  O42  1  0.25640561  0.65873617  0.84158463  1
  O  O43  1  0.24664653  0.11648938  0.03317837  1
  O  O44  1  0.74359439  0.34126383  0.15841537  1
  O  O45  1  0.38063260  0.85732170  0.63115823  1
  O  O46  1  0.85849302  0.55968879  0.39212020  1
  O  O47  1  0.74717960  0.06567949  0.21821245  1
  O  O48  1  0.88048648  0.46432146  0.88463654  1
  O  O49  1  0.64178778  0.88412954  0.85581772  1
  O  O50  1  0.88048648  0.96432146  0.61536346  1
  O  O51  1  0.75335347  0.38351062  0.53317837  1
  O  O52  1  0.73293560  0.92363840  0.45159574  1
  O  O53  1  0.24460961  0.83881901  0.08948129  1
  O  O54  1  0.61936740  0.64267830  0.13115823  1
  O  O55  1  0.11951352  0.53567854  0.11536346  1
  O  O56  1  0.75335347  0.88351062  0.96682163  1
  O  O57  1  0.76670313  0.74810234  0.69894088  1
  O  O58  1  0.25282040  0.43432051  0.71821245  1
  O  O59  1  0.25640561  0.15873617  0.65841537  1
  O  O60  1  0.14150698  0.94031121  0.89212020  1
  O  O61  1  0.25282040  0.93432051  0.78178755  1
  O  O62  1  0.74717960  0.56567949  0.28178755  1
  O  O63  1  0.85849302  0.05968879  0.10787980  1
  O  O64  1  0.24664653  0.61648938  0.46682163  1
  O  O65  1  0.11951352  0.03567854  0.38463654  1
  O  O66  1  0.35821222  0.11587046  0.14418228  1
  O  O67  1  0.74359439  0.84126383  0.34158463  1
  O  O68  1  0.75539039  0.66118099  0.58948129  1
  O  O69  1  0.73293560  0.42363840  0.04840426  1
  O  O70  1  0.26706440  0.57636160  0.95159574  1
  O  O71  1  0.64178778  0.38412954  0.64418228  1
