# generated using pymatgen
data_ZnS
_symmetry_space_group_name_H-M   'P 1'
_cell_length_a   3.85172785
_cell_length_b   3.85172782
_cell_length_c   50.41076924
_cell_angle_alpha   90.00000000
_cell_angle_beta   90.00000000
_cell_angle_gamma   120.00000034
_symmetry_Int_Tables_number   1
_chemical_formula_structural   ZnS
_chemical_formula_sum   'Zn16 S16'
_cell_volume   647.68693857
_cell_formula_units_Z   16
loop_
 _symmetry_equiv_pos_site_id
 _symmetry_equiv_pos_as_xyz
  1  'x, y, z'
loop_
 _atom_site_type_symbol
 _atom_site_label
 _atom_site_symmetry_multiplicity
 _atom_site_fract_x
 _atom_site_fract_y
 _atom_site_fract_z
 _atom_site_occupancy
  Zn  Zn0  1  0.33333300  0.66666700  0.56251787  1
  Zn  Zn1  1  0.66666700  0.33333300  0.12500972  1
  Zn  Zn2  1  0.00000000  0.00000000  0.37500886  1
  Zn  Zn3  1  0.33333300  0.66666700  0.06252281  1
  Zn  Zn4  1  0.66666700  0.33333300  0.50000861  1
  Zn  Zn5  1  0.33333300  0.66666700  0.31250292  1
  Zn  Zn6  1  0.66666700  0.33333300  0.25002627  1
  Zn  Zn7  1  0.00000000  0.00000000  0.81250473  1
  Zn  Zn8  1  0.66666700  0.33333300  0.75000663  1
  Zn  Zn9  1  0.00000000  0.00000000  0.18751276  1
  Zn  Zn10  1  0.33333300  0.66666700  0.43752621  1
  Zn  Zn11  1  0.33333300  0.66666700  0.93751275  1
  Zn  Zn12  1  0.00000000  0.00000000  0.62501019  1
  Zn  Zn13  1  0.66666700  0.33333300  0.87502713  1
  Zn  Zn14  1  0.33333300  0.66666700  0.68753107  1
  Zn  Zn15  1  0.00000000  0.00000000  0.00000879  1
  S  S16  1  0.00000000  0.00000000  0.23438727  1
  S  S17  1  0.33333300  0.66666700  0.35931917  1
  S  S18  1  0.66666700  0.33333300  0.29684915  1
  S  S19  1  0.66666700  0.33333300  0.54689478  1
  S  S20  1  0.33333300  0.66666700  0.10935478  1
  S  S21  1  0.66666700  0.33333300  0.79681490  1
  S  S22  1  0.33333300  0.66666700  0.98432056  1
  S  S23  1  0.66666700  0.33333300  0.92185410  1
  S  S24  1  0.00000000  0.00000000  0.85939644  1
  S  S25  1  0.33333300  0.66666700  0.60931929  1
  S  S26  1  0.00000000  0.00000000  0.42189278  1
  S  S27  1  0.33333300  0.66666700  0.73434789  1
  S  S28  1  0.00000000  0.00000000  0.67189411  1
  S  S29  1  0.00000000  0.00000000  0.04689555  1
  S  S30  1  0.66666700  0.33333300  0.17182255  1
  S  S31  1  0.33333300  0.66666700  0.48431936  1
