# generated using pymatgen
data_ZnS
_symmetry_space_group_name_H-M   'P 1'
_cell_length_a   3.85357889
_cell_length_b   3.85357878
_cell_length_c   56.70237435
_cell_angle_alpha   90.00000000
_cell_angle_beta   90.00000000
_cell_angle_gamma   120.00000086
_symmetry_Int_Tables_number   1
_chemical_formula_structural   ZnS
_chemical_formula_sum   'Zn18 S18'
_cell_volume   729.22301823
_cell_formula_units_Z   18
loop_
 _symmetry_equiv_pos_site_id
 _symmetry_equiv_pos_as_xyz
  1  'x, y, z'
loop_
 _atom_site_type_symbol
 _atom_site_label
 _atom_site_symmetry_multiplicity
 _atom_site_fract_x
 _atom_site_fract_y
 _atom_site_fract_z
 _atom_site_occupancy
  Zn  Zn0  1  0.00000000  0.00000000  0.16666752  1
  Zn  Zn1  1  0.00000000  0.00000000  0.55556113  1
  Zn  Zn2  1  0.66666700  0.33333300  0.27777707  1
  Zn  Zn3  1  0.66666700  0.33333300  0.72221867  1
  Zn  Zn4  1  0.00000000  0.00000000  0.77778407  1
  Zn  Zn5  1  0.00000000  0.00000000  0.44445488  1
  Zn  Zn6  1  0.00000000  0.00000000  0.66667410  1
  Zn  Zn7  1  0.33333300  0.66666700  0.05556109  1
  Zn  Zn8  1  0.33333300  0.66666700  0.61110578  1
  Zn  Zn9  1  0.66666700  0.33333300  0.11111242  1
  Zn  Zn10  1  0.33333300  0.66666700  0.22222254  1
  Zn  Zn11  1  0.66666700  0.33333300  0.94443822  1
  Zn  Zn12  1  0.33333300  0.66666700  0.38889607  1
  Zn  Zn13  1  0.00000000  0.00000000  0.33332605  1
  Zn  Zn14  1  0.33333300  0.66666700  0.83332731  1
  Zn  Zn15  1  0.00000000  0.00000000  0.00001281  1
  Zn  Zn16  1  0.66666700  0.33333300  0.49999669  1
  Zn  Zn17  1  0.00000000  0.00000000  0.88889828  1
  S  S18  1  0.33333300  0.66666700  0.43060057  1
  S  S19  1  0.00000000  0.00000000  0.04166873  1
  S  S20  1  0.00000000  0.00000000  0.59718537  1
  S  S21  1  0.66666700  0.33333300  0.15277924  1
  S  S22  1  0.66666700  0.33333300  0.76392099  1
  S  S23  1  0.33333300  0.66666700  0.09722704  1
  S  S24  1  0.66666700  0.33333300  0.98614202  1
  S  S25  1  0.00000000  0.00000000  0.70829768  1
  S  S26  1  0.00000000  0.00000000  0.81940717  1
  S  S27  1  0.00000000  0.00000000  0.37496742  1
  S  S28  1  0.66666700  0.33333300  0.31943975  1
  S  S29  1  0.33333300  0.66666700  0.65280951  1
  S  S30  1  0.00000000  0.00000000  0.93052150  1
  S  S31  1  0.00000000  0.00000000  0.48607617  1
  S  S32  1  0.33333300  0.66666700  0.26388961  1
  S  S33  1  0.66666700  0.33333300  0.54169871  1
  S  S34  1  0.00000000  0.00000000  0.20833225  1
  S  S35  1  0.33333300  0.66666700  0.87503155  1
