# generated using pymatgen
data_CuBi2(SeO3)4
_symmetry_space_group_name_H-M   'P 1'
_cell_length_a   4.48337144
_cell_length_b   8.32685391
_cell_length_c   16.31678266
_cell_angle_alpha   90.00000000
_cell_angle_beta   90.00000000
_cell_angle_gamma   95.36808743
_symmetry_Int_Tables_number   1
_chemical_formula_structural   CuBi2(SeO3)4
_chemical_formula_sum   'Cu2 Bi4 Se8 O24'
_cell_volume   606.47274532
_cell_formula_units_Z   2
loop_
 _symmetry_equiv_pos_site_id
 _symmetry_equiv_pos_as_xyz
  1  'x, y, z'
loop_
 _atom_site_type_symbol
 _atom_site_label
 _atom_site_symmetry_multiplicity
 _atom_site_fract_x
 _atom_site_fract_y
 _atom_site_fract_z
 _atom_site_occupancy
  Cu  Cu0  1  0.00000000  0.00000000  0.00000000  1
  Cu  Cu1  1  0.00000000  0.50000000  0.50000000  1
  Bi  Bi2  1  0.49886478  0.53159780  0.27213031  1
  Bi  Bi3  1  0.50113522  0.46840220  0.72786969  1
  Bi  Bi4  1  0.50113522  0.96840220  0.77213031  1
  Bi  Bi5  1  0.49886478  0.03159780  0.22786969  1
  Se  Se6  1  0.44722058  0.25547981  0.42925073  1
  Se  Se7  1  0.02065943  0.36333783  0.13032698  1
  Se  Se8  1  0.55277942  0.24452019  0.92925073  1
  Se  Se9  1  0.44722058  0.75547981  0.07074927  1
  Se  Se10  1  0.97934057  0.63666217  0.86967302  1
  Se  Se11  1  0.97934057  0.13666217  0.63032698  1
  Se  Se12  1  0.55277942  0.74452019  0.57074927  1
  Se  Se13  1  0.02065943  0.86333783  0.36967302  1
  O  O14  1  0.53147553  0.75662887  0.17653517  1
  O  O15  1  0.40420264  0.87781275  0.34855679  1
  O  O16  1  0.94809828  0.96695110  0.27792696  1
  O  O17  1  0.59579736  0.62218725  0.84855679  1
  O  O18  1  0.07928469  0.83584386  0.85061280  1
  O  O19  1  0.59579736  0.12218725  0.65144321  1
  O  O20  1  0.79256632  0.28443094  0.47523041  1
  O  O21  1  0.67164461  0.55254085  0.57230895  1
  O  O22  1  0.07928469  0.33584386  0.64938720  1
  O  O23  1  0.79256632  0.78443094  0.02476959  1
  O  O24  1  0.53147553  0.25662887  0.32346483  1
  O  O25  1  0.92071531  0.66415614  0.35061280  1
  O  O26  1  0.94809828  0.46695110  0.22207304  1
  O  O27  1  0.67164461  0.05254085  0.92769105  1
  O  O28  1  0.40420264  0.37781275  0.15144321  1
  O  O29  1  0.05190172  0.03304890  0.72207304  1
  O  O30  1  0.46852447  0.74337113  0.67653517  1
  O  O31  1  0.46852447  0.24337113  0.82346483  1
  O  O32  1  0.20743368  0.71556906  0.52476959  1
  O  O33  1  0.32835539  0.44745915  0.42769105  1
  O  O34  1  0.92071531  0.16415614  0.14938720  1
  O  O35  1  0.32835539  0.94745915  0.07230895  1
  O  O36  1  0.05190172  0.53304890  0.77792696  1
  O  O37  1  0.20743368  0.21556906  0.97523041  1
