# generated using pymatgen
data_La6Mo8O33
_symmetry_space_group_name_H-M   'P 1'
_cell_length_a   10.87511131
_cell_length_b   11.95181410
_cell_length_c   12.15245385
_cell_angle_alpha   90.00000000
_cell_angle_beta   90.00000000
_cell_angle_gamma   116.04271215
_symmetry_Int_Tables_number   1
_chemical_formula_structural   La6Mo8O33
_chemical_formula_sum   'La12 Mo16 O66'
_cell_volume   1419.16748845
_cell_formula_units_Z   2
loop_
 _symmetry_equiv_pos_site_id
 _symmetry_equiv_pos_as_xyz
  1  'x, y, z'
loop_
 _atom_site_type_symbol
 _atom_site_label
 _atom_site_symmetry_multiplicity
 _atom_site_fract_x
 _atom_site_fract_y
 _atom_site_fract_z
 _atom_site_occupancy
  O  O0  1  0.77980040  0.96051018  0.61287643  1
  O  O1  1  0.22019960  0.03948982  0.11287643  1
  O  O2  1  0.69411455  0.84023217  0.40173362  1
  O  O3  1  0.30588545  0.15976783  0.90173362  1
  O  O4  1  0.77443281  0.71975604  0.57606876  1
  O  O5  1  0.22556719  0.28024396  0.07606876  1
  O  O6  1  0.99526567  0.89409401  0.48443406  1
  O  O7  1  0.00473433  0.10590599  0.98443406  1
  O  O8  1  0.55880593  0.00368361  0.68264263  1
  O  O9  1  0.44119407  0.99631639  0.18264263  1
  O  O10  1  0.40921860  0.79973284  0.84839618  1
  O  O11  1  0.59078140  0.20026716  0.34839618  1
  O  O12  1  0.57304117  0.74900897  0.69709825  1
  O  O13  1  0.42695883  0.25099103  0.19709825  1
  O  O14  1  0.70494285  0.94390844  0.85963074  1
  O  O15  1  0.29505715  0.05609156  0.35963074  1
  O  O16  1  0.69156402  0.99240992  0.08048439  1
  O  O17  1  0.30843598  0.00759008  0.58048439  1
  O  O18  1  0.17978109  0.79292342  0.43545582  1
  O  O19  1  0.82021891  0.20707658  0.93545582  1
  O  O20  1  0.33551075  0.77724069  0.61483398  1
  O  O21  1  0.66448925  0.22275931  0.11483398  1
  O  O22  1  0.48915036  0.94345407  0.43327991  1
  O  O23  1  0.51084964  0.05654593  0.93327991  1
  O  O24  1  0.92669292  0.00220325  0.20078053  1
  O  O25  1  0.07330708  0.99779675  0.70078053  1
  O  O26  1  0.87471769  0.79358120  0.82520864  1
  O  O27  1  0.12528231  0.20641880  0.32520864  1
  O  O28  1  0.05279359  0.74618162  0.68849195  1
  O  O29  1  0.94720641  0.25381838  0.18849195  1
  O  O30  1  0.25472119  0.92153292  0.81043847  1
  O  O31  1  0.74527881  0.07846708  0.31043847  1
  O  O32  1  0.89483596  0.71151679  0.07057426  1
  O  O33  1  0.10516404  0.28848321  0.57057426  1
  O  O34  1  0.79148220  0.53617297  0.89680084  1
  O  O35  1  0.20851780  0.46382703  0.39680084  1
  O  O36  1  0.93339115  0.47521896  0.07509396  1
  O  O37  1  0.06660885  0.52478104  0.57509396  1
  O  O38  1  0.08898338  0.69149641  0.91879639  1
  O  O39  1  0.91101662  0.30850359  0.41879639  1
  O  O40  1  0.68844743  0.75796288  0.16247906  1
  O  O41  1  0.31155257  0.24203712  0.66247906  1
  O  O42  1  0.54113918  0.56509001  0.32335331  1
  O  O43  1  0.45886082  0.43490999  0.82335331  1
  O  O44  1  0.70825261  0.50095731  0.18178277  1
  O  O45  1  0.29174739  0.49904269  0.68178277  1
  O  O46  1  0.83752388  0.69548362  0.33931976  1
  O  O47  1  0.16247612  0.30451638  0.83931976  1
  O  O48  1  0.42793019  0.76421457  0.07675124  1
  O  O49  1  0.57206981  0.23578543  0.57675124  1
  O  O50  1  0.72393168  0.44708391  0.42763244  1
  O  O51  1  0.27606832  0.55291609  0.92763244  1
  O  O52  1  0.55303236  0.46903228  0.60127039  1
  O  O53  1  0.44696764  0.53096772  0.10127039  1
  O  O54  1  0.59398672  0.68833829  0.92456491  1
  O  O55  1  0.40601328  0.31166171  0.42456491  1
  O  O56  1  0.15571495  0.72587190  0.14614809  1
  O  O57  1  0.84428505  0.27412810  0.64614809  1
  O  O58  1  0.98163955  0.44147414  0.82873560  1
  O  O59  1  0.01836045  0.55852586  0.32873560  1
  O  O60  1  0.81526685  0.50313798  0.66734161  1
  O  O61  1  0.18473315  0.49686202  0.16734161  1
  O  O62  1  0.33848233  0.70898344  0.30687660  1
  O  O63  1  0.66151767  0.29101656  0.80687660  1
  O  O64  1  0.08040654  0.93177938  0.94258264  1
  O  O65  1  0.91959346  0.06822062  0.44258264  1
  Mo  Mo66  1  0.81759570  0.87209067  0.50985857  1
  Mo  Mo67  1  0.18240430  0.12790933  0.00985857  1
  Mo  Mo68  1  0.56535294  0.87643061  0.76648300  1
  Mo  Mo69  1  0.43464706  0.12356939  0.26648300  1
  Mo  Mo70  1  0.32974386  0.88221522  0.51270582  1
  Mo  Mo71  1  0.67025614  0.11778478  0.01270582  1
  Mo  Mo72  1  0.06409192  0.87489765  0.78356004  1
  Mo  Mo73  1  0.93590808  0.12510235  0.28356004  1
  Mo  Mo74  1  0.92738561  0.60154184  0.99347556  1
  Mo  Mo75  1  0.07261439  0.39845816  0.49347556  1
  Mo  Mo76  1  0.69663607  0.63142145  0.24650625  1
  Mo  Mo77  1  0.30336393  0.36857855  0.74650625  1
  Mo  Mo78  1  0.43611767  0.63550586  0.00291672  1
  Mo  Mo79  1  0.56388233  0.36449414  0.50291672  1
  Mo  Mo80  1  0.17566016  0.62346552  0.24373031  1
  Mo  Mo81  1  0.82433984  0.37653448  0.74373031  1
  La  La82  1  0.83961220  0.88512215  0.99934028  1
  La  La83  1  0.16038780  0.11487785  0.49934028  1
  La  La84  1  0.56791032  0.87552266  0.25087310  1
  La  La85  1  0.43208968  0.12447734  0.75087310  1
  La  La86  1  0.28247110  0.89060456  0.00779250  1
  La  La87  1  0.71752890  0.10939544  0.50779250  1
  La  La88  1  0.94712658  0.65818253  0.50098555  1
  La  La89  1  0.05287342  0.34181747  0.00098555  1
  La  La90  1  0.67618167  0.61297360  0.75487019  1
  La  La91  1  0.32381833  0.38702640  0.25487019  1
  La  La92  1  0.19479854  0.63432215  0.75494388  1
  La  La93  1  0.80520146  0.36567785  0.25494388  1
