# generated using pymatgen
data_ZnS
_symmetry_space_group_name_H-M   'P 1'
_cell_length_a   3.85300146
_cell_length_b   3.85300143
_cell_length_c   63.02499402
_cell_angle_alpha   90.00000000
_cell_angle_beta   90.00000000
_cell_angle_gamma   120.00000026
_symmetry_Int_Tables_number   1
_chemical_formula_structural   ZnS
_chemical_formula_sum   'Zn20 S20'
_cell_volume   810.29244082
_cell_formula_units_Z   20
loop_
 _symmetry_equiv_pos_site_id
 _symmetry_equiv_pos_as_xyz
  1  'x, y, z'
loop_
 _atom_site_type_symbol
 _atom_site_label
 _atom_site_symmetry_multiplicity
 _atom_site_fract_x
 _atom_site_fract_y
 _atom_site_fract_z
 _atom_site_occupancy
  Zn  Zn0  1  0.66666700  0.33333300  0.45000870  1
  Zn  Zn1  1  0.33333300  0.66666700  0.70001235  1
  Zn  Zn2  1  0.33333300  0.66666700  0.20000804  1
  Zn  Zn3  1  0.00000000  0.00000000  0.15001271  1
  Zn  Zn4  1  0.66666700  0.33333300  0.90000926  1
  Zn  Zn5  1  0.33333300  0.66666700  0.95001868  1
  Zn  Zn6  1  0.00000000  0.00000000  0.55000763  1
  Zn  Zn7  1  0.00000000  0.00000000  0.80001266  1
  Zn  Zn8  1  0.66666700  0.33333300  0.75001255  1
  Zn  Zn9  1  0.66666700  0.33333300  0.10001212  1
  Zn  Zn10  1  0.00000000  0.00000000  0.65002324  1
  Zn  Zn11  1  0.33333300  0.66666700  0.40001898  1
  Zn  Zn12  1  0.66666700  0.33333300  0.60000922  1
  Zn  Zn13  1  0.00000000  0.00000000  0.00000868  1
  Zn  Zn14  1  0.33333300  0.66666700  0.05002356  1
  Zn  Zn15  1  0.33333300  0.66666700  0.30001857  1
  Zn  Zn16  1  0.00000000  0.00000000  0.35000882  1
  Zn  Zn17  1  0.66666700  0.33333300  0.25000922  1
  Zn  Zn18  1  0.33333300  0.66666700  0.85000811  1
  Zn  Zn19  1  0.33333300  0.66666700  0.50002346  1
  S  S20  1  0.33333300  0.66666700  0.33745718  1
  S  S21  1  0.33333300  0.66666700  0.88745859  1
  S  S22  1  0.00000000  0.00000000  0.58745818  1
  S  S23  1  0.66666700  0.33333300  0.13748601  1
  S  S24  1  0.33333300  0.66666700  0.73748578  1
  S  S25  1  0.33333300  0.66666700  0.08748495  1
  S  S26  1  0.00000000  0.00000000  0.03751705  1
  S  S27  1  0.66666700  0.33333300  0.28751699  1
  S  S28  1  0.66666700  0.33333300  0.78748621  1
  S  S29  1  0.33333300  0.66666700  0.98745723  1
  S  S30  1  0.66666700  0.33333300  0.63751755  1
  S  S31  1  0.33333300  0.66666700  0.23745854  1
  S  S32  1  0.66666700  0.33333300  0.93751708  1
  S  S33  1  0.00000000  0.00000000  0.38751657  1
  S  S34  1  0.66666700  0.33333300  0.48751721  1
  S  S35  1  0.33333300  0.66666700  0.43745728  1
  S  S36  1  0.00000000  0.00000000  0.18748577  1
  S  S37  1  0.00000000  0.00000000  0.83748585  1
  S  S38  1  0.33333300  0.66666700  0.53748445  1
  S  S39  1  0.00000000  0.00000000  0.68748499  1
