# generated using pymatgen
data_BaLaMnInO6
_symmetry_space_group_name_H-M   'P 1'
_cell_length_a   5.73426110
_cell_length_b   5.73590919
_cell_length_c   5.73590919
_cell_angle_alpha   60.00333304
_cell_angle_beta   60.00951008
_cell_angle_gamma   60.00951008
_symmetry_Int_Tables_number   1
_chemical_formula_structural   BaLaMnInO6
_chemical_formula_sum   'Ba1 La1 Mn1 In1 O6'
_cell_volume   133.42596575
_cell_formula_units_Z   1
loop_
 _symmetry_equiv_pos_site_id
 _symmetry_equiv_pos_as_xyz
  1  'x, y, z'
loop_
 _atom_site_type_symbol
 _atom_site_label
 _atom_site_symmetry_multiplicity
 _atom_site_fract_x
 _atom_site_fract_y
 _atom_site_fract_z
 _atom_site_occupancy
  Ba  Ba0  1  0.75001976  0.24998024  0.24998024  1
  La  La1  1  0.24995520  0.75004480  0.75004480  1
  Mn  Mn2  1  0.49998818  0.00001182  0.00001182  1
  In  In3  1  0.00001245  0.49998755  0.49998755  1
  O  O4  1  0.26262726  0.76267478  0.23731432  1
  O  O5  1  0.73738364  0.23731432  0.76267478  1
  O  O6  1  0.73738364  0.76267478  0.23731432  1
  O  O7  1  0.26262726  0.23731432  0.76267478  1
  O  O8  1  0.26263510  0.23736490  0.23736490  1
  O  O9  1  0.73736751  0.76263249  0.76263249  1
