# generated using pymatgen
data_Ca3ScFe(SiO4)3
_symmetry_space_group_name_H-M   'P 1'
_cell_length_a   10.58335260
_cell_length_b   10.58335260
_cell_length_c   10.58335260
_cell_angle_alpha   70.52877937
_cell_angle_beta   70.52877937
_cell_angle_gamma   109.47122063
_symmetry_Int_Tables_number   1
_chemical_formula_structural   Ca3ScFe(SiO4)3
_chemical_formula_sum   'Ca12 Sc4 Fe4 Si12 O48'
_cell_volume   912.53158476
_cell_formula_units_Z   4
loop_
 _symmetry_equiv_pos_site_id
 _symmetry_equiv_pos_as_xyz
  1  'x, y, z'
loop_
 _atom_site_type_symbol
 _atom_site_label
 _atom_site_symmetry_multiplicity
 _atom_site_fract_x
 _atom_site_fract_y
 _atom_site_fract_z
 _atom_site_occupancy
  Ca  Ca0  1  0.37393386  0.62393386  0.25000000  1
  Ca  Ca1  1  0.12606614  0.87606614  0.75000000  1
  Ca  Ca2  1  0.37606614  0.75000000  0.87393386  1
  Ca  Ca3  1  0.12393386  0.25000000  0.62606614  1
  Ca  Ca4  1  0.25000000  0.62606614  0.62393386  1
  Ca  Ca5  1  0.75000000  0.87393386  0.87606614  1
  Ca  Ca6  1  0.62606614  0.37606614  0.75000000  1
  Ca  Ca7  1  0.87393386  0.12393386  0.25000000  1
  Ca  Ca8  1  0.62393386  0.25000000  0.12606614  1
  Ca  Ca9  1  0.87606614  0.75000000  0.37393386  1
  Ca  Ca10  1  0.75000000  0.37393386  0.37606614  1
  Ca  Ca11  1  0.25000000  0.12606614  0.12393386  1
  Sc  Sc12  1  0.50000000  -0.00000000  0.00000000  1
  Sc  Sc13  1  0.50000000  0.50000000  0.50000000  1
  Sc  Sc14  1  -0.00000000  0.50000000  0.00000000  1
  Sc  Sc15  1  -0.00000000  -0.00000000  0.50000000  1
  Fe  Fe16  1  0.50000000  0.50000000  0.00000000  1
  Fe  Fe17  1  0.50000000  -0.00000000  0.50000000  1
  Fe  Fe18  1  -0.00000000  0.50000000  0.50000000  1
  Fe  Fe19  1  -0.00000000  -0.00000000  0.00000000  1
  Si  Si20  1  0.12662955  0.37662955  0.25000000  1
  Si  Si21  1  0.37337045  0.12337045  0.75000000  1
  Si  Si22  1  0.62337045  0.75000000  0.62662955  1
  Si  Si23  1  0.87662955  0.25000000  0.87337045  1
  Si  Si24  1  0.25000000  0.87337045  0.37662955  1
  Si  Si25  1  0.75000000  0.62662955  0.12337045  1
  Si  Si26  1  0.87337045  0.62337045  0.75000000  1
  Si  Si27  1  0.62662955  0.87662955  0.25000000  1
  Si  Si28  1  0.37662955  0.25000000  0.37337045  1
  Si  Si29  1  0.12337045  0.75000000  0.12662955  1
  Si  Si30  1  0.75000000  0.12662955  0.62337045  1
  Si  Si31  1  0.25000000  0.37337045  0.87662955  1
  O  O32  1  0.51025965  0.30125184  0.60753010  1
  O  O33  1  0.40878194  0.11778975  0.89246990  1
  O  O34  1  0.09121806  0.19874816  0.29099219  1
  O  O35  1  0.98974035  0.38221025  0.20900781  1
  O  O36  1  0.69874816  0.20900781  0.90878194  1
  O  O37  1  0.88221025  0.29099219  0.01025965  1
  O  O38  1  0.80125184  0.89246990  0.48974035  1
  O  O39  1  0.61778975  0.60753010  0.59121806  1
  O  O40  1  0.79099219  0.48974035  0.11778975  1
  O  O41  1  0.70900781  0.59121806  0.30125184  1
  O  O42  1  0.10753010  0.90878194  0.38221025  1
  O  O43  1  0.39246990  0.01025965  0.19874816  1
  O  O44  1  0.48974035  0.69874816  0.39246990  1
  O  O45  1  0.59121806  0.88221025  0.10753010  1
  O  O46  1  0.90878194  0.80125184  0.70900781  1
  O  O47  1  0.01025965  0.61778975  0.79099219  1
  O  O48  1  0.30125184  0.79099219  0.09121806  1
  O  O49  1  0.11778975  0.70900781  0.98974035  1
  O  O50  1  0.19874816  0.10753010  0.51025965  1
  O  O51  1  0.38221025  0.39246990  0.40878194  1
  O  O52  1  0.20900781  0.51025965  0.88221025  1
  O  O53  1  0.29099219  0.40878194  0.69874816  1
  O  O54  1  0.89246990  0.09121806  0.61778975  1
  O  O55  1  0.60753010  0.98974035  0.80125184  1
  O  O56  1  0.49097629  0.79859800  0.61571074  1
  O  O57  1  0.58569127  0.70140200  0.80762170  1
  O  O58  1  0.91430873  0.10668703  0.88428926  1
  O  O59  1  0.00902371  0.39331297  0.69237830  1
  O  O60  1  0.30762170  0.50902371  0.10668703  1
  O  O61  1  0.11571074  0.41430873  0.39331297  1
  O  O62  1  0.19237830  0.08569127  0.79859800  1
  O  O63  1  0.38428926  0.99097629  0.70140200  1
  O  O64  1  0.20140200  0.69237830  0.41430873  1
  O  O65  1  0.29859800  0.88428926  0.50902371  1
  O  O66  1  0.89331297  0.80762170  0.99097629  1
  O  O67  1  0.60668703  0.61571074  0.08569127  1
  O  O68  1  0.50902371  0.20140200  0.38428926  1
  O  O69  1  0.41430873  0.29859800  0.19237830  1
  O  O70  1  0.08569127  0.89331297  0.11571074  1
  O  O71  1  0.99097629  0.60668703  0.30762170  1
  O  O72  1  0.69237830  0.49097629  0.89331297  1
  O  O73  1  0.88428926  0.58569127  0.60668703  1
  O  O74  1  0.80762170  0.91430873  0.20140200  1
  O  O75  1  0.61571074  0.00902371  0.29859800  1
  O  O76  1  0.79859800  0.30762170  0.58569127  1
  O  O77  1  0.70140200  0.11571074  0.49097629  1
  O  O78  1  0.10668703  0.19237830  0.00902371  1
  O  O79  1  0.39331297  0.38428926  0.91430873  1
