# generated using pymatgen
data_ZnS
_symmetry_space_group_name_H-M   'P 1'
_cell_length_a   3.85195959
_cell_length_b   3.85195949
_cell_length_c   44.10330362
_cell_angle_alpha   90.00000000
_cell_angle_beta   90.00000000
_cell_angle_gamma   120.00000095
_symmetry_Int_Tables_number   1
_chemical_formula_structural   ZnS
_chemical_formula_sum   'Zn14 S14'
_cell_volume   566.71562014
_cell_formula_units_Z   14
loop_
 _symmetry_equiv_pos_site_id
 _symmetry_equiv_pos_as_xyz
  1  'x, y, z'
loop_
 _atom_site_type_symbol
 _atom_site_label
 _atom_site_symmetry_multiplicity
 _atom_site_fract_x
 _atom_site_fract_y
 _atom_site_fract_z
 _atom_site_occupancy
  Zn  Zn0  1  0.66666700  0.33333300  0.14285846  1
  Zn  Zn1  1  0.33333300  0.66666700  0.07142706  1
  Zn  Zn2  1  0.66666700  0.33333300  0.57142872  1
  Zn  Zn3  1  0.66666700  0.33333300  0.78570714  1
  Zn  Zn4  1  0.00000000  0.00000000  0.71428547  1
  Zn  Zn5  1  0.00000000  0.00000000  0.28571142  1
  Zn  Zn6  1  0.33333300  0.66666700  0.21431055  1
  Zn  Zn7  1  0.33333300  0.66666700  0.64288087  1
  Zn  Zn8  1  0.00000000  0.00000000  0.42859093  1
  Zn  Zn9  1  0.66666700  0.33333300  0.92858495  1
  Zn  Zn10  1  0.33333300  0.66666700  0.49999662  1
  Zn  Zn11  1  0.66666700  0.33333300  0.35714088  1
  Zn  Zn12  1  0.00000000  0.00000000  0.00002033  1
  Zn  Zn13  1  0.00000000  0.00000000  0.85715033  1
  S  S14  1  0.00000000  0.00000000  0.76780815  1
  S  S15  1  0.66666700  0.33333300  0.98217932  1
  S  S16  1  0.66666700  0.33333300  0.19647078  1
  S  S17  1  0.33333300  0.66666700  0.69642190  1
  S  S18  1  0.00000000  0.00000000  0.91070288  1
  S  S19  1  0.00000000  0.00000000  0.48213244  1
  S  S20  1  0.66666700  0.33333300  0.41075185  1
  S  S21  1  0.00000000  0.00000000  0.33923520  1
  S  S22  1  0.33333300  0.66666700  0.55352094  1
  S  S23  1  0.66666700  0.33333300  0.83927889  1
  S  S24  1  0.00000000  0.00000000  0.05356235  1
  S  S25  1  0.33333300  0.66666700  0.26784986  1
  S  S26  1  0.66666700  0.33333300  0.62504047  1
  S  S27  1  0.33333300  0.66666700  0.12495122  1
