# generated using pymatgen
data_KCa12Si4S2O26F
_symmetry_space_group_name_H-M   'P 1'
_cell_length_a   14.49748242
_cell_length_b   14.49748281
_cell_length_c   14.49748264
_cell_angle_alpha   28.94913571
_cell_angle_beta   28.94913292
_cell_angle_gamma   28.94913387
_symmetry_Int_Tables_number   1
_chemical_formula_structural   KCa12Si4S2O26F
_chemical_formula_sum   'K1 Ca12 Si4 S2 O26 F1'
_cell_volume   631.37746072
_cell_formula_units_Z   1
loop_
 _symmetry_equiv_pos_site_id
 _symmetry_equiv_pos_as_xyz
  1  'x, y, z'
loop_
 _atom_site_type_symbol
 _atom_site_label
 _atom_site_symmetry_multiplicity
 _atom_site_fract_x
 _atom_site_fract_y
 _atom_site_fract_z
 _atom_site_occupancy
  K  K0  1  0.00000000  0.00000000  0.00000000  1
  Ca  Ca1  1  0.55578032  0.08312293  0.55578032  1
  Ca  Ca2  1  0.68844372  0.22489493  0.68844372  1
  Ca  Ca3  1  0.55578032  0.55578032  0.08312293  1
  Ca  Ca4  1  0.22489493  0.68844372  0.68844372  1
  Ca  Ca5  1  0.77510507  0.31155628  0.31155628  1
  Ca  Ca6  1  0.91687707  0.44421968  0.44421968  1
  Ca  Ca7  1  0.08312293  0.55578032  0.55578032  1
  Ca  Ca8  1  0.44421968  0.44421968  0.91687707  1
  Ca  Ca9  1  0.31155628  0.77510507  0.31155628  1
  Ca  Ca10  1  0.68844372  0.68844372  0.22489493  1
  Ca  Ca11  1  0.31155628  0.31155628  0.77510507  1
  Ca  Ca12  1  0.44421968  0.91687707  0.44421968  1
  Si  Si13  1  0.79529010  0.79529010  0.79529010  1
  Si  Si14  1  0.08292882  0.08292882  0.08292882  1
  Si  Si15  1  0.91707118  0.91707118  0.91707118  1
  Si  Si16  1  0.20470990  0.20470990  0.20470990  1
  S  S17  1  0.67643047  0.67643047  0.67643047  1
  S  S18  1  0.32356953  0.32356953  0.32356953  1
  O  O19  1  0.87684673  0.87684673  0.87684673  1
  O  O20  1  0.80031640  0.80031640  0.46549755  1
  O  O21  1  0.31840068  0.31840068  0.94125112  1
  O  O22  1  0.56837762  0.56837762  0.56837762  1
  O  O23  1  0.53450245  0.19968360  0.19968360  1
  O  O24  1  0.19968360  0.19968360  0.53450245  1
  O  O25  1  0.82000243  0.19935022  0.19935022  1
  O  O26  1  0.94125112  0.31840068  0.31840068  1
  O  O27  1  0.19968360  0.53450245  0.19968360  1
  O  O28  1  0.68159932  0.05874888  0.68159932  1
  O  O29  1  0.19935022  0.82000243  0.19935022  1
  O  O30  1  0.46549755  0.80031640  0.80031640  1
  O  O31  1  0.80064978  0.17999757  0.80064978  1
  O  O32  1  0.19935022  0.19935022  0.82000243  1
  O  O33  1  0.43162238  0.43162238  0.43162238  1
  O  O34  1  0.31840068  0.94125112  0.31840068  1
  O  O35  1  0.35973573  0.35973573  0.35973573  1
  O  O36  1  0.75501319  0.75501319  0.75501319  1
  O  O37  1  0.80031640  0.46549755  0.80031640  1
  O  O38  1  0.80064978  0.80064978  0.17999757  1
  O  O39  1  0.17999757  0.80064978  0.80064978  1
  O  O40  1  0.12315327  0.12315327  0.12315327  1
  O  O41  1  0.64026427  0.64026427  0.64026427  1
  O  O42  1  0.68159932  0.68159932  0.05874888  1
  O  O43  1  0.24498681  0.24498681  0.24498681  1
  O  O44  1  0.05874888  0.68159932  0.68159932  1
  F  F45  1  0.50000000  0.50000000  0.50000000  1
