# generated using pymatgen
data_Na3ThP3O11
_symmetry_space_group_name_H-M   'P 1'
_cell_length_a   6.53376371
_cell_length_b   8.82073680
_cell_length_c   9.02145421
_cell_angle_alpha   109.80606391
_cell_angle_beta   93.27810991
_cell_angle_gamma   103.66344860
_symmetry_Int_Tables_number   1
_chemical_formula_structural   Na3ThP3O11
_chemical_formula_sum   'Na6 Th2 P6 O22'
_cell_volume   469.94491222
_cell_formula_units_Z   2
loop_
 _symmetry_equiv_pos_site_id
 _symmetry_equiv_pos_as_xyz
  1  'x, y, z'
loop_
 _atom_site_type_symbol
 _atom_site_label
 _atom_site_symmetry_multiplicity
 _atom_site_fract_x
 _atom_site_fract_y
 _atom_site_fract_z
 _atom_site_occupancy
  Na  Na0  1  0.40028834  0.17769186  0.56215818  1
  Na  Na1  1  0.36202909  0.99067563  0.13552298  1
  Na  Na2  1  0.63797091  0.00932437  0.86447702  1
  Na  Na3  1  0.59971166  0.82230814  0.43784182  1
  Na  Na4  1  0.29547062  0.58551808  0.03503587  1
  Na  Na5  1  0.70452938  0.41448192  0.96496413  1
  Th  Th6  1  0.92564247  0.66655139  0.70933516  1
  Th  Th7  1  0.07435753  0.33344861  0.29066484  1
  P  P8  1  0.90782728  0.22682904  0.64127678  1
  P  P9  1  0.59224121  0.37960285  0.29868902  1
  P  P10  1  0.40775879  0.62039715  0.70131098  1
  P  P11  1  0.85253778  0.86076305  0.12685902  1
  P  P12  1  0.09217272  0.77317096  0.35872322  1
  P  P13  1  0.14746222  0.13923695  0.87314098  1
  O  O14  1  0.23007668  0.53207412  0.55217946  1
  O  O15  1  0.59640060  0.74266070  0.66499061  1
  O  O16  1  0.29182086  0.72307151  0.82983571  1
  O  O17  1  0.99340639  0.96612062  0.83768667  1
  O  O18  1  0.08286702  0.27697641  0.00588688  1
  O  O19  1  0.38095440  0.14777337  0.89664074  1
  O  O20  1  0.29663344  0.89421690  0.35259406  1
  O  O21  1  0.00659361  0.03387938  0.16231333  1
  O  O22  1  0.61904560  0.85222663  0.10335926  1
  O  O23  1  0.04724887  0.79278634  0.52764877  1
  O  O24  1  0.95275113  0.20721366  0.47235123  1
  O  O25  1  0.91713298  0.72302359  0.99411312  1
  O  O26  1  0.40359940  0.25733930  0.33500939  1
  O  O27  1  0.92056603  0.40879302  0.74840387  1
  O  O28  1  0.11315988  0.18380063  0.71269646  1
  O  O29  1  0.70336656  0.10578310  0.64740594  1
  O  O30  1  0.70817914  0.27692849  0.17016429  1
  O  O31  1  0.50551700  0.50101824  0.75404423  1
  O  O32  1  0.88684012  0.81619937  0.28730354  1
  O  O33  1  0.49448300  0.49898176  0.24595577  1
  O  O34  1  0.07943397  0.59120698  0.25159613  1
  O  O35  1  0.76992332  0.46792588  0.44782054  1
