# generated using pymatgen
data_ZnS
_symmetry_space_group_name_H-M   'P 1'
_cell_length_a   3.85300760
_cell_length_b   3.85300756
_cell_length_c   63.02483874
_cell_angle_alpha   90.00000000
_cell_angle_beta   90.00000000
_cell_angle_gamma   120.00000032
_symmetry_Int_Tables_number   1
_chemical_formula_structural   ZnS
_chemical_formula_sum   'Zn20 S20'
_cell_volume   810.29302514
_cell_formula_units_Z   20
loop_
 _symmetry_equiv_pos_site_id
 _symmetry_equiv_pos_as_xyz
  1  'x, y, z'
loop_
 _atom_site_type_symbol
 _atom_site_label
 _atom_site_symmetry_multiplicity
 _atom_site_fract_x
 _atom_site_fract_y
 _atom_site_fract_z
 _atom_site_occupancy
  Zn  Zn0  1  0.33333300  0.66666700  0.95000732  1
  Zn  Zn1  1  0.00000000  0.00000000  0.15001271  1
  Zn  Zn2  1  0.66666700  0.33333300  0.40000915  1
  Zn  Zn3  1  0.66666700  0.33333300  0.90002365  1
  Zn  Zn4  1  0.00000000  0.00000000  0.85000879  1
  Zn  Zn5  1  0.66666700  0.33333300  0.70000797  1
  Zn  Zn6  1  0.66666700  0.33333300  0.10001211  1
  Zn  Zn7  1  0.66666700  0.33333300  0.55000931  1
  Zn  Zn8  1  0.00000000  0.00000000  0.65001225  1
  Zn  Zn9  1  0.33333300  0.66666700  0.05002357  1
  Zn  Zn10  1  0.00000000  0.00000000  0.00000924  1
  Zn  Zn11  1  0.00000000  0.00000000  0.45002326  1
  Zn  Zn12  1  0.33333300  0.66666700  0.20000796  1
  Zn  Zn13  1  0.33333300  0.66666700  0.30002350  1
  Zn  Zn14  1  0.33333300  0.66666700  0.50000763  1
  Zn  Zn15  1  0.00000000  0.00000000  0.35000750  1
  Zn  Zn16  1  0.66666700  0.33333300  0.25000911  1
  Zn  Zn17  1  0.33333300  0.66666700  0.60002324  1
  Zn  Zn18  1  0.66666700  0.33333300  0.80001863  1
  Zn  Zn19  1  0.33333300  0.66666700  0.75000921  1
  S  S20  1  0.66666700  0.33333300  0.58751799  1
  S  S21  1  0.66666700  0.33333300  0.13748598  1
  S  S22  1  0.33333300  0.66666700  0.63748490  1
  S  S23  1  0.66666700  0.33333300  0.83745662  1
  S  S24  1  0.33333300  0.66666700  0.33748430  1
  S  S25  1  0.33333300  0.66666700  0.98745793  1
  S  S26  1  0.33333300  0.66666700  0.08748498  1
  S  S27  1  0.33333300  0.66666700  0.23745820  1
  S  S28  1  0.66666700  0.33333300  0.73745827  1
  S  S29  1  0.66666700  0.33333300  0.93748486  1
  S  S30  1  0.00000000  0.00000000  0.88751740  1
  S  S31  1  0.66666700  0.33333300  0.43751792  1
  S  S32  1  0.66666700  0.33333300  0.28751810  1
  S  S33  1  0.00000000  0.00000000  0.48748450  1
  S  S34  1  0.33333300  0.66666700  0.78751758  1
  S  S35  1  0.00000000  0.00000000  0.38745776  1
  S  S36  1  0.00000000  0.00000000  0.03751776  1
  S  S37  1  0.00000000  0.00000000  0.18748561  1
  S  S38  1  0.33333300  0.66666700  0.53745788  1
  S  S39  1  0.00000000  0.00000000  0.68748533  1
