# generated using pymatgen
data_SrLiBS3
_symmetry_space_group_name_H-M   'P 1'
_cell_length_a   7.11388587
_cell_length_b   7.58931319
_cell_length_c   9.17207461
_cell_angle_alpha   90.00000000
_cell_angle_beta   90.00000000
_cell_angle_gamma   90.00000000
_symmetry_Int_Tables_number   1
_chemical_formula_structural   SrLiBS3
_chemical_formula_sum   'Sr4 Li4 B4 S12'
_cell_volume   495.19579430
_cell_formula_units_Z   4
loop_
 _symmetry_equiv_pos_site_id
 _symmetry_equiv_pos_as_xyz
  1  'x, y, z'
loop_
 _atom_site_type_symbol
 _atom_site_label
 _atom_site_symmetry_multiplicity
 _atom_site_fract_x
 _atom_site_fract_y
 _atom_site_fract_z
 _atom_site_occupancy
  Sr  Sr0  1  0.02818382  0.14290571  0.25000000  1
  Sr  Sr1  1  0.52818382  0.35709429  0.75000000  1
  Sr  Sr2  1  0.47181618  0.64290571  0.25000000  1
  Sr  Sr3  1  0.97181618  0.85709429  0.75000000  1
  Li  Li4  1  0.50000000  0.00000000  0.00000000  1
  Li  Li5  1  0.50000000  0.00000000  0.50000000  1
  Li  Li6  1  0.00000000  0.50000000  0.50000000  1
  Li  Li7  1  0.00000000  0.50000000  0.00000000  1
  B  B8  1  0.03844676  0.71402221  0.25000000  1
  B  B9  1  0.46155324  0.21402221  0.25000000  1
  B  B10  1  0.53844676  0.78597779  0.75000000  1
  B  B11  1  0.96155324  0.28597779  0.75000000  1
  S  S12  1  0.86865613  0.19628625  0.57986813  1
  S  S13  1  0.13134387  0.80371375  0.42013187  1
  S  S14  1  0.13134387  0.80371375  0.07986813  1
  S  S15  1  0.87851992  0.52402198  0.25000000  1
  S  S16  1  0.37851992  0.97597802  0.75000000  1
  S  S17  1  0.62148008  0.02402198  0.25000000  1
  S  S18  1  0.63134387  0.69628625  0.92013187  1
  S  S19  1  0.63134387  0.69628625  0.57986813  1
  S  S20  1  0.12148008  0.47597802  0.75000000  1
  S  S21  1  0.36865613  0.30371375  0.42013187  1
  S  S22  1  0.36865613  0.30371375  0.07986813  1
  S  S23  1  0.86865613  0.19628625  0.92013187  1
