# generated using pymatgen
data_ZnS
_symmetry_space_group_name_H-M   'P 1'
_cell_length_a   3.85356356
_cell_length_b   3.85356345
_cell_length_c   63.00424650
_cell_angle_alpha   90.00000000
_cell_angle_beta   90.00000000
_cell_angle_gamma   120.00000095
_symmetry_Int_Tables_number   1
_chemical_formula_structural   ZnS
_chemical_formula_sum   'Zn20 S20'
_cell_volume   810.26203445
_cell_formula_units_Z   20
loop_
 _symmetry_equiv_pos_site_id
 _symmetry_equiv_pos_as_xyz
  1  'x, y, z'
loop_
 _atom_site_type_symbol
 _atom_site_label
 _atom_site_symmetry_multiplicity
 _atom_site_fract_x
 _atom_site_fract_y
 _atom_site_fract_z
 _atom_site_occupancy
  Zn  Zn0  1  0.00000000  0.00000000  0.55000901  1
  Zn  Zn1  1  0.33333300  0.66666700  0.69999773  1
  Zn  Zn2  1  0.33333300  0.66666700  0.19999810  1
  Zn  Zn3  1  0.66666700  0.33333300  0.39999976  1
  Zn  Zn4  1  0.66666700  0.33333300  0.90000318  1
  Zn  Zn5  1  0.00000000  0.00000000  0.85000226  1
  Zn  Zn6  1  0.33333300  0.66666700  0.94999779  1
  Zn  Zn7  1  0.66666700  0.33333300  0.74999961  1
  Zn  Zn8  1  0.66666700  0.33333300  0.10000239  1
  Zn  Zn9  1  0.00000000  0.00000000  0.65001378  1
  Zn  Zn10  1  0.33333300  0.66666700  0.80001378  1
  Zn  Zn11  1  0.66666700  0.33333300  0.59999918  1
  Zn  Zn12  1  0.00000000  0.00000000  0.99999941  1
  Zn  Zn13  1  0.00000000  0.00000000  0.45000861  1
  Zn  Zn14  1  0.33333300  0.66666700  0.05001428  1
  Zn  Zn15  1  0.00000000  0.00000000  0.15000272  1
  Zn  Zn16  1  0.33333300  0.66666700  0.30001390  1
  Zn  Zn17  1  0.00000000  0.00000000  0.34999731  1
  Zn  Zn18  1  0.66666700  0.33333300  0.24999946  1
  Zn  Zn19  1  0.33333300  0.66666700  0.49999941  1
  S  S20  1  0.33333300  0.66666700  0.33749403  1
  S  S21  1  0.00000000  0.00000000  0.58746538  1
  S  S22  1  0.33333300  0.66666700  0.83749455  1
  S  S23  1  0.00000000  0.00000000  0.03752793  1
  S  S24  1  0.33333300  0.66666700  0.73746653  1
  S  S25  1  0.33333300  0.66666700  0.08749482  1
  S  S26  1  0.66666700  0.33333300  0.28752805  1
  S  S27  1  0.66666700  0.33333300  0.43752741  1
  S  S28  1  0.00000000  0.00000000  0.88749675  1
  S  S29  1  0.33333300  0.66666700  0.98746678  1
  S  S30  1  0.66666700  0.33333300  0.63752764  1
  S  S31  1  0.00000000  0.00000000  0.48746559  1
  S  S32  1  0.66666700  0.33333300  0.93749698  1
  S  S33  1  0.33333300  0.66666700  0.23746666  1
  S  S34  1  0.00000000  0.00000000  0.38746624  1
  S  S35  1  0.66666700  0.33333300  0.78752812  1
  S  S36  1  0.00000000  0.00000000  0.18749671  1
  S  S37  1  0.33333300  0.66666700  0.53752698  1
  S  S38  1  0.66666700  0.33333300  0.13749697  1
  S  S39  1  0.00000000  0.00000000  0.68749424  1
