# generated using pymatgen
data_Yb3GeO
_symmetry_space_group_name_H-M   'P 1'
_cell_length_a   6.58064534
_cell_length_b   6.59302561
_cell_length_c   9.32698846
_cell_angle_alpha   90.00000000
_cell_angle_beta   90.00000000
_cell_angle_gamma   90.00000000
_symmetry_Int_Tables_number   1
_chemical_formula_structural   Yb3GeO
_chemical_formula_sum   'Yb12 Ge4 O4'
_cell_volume   404.66410942
_cell_formula_units_Z   4
loop_
 _symmetry_equiv_pos_site_id
 _symmetry_equiv_pos_as_xyz
  1  'x, y, z'
loop_
 _atom_site_type_symbol
 _atom_site_label
 _atom_site_symmetry_multiplicity
 _atom_site_fract_x
 _atom_site_fract_y
 _atom_site_fract_z
 _atom_site_occupancy
  Yb  Yb0  1  0.77279601  0.22716046  0.52087598  1
  Yb  Yb1  1  0.27279601  0.27283954  0.52087598  1
  Yb  Yb2  1  0.50333850  0.04095401  0.25000000  1
  Yb  Yb3  1  0.49666150  0.95904599  0.75000000  1
  Yb  Yb4  1  0.99666150  0.54095401  0.75000000  1
  Yb  Yb5  1  0.72720399  0.72716046  0.47912402  1
  Yb  Yb6  1  0.22720399  0.77283954  0.47912402  1
  Yb  Yb7  1  0.27279601  0.27283954  0.97912402  1
  Yb  Yb8  1  0.00333850  0.45904599  0.25000000  1
  Yb  Yb9  1  0.77279601  0.22716046  0.97912402  1
  Yb  Yb10  1  0.72720399  0.72716046  0.02087598  1
  Yb  Yb11  1  0.22720399  0.77283954  0.02087598  1
  Ge  Ge12  1  0.98772536  0.99768393  0.25000000  1
  Ge  Ge13  1  0.48772536  0.50231607  0.25000000  1
  Ge  Ge14  1  0.01227464  0.00231607  0.75000000  1
  Ge  Ge15  1  0.51227464  0.49768393  0.75000000  1
  O  O16  1  0.50000000  0.00000000  0.00000000  1
  O  O17  1  0.50000000  0.00000000  0.50000000  1
  O  O18  1  0.00000000  0.50000000  0.50000000  1
  O  O19  1  0.00000000  0.50000000  0.00000000  1
