# generated using pymatgen
data_CaNb2P2O11
_symmetry_space_group_name_H-M   'P 1'
_cell_length_a   5.29637450
_cell_length_b   9.35094122
_cell_length_c   9.35094081
_cell_angle_alpha   71.87545141
_cell_angle_beta   87.06536528
_cell_angle_gamma   87.06536351
_symmetry_Int_Tables_number   1
_chemical_formula_structural   CaNb2P2O11
_chemical_formula_sum   'Ca2 Nb4 P4 O22'
_cell_volume   439.25609103
_cell_formula_units_Z   2
loop_
 _symmetry_equiv_pos_site_id
 _symmetry_equiv_pos_as_xyz
  1  'x, y, z'
loop_
 _atom_site_type_symbol
 _atom_site_label
 _atom_site_symmetry_multiplicity
 _atom_site_fract_x
 _atom_site_fract_y
 _atom_site_fract_z
 _atom_site_occupancy
  Ca  Ca0  1  0.25000000  0.39422905  0.60577095  1
  Ca  Ca1  1  0.75000000  0.60577095  0.39422905  1
  Nb  Nb2  1  0.26154148  0.24546581  0.00503286  1
  Nb  Nb3  1  0.76154148  0.00503286  0.24546581  1
  Nb  Nb4  1  0.23845852  0.99496714  0.75453419  1
  Nb  Nb5  1  0.73845852  0.75453419  0.99496714  1
  P  P6  1  0.24523666  0.52020466  0.18587239  1
  P  P7  1  0.75476334  0.47979534  0.81412761  1
  P  P8  1  0.25476334  0.81412761  0.47979534  1
  P  P9  1  0.74523666  0.18587239  0.52020466  1
  O  O10  1  0.55307072  0.07706579  0.62570823  1
  O  O11  1  0.57257934  0.13758348  0.08898898  1
  O  O12  1  0.05307072  0.62570823  0.07706579  1
  O  O13  1  0.49504337  0.40471431  0.83170384  1
  O  O14  1  0.25000000  0.16619495  0.83380505  1
  O  O15  1  0.99504337  0.83170384  0.40471431  1
  O  O16  1  0.00495663  0.16829616  0.59528569  1
  O  O17  1  0.78586693  0.13980058  0.37392197  1
  O  O18  1  0.42742066  0.86241652  0.91101102  1
  O  O19  1  0.07257934  0.08898898  0.13758348  1
  O  O20  1  0.94692928  0.37429177  0.92293421  1
  O  O21  1  0.36528173  0.65333541  0.51512874  1
  O  O22  1  0.13471827  0.48487126  0.34666459  1
  O  O23  1  0.71413307  0.62607803  0.86019942  1
  O  O24  1  0.75000000  0.83380505  0.16619495  1
  O  O25  1  0.92742066  0.91101102  0.86241652  1
  O  O26  1  0.50495663  0.59528569  0.16829616  1
  O  O27  1  0.21413307  0.86019942  0.62607803  1
  O  O28  1  0.86528173  0.51512874  0.65333541  1
  O  O29  1  0.44692928  0.92293421  0.37429177  1
  O  O30  1  0.63471827  0.34666459  0.48487126  1
  O  O31  1  0.28586693  0.37392197  0.13980058  1
