# generated using pymatgen
data_KPO3
_symmetry_space_group_name_H-M   'P 1'
_cell_length_a   4.59309483
_cell_length_b   11.60974574
_cell_length_c   13.91751406
_cell_angle_alpha   112.93028869
_cell_angle_beta   90.00000000
_cell_angle_gamma   90.00000000
_symmetry_Int_Tables_number   1
_chemical_formula_structural   KPO3
_chemical_formula_sum   'K8 P8 O24'
_cell_volume   683.50199478
_cell_formula_units_Z   8
loop_
 _symmetry_equiv_pos_site_id
 _symmetry_equiv_pos_as_xyz
  1  'x, y, z'
loop_
 _atom_site_type_symbol
 _atom_site_label
 _atom_site_symmetry_multiplicity
 _atom_site_fract_x
 _atom_site_fract_y
 _atom_site_fract_z
 _atom_site_occupancy
  K  K0  1  0.21707085  0.69981410  0.63130001  1
  K  K1  1  0.76256791  0.83170049  0.42726577  1
  K  K2  1  0.71707085  0.80018590  0.86869999  1
  K  K3  1  0.78292915  0.30018590  0.36869999  1
  K  K4  1  0.26256791  0.66829951  0.07273423  1
  K  K5  1  0.23743209  0.16829951  0.57273423  1
  K  K6  1  0.28292915  0.19981410  0.13130001  1
  K  K7  1  0.73743209  0.33170049  0.92726577  1
  P  P8  1  0.80740253  0.94780489  0.16280651  1
  P  P9  1  0.30878639  0.00574037  0.30938601  1
  P  P10  1  0.19121361  0.50574037  0.80938601  1
  P  P11  1  0.19259747  0.05219511  0.83719349  1
  P  P12  1  0.69259747  0.44780489  0.66280651  1
  P  P13  1  0.69121361  0.99425963  0.69061399  1
  P  P14  1  0.30740253  0.55219511  0.33719349  1
  P  P15  1  0.80878639  0.49425963  0.19061399  1
  O  O16  1  0.28218232  0.42982201  0.34915088  1
  O  O17  1  0.13467940  0.54489727  0.23156256  1
  O  O18  1  0.21781768  0.92982201  0.84915088  1
  O  O19  1  0.36532060  0.04489727  0.73156256  1
  O  O20  1  0.28308455  0.14416004  0.33844379  1
  O  O21  1  0.63479149  0.57122759  0.29969264  1
  O  O22  1  0.78218232  0.07017799  0.15084912  1
  O  O23  1  0.26245402  0.17308273  0.92593671  1
  O  O24  1  0.36520851  0.42877241  0.70030736  1
  O  O25  1  0.13479149  0.92877241  0.20030736  1
  O  O26  1  0.26074543  0.45278655  0.88932435  1
  O  O27  1  0.73925457  0.54721345  0.11067565  1
  O  O28  1  0.21691545  0.64416004  0.83844379  1
  O  O29  1  0.73754598  0.82691727  0.07406329  1
  O  O30  1  0.71781768  0.57017799  0.65084912  1
  O  O31  1  0.86532060  0.45510273  0.76843744  1
  O  O32  1  0.76245402  0.32691727  0.57406329  1
  O  O33  1  0.23925457  0.95278655  0.38932435  1
  O  O34  1  0.86520851  0.07122759  0.79969264  1
  O  O35  1  0.23754598  0.67308273  0.42593671  1
  O  O36  1  0.76074543  0.04721345  0.61067565  1
  O  O37  1  0.63467940  0.95510273  0.26843744  1
  O  O38  1  0.78308455  0.35583996  0.16155621  1
  O  O39  1  0.71691545  0.85583996  0.66155621  1
