# generated using pymatgen
data_K2B6H2O11
_symmetry_space_group_name_H-M   'P 1'
_cell_length_a   6.70486769
_cell_length_b   9.16642469
_cell_length_c   16.16559873
_cell_angle_alpha   92.32919198
_cell_angle_beta   90.00000000
_cell_angle_gamma   90.00000000
_symmetry_Int_Tables_number   1
_chemical_formula_structural   K2B6H2O11
_chemical_formula_sum   'K8 B24 H8 O44'
_cell_volume   992.71144039
_cell_formula_units_Z   4
loop_
 _symmetry_equiv_pos_site_id
 _symmetry_equiv_pos_as_xyz
  1  'x, y, z'
loop_
 _atom_site_type_symbol
 _atom_site_label
 _atom_site_symmetry_multiplicity
 _atom_site_fract_x
 _atom_site_fract_y
 _atom_site_fract_z
 _atom_site_occupancy
  K  K0  1  0.83775945  0.51874337  0.62855196  1
  K  K1  1  0.58329704  0.48627113  0.15668062  1
  K  K2  1  0.41670296  0.51372887  0.84331938  1
  K  K3  1  0.66224055  0.01874337  0.12855196  1
  K  K4  1  0.16224055  0.48125663  0.37144804  1
  K  K5  1  0.08329704  0.01372887  0.34331938  1
  K  K6  1  0.33775945  0.98125663  0.87144804  1
  K  K7  1  0.91670296  0.98627113  0.65668062  1
  B  B8  1  0.89163706  0.31375089  0.83300472  1
  B  B9  1  0.68772135  0.73757112  0.98531904  1
  B  B10  1  0.20254710  0.23022800  0.16025578  1
  B  B11  1  0.53965785  0.78514431  0.54974087  1
  B  B12  1  0.17918836  0.93947076  0.14570134  1
  B  B13  1  0.31227865  0.26242888  0.01468096  1
  B  B14  1  0.46034215  0.21485569  0.45025913  1
  B  B15  1  0.10836294  0.68624911  0.16699528  1
  B  B16  1  0.32081164  0.43947076  0.64570134  1
  B  B17  1  0.67918836  0.56052924  0.35429866  1
  B  B18  1  0.82081164  0.06052924  0.85429866  1
  B  B19  1  0.39163706  0.18624911  0.66699528  1
  B  B20  1  0.70254710  0.26977200  0.33974422  1
  B  B21  1  0.66826255  0.25371429  0.94869831  1
  B  B22  1  0.16826255  0.24628571  0.55130169  1
  B  B23  1  0.29745290  0.73022800  0.66025578  1
  B  B24  1  0.03965785  0.71485569  0.95025913  1
  B  B25  1  0.18772135  0.76242888  0.51468096  1
  B  B26  1  0.81227865  0.23757112  0.48531904  1
  B  B27  1  0.60836294  0.81375089  0.33300472  1
  B  B28  1  0.33173745  0.74628571  0.05130169  1
  B  B29  1  0.96034215  0.28514431  0.04974087  1
  B  B30  1  0.79745290  0.76977200  0.83974422  1
  B  B31  1  0.83173745  0.75371429  0.44869831  1
  H  H32  1  0.35830448  0.25965699  0.26909852  1
  H  H33  1  0.85830448  0.24034301  0.23090148  1
  H  H34  1  0.97089638  0.51525628  0.81363992  1
  H  H35  1  0.52910362  0.01525628  0.31363992  1
  H  H36  1  0.64169552  0.74034301  0.73090148  1
  H  H37  1  0.14169552  0.75965699  0.76909852  1
  H  H38  1  0.47089638  0.98474372  0.68636008  1
  H  H39  1  0.02910362  0.48474372  0.18636008  1
  O  O40  1  0.79703412  0.59833487  0.42094567  1
  O  O41  1  0.20296588  0.40166513  0.57905433  1
  O  O42  1  0.44973868  0.27618060  0.95327321  1
  O  O43  1  1.00005506  0.58428760  0.20907200  1
  O  O44  1  0.98775341  0.70006154  0.86717717  1
  O  O45  1  0.70296588  0.09833487  0.92094567  1
  O  O46  1  0.11041994  0.26990377  0.99022206  1
  O  O47  1  0.73739452  0.78249166  0.53068347  1
  O  O48  1  0.50005506  0.91571240  0.29092800  1
  O  O49  1  0.56941981  0.66728964  0.31331819  1
  O  O50  1  0.76260548  0.28249166  0.03068347  1
  O  O51  1  0.85888358  0.26002607  0.40451057  1
  O  O52  1  0.76053004  0.18912102  0.26413377  1
  O  O53  1  0.29703412  0.90166513  0.07905433  1
  O  O54  1  0.74736240  0.35569399  0.88847903  1
  O  O55  1  0.38958006  0.76990377  0.49022206  1
  O  O56  1  0.15579087  0.07723394  0.17820441  1
  O  O57  1  0.65579087  0.42276606  0.32179559  1
  O  O58  1  0.94973868  0.22381940  0.54672679  1
  O  O59  1  0.26053004  0.31087898  0.23586623  1
  O  O60  1  0.23946996  0.81087898  0.73586623  1
  O  O61  1  0.51224659  0.20006154  0.36717717  1
  O  O62  1  0.55026132  0.72381940  0.04672679  1
  O  O63  1  0.25263760  0.64430601  0.11152097  1
  O  O64  1  0.75263760  0.85569399  0.38847903  1
  O  O65  1  0.84420913  0.92276606  0.82179559  1
  O  O66  1  0.06941981  0.83271036  0.18668181  1
  O  O67  1  0.73946996  0.68912102  0.76413377  1
  O  O68  1  -0.00005506  0.41571240  0.79092800  1
  O  O69  1  0.49994494  0.08428760  0.70907200  1
  O  O70  1  0.34420913  0.57723394  0.67820441  1
  O  O71  1  0.01224659  0.29993846  0.13282283  1
  O  O72  1  0.64111642  0.76002607  0.90451057  1
  O  O73  1  0.23739452  0.71750834  0.96931653  1
  O  O74  1  0.43058019  0.33271036  0.68668181  1
  O  O75  1  0.93058019  0.16728964  0.81331819  1
  O  O76  1  0.26260548  0.21750834  0.46931653  1
  O  O77  1  0.05026132  0.77618060  0.45327321  1
  O  O78  1  0.88958006  0.73009623  0.00977794  1
  O  O79  1  0.61041994  0.23009623  0.50977794  1
  O  O80  1  0.14111642  0.73997393  0.59548943  1
  O  O81  1  0.24736240  0.14430601  0.61152097  1
  O  O82  1  0.35888358  0.23997393  0.09548943  1
  O  O83  1  0.48775341  0.79993846  0.63282283  1
