# generated using pymatgen
data_KB3O5
_symmetry_space_group_name_H-M   'P 1'
_cell_length_a   6.73366902
_cell_length_b   9.42914321
_cell_length_c   21.44403352
_cell_angle_alpha   94.57033553
_cell_angle_beta   90.00000000
_cell_angle_gamma   90.00000000
_symmetry_Int_Tables_number   1
_chemical_formula_structural   KB3O5
_chemical_formula_sum   'K12 B36 O60'
_cell_volume   1357.21088595
_cell_formula_units_Z   12
loop_
 _symmetry_equiv_pos_site_id
 _symmetry_equiv_pos_as_xyz
  1  'x, y, z'
loop_
 _atom_site_type_symbol
 _atom_site_label
 _atom_site_symmetry_multiplicity
 _atom_site_fract_x
 _atom_site_fract_y
 _atom_site_fract_z
 _atom_site_occupancy
  K  K0  1  0.80056651  0.76163915  0.96365355  1
  K  K1  1  0.18690274  0.40178790  0.88166308  1
  K  K2  1  0.81309726  0.59821210  0.11833692  1
  K  K3  1  0.69943349  0.76163915  0.46365355  1
  K  K4  1  0.30056651  0.23836085  0.53634645  1
  K  K5  1  0.04653541  0.93550106  0.73742019  1
  K  K6  1  0.54653541  0.06449894  0.76257981  1
  K  K7  1  0.68690274  0.59821210  0.61833692  1
  K  K8  1  0.19943349  0.23836085  0.03634645  1
  K  K9  1  0.95346459  0.06449894  0.26257981  1
  K  K10  1  0.31309726  0.40178790  0.38166308  1
  K  K11  1  0.45346459  0.93550106  0.23742019  1
  B  B12  1  0.75090561  0.32700920  0.46242945  1
  B  B13  1  0.42122270  0.79171591  0.83282650  1
  B  B14  1  0.98122726  0.41242016  0.27743358  1
  B  B15  1  0.28864291  0.51935843  0.12901019  1
  B  B16  1  0.49304076  0.85848182  0.07976487  1
  B  B17  1  0.29767172  0.97817112  0.38737385  1
  B  B18  1  0.36081522  0.89720490  0.60039332  1
  B  B19  1  0.79767172  0.02182888  0.11262615  1
  B  B20  1  0.13918478  0.89720490  0.10039332  1
  B  B21  1  0.63918478  0.10279510  0.39960668  1
  B  B22  1  0.79690893  0.64202811  0.28437072  1
  B  B23  1  0.01877274  0.58757984  0.72256642  1
  B  B24  1  0.29690893  0.35797189  0.21562928  1
  B  B25  1  0.70309107  0.64202811  0.78437072  1
  B  B26  1  0.20232828  0.97817112  0.88737385  1
  B  B27  1  0.51877274  0.41242016  0.77743358  1
  B  B28  1  0.21135709  0.51935843  0.62901019  1
  B  B29  1  0.74909439  0.32700920  0.96242945  1
  B  B30  1  0.50695924  0.14151818  0.92023513  1
  B  B31  1  0.57877730  0.20828409  0.16717350  1
  B  B32  1  0.00695924  0.85848182  0.57976487  1
  B  B33  1  0.71135709  0.48064157  0.87098981  1
  B  B34  1  0.92122270  0.20828409  0.66717350  1
  B  B35  1  0.25750379  0.74002064  0.92910387  1
  B  B36  1  0.78864291  0.48064157  0.37098981  1
  B  B37  1  0.24249621  0.74002064  0.42910387  1
  B  B38  1  0.48122726  0.58757984  0.22256642  1
  B  B39  1  0.70232828  0.02182888  0.61262615  1
  B  B40  1  0.20309107  0.35797189  0.71562928  1
  B  B41  1  0.75750379  0.25997936  0.57089613  1
  B  B42  1  0.86081522  0.10279510  0.89960668  1
  B  B43  1  0.99304076  0.14151818  0.42023513  1
  B  B44  1  0.74249621  0.25997936  0.07089613  1
  B  B45  1  0.24909439  0.67299080  0.53757055  1
  B  B46  1  0.25090561  0.67299080  0.03757055  1
  B  B47  1  0.07877730  0.79171591  0.33282650  1
  O  O48  1  0.66068464  0.05848739  0.89195085  1
  O  O49  1  0.91273969  0.52654045  0.24926862  1
  O  O50  1  0.49942293  0.98265865  0.63127366  1
  O  O51  1  0.27242485  0.39800487  0.65413805  1
  O  O52  1  0.41273969  0.47345955  0.25073138  1
  O  O53  1  0.76681732  0.45988145  0.93095013  1
  O  O54  1  0.23318268  0.54011855  0.06904987  1
  O  O55  1  0.59573003  0.37932338  0.83578915  1
  O  O56  1  0.37214247  0.32093774  0.75506626  1
  O  O57  1  0.00057707  0.98265865  0.13127366  1
  O  O58  1  0.57301137  0.77009975  0.79146210  1
  O  O59  1  0.99942293  0.01734135  0.86872634  1
  O  O60  1  0.81532163  0.12461027  0.06404658  1
  O  O61  1  0.83931536  0.05848739  0.39195085  1
  O  O62  1  0.09573003  0.62067662  0.66421085  1
  O  O63  1  0.40426997  0.62067662  0.16421085  1
  O  O64  1  0.81143111  0.89454923  0.58686753  1
  O  O65  1  0.62186049  0.30428332  0.12216433  1
  O  O66  1  0.92698863  0.77009975  0.29146210  1
  O  O67  1  0.12785753  0.32093774  0.25506626  1
  O  O68  1  0.73318268  0.45988145  0.43095013  1
  O  O69  1  0.31143111  0.10545077  0.91313247  1
  O  O70  1  0.07301137  0.22990025  0.70853790  1
  O  O71  1  0.40403979  0.77324900  0.56585057  1
  O  O72  1  0.18467837  0.87538973  0.93595342  1
  O  O73  1  0.69472648  0.08779177  0.16931730  1
  O  O74  1  0.68856889  0.89454923  0.08686753  1
  O  O75  1  0.18856889  0.10545077  0.41313247  1
  O  O76  1  0.21233439  0.64007489  0.97019392  1
  O  O77  1  0.09596021  0.77324900  0.06585057  1
  O  O78  1  0.68467837  0.12461027  0.56404658  1
  O  O79  1  0.50057707  0.01734135  0.36872634  1
  O  O80  1  0.78766561  0.35992511  0.02980608  1
  O  O81  1  0.42698863  0.22990025  0.20853790  1
  O  O82  1  0.71233439  0.35992511  0.52980608  1
  O  O83  1  0.87813951  0.30428332  0.62216433  1
  O  O84  1  0.19472648  0.91220823  0.33068270  1
  O  O85  1  0.33931536  0.94151261  0.10804915  1
  O  O86  1  0.54744874  0.26408454  0.95641254  1
  O  O87  1  0.28766561  0.64007489  0.47019392  1
  O  O88  1  0.22757515  0.39800487  0.15413805  1
  O  O89  1  0.90426997  0.37932338  0.33578915  1
  O  O90  1  0.77242485  0.60199513  0.84586195  1
  O  O91  1  0.37813951  0.69571668  0.87783567  1
  O  O92  1  0.58726031  0.52654045  0.74926862  1
  O  O93  1  0.26681732  0.54011855  0.56904987  1
  O  O94  1  0.04744874  0.73591546  0.54358746  1
  O  O95  1  0.59596021  0.22675100  0.43414943  1
  O  O96  1  0.72757515  0.60199513  0.34586195  1
  O  O97  1  0.95255126  0.26408454  0.45641254  1
  O  O98  1  0.80527352  0.08779177  0.66931730  1
  O  O99  1  0.08726031  0.47345955  0.75073138  1
  O  O100  1  0.16068464  0.94151261  0.60804915  1
  O  O101  1  0.12186049  0.69571668  0.37783567  1
  O  O102  1  0.45255126  0.73591546  0.04358746  1
  O  O103  1  0.62785753  0.67906226  0.24493374  1
  O  O104  1  0.30527352  0.91220823  0.83068270  1
  O  O105  1  0.31532163  0.87538973  0.43595342  1
  O  O106  1  0.87214247  0.67906226  0.74493374  1
  O  O107  1  0.90403979  0.22675100  0.93414943  1
