# generated using pymatgen
data_HoSeO3F
_symmetry_space_group_name_H-M   'P 1'
_cell_length_a   6.63988471
_cell_length_b   6.96448838
_cell_length_c   7.24065470
_cell_angle_alpha   90.00000000
_cell_angle_beta   98.55869503
_cell_angle_gamma   90.00000000
_symmetry_Int_Tables_number   1
_chemical_formula_structural   HoSeO3F
_chemical_formula_sum   'Ho4 Se4 O12 F4'
_cell_volume   331.10377118
_cell_formula_units_Z   4
loop_
 _symmetry_equiv_pos_site_id
 _symmetry_equiv_pos_as_xyz
  1  'x, y, z'
loop_
 _atom_site_type_symbol
 _atom_site_label
 _atom_site_symmetry_multiplicity
 _atom_site_fract_x
 _atom_site_fract_y
 _atom_site_fract_z
 _atom_site_occupancy
  Ho  Ho0  1  0.86008197  0.85976380  0.17620959  1
  Ho  Ho1  1  0.13991803  0.14023620  0.82379041  1
  Ho  Ho2  1  0.13991803  0.35976380  0.32379041  1
  Ho  Ho3  1  0.86008197  0.64023620  0.67620959  1
  Se  Se4  1  0.35062961  0.61862334  0.78921283  1
  Se  Se5  1  0.64937039  0.38137666  0.21078717  1
  Se  Se6  1  0.64937039  0.11862334  0.71078717  1
  Se  Se7  1  0.35062961  0.88137666  0.28921283  1
  O  O8  1  0.82576137  0.30555321  0.72009116  1
  O  O9  1  0.51469954  0.81400711  0.13984142  1
  O  O10  1  0.82673541  0.53164864  0.35209194  1
  O  O11  1  0.51469954  0.68599289  0.63984142  1
  O  O12  1  0.17423863  0.80555321  0.77990884  1
  O  O13  1  0.82576137  0.19444679  0.22009116  1
  O  O14  1  0.48530046  0.31400711  0.36015858  1
  O  O15  1  0.48530046  0.18599289  0.86015858  1
  O  O16  1  0.17423863  0.69444679  0.27990884  1
  O  O17  1  0.82673541  0.96835136  0.85209194  1
  O  O18  1  0.17326459  0.03164864  0.14790806  1
  O  O19  1  0.17326459  0.46835136  0.64790806  1
  F  F20  1  0.16767607  0.38147236  0.02509059  1
  F  F21  1  0.83232393  0.61852764  0.97490941  1
  F  F22  1  0.83232393  0.88147236  0.47490941  1
  F  F23  1  0.16767607  0.11852764  0.52509059  1
