# generated using pymatgen
data_Ba9LiSi10C(ClO4)7
_symmetry_space_group_name_H-M   'P 1'
_cell_length_a   9.56890401
_cell_length_b   11.74482359
_cell_length_c   17.99327056
_cell_angle_alpha   90.00000000
_cell_angle_beta   90.00000000
_cell_angle_gamma   90.00000000
_symmetry_Int_Tables_number   1
_chemical_formula_structural   Ba9LiSi10C(ClO4)7
_chemical_formula_sum   'Ba18 Li2 Si20 C2 Cl14 O56'
_cell_volume   2022.17532313
_cell_formula_units_Z   2
loop_
 _symmetry_equiv_pos_site_id
 _symmetry_equiv_pos_as_xyz
  1  'x, y, z'
loop_
 _atom_site_type_symbol
 _atom_site_label
 _atom_site_symmetry_multiplicity
 _atom_site_fract_x
 _atom_site_fract_y
 _atom_site_fract_z
 _atom_site_occupancy
  Ba  Ba0  1  0.00559649  0.95935400  0.25000000  1
  Ba  Ba1  1  0.60059969  0.54532677  0.39387488  1
  Ba  Ba2  1  0.29261882  0.25000000  0.39002919  1
  Ba  Ba3  1  0.26846131  0.75000000  0.75000000  1
  Ba  Ba4  1  0.60059969  0.95467323  0.39387488  1
  Ba  Ba5  1  0.70738118  0.75000000  0.89002919  1
  Ba  Ba6  1  0.73153869  0.25000000  0.25000000  1
  Ba  Ba7  1  0.70738118  0.75000000  0.60997081  1
  Ba  Ba8  1  0.99440351  0.45935400  0.75000000  1
  Ba  Ba9  1  0.00559649  0.54064600  0.25000000  1
  Ba  Ba10  1  0.39940031  0.45467323  0.60612512  1
  Ba  Ba11  1  0.39940031  0.04532677  0.89387488  1
  Ba  Ba12  1  0.60059969  0.95467323  0.10612512  1
  Ba  Ba13  1  0.29261882  0.25000000  0.10997081  1
  Ba  Ba14  1  0.39940031  0.04532677  0.60612512  1
  Ba  Ba15  1  0.99440351  0.04064600  0.75000000  1
  Ba  Ba16  1  0.39940031  0.45467323  0.89387488  1
  Ba  Ba17  1  0.60059969  0.54532677  0.10612512  1
  Li  Li18  1  0.53964086  0.75000000  0.25000000  1
  Li  Li19  1  0.46035914  0.25000000  0.75000000  1
  Si  Si20  1  0.71572594  0.25000000  0.83799018  1
  Si  Si21  1  0.06870680  0.88514881  0.59123784  1
  Si  Si22  1  0.79768283  0.03352288  0.56553345  1
  Si  Si23  1  0.20231717  0.53352288  0.06553345  1
  Si  Si24  1  0.20231717  0.96647712  0.06553345  1
  Si  Si25  1  0.93129320  0.11485119  0.40876216  1
  Si  Si26  1  0.28427406  0.75000000  0.16200982  1
  Si  Si27  1  0.93129320  0.11485119  0.09123784  1
  Si  Si28  1  0.28427406  0.75000000  0.33799018  1
  Si  Si29  1  0.79768283  0.03352288  0.93446655  1
  Si  Si30  1  0.71572594  0.25000000  0.66200982  1
  Si  Si31  1  0.79768283  0.46647712  0.93446655  1
  Si  Si32  1  0.93129320  0.38514881  0.40876216  1
  Si  Si33  1  0.06870680  0.61485119  0.59123784  1
  Si  Si34  1  0.93129320  0.38514881  0.09123784  1
  Si  Si35  1  0.06870680  0.61485119  0.90876216  1
  Si  Si36  1  0.06870680  0.88514881  0.90876216  1
  Si  Si37  1  0.20231717  0.96647712  0.43446655  1
  Si  Si38  1  0.20231717  0.53352288  0.43446655  1
  Si  Si39  1  0.79768283  0.46647712  0.56553345  1
  C  C40  1  0.77936809  0.75000000  0.25000000  1
  C  C41  1  0.22063191  0.25000000  0.75000000  1
  Cl  Cl42  1  0.54683078  0.91718614  0.75000000  1
  Cl  Cl43  1  0.45316922  0.41718614  0.25000000  1
  Cl  Cl44  1  0.59996115  0.25000000  0.07679020  1
  Cl  Cl45  1  0.21160137  0.25000000  0.94059540  1
  Cl  Cl46  1  0.21160137  0.25000000  0.55940460  1
  Cl  Cl47  1  0.45316922  0.08281386  0.25000000  1
  Cl  Cl48  1  0.54683078  0.58281386  0.75000000  1
  Cl  Cl49  1  0.90108425  0.75000000  0.75000000  1
  Cl  Cl50  1  0.78839863  0.75000000  0.05940460  1
  Cl  Cl51  1  0.40003885  0.75000000  0.92320980  1
  Cl  Cl52  1  0.40003885  0.75000000  0.57679020  1
  Cl  Cl53  1  0.59996115  0.25000000  0.42320980  1
  Cl  Cl54  1  0.09891575  0.25000000  0.25000000  1
  Cl  Cl55  1  0.78839863  0.75000000  0.44059540  1
  O  O56  1  0.13210937  0.92452274  0.51175365  1
  O  O57  1  0.35000541  0.02768315  0.44721147  1
  O  O58  1  0.08906683  0.05658799  0.10434174  1
  O  O59  1  0.20525997  0.86301163  0.12736259  1
  O  O60  1  0.86789063  0.07547726  0.01175365  1
  O  O61  1  0.28898337  0.15357387  0.75000000  1
  O  O62  1  0.45081506  0.75000000  0.34610172  1
  O  O63  1  0.83373454  0.07633096  0.34073348  1
  O  O64  1  0.16626546  0.57633096  0.84073348  1
  O  O65  1  0.91093317  0.55658799  0.60434174  1
  O  O66  1  0.71101663  0.84642613  0.25000000  1
  O  O67  1  0.79474003  0.36301163  0.62736259  1
  O  O68  1  0.96902076  0.25000000  0.41299648  1
  O  O69  1  0.91093317  0.55658799  0.89565826  1
  O  O70  1  0.79474003  0.13698837  0.87263741  1
  O  O71  1  0.64999459  0.52768315  0.94721147  1
  O  O72  1  0.35000541  0.47231685  0.05278853  1
  O  O73  1  0.79474003  0.36301163  0.87263741  1
  O  O74  1  0.64999459  0.52768315  0.55278853  1
  O  O75  1  0.71101663  0.65357387  0.25000000  1
  O  O76  1  0.13210937  0.92452274  0.98824635  1
  O  O77  1  0.20525997  0.63698837  0.37263741  1
  O  O78  1  0.83373454  0.42366904  0.34073348  1
  O  O79  1  0.54918494  0.25000000  0.84610172  1
  O  O80  1  0.08906683  0.44341201  0.39565826  1
  O  O81  1  0.35000541  0.47231685  0.44721147  1
  O  O82  1  0.16626546  0.92366904  0.84073348  1
  O  O83  1  0.03097924  0.75000000  0.58700352  1
  O  O84  1  0.28898337  0.34642613  0.75000000  1
  O  O85  1  0.83373454  0.07633096  0.15926652  1
  O  O86  1  0.45081506  0.75000000  0.15389828  1
  O  O87  1  0.08906683  0.05658799  0.39565826  1
  O  O88  1  0.20525997  0.63698837  0.12736259  1
  O  O89  1  0.86789063  0.42452274  0.01175365  1
  O  O90  1  0.13210937  0.57547726  0.98824635  1
  O  O91  1  0.91093317  0.94341201  0.60434174  1
  O  O92  1  0.64999459  0.97231685  0.55278853  1
  O  O93  1  0.76906929  0.25000000  0.75000000  1
  O  O94  1  0.86789063  0.07547726  0.48824635  1
  O  O95  1  0.64999459  0.97231685  0.94721147  1
  O  O96  1  0.91093317  0.94341201  0.89565826  1
  O  O97  1  0.79474003  0.13698837  0.62736259  1
  O  O98  1  0.96902076  0.25000000  0.08700352  1
  O  O99  1  0.13210937  0.57547726  0.51175365  1
  O  O100  1  0.08557170  0.25000000  0.75000000  1
  O  O101  1  0.83373454  0.42366904  0.15926652  1
  O  O102  1  0.23093071  0.75000000  0.25000000  1
  O  O103  1  0.35000541  0.02768315  0.05278853  1
  O  O104  1  0.20525997  0.86301163  0.37263741  1
  O  O105  1  0.91442830  0.75000000  0.25000000  1
  O  O106  1  0.03097924  0.75000000  0.91299648  1
  O  O107  1  0.16626546  0.92366904  0.65926652  1
  O  O108  1  0.86789063  0.42452274  0.48824635  1
  O  O109  1  0.08906683  0.44341201  0.10434174  1
  O  O110  1  0.54918494  0.25000000  0.65389828  1
  O  O111  1  0.16626546  0.57633096  0.65926652  1
