# generated using pymatgen
data_Hg3(SBr)2
_symmetry_space_group_name_H-M   'P 1'
_cell_length_a   9.75851485
_cell_length_b   9.72536096
_cell_length_c   10.33681104
_cell_angle_alpha   90.90786560
_cell_angle_beta   118.16597675
_cell_angle_gamma   90.00000297
_symmetry_Int_Tables_number   1
_chemical_formula_structural   Hg3(SBr)2
_chemical_formula_sum   'Hg12 S8 Br8'
_cell_volume   864.70810995
_cell_formula_units_Z   4
loop_
 _symmetry_equiv_pos_site_id
 _symmetry_equiv_pos_as_xyz
  1  'x, y, z'
loop_
 _atom_site_type_symbol
 _atom_site_label
 _atom_site_symmetry_multiplicity
 _atom_site_fract_x
 _atom_site_fract_y
 _atom_site_fract_z
 _atom_site_occupancy
  Hg  Hg0  1  0.33342533  0.20312639  0.24149633  1
  Hg  Hg1  1  0.90807100  0.20312639  0.24149633  1
  Hg  Hg2  1  0.23761787  0.50000000  0.00000000  1
  Hg  Hg3  1  0.66657467  0.79687361  0.75850367  1
  Hg  Hg4  1  0.75113666  0.22339215  0.50227332  1
  Hg  Hg5  1  0.48741553  0.23370426  0.97483106  1
  Hg  Hg6  1  0.76238213  0.50000000  1.00000000  1
  Hg  Hg7  1  0.24886334  0.77660785  0.49772668  1
  Hg  Hg8  1  0.51258447  0.76629574  0.02516894  1
  Hg  Hg9  1  0.09192900  0.79687361  0.75850367  1
  Hg  Hg10  1  0.50000000  0.50000000  0.50000000  1
  Hg  Hg11  1  0.00000000  0.50000000  0.50000000  1
  S  S12  1  0.23881819  0.25081453  0.97788632  1
  S  S13  1  0.00150514  0.24949182  0.50807775  1
  S  S14  1  0.50657261  0.24949182  0.50807775  1
  S  S15  1  0.49342739  0.75050818  0.49192225  1
  S  S16  1  0.76118181  0.74918547  0.02211368  1
  S  S17  1  0.26093187  0.74918547  0.02211368  1
  S  S18  1  0.99849486  0.75050818  0.49192225  1
  S  S19  1  0.73906813  0.25081453  0.97788632  1
  Br  Br20  1  0.12300865  0.00587638  0.24601730  1
  Br  Br21  1  0.12398357  0.46717843  0.24796714  1
  Br  Br22  1  0.87699135  0.99412362  0.75398270  1
  Br  Br23  1  0.38219442  0.97595751  0.76438884  1
  Br  Br24  1  0.62614623  0.49365123  0.25229246  1
  Br  Br25  1  0.37385377  0.50634877  0.74770754  1
  Br  Br26  1  0.87601643  0.53282157  0.75203286  1
  Br  Br27  1  0.61780558  0.02404249  0.23561116  1
