# generated using pymatgen
data_SrHo2O4
_symmetry_space_group_name_H-M   'P 1'
_cell_length_a   3.41378057
_cell_length_b   10.11533039
_cell_length_c   11.95325574
_cell_angle_alpha   90.00000000
_cell_angle_beta   90.00000000
_cell_angle_gamma   90.00000000
_symmetry_Int_Tables_number   1
_chemical_formula_structural   SrHo2O4
_chemical_formula_sum   'Sr4 Ho8 O16'
_cell_volume   412.76406986
_cell_formula_units_Z   4
loop_
 _symmetry_equiv_pos_site_id
 _symmetry_equiv_pos_as_xyz
  1  'x, y, z'
loop_
 _atom_site_type_symbol
 _atom_site_label
 _atom_site_symmetry_multiplicity
 _atom_site_fract_x
 _atom_site_fract_y
 _atom_site_fract_z
 _atom_site_occupancy
  Sr  Sr0  1  0.25000000  0.74736795  0.85080306  1
  Sr  Sr1  1  0.25000000  0.24736795  0.64919694  1
  Sr  Sr2  1  0.75000000  0.75263205  0.35080306  1
  Sr  Sr3  1  0.75000000  0.25263205  0.14919694  1
  Ho  Ho4  1  0.75000000  0.42325230  0.88938593  1
  Ho  Ho5  1  0.25000000  0.07697174  0.88791259  1
  Ho  Ho6  1  0.75000000  0.42302826  0.38791259  1
  Ho  Ho7  1  0.25000000  0.07674770  0.38938593  1
  Ho  Ho8  1  0.75000000  0.92325230  0.61061407  1
  Ho  Ho9  1  0.75000000  0.92302826  0.11208741  1
  Ho  Ho10  1  0.25000000  0.57674770  0.11061407  1
  Ho  Ho11  1  0.25000000  0.57697174  0.61208741  1
  O  O12  1  0.25000000  0.57398228  0.42278740  1
  O  O13  1  0.75000000  0.12493212  0.51951968  1
  O  O14  1  0.25000000  0.48556813  0.78378851  1
  O  O15  1  0.75000000  0.51443187  0.21621149  1
  O  O16  1  0.75000000  0.01443187  0.28378851  1
  O  O17  1  0.75000000  0.62493212  0.98048032  1
  O  O18  1  0.25000000  0.28832680  0.32594347  1
  O  O19  1  0.75000000  0.92601772  0.92278740  1
  O  O20  1  0.75000000  0.21167320  0.82594347  1
  O  O21  1  0.25000000  0.87506788  0.48048032  1
  O  O22  1  0.75000000  0.71167320  0.67405653  1
  O  O23  1  0.25000000  0.78832680  0.17405653  1
  O  O24  1  0.25000000  0.98556813  0.71621149  1
  O  O25  1  0.75000000  0.42601772  0.57721260  1
  O  O26  1  0.25000000  0.07398228  0.07721260  1
  O  O27  1  0.25000000  0.37506788  0.01951968  1
