# generated using pymatgen
data_KGd(PO3)4
_symmetry_space_group_name_H-M   'P 1'
_cell_length_a   9.07122311
_cell_length_b   10.52117242
_cell_length_c   10.92969946
_cell_angle_alpha   106.16599812
_cell_angle_beta   90.00000000
_cell_angle_gamma   90.00000000
_symmetry_Int_Tables_number   1
_chemical_formula_structural   KGd(PO3)4
_chemical_formula_sum   'K4 Gd4 P16 O48'
_cell_volume   1001.88315402
_cell_formula_units_Z   4
loop_
 _symmetry_equiv_pos_site_id
 _symmetry_equiv_pos_as_xyz
  1  'x, y, z'
loop_
 _atom_site_type_symbol
 _atom_site_label
 _atom_site_symmetry_multiplicity
 _atom_site_fract_x
 _atom_site_fract_y
 _atom_site_fract_z
 _atom_site_occupancy
  K  K0  1  0.57150010  0.29234484  0.04252533  1
  K  K1  1  0.07150010  0.20765516  0.45747467  1
  K  K2  1  0.42849990  0.70765516  0.95747467  1
  K  K3  1  0.92849990  0.79234484  0.54252533  1
  Gd  Gd4  1  0.77234314  -0.00012773  0.18480667  1
  Gd  Gd5  1  0.27234314  0.50012773  0.31519333  1
  Gd  Gd6  1  0.72765686  0.49987227  0.68480667  1
  Gd  Gd7  1  0.22765686  1.00012773  0.81519333  1
  P  P8  1  0.33012635  0.46054589  0.64147022  1
  P  P9  1  0.02323444  0.75044536  0.23039839  1
  P  P10  1  0.39377130  0.82230951  0.51962419  1
  P  P11  1  0.59450943  0.85336787  0.74012927  1
  P  P12  1  0.09450943  0.64663213  0.75987073  1
  P  P13  1  0.52323444  0.74955464  0.26960161  1
  P  P14  1  0.60622870  0.17769049  0.48037581  1
  P  P15  1  0.10622870  0.32230951  0.01962419  1
  P  P16  1  0.90549057  0.35336787  0.24012927  1
  P  P17  1  0.47676556  0.25044536  0.73039839  1
  P  P18  1  0.83012635  0.03945411  0.85852978  1
  P  P19  1  0.97676556  0.24955464  0.76960161  1
  P  P20  1  0.89377130  0.67769049  0.98037581  1
  P  P21  1  0.66987365  0.53945411  0.35852978  1
  P  P22  1  0.16987365  0.96054589  0.14147022  1
  P  P23  1  0.40549057  0.14663213  0.25987073  1
  O  O24  1  0.09065538  0.67255563  0.31197862  1
  O  O25  1  0.46333953  0.89861561  0.82507092  1
  O  O26  1  0.44986204  0.16985861  0.40671353  1
  O  O27  1  0.53031756  0.46129637  0.32294519  1
  O  O28  1  0.90934462  0.32744437  0.68802138  1
  O  O29  1  0.15985298  0.18214343  0.98170771  1
  O  O30  1  0.67982718  0.73658556  0.75448380  1
  O  O31  1  0.79159049  0.47499532  0.25010973  1
  O  O32  1  0.58805823  0.35487075  0.79210829  1
  O  O33  1  0.54637462  0.14321437  0.60692953  1
  O  O34  1  0.03031756  0.03870363  0.17705481  1
  O  O35  1  0.91194177  0.85487075  0.29210829  1
  O  O36  1  0.70785858  0.07026601  0.40818426  1
  O  O37  1  0.23766074  0.93557933  0.01187449  1
  O  O38  1  0.59065538  0.82744437  0.18802138  1
  O  O39  1  0.41194177  0.64512925  0.20789171  1
  O  O40  1  0.34014702  0.68214343  0.48170771  1
  O  O41  1  0.40934462  0.17255563  0.81197862  1
  O  O42  1  0.84014702  0.81785657  0.01829229  1
  O  O43  1  0.65485785  0.68318973  0.33199620  1
  O  O44  1  0.29214142  0.92973399  0.59181574  1
  O  O45  1  0.26233926  0.43557933  0.51187449  1
  O  O46  1  0.95362538  0.64321437  0.10692953  1
  O  O47  1  0.84514215  0.18318973  0.83199620  1
  O  O48  1  0.96968244  0.96129637  0.82294519  1
  O  O49  1  0.76233926  0.06442067  0.98812551  1
  O  O50  1  0.70840951  0.97499532  0.75010973  1
  O  O51  1  0.29159049  0.02500468  0.24989027  1
  O  O52  1  0.94986204  0.33014139  0.09328647  1
  O  O53  1  0.05013796  0.66985861  0.90671353  1
  O  O54  1  0.08805823  0.14512925  0.70789171  1
  O  O55  1  0.32017282  0.26341444  0.24551620  1
  O  O56  1  0.65985298  0.31785657  0.51829229  1
  O  O57  1  0.82017282  0.23658556  0.25448380  1
  O  O58  1  0.53666047  0.10138439  0.17492908  1
  O  O59  1  0.79214142  0.57026601  0.90818426  1
  O  O60  1  0.55013796  0.83014139  0.59328647  1
  O  O61  1  0.20840951  0.52500468  0.74989027  1
  O  O62  1  0.73766074  0.56442067  0.48812551  1
  O  O63  1  0.15485785  0.81681027  0.16800380  1
  O  O64  1  0.46968244  0.53870363  0.67705481  1
  O  O65  1  0.17982718  0.76341444  0.74551620  1
  O  O66  1  0.45362538  0.85678563  0.39307047  1
  O  O67  1  0.03666047  0.39861561  0.32507092  1
  O  O68  1  0.20785858  0.42973399  0.09181574  1
  O  O69  1  0.04637462  0.35678563  0.89307047  1
  O  O70  1  0.34514215  0.31681027  0.66800380  1
  O  O71  1  0.96333953  0.60138439  0.67492908  1
