# generated using pymatgen
data_Na7Y2P7O24
_symmetry_space_group_name_H-M   'P 1'
_cell_length_a   5.45982160
_cell_length_b   12.43975230
_cell_length_c   16.43066023
_cell_angle_alpha   97.85087186
_cell_angle_beta   90.00000000
_cell_angle_gamma   90.00000000
_symmetry_Int_Tables_number   1
_chemical_formula_structural   Na7Y2P7O24
_chemical_formula_sum   'Na14 Y4 P14 O48'
_cell_volume   1105.49132552
_cell_formula_units_Z   2
loop_
 _symmetry_equiv_pos_site_id
 _symmetry_equiv_pos_as_xyz
  1  'x, y, z'
loop_
 _atom_site_type_symbol
 _atom_site_label
 _atom_site_symmetry_multiplicity
 _atom_site_fract_x
 _atom_site_fract_y
 _atom_site_fract_z
 _atom_site_occupancy
  Na  Na0  1  0.85366237  0.03762573  0.40584111  1
  Na  Na1  1  0.85366237  0.46237427  0.59415889  1
  Na  Na2  1  0.83651071  0.88968020  0.13698239  1
  Na  Na3  1  0.83651071  0.61031980  0.86301761  1
  Na  Na4  1  0.29932845  0.48322616  0.93595795  1
  Na  Na5  1  0.16348929  0.11031980  0.86301761  1
  Na  Na6  1  0.70067155  0.51677384  0.06404205  1
  Na  Na7  1  0.29932845  0.01677384  0.06404205  1
  Na  Na8  1  0.28297535  0.25000000  0.50000000  1
  Na  Na9  1  0.14633763  0.96237427  0.59415889  1
  Na  Na10  1  0.14633763  0.53762573  0.40584111  1
  Na  Na11  1  0.16348929  0.38968020  0.13698239  1
  Na  Na12  1  0.70067155  0.98322616  0.93595795  1
  Na  Na13  1  0.71702465  0.75000000  0.50000000  1
  Y  Y14  1  0.34864396  0.31286803  0.72526641  1
  Y  Y15  1  0.65135604  0.68713197  0.27473359  1
  Y  Y16  1  0.34864396  0.18713197  0.27473359  1
  Y  Y17  1  0.65135604  0.81286803  0.72526641  1
  P  P18  1  0.86332810  0.34300809  0.86964260  1
  P  P19  1  0.84285509  0.19511198  0.60981503  1
  P  P20  1  0.41671721  0.75000000  0.00000000  1
  P  P21  1  0.58328279  0.25000000  0.00000000  1
  P  P22  1  0.84285509  0.30488802  0.39018497  1
  P  P23  1  0.13667190  0.65699191  0.13035740  1
  P  P24  1  0.86332810  0.15699191  0.13035740  1
  P  P25  1  0.37240145  0.94584566  0.27857330  1
  P  P26  1  0.15714491  0.80488802  0.39018497  1
  P  P27  1  0.15714491  0.69511198  0.60981503  1
  P  P28  1  0.13667190  0.84300809  0.86964260  1
  P  P29  1  0.62759855  0.44584566  0.27857330  1
  P  P30  1  0.62759855  0.05415434  0.72142670  1
  P  P31  1  0.37240145  0.55415434  0.72142670  1
  O  O32  1  0.05933725  0.62317474  0.53486673  1
  O  O33  1  0.14665844  0.88069901  0.31508418  1
  O  O34  1  0.97753199  0.71070180  0.36242997  1
  O  O35  1  0.44575953  0.14422999  0.98405529  1
  O  O36  1  0.14665844  0.61930099  0.68491582  1
  O  O37  1  0.32203019  0.65287624  0.19899138  1
  O  O38  1  0.87853339  0.05045251  0.07360825  1
  O  O39  1  0.67796981  0.15287624  0.19899138  1
  O  O40  1  0.57760190  0.23480849  0.60644263  1
  O  O41  1  0.45330637  0.46181749  0.65430217  1
  O  O42  1  0.12146661  0.94954749  0.92639175  1
  O  O43  1  0.54669363  0.96181749  0.65430217  1
  O  O44  1  0.94066275  0.37682526  0.46513327  1
  O  O45  1  0.11040221  0.29531074  0.83776624  1
  O  O46  1  0.57834725  0.63459458  0.74801715  1
  O  O47  1  0.22917224  0.74775867  0.92357134  1
  O  O48  1  0.55424047  0.64422999  0.98405529  1
  O  O49  1  0.05933725  0.87682526  0.46513327  1
  O  O50  1  0.42165275  0.36540542  0.25198285  1
  O  O51  1  0.85334156  0.11930099  0.68491582  1
  O  O52  1  0.44575953  0.35577001  0.01594471  1
  O  O53  1  0.74797784  0.00172974  0.79068584  1
  O  O54  1  0.94066275  0.12317474  0.53486673  1
  O  O55  1  0.77082776  0.24775867  0.92357134  1
  O  O56  1  0.45330637  0.03818251  0.34569783  1
  O  O57  1  0.85334156  0.38069901  0.31508418  1
  O  O58  1  0.87853339  0.44954749  0.92639175  1
  O  O59  1  0.54669363  0.53818251  0.34569783  1
  O  O60  1  0.25202216  0.50172974  0.79068584  1
  O  O61  1  0.77082776  0.25224133  0.07642866  1
  O  O62  1  0.97753199  0.78929820  0.63757003  1
  O  O63  1  0.12146661  0.55045251  0.07360825  1
  O  O64  1  0.74797784  0.49827026  0.20931416  1
  O  O65  1  0.22917224  0.75224133  0.07642866  1
  O  O66  1  0.88959779  0.79531074  0.83776624  1
  O  O67  1  0.42239810  0.73480849  0.60644263  1
  O  O68  1  0.32203019  0.84712376  0.80100862  1
  O  O69  1  0.57834725  0.86540542  0.25198285  1
  O  O70  1  0.67796981  0.34712376  0.80100862  1
  O  O71  1  0.55424047  0.85577001  0.01594471  1
  O  O72  1  0.42239810  0.76519151  0.39355737  1
  O  O73  1  0.25202216  0.99827026  0.20931416  1
  O  O74  1  0.88959779  0.70468926  0.16223376  1
  O  O75  1  0.02246801  0.28929820  0.63757003  1
  O  O76  1  0.11040221  0.20468926  0.16223376  1
  O  O77  1  0.42165275  0.13459458  0.74801715  1
  O  O78  1  0.02246801  0.21070180  0.36242997  1
  O  O79  1  0.57760190  0.26519151  0.39355737  1
