# generated using pymatgen
data_Ta2Te4Br10O
_symmetry_space_group_name_H-M   'P 1'
_cell_length_a   7.45500464
_cell_length_b   8.91685997
_cell_length_c   9.68192523
_cell_angle_alpha   83.54085944
_cell_angle_beta   91.91675795
_cell_angle_gamma   74.46993552
_symmetry_Int_Tables_number   1
_chemical_formula_structural   Ta2Te4Br10O
_chemical_formula_sum   'Ta2 Te4 Br10 O1'
_cell_volume   614.81415878
_cell_formula_units_Z   1
loop_
 _symmetry_equiv_pos_site_id
 _symmetry_equiv_pos_as_xyz
  1  'x, y, z'
loop_
 _atom_site_type_symbol
 _atom_site_label
 _atom_site_symmetry_multiplicity
 _atom_site_fract_x
 _atom_site_fract_y
 _atom_site_fract_z
 _atom_site_occupancy
  Ta  Ta0  1  0.48552357  0.36278051  0.36627099  1
  Ta  Ta1  1  0.51447777  0.63721928  0.63372876  1
  Te  Te2  1  0.91506100  0.81435167  0.99886856  1
  Te  Te3  1  0.08493894  0.18564739  0.00113017  1
  Te  Te4  1  0.18573486  0.89351510  0.14981779  1
  Te  Te5  1  0.81426571  0.10648390  0.85018074  1
  Br  Br6  1  0.46201014  0.16633449  0.17731363  1
  Br  Br7  1  0.60281243  0.52738310  0.17882396  1
  Br  Br8  1  0.14877182  0.53151491  0.27766850  1
  Br  Br9  1  0.80900714  0.19544141  0.42964822  1
  Br  Br10  1  0.66156358  0.79360561  0.46654622  1
  Br  Br11  1  0.33843679  0.20639416  0.53345208  1
  Br  Br12  1  0.19099303  0.80455712  0.57035092  1
  Br  Br13  1  0.85122762  0.46848398  0.72233124  1
  Br  Br14  1  0.39718485  0.47261933  0.82117614  1
  Br  Br15  1  0.53799164  0.83366486  0.82268675  1
  O  O16  1  0.50000009  0.50000019  0.50000034  1
