# generated using pymatgen
data_Ba6Al2Rh4O15
_symmetry_space_group_name_H-M   'P 1'
_cell_length_a   5.85297203
_cell_length_b   5.70624859
_cell_length_c   14.63304011
_cell_angle_alpha   90.00000000
_cell_angle_beta   90.00000000
_cell_angle_gamma   119.17424698
_symmetry_Int_Tables_number   1
_chemical_formula_structural   Ba6Al2Rh4O15
_chemical_formula_sum   'Ba6 Al2 Rh4 O15'
_cell_volume   426.72316040
_cell_formula_units_Z   1
loop_
 _symmetry_equiv_pos_site_id
 _symmetry_equiv_pos_as_xyz
  1  'x, y, z'
loop_
 _atom_site_type_symbol
 _atom_site_label
 _atom_site_symmetry_multiplicity
 _atom_site_fract_x
 _atom_site_fract_y
 _atom_site_fract_z
 _atom_site_occupancy
  Ba  Ba0  1  0.35074157  0.67538353  0.68376075  1
  Ba  Ba1  1  0.35074157  0.67538353  0.31623925  1
  Ba  Ba2  1  0.65481483  0.32740515  0.15816955  1
  Ba  Ba3  1  0.65481483  0.32740515  0.84183045  1
  Ba  Ba4  1  0.98392883  0.99198058  -0.00000000  1
  Ba  Ba5  1  0.00068164  0.00034180  0.50000000  1
  Al  Al6  1  0.69817419  0.34906946  0.61500854  1
  Al  Al7  1  0.69817419  0.34906946  0.38499146  1
  Rh  Rh8  1  0.29602494  0.64801352  0.08590862  1
  Rh  Rh9  1  0.29602494  0.64801352  0.91409138  1
  Rh  Rh10  1  0.00637437  0.00318736  0.25167719  1
  Rh  Rh11  1  0.00637437  0.00318736  0.74832281  1
  O  O12  1  0.70398186  0.85197729  0.16708079  1
  O  O13  1  0.18712342  0.34246331  0.17545893  1
  O  O14  1  0.18713974  0.84466178  0.17546554  1
  O  O15  1  0.70398186  0.85197729  0.83291921  1
  O  O16  1  0.18712342  0.34246331  0.82454107  1
  O  O17  1  0.18713974  0.84466178  0.82453446  1
  O  O18  1  0.83764017  0.67210589  0.33597484  1
  O  O19  1  0.83765460  0.16555526  0.33596123  1
  O  O20  1  0.35701982  0.17851600  0.36641331  1
  O  O21  1  0.83764017  0.67210589  0.66402516  1
  O  O22  1  0.83765460  0.16555526  0.66403877  1
  O  O23  1  0.35701982  0.17851600  0.63358669  1
  O  O24  1  0.46224874  0.96360701  0.00000000  1
  O  O25  1  0.46223784  0.49865283  -0.00000000  1
  O  O26  1  0.80352394  0.40174070  0.50000000  1
