# generated using pymatgen
data_Hg3SO6
_symmetry_space_group_name_H-M   'P 1'
_cell_length_a   7.17914096
_cell_length_b   7.17914087
_cell_length_c   10.64478049
_cell_angle_alpha   90.00000000
_cell_angle_beta   90.00000000
_cell_angle_gamma   120.00000039
_symmetry_Int_Tables_number   1
_chemical_formula_structural   Hg3SO6
_chemical_formula_sum   'Hg9 S3 O18'
_cell_volume   475.12982856
_cell_formula_units_Z   3
loop_
 _symmetry_equiv_pos_site_id
 _symmetry_equiv_pos_as_xyz
  1  'x, y, z'
loop_
 _atom_site_type_symbol
 _atom_site_label
 _atom_site_symmetry_multiplicity
 _atom_site_fract_x
 _atom_site_fract_y
 _atom_site_fract_z
 _atom_site_occupancy
  Hg  Hg0  1  0.49892537  0.19359307  0.67349206  1
  Hg  Hg1  1  0.50107463  0.69466770  0.65984194  1
  Hg  Hg2  1  0.30533230  0.80640693  0.99317494  1
  Hg  Hg3  1  0.70333844  0.00000000  0.33333300  1
  Hg  Hg4  1  0.69466770  0.50107463  0.34015806  1
  Hg  Hg5  1  0.80640693  0.30533230  0.00682506  1
  Hg  Hg6  1  0.29666156  0.29666156  0.00000000  1
  Hg  Hg7  1  1.00000000  0.70333844  0.66666700  1
  Hg  Hg8  1  0.19359307  0.49892537  0.32650794  1
  S  S9  1  0.00000000  0.22833668  0.66666700  1
  S  S10  1  0.77166332  0.77166332  0.00000000  1
  S  S11  1  0.22833668  0.00000000  0.33333300  1
  O  O12  1  0.12135771  0.41175764  0.57631328  1
  O  O13  1  0.14375599  0.47285969  0.04546351  1
  O  O14  1  0.70960007  0.58824236  0.09035372  1
  O  O15  1  0.15336629  0.18812567  0.73987953  1
  O  O16  1  0.29039993  0.87864229  0.24297928  1
  O  O17  1  0.85624401  0.32910371  0.28786949  1
  O  O18  1  0.52714031  0.67089629  0.37879651  1
  O  O19  1  0.67089629  0.52714031  0.62120349  1
  O  O20  1  0.03475938  0.84663371  0.40654553  1
  O  O21  1  0.81187433  0.96524062  0.07321253  1
  O  O22  1  0.58824236  0.70960007  0.90964628  1
  O  O23  1  0.96524062  0.81187433  0.92678747  1
  O  O24  1  0.84663371  0.03475938  0.59345447  1
  O  O25  1  0.32910371  0.85624401  0.71213051  1
  O  O26  1  0.47285969  0.14375599  0.95453649  1
  O  O27  1  0.41175764  0.12135771  0.42368672  1
  O  O28  1  0.18812567  0.15336629  0.26012047  1
  O  O29  1  0.87864229  0.29039993  0.75702072  1
