# generated using pymatgen
data_Nd4(GeS4)3
_symmetry_space_group_name_H-M   'P 1'
_cell_length_a   11.56032963
_cell_length_b   11.56033002
_cell_length_c   11.56033005
_cell_angle_alpha   114.81904644
_cell_angle_beta   114.81904727
_cell_angle_gamma   114.81904393
_symmetry_Int_Tables_number   1
_chemical_formula_structural   Nd4(GeS4)3
_chemical_formula_sum   'Nd8 Ge6 S24'
_cell_volume   878.72082523
_cell_formula_units_Z   2
loop_
 _symmetry_equiv_pos_site_id
 _symmetry_equiv_pos_as_xyz
  1  'x, y, z'
loop_
 _atom_site_type_symbol
 _atom_site_label
 _atom_site_symmetry_multiplicity
 _atom_site_fract_x
 _atom_site_fract_y
 _atom_site_fract_z
 _atom_site_occupancy
  Nd  Nd0  1  0.47473882  0.93590247  0.71263926  1
  Nd  Nd1  1  0.97473882  0.21263926  0.43590247  1
  Nd  Nd2  1  0.99914738  0.99914738  0.99914738  1
  Nd  Nd3  1  0.21263926  0.43590247  0.97473882  1
  Nd  Nd4  1  0.71263926  0.47473882  0.93590247  1
  Nd  Nd5  1  0.93590247  0.71263926  0.47473882  1
  Nd  Nd6  1  0.43590247  0.97473882  0.21263926  1
  Nd  Nd7  1  0.49914738  0.49914738  0.49914738  1
  Ge  Ge8  1  0.46937958  0.64402678  0.85581179  1
  Ge  Ge9  1  0.64402678  0.85581179  0.46937958  1
  Ge  Ge10  1  0.35581179  0.14402678  0.96937958  1
  Ge  Ge11  1  0.85581179  0.46937958  0.64402678  1
  Ge  Ge12  1  0.96937958  0.35581179  0.14402678  1
  Ge  Ge13  1  0.14402678  0.96937958  0.35581179  1
  S  S14  1  0.61208836  0.29736895  0.58610201  1
  S  S15  1  0.08643148  0.63171279  0.35303789  1
  S  S16  1  0.87239774  0.68821897  0.68594163  1
  S  S17  1  0.88573517  0.81271105  0.28155789  1
  S  S18  1  0.58643148  0.85303789  0.13171279  1
  S  S19  1  0.11208836  0.08610201  0.79736895  1
  S  S20  1  0.13171279  0.58643148  0.85303789  1
  S  S21  1  0.35303789  0.08643148  0.63171279  1
  S  S22  1  0.28155789  0.88573517  0.81271105  1
  S  S23  1  0.08610201  0.79736895  0.11208836  1
  S  S24  1  0.85303789  0.13171279  0.58643148  1
  S  S25  1  0.63171279  0.35303789  0.08643148  1
  S  S26  1  0.68594163  0.87239774  0.68821897  1
  S  S27  1  0.29736895  0.58610201  0.61208836  1
  S  S28  1  0.18594163  0.18821897  0.37239774  1
  S  S29  1  0.79736895  0.11208836  0.08610201  1
  S  S30  1  0.68821897  0.68594163  0.87239774  1
  S  S31  1  0.58610201  0.61208836  0.29736895  1
  S  S32  1  0.31271105  0.38573517  0.78155789  1
  S  S33  1  0.38573517  0.78155789  0.31271105  1
  S  S34  1  0.78155789  0.31271105  0.38573517  1
  S  S35  1  0.81271105  0.28155789  0.88573517  1
  S  S36  1  0.18821897  0.37239774  0.18594163  1
  S  S37  1  0.37239774  0.18594163  0.18821897  1
