# generated using pymatgen
data_SbS(BrF2)3
_symmetry_space_group_name_H-M   'P 1'
_cell_length_a   8.49333358
_cell_length_b   9.57459991
_cell_length_c   12.77931160
_cell_angle_alpha   90.00000000
_cell_angle_beta   90.00000000
_cell_angle_gamma   90.00000000
_symmetry_Int_Tables_number   1
_chemical_formula_structural   SbS(BrF2)3
_chemical_formula_sum   'Sb4 S4 Br12 F24'
_cell_volume   1039.21708162
_cell_formula_units_Z   4
loop_
 _symmetry_equiv_pos_site_id
 _symmetry_equiv_pos_as_xyz
  1  'x, y, z'
loop_
 _atom_site_type_symbol
 _atom_site_label
 _atom_site_symmetry_multiplicity
 _atom_site_fract_x
 _atom_site_fract_y
 _atom_site_fract_z
 _atom_site_occupancy
  Sb  Sb0  1  0.30556571  0.96220063  0.19145421  1
  Sb  Sb1  1  0.69443429  0.46220063  0.30854579  1
  Sb  Sb2  1  0.19443429  0.03779937  0.69145421  1
  Sb  Sb3  1  0.80556571  0.53779937  0.80854579  1
  S  S4  1  0.65530300  0.02629151  0.47927203  1
  S  S5  1  0.34469700  0.52629151  0.02072797  1
  S  S6  1  0.15530300  0.47370849  0.52072797  1
  S  S7  1  0.84469700  0.97370849  0.97927203  1
  Br  Br8  1  0.28270413  0.68111688  0.90216645  1
  Br  Br9  1  0.36274800  0.49786696  0.62105396  1
  Br  Br10  1  0.15040531  0.67011927  0.43369954  1
  Br  Br11  1  0.63725200  0.99786696  0.87894604  1
  Br  Br12  1  0.86274800  0.00213304  0.37894604  1
  Br  Br13  1  0.34959469  0.32988073  0.93369954  1
  Br  Br14  1  0.13725200  0.50213304  0.12105396  1
  Br  Br15  1  0.84959469  0.17011927  0.06630046  1
  Br  Br16  1  0.78270413  0.81888312  0.09783355  1
  Br  Br17  1  0.65040531  0.82988073  0.56630046  1
  Br  Br18  1  0.71729587  0.18111688  0.59783355  1
  Br  Br19  1  0.21729587  0.31888312  0.40216645  1
  F  F20  1  0.56613478  0.45385917  0.18534309  1
  F  F21  1  0.72864977  0.35588956  0.76759532  1
  F  F22  1  0.36716949  0.11908786  0.77036816  1
  F  F23  1  0.62318005  0.27892078  0.34751176  1
  F  F24  1  0.12318005  0.22107922  0.65248824  1
  F  F25  1  0.27135023  0.85588956  0.73240468  1
  F  F26  1  0.43386522  0.95385917  0.31465691  1
  F  F27  1  0.77135023  0.64411044  0.26759532  1
  F  F28  1  0.17194096  0.96614703  0.07010513  1
  F  F29  1  0.86716949  0.38091214  0.22963184  1
  F  F30  1  0.02762769  0.95282643  0.61375277  1
  F  F31  1  0.93386522  0.54614083  0.68534309  1
  F  F32  1  0.52762769  0.54717357  0.38624723  1
  F  F33  1  0.22864977  0.14411044  0.23240468  1
  F  F34  1  0.32805904  0.03385297  0.57010513  1
  F  F35  1  0.87681995  0.72107922  0.84751176  1
  F  F36  1  0.37681995  0.77892078  0.15248824  1
  F  F37  1  0.13283051  0.88091214  0.27036816  1
  F  F38  1  0.82805904  0.46614703  0.42989487  1
  F  F39  1  0.63283051  0.61908786  0.72963184  1
  F  F40  1  0.97237231  0.45282643  0.88624723  1
  F  F41  1  0.67194096  0.53385297  0.92989487  1
  F  F42  1  0.06613478  0.04614083  0.81465691  1
  F  F43  1  0.47237231  0.04717357  0.11375277  1
