# generated using pymatgen
data_RbTi2(PO4)3
_symmetry_space_group_name_H-M   'P 1'
_cell_length_a   9.30089366
_cell_length_b   9.30089408
_cell_length_c   9.30089335
_cell_angle_alpha   53.82518008
_cell_angle_beta   53.82517587
_cell_angle_gamma   53.82517961
_symmetry_Int_Tables_number   1
_chemical_formula_structural   RbTi2(PO4)3
_chemical_formula_sum   'Rb2 Ti4 P6 O24'
_cell_volume   486.82199833
_cell_formula_units_Z   2
loop_
 _symmetry_equiv_pos_site_id
 _symmetry_equiv_pos_as_xyz
  1  'x, y, z'
loop_
 _atom_site_type_symbol
 _atom_site_label
 _atom_site_symmetry_multiplicity
 _atom_site_fract_x
 _atom_site_fract_y
 _atom_site_fract_z
 _atom_site_occupancy
  Rb  Rb0  1  0.50265621  0.50265621  0.50265621  1
  Rb  Rb1  1  0.00264056  0.00264056  0.00264056  1
  Ti  Ti2  1  0.35122309  0.35122309  0.35122309  1
  Ti  Ti3  1  0.85248047  0.85248047  0.85248047  1
  Ti  Ti4  1  0.65404698  0.65404698  0.65404698  1
  Ti  Ti5  1  0.15278372  0.15278372  0.15278372  1
  P  P6  1  0.25319810  0.97259654  0.53307796  1
  P  P7  1  0.97259654  0.53307796  0.25319810  1
  P  P8  1  0.53307796  0.25319810  0.97259654  1
  P  P9  1  0.47223759  0.75204595  0.03265014  1
  P  P10  1  0.75204595  0.03265014  0.47223759  1
  P  P11  1  0.03265014  0.47223759  0.75204595  1
  O  O12  1  0.44479528  0.56193205  0.19359664  1
  O  O13  1  0.84652332  0.48902383  0.77251904  1
  O  O14  1  0.08638187  0.29683263  0.92486609  1
  O  O15  1  0.19359664  0.44479528  0.56193205  1
  O  O16  1  0.99123217  0.35522113  0.25565923  1
  O  O17  1  0.91879537  0.70840113  0.08051603  1
  O  O18  1  0.08051603  0.91879537  0.70840113  1
  O  O19  1  0.48902383  0.77251904  0.84652332  1
  O  O20  1  0.44338286  0.81174763  0.56038418  1
  O  O21  1  0.23270235  0.15877824  0.51621903  1
  O  O22  1  0.25565923  0.99123217  0.35522113  1
  O  O23  1  0.56193205  0.19359664  0.44479528  1
  O  O24  1  0.81174763  0.56038418  0.44338286  1
  O  O25  1  0.74965280  0.01401432  0.64998243  1
  O  O26  1  0.51621903  0.23270235  0.15877824  1
  O  O27  1  0.70840113  0.08051603  0.91879537  1
  O  O28  1  0.92486609  0.08638187  0.29683263  1
  O  O29  1  0.77251904  0.84652332  0.48902383  1
  O  O30  1  0.29683263  0.92486609  0.08638187  1
  O  O31  1  0.01401432  0.64998243  0.74965280  1
  O  O32  1  0.35522113  0.25565923  0.99123217  1
  O  O33  1  0.15877824  0.51621903  0.23270235  1
  O  O34  1  0.56038418  0.44338286  0.81174763  1
  O  O35  1  0.64998243  0.74965280  0.01401432  1
