# generated using pymatgen
data_NaY(SiO3)2
_symmetry_space_group_name_H-M   'P 1'
_cell_length_a   5.48070996
_cell_length_b   7.69404618
_cell_length_c   13.85888395
_cell_angle_alpha   90.00000000
_cell_angle_beta   90.00000000
_cell_angle_gamma   109.97240695
_symmetry_Int_Tables_number   1
_chemical_formula_structural   NaY(SiO3)2
_chemical_formula_sum   'Na4 Y4 Si8 O24'
_cell_volume   549.26477867
_cell_formula_units_Z   4
loop_
 _symmetry_equiv_pos_site_id
 _symmetry_equiv_pos_as_xyz
  1  'x, y, z'
loop_
 _atom_site_type_symbol
 _atom_site_label
 _atom_site_symmetry_multiplicity
 _atom_site_fract_x
 _atom_site_fract_y
 _atom_site_fract_z
 _atom_site_occupancy
  Na  Na0  1  0.13691859  0.54626246  0.23098702  1
  Na  Na1  1  0.86308141  0.95373754  0.73098702  1
  Na  Na2  1  0.86308141  0.45373754  0.76901298  1
  Na  Na3  1  0.13691859  0.04626246  0.26901298  1
  Y  Y4  1  0.01685971  0.75214625  0.99432701  1
  Y  Y5  1  0.98314029  0.24785375  0.00567299  1
  Y  Y6  1  0.98314029  0.74785375  0.49432701  1
  Y  Y7  1  0.01685971  0.25214625  0.50567299  1
  Si  Si8  1  0.42851833  0.14421634  0.63961301  1
  Si  Si9  1  0.58172175  0.93298926  0.13777985  1
  Si  Si10  1  0.58172175  0.43298926  0.36222015  1
  Si  Si11  1  0.41827825  0.06701074  0.86222015  1
  Si  Si12  1  0.41827825  0.56701074  0.63777985  1
  Si  Si13  1  0.42851833  0.64421634  0.86038699  1
  Si  Si14  1  0.57148167  0.85578366  0.36038699  1
  Si  Si15  1  0.57148167  0.35578366  0.13961301  1
  O  O16  1  0.31629695  0.57993478  0.74948112  1
  O  O17  1  0.38118144  0.84462258  0.87827544  1
  O  O18  1  0.26744364  0.32912988  0.13395578  1
  O  O19  1  0.31629695  0.07993478  0.75051888  1
  O  O20  1  0.28430681  0.30387696  0.37525887  1
  O  O21  1  0.73255636  0.67087012  0.86604422  1
  O  O22  1  0.79994342  0.41800392  0.43712788  1
  O  O23  1  0.21187498  0.01645942  0.56561196  1
  O  O24  1  0.71569319  0.69612304  0.62474113  1
  O  O25  1  0.26744364  0.82912988  0.36604422  1
  O  O26  1  0.61881856  0.15537742  0.12172456  1
  O  O27  1  0.78812502  0.98354058  0.43438804  1
  O  O28  1  0.20005658  0.08199608  0.93712788  1
  O  O29  1  0.68370305  0.92006522  0.24948112  1
  O  O30  1  0.28430681  0.80387696  0.12474113  1
  O  O31  1  0.21187498  0.51645942  0.93438804  1
  O  O32  1  0.20005658  0.58199608  0.56287212  1
  O  O33  1  0.61881856  0.65537742  0.37827544  1
  O  O34  1  0.68370305  0.42006522  0.25051888  1
  O  O35  1  0.71569319  0.19612304  0.87525887  1
  O  O36  1  0.38118144  0.34462258  0.62172456  1
  O  O37  1  0.73255636  0.17087012  0.63395578  1
  O  O38  1  0.78812502  0.48354058  0.06561196  1
  O  O39  1  0.79994342  0.91800392  0.06287212  1
