# generated using pymatgen
data_K3Ho(SiO3)3
_symmetry_space_group_name_H-M   'P 1'
_cell_length_a   5.88572002
_cell_length_b   12.98806768
_cell_length_c   14.07468476
_cell_angle_alpha   90.00000000
_cell_angle_beta   90.00000000
_cell_angle_gamma   90.00000000
_symmetry_Int_Tables_number   1
_chemical_formula_structural   K3Ho(SiO3)3
_chemical_formula_sum   'K12 Ho4 Si12 O36'
_cell_volume   1075.92703101
_cell_formula_units_Z   4
loop_
 _symmetry_equiv_pos_site_id
 _symmetry_equiv_pos_as_xyz
  1  'x, y, z'
loop_
 _atom_site_type_symbol
 _atom_site_label
 _atom_site_symmetry_multiplicity
 _atom_site_fract_x
 _atom_site_fract_y
 _atom_site_fract_z
 _atom_site_occupancy
  K  K0  1  0.18554039  0.06406677  0.00000000  1
  K  K1  1  0.17767151  0.81186140  0.00000000  1
  K  K2  1  0.16924712  0.84958773  0.50000000  1
  K  K3  1  0.65837151  0.12410076  0.78066400  1
  K  K4  1  0.34162849  0.62410076  0.28066400  1
  K  K5  1  0.83075288  0.34958773  0.00000000  1
  K  K6  1  0.82232849  0.31186140  0.50000000  1
  K  K7  1  0.34162849  0.62410076  0.71933600  1
  K  K8  1  0.81445961  0.56406677  0.50000000  1
  K  K9  1  0.65837151  0.12410076  0.21933600  1
  K  K10  1  0.75214397  0.60538554  0.00000000  1
  K  K11  1  0.24785603  0.10538554  0.50000000  1
  Ho  Ho12  1  0.83573620  0.46025027  0.26027350  1
  Ho  Ho13  1  0.16426380  0.96025027  0.76027350  1
  Ho  Ho14  1  0.83573620  0.46025027  0.73972650  1
  Ho  Ho15  1  0.16426380  0.96025027  0.23972650  1
  Si  Si16  1  0.32171928  0.37038526  0.60988818  1
  Si  Si17  1  0.67828072  0.87038526  0.10988818  1
  Si  Si18  1  0.67828072  0.87038526  0.89011182  1
  Si  Si19  1  0.33122225  0.43794559  0.11629946  1
  Si  Si20  1  0.66877775  0.93794559  0.38370054  1
  Si  Si21  1  0.16308912  0.24713758  0.78059006  1
  Si  Si22  1  0.66877775  0.93794559  0.61629946  1
  Si  Si23  1  0.16308912  0.24713758  0.21940994  1
  Si  Si24  1  0.33122225  0.43794559  0.88370054  1
  Si  Si25  1  0.83691088  0.74713758  0.71940994  1
  Si  Si26  1  0.83691088  0.74713758  0.28059006  1
  Si  Si27  1  0.32171928  0.37038526  0.39011182  1
  O  O28  1  0.32385409  0.31215591  0.14173344  1
  O  O29  1  0.09125313  0.79537998  0.28101982  1
  O  O30  1  0.17784841  0.12669577  0.19109038  1
  O  O31  1  0.57379826  0.48631174  0.85203666  1
  O  O32  1  0.71095107  0.76276283  0.82566182  1
  O  O33  1  0.32341288  0.31763946  0.50000000  1
  O  O34  1  0.67614591  0.81215591  0.35826656  1
  O  O35  1  0.67614591  0.81215591  0.64173344  1
  O  O36  1  0.56615627  0.42439464  0.62815968  1
  O  O37  1  0.42620174  0.98631174  0.35203666  1
  O  O38  1  0.57379826  0.48631174  0.14796334  1
  O  O39  1  0.10888685  0.49884557  0.15422839  1
  O  O40  1  0.17784841  0.12669577  0.80890962  1
  O  O41  1  0.10121319  0.44385606  0.37821760  1
  O  O42  1  0.09125313  0.79537998  0.71898018  1
  O  O43  1  0.32385409  0.31215591  0.85826656  1
  O  O44  1  0.56615627  0.42439464  0.37184032  1
  O  O45  1  0.89878681  0.94385606  0.12178240  1
  O  O46  1  0.82215159  0.62669577  0.69109038  1
  O  O47  1  0.67658712  0.81763946  0.00000000  1
  O  O48  1  0.10121319  0.44385606  0.62178240  1
  O  O49  1  0.67455996  0.93891518  0.50000000  1
  O  O50  1  0.43384373  0.92439464  0.12815968  1
  O  O51  1  0.10888685  0.49884557  0.84577161  1
  O  O52  1  0.89111315  0.99884557  0.34577161  1
  O  O53  1  0.71095107  0.76276283  0.17433818  1
  O  O54  1  0.89878681  0.94385606  0.87821760  1
  O  O55  1  0.82215159  0.62669577  0.30890962  1
  O  O56  1  0.43384373  0.92439464  0.87184032  1
  O  O57  1  0.28904893  0.26276283  0.67433818  1
  O  O58  1  0.89111315  0.99884557  0.65422839  1
  O  O59  1  0.28904893  0.26276283  0.32566182  1
  O  O60  1  0.32544004  0.43891518  0.00000000  1
  O  O61  1  0.42620174  0.98631174  0.64796334  1
  O  O62  1  0.90874687  0.29537998  0.78101982  1
  O  O63  1  0.90874687  0.29537998  0.21898018  1
