# generated using pymatgen
data_SbO2
_symmetry_space_group_name_H-M   'P 1'
_cell_length_a   4.91324136
_cell_length_b   5.58157995
_cell_length_c   11.91387174
_cell_angle_alpha   90.00000000
_cell_angle_beta   90.00000000
_cell_angle_gamma   90.00000000
_symmetry_Int_Tables_number   1
_chemical_formula_structural   SbO2
_chemical_formula_sum   'Sb8 O16'
_cell_volume   326.72184236
_cell_formula_units_Z   8
loop_
 _symmetry_equiv_pos_site_id
 _symmetry_equiv_pos_as_xyz
  1  'x, y, z'
loop_
 _atom_site_type_symbol
 _atom_site_label
 _atom_site_symmetry_multiplicity
 _atom_site_fract_x
 _atom_site_fract_y
 _atom_site_fract_z
 _atom_site_occupancy
  Sb  Sb0  1  0.96282439  0.00000000  0.50000000  1
  Sb  Sb1  1  0.00000000  0.36985521  0.25000000  1
  Sb  Sb2  1  0.03717561  0.00000000  0.00000000  1
  Sb  Sb3  1  0.50000000  0.13014479  0.75000000  1
  Sb  Sb4  1  0.53717561  0.50000000  0.50000000  1
  Sb  Sb5  1  0.00000000  0.63014479  0.75000000  1
  Sb  Sb6  1  0.46282439  0.50000000  0.00000000  1
  Sb  Sb7  1  0.50000000  0.86985521  0.25000000  1
  O  O8  1  0.66847877  0.83009766  0.40507666  1
  O  O9  1  0.75250428  0.88526550  0.81236996  1
  O  O10  1  0.25250428  0.38526550  0.68763004  1
  O  O11  1  0.16847877  0.33009766  0.09492334  1
  O  O12  1  0.25250428  0.61473450  0.31236996  1
  O  O13  1  0.83152123  0.33009766  0.40507666  1
  O  O14  1  0.33152123  0.83009766  0.09492334  1
  O  O15  1  0.75250428  0.11473450  0.18763004  1
  O  O16  1  0.66847877  0.16990234  0.59492334  1
  O  O17  1  0.24749572  0.11473450  0.31236996  1
  O  O18  1  0.74749572  0.61473450  0.18763004  1
  O  O19  1  0.33152123  0.16990234  0.90507666  1
  O  O20  1  0.16847877  0.66990234  0.90507666  1
  O  O21  1  0.74749572  0.38526550  0.81236996  1
  O  O22  1  0.24749572  0.88526550  0.68763004  1
  O  O23  1  0.83152123  0.66990234  0.59492334  1
