# generated using pymatgen
data_SrV2(NiO4)2
_symmetry_space_group_name_H-M   'P 1'
_cell_length_a   8.46037407
_cell_length_b   9.70300760
_cell_length_c   9.70300687
_cell_angle_alpha   79.03752119
_cell_angle_beta   64.15022829
_cell_angle_gamma   64.15023810
_symmetry_Int_Tables_number   1
_chemical_formula_structural   SrV2(NiO4)2
_chemical_formula_sum   'Sr4 V8 Ni8 O32'
_cell_volume   645.10404452
_cell_formula_units_Z   4
loop_
 _symmetry_equiv_pos_site_id
 _symmetry_equiv_pos_as_xyz
  1  'x, y, z'
loop_
 _atom_site_type_symbol
 _atom_site_label
 _atom_site_symmetry_multiplicity
 _atom_site_fract_x
 _atom_site_fract_y
 _atom_site_fract_z
 _atom_site_occupancy
  Sr  Sr0  1  0.00424617  -0.00000053  0.00001546  1
  Sr  Sr1  1  0.25426124  0.49998373  0.49997490  1
  Sr  Sr2  1  0.75426124  0.49997490  0.49998373  1
  Sr  Sr3  1  0.50424617  0.00001546  -0.00000053  1
  V  V4  1  0.35975391  0.82380061  0.66412652  1
  V  V5  1  0.27383074  0.83590033  0.32381874  1
  V  V6  1  0.43355759  0.16411102  0.67615601  1
  V  V7  1  0.84764792  0.17615014  0.33589508  1
  V  V8  1  0.93355759  0.67615601  0.16411102  1
  V  V9  1  0.77383074  0.32381874  0.83590033  1
  V  V10  1  0.85975391  0.66412652  0.82380061  1
  V  V11  1  0.34764792  0.33589508  0.17615014  1
  Ni  Ni12  1  0.56239374  0.00201269  0.33655119  1
  Ni  Ni13  1  0.14894396  0.16347749  0.50202320  1
  Ni  Ni14  1  0.81442239  0.83650582  0.49797813  1
  Ni  Ni15  1  0.90095087  0.99798812  0.66345351  1
  Ni  Ni16  1  0.31442239  0.49797813  0.83650582  1
  Ni  Ni17  1  0.64894396  0.50202320  0.16347749  1
  Ni  Ni18  1  0.06239374  0.33655119  0.00201269  1
  Ni  Ni19  1  0.40095087  0.66345351  0.99798812  1
  O  O20  1  0.16056621  0.34591657  0.35286269  1
  O  O21  1  0.76348994  0.14714037  0.84587949  1
  O  O22  1  0.75649223  0.85285546  0.15411561  1
  O  O23  1  0.85941089  0.65410340  0.64713940  1
  O  O24  1  0.25649223  0.15411561  0.85285546  1
  O  O25  1  0.26348994  0.84587949  0.14714037  1
  O  O26  1  0.66056621  0.35286269  0.34591657  1
  O  O27  1  0.35941089  0.64713940  0.65410340  1
  O  O28  1  0.83027632  0.33077494  0.98898972  1
  O  O29  1  0.06929417  0.51102946  0.83078374  1
  O  O30  1  0.41106050  0.48898338  0.16924373  1
  O  O31  1  0.15006649  0.66920148  0.01103089  1
  O  O32  1  0.91106050  0.16924373  0.48898338  1
  O  O33  1  0.56929417  0.83078374  0.51102946  1
  O  O34  1  0.33027632  0.98898972  0.33077494  1
  O  O35  1  0.65006649  0.01103089  0.66920148  1
  O  O36  1  0.87959289  0.51951385  0.16431873  1
  O  O37  1  0.29392768  0.33569573  0.01950217  1
  O  O38  1  0.64914754  0.66429090  0.98046936  1
  O  O39  1  0.56339737  0.48047850  0.83573443  1
  O  O40  1  0.14914754  0.98046936  0.66429090  1
  O  O41  1  0.79392768  0.01950217  0.33569573  1
  O  O42  1  0.37959289  0.16431873  0.51951385  1
  O  O43  1  0.06339737  0.83573443  0.48047850  1
  O  O44  1  0.53604014  0.16337760  0.16794706  1
  O  O45  1  0.95399487  0.33208533  0.66335730  1
  O  O46  1  0.94945907  0.66791119  0.33663135  1
  O  O47  1  0.86737716  0.83665791  0.83205912  1
  O  O48  1  0.44945907  0.33663135  0.66791119  1
  O  O49  1  0.45399487  0.66335730  0.33208533  1
  O  O50  1  0.03604014  0.16794706  0.16337760  1
  O  O51  1  0.36737716  0.83205912  0.83665791  1
