# generated using pymatgen
data_K3Zr4Ag2F23
_symmetry_space_group_name_H-M   'P 1'
_cell_length_a   8.03283595
_cell_length_b   10.38308534
_cell_length_c   11.45152889
_cell_angle_alpha   90.00000000
_cell_angle_beta   90.00000000
_cell_angle_gamma   97.26402639
_symmetry_Int_Tables_number   1
_chemical_formula_structural   K3Zr4Ag2F23
_chemical_formula_sum   'K6 Zr8 Ag4 F46'
_cell_volume   947.45609649
_cell_formula_units_Z   2
loop_
 _symmetry_equiv_pos_site_id
 _symmetry_equiv_pos_as_xyz
  1  'x, y, z'
loop_
 _atom_site_type_symbol
 _atom_site_label
 _atom_site_symmetry_multiplicity
 _atom_site_fract_x
 _atom_site_fract_y
 _atom_site_fract_z
 _atom_site_occupancy
  K  K0  1  0.71182611  0.13639578  0.52087436  1
  K  K1  1  0.28817389  0.36360422  0.02087436  1
  K  K2  1  0.28817389  0.86360422  0.47912564  1
  K  K3  1  0.00000000  0.00000000  0.00000000  1
  K  K4  1  0.71182611  0.63639578  0.97912564  1
  K  K5  1  0.00000000  0.50000000  0.50000000  1
  Zr  Zr6  1  0.47417147  0.45793707  0.68221820  1
  Zr  Zr7  1  0.47417147  0.95793707  0.81778180  1
  Zr  Zr8  1  0.16706921  0.66158752  0.80584192  1
  Zr  Zr9  1  0.52582853  0.04206293  0.18221820  1
  Zr  Zr10  1  0.83293079  0.33841248  0.19415808  1
  Zr  Zr11  1  0.83293079  0.83841248  0.30584192  1
  Zr  Zr12  1  0.16706921  0.16158752  0.69415808  1
  Zr  Zr13  1  0.52582853  0.54206293  0.31778180  1
  Ag  Ag14  1  0.18157509  0.18671696  0.33946607  1
  Ag  Ag15  1  0.18157509  0.68671696  0.16053393  1
  Ag  Ag16  1  0.81842491  0.81328304  0.66053393  1
  Ag  Ag17  1  0.81842491  0.31328304  0.83946607  1
  F  F18  1  0.99693015  0.49858530  0.78329342  1
  F  F19  1  0.64496010  0.12229655  0.81530892  1
  F  F20  1  0.50000000  0.00000000  0.00000000  1
  F  F21  1  0.98113300  0.26324430  0.63930028  1
  F  F22  1  0.67844914  0.18480929  0.29048911  1
  F  F23  1  0.86082645  0.90924291  0.47438762  1
  F  F24  1  0.31077998  0.80951299  0.91507719  1
  F  F25  1  0.39065043  0.06848650  0.66301211  1
  F  F26  1  0.35503990  0.37770345  0.31530892  1
  F  F27  1  0.73708136  0.93862933  0.14719200  1
  F  F28  1  0.99693015  0.99858530  0.71670658  1
  F  F29  1  0.68922002  0.69048701  0.41507719  1
  F  F30  1  0.00306985  0.00141470  0.28329342  1
  F  F31  1  0.65145309  0.84682382  0.86514908  1
  F  F32  1  0.01886700  0.73675570  0.36069972  1
  F  F33  1  0.61845870  0.92446652  0.65796622  1
  F  F34  1  0.32155086  0.31519071  0.79048911  1
  F  F35  1  0.64496010  0.62229655  0.68469108  1
  F  F36  1  0.73708136  0.43862933  0.35280800  1
  F  F37  1  0.13917355  0.09075709  0.52561238  1
  F  F38  1  0.68922002  0.19048701  0.08492281  1
  F  F39  1  0.97548218  0.29106958  0.35508165  1
  F  F40  1  0.39065043  0.56848650  0.83698789  1
  F  F41  1  0.31077998  0.30951299  0.58492281  1
  F  F42  1  0.86082645  0.40924291  0.02561238  1
  F  F43  1  0.38154130  0.57553348  0.15796622  1
  F  F44  1  0.26291864  0.56137067  0.64719200  1
  F  F45  1  0.01886700  0.23675570  0.13930028  1
  F  F46  1  0.34854691  0.65317618  0.36514908  1
  F  F47  1  0.13917355  0.59075709  0.97438762  1
  F  F48  1  0.60934957  0.43151350  0.16301211  1
  F  F49  1  0.65145309  0.34682382  0.63485092  1
  F  F50  1  0.98113300  0.76324430  0.86069972  1
  F  F51  1  0.61845870  0.42446652  0.84203378  1
  F  F52  1  0.34854691  0.15317618  0.13485092  1
  F  F53  1  0.38154130  0.07553348  0.34203378  1
  F  F54  1  0.26291864  0.06137067  0.85280800  1
  F  F55  1  0.02451782  0.70893042  0.64491835  1
  F  F56  1  0.32155086  0.81519071  0.70951089  1
  F  F57  1  0.97548218  0.79106958  0.14491835  1
  F  F58  1  0.35503990  0.87770345  0.18469108  1
  F  F59  1  0.02451782  0.20893042  0.85508165  1
  F  F60  1  0.67844914  0.68480929  0.20951089  1
  F  F61  1  0.60934957  0.93151350  0.33698789  1
  F  F62  1  0.00306985  0.50141470  0.21670658  1
  F  F63  1  0.50000000  0.50000000  0.50000000  1
