# generated using pymatgen
data_BeAl6O10
_symmetry_space_group_name_H-M   'P 1'
_cell_length_a   9.00769882
_cell_length_b   9.64694901
_cell_length_c   13.95894282
_cell_angle_alpha   90.00000000
_cell_angle_beta   90.00000000
_cell_angle_gamma   90.02387117
_symmetry_Int_Tables_number   1
_chemical_formula_structural   BeAl6O10
_chemical_formula_sum   'Be8 Al48 O80'
_cell_volume   1212.98751426
_cell_formula_units_Z   8
loop_
 _symmetry_equiv_pos_site_id
 _symmetry_equiv_pos_as_xyz
  1  'x, y, z'
loop_
 _atom_site_type_symbol
 _atom_site_label
 _atom_site_symmetry_multiplicity
 _atom_site_fract_x
 _atom_site_fract_y
 _atom_site_fract_z
 _atom_site_occupancy
  Be  Be0  1  0.65595136  0.12766572  0.14539697  1
  Be  Be1  1  0.84404556  0.37439367  0.64441585  1
  Be  Be2  1  0.15595444  0.12560633  0.14441585  1
  Be  Be3  1  0.15595444  0.62560633  0.35558415  1
  Be  Be4  1  0.34404864  0.87233428  0.85460303  1
  Be  Be5  1  0.34404864  0.37233428  0.64539697  1
  Be  Be6  1  0.84404556  0.87439367  0.85558415  1
  Be  Be7  1  0.65595136  0.62766572  0.35460303  1
  Al  Al8  1  0.87730498  0.45503986  0.35947553  1
  Al  Al9  1  0.36531589  0.52995690  0.46041089  1
  Al  Al10  1  0.87101716  0.22029939  0.04116424  1
  Al  Al11  1  0.63428468  0.94148085  0.54252464  1
  Al  Al12  1  0.12269502  0.54496014  0.64052447  1
  Al  Al13  1  0.87730498  0.95503986  0.14052447  1
  Al  Al14  1  0.87016950  0.70552851  0.25163362  1
  Al  Al15  1  0.64644207  0.46114131  0.15524678  1
  Al  Al16  1  0.05861570  0.95877930  0.35056941  1
  Al  Al17  1  0.12983050  0.29447149  0.74836638  1
  Al  Al18  1  0.94138430  0.54122070  0.85056941  1
  Al  Al19  1  0.55665636  0.29469885  0.35103398  1
  Al  Al20  1  0.12269502  0.04496014  0.85947553  1
  Al  Al21  1  0.85959539  0.69271007  0.04195083  1
  Al  Al22  1  0.37033267  0.54572436  0.25169923  1
  Al  Al23  1  0.62303530  0.20512903  0.64040759  1
  Al  Al24  1  0.37696470  0.29487097  0.14040759  1
  Al  Al25  1  0.36531589  0.02995690  0.03958911  1
  Al  Al26  1  0.85445447  0.20975934  0.84426380  1
  Al  Al27  1  0.14554553  0.79024066  0.15573620  1
  Al  Al28  1  0.14040461  0.80728993  0.54195083  1
  Al  Al29  1  0.35355793  0.03885869  0.65524678  1
  Al  Al30  1  0.62303530  0.70512903  0.85959241  1
  Al  Al31  1  0.12983050  0.79447149  0.75163362  1
  Al  Al32  1  0.62966733  0.45427564  0.74830077  1
  Al  Al33  1  0.85959539  0.19271007  0.45804917  1
  Al  Al34  1  0.12898284  0.27970061  0.54116424  1
  Al  Al35  1  0.87101716  0.72029939  0.45883576  1
  Al  Al36  1  0.55665636  0.79469885  0.14896602  1
  Al  Al37  1  0.94138430  0.04122070  0.64943059  1
  Al  Al38  1  0.85445447  0.70975934  0.65573620  1
  Al  Al39  1  0.63468411  0.97004310  0.96041089  1
  Al  Al40  1  0.12898284  0.77970061  0.95883576  1
  Al  Al41  1  0.44334364  0.20530115  0.85103398  1
  Al  Al42  1  0.87016950  0.20552851  0.24836638  1
  Al  Al43  1  0.37033267  0.04572436  0.24830077  1
  Al  Al44  1  0.64644207  0.96114131  0.34475322  1
  Al  Al45  1  0.14040461  0.30728993  0.95804917  1
  Al  Al46  1  0.05861570  0.45877930  0.14943059  1
  Al  Al47  1  0.62966733  0.95427564  0.75169923  1
  Al  Al48  1  0.36571532  0.55851915  0.04252464  1
  Al  Al49  1  0.37696470  0.79487097  0.35959241  1
  Al  Al50  1  0.44334364  0.70530115  0.64896602  1
  Al  Al51  1  0.35355793  0.53885869  0.84475322  1
  Al  Al52  1  0.36571532  0.05851915  0.45747536  1
  Al  Al53  1  0.14554553  0.29024066  0.34426380  1
  Al  Al54  1  0.63428468  0.44148085  0.95747536  1
  Al  Al55  1  0.63468411  0.47004310  0.53958911  1
  O  O56  1  0.99192604  0.13760920  0.54984684  1
  O  O57  1  0.74657115  0.28135047  0.15102657  1
  O  O58  1  0.49552891  0.38319892  0.24320701  1
  O  O59  1  0.48079089  0.12853473  0.14855907  1
  O  O60  1  0.48079089  0.62853473  0.35144093  1
  O  O61  1  0.74657115  0.78135047  0.34897343  1
  O  O62  1  0.50447109  0.11680108  0.74320701  1
  O  O63  1  0.24411132  0.70568842  0.26235757  1
  O  O64  1  0.75838383  0.78912294  0.14880387  1
  O  O65  1  0.24874740  0.19939385  0.05381538  1
  O  O66  1  0.75502260  0.02899705  0.85009053  1
  O  O67  1  0.74113186  0.53916666  0.05208099  1
  O  O68  1  0.99958689  0.14849119  0.94076146  1
  O  O69  1  0.25886814  0.46083334  0.94791901  1
  O  O70  1  0.75502260  0.52899705  0.64990947  1
  O  O71  1  0.99192604  0.63760920  0.95015316  1
  O  O72  1  0.24867181  0.94687727  0.94406022  1
  O  O73  1  0.99109728  0.13066007  0.34439463  1
  O  O74  1  0.50264284  0.39539220  0.05941093  1
  O  O75  1  0.98094664  0.12331206  0.14636413  1
  O  O76  1  0.24161617  0.71087706  0.64880387  1
  O  O77  1  0.00807396  0.36239080  0.04984684  1
  O  O78  1  0.99109728  0.63066007  0.15560537  1
  O  O79  1  0.75132819  0.55312273  0.44406022  1
  O  O80  1  0.25886814  0.96083334  0.55208099  1
  O  O81  1  0.24497740  0.47100295  0.35009053  1
  O  O82  1  0.00041311  0.35150881  0.44076146  1
  O  O83  1  0.99958689  0.64849119  0.55923854  1
  O  O84  1  0.26020971  0.96098624  0.35011202  1
  O  O85  1  0.73979029  0.53901376  0.85011202  1
  O  O86  1  0.24161617  0.21087706  0.85119613  1
  O  O87  1  0.73979029  0.03901376  0.64988798  1
  O  O88  1  0.75125260  0.80060615  0.94618462  1
  O  O89  1  0.51920911  0.87146527  0.85144093  1
  O  O90  1  0.50264284  0.89539220  0.44058907  1
  O  O91  1  0.49735716  0.60460780  0.94058907  1
  O  O92  1  0.75513846  0.79031689  0.55578213  1
  O  O93  1  0.49552891  0.88319892  0.25679299  1
  O  O94  1  0.24867181  0.44687727  0.55593978  1
  O  O95  1  0.50663645  0.39202744  0.45017658  1
  O  O96  1  0.49336355  0.60797256  0.54982342  1
  O  O97  1  0.25342885  0.21864953  0.65102657  1
  O  O98  1  0.74465303  0.54566320  0.26179569  1
  O  O99  1  0.50812977  0.37938749  0.84666774  1
  O  O100  1  0.49187023  0.62061251  0.15333226  1
  O  O101  1  0.00890272  0.86933993  0.65560537  1
  O  O102  1  0.75588868  0.79431158  0.76235757  1
  O  O103  1  0.74465303  0.04566320  0.23820431  1
  O  O104  1  0.25534697  0.45433680  0.73820431  1
  O  O105  1  0.50812977  0.87938749  0.65333226  1
  O  O106  1  0.49735716  0.10460780  0.55941093  1
  O  O107  1  0.51920911  0.37146527  0.64855907  1
  O  O108  1  0.74113186  0.03916666  0.44791901  1
  O  O109  1  0.75513846  0.29031689  0.94421787  1
  O  O110  1  0.25534697  0.95433680  0.76179569  1
  O  O111  1  0.24411132  0.20568842  0.23764243  1
  O  O112  1  0.98094664  0.62331206  0.35363587  1
  O  O113  1  0.49187023  0.12061251  0.34666774  1
  O  O114  1  0.25342885  0.71864953  0.84897343  1
  O  O115  1  0.24874740  0.69939385  0.44618462  1
  O  O116  1  0.50447109  0.61680108  0.75679299  1
  O  O117  1  0.24497740  0.97100295  0.14990947  1
  O  O118  1  0.00460051  0.63121636  0.74323643  1
  O  O119  1  0.75588868  0.29431158  0.73764243  1
  O  O120  1  0.24486154  0.70968311  0.05578213  1
  O  O121  1  0.99539949  0.86878364  0.24323643  1
  O  O122  1  0.24486154  0.20968311  0.44421787  1
  O  O123  1  0.50663645  0.89202744  0.04982342  1
  O  O124  1  0.99539949  0.36878364  0.25676357  1
  O  O125  1  0.00807396  0.86239080  0.45015316  1
  O  O126  1  0.00890272  0.36933993  0.84439463  1
  O  O127  1  0.00041311  0.85150881  0.05923854  1
  O  O128  1  0.49336355  0.10797256  0.95017658  1
  O  O129  1  0.01905336  0.37668794  0.64636413  1
  O  O130  1  0.26020971  0.46098624  0.14988798  1
  O  O131  1  0.00460051  0.13121636  0.75676357  1
  O  O132  1  0.75132819  0.05312273  0.05593978  1
  O  O133  1  0.75838383  0.28912294  0.35119613  1
  O  O134  1  0.01905336  0.87668794  0.85363587  1
  O  O135  1  0.75125260  0.30060615  0.55381538  1
