# generated using pymatgen
data_Ag2BiO3
_symmetry_space_group_name_H-M   'P 1'
_cell_length_a   6.12362865
_cell_length_b   6.35944878
_cell_length_c   9.78772648
_cell_angle_alpha   90.00000000
_cell_angle_beta   91.76381313
_cell_angle_gamma   90.00000000
_symmetry_Int_Tables_number   1
_chemical_formula_structural   Ag2BiO3
_chemical_formula_sum   'Ag8 Bi4 O12'
_cell_volume   380.98188528
_cell_formula_units_Z   4
loop_
 _symmetry_equiv_pos_site_id
 _symmetry_equiv_pos_as_xyz
  1  'x, y, z'
loop_
 _atom_site_type_symbol
 _atom_site_label
 _atom_site_symmetry_multiplicity
 _atom_site_fract_x
 _atom_site_fract_y
 _atom_site_fract_z
 _atom_site_occupancy
  Ag  Ag0  1  0.25655407  0.23847972  0.48617028  1
  Ag  Ag1  1  0.02076285  0.50243309  0.25341979  1
  Ag  Ag2  1  0.46300625  0.99562036  0.74486306  1
  Ag  Ag3  1  0.75329589  0.24018362  0.50337095  1
  Ag  Ag4  1  0.25329589  0.75981638  0.00337095  1
  Ag  Ag5  1  0.96300625  0.00437964  0.24486306  1
  Ag  Ag6  1  0.52076285  0.49756691  0.75341979  1
  Ag  Ag7  1  0.75655407  0.76152028  0.98617028  1
  Bi  Bi8  1  0.50388180  0.26329330  0.10571149  1
  Bi  Bi9  1  0.00388180  0.73670670  0.60571149  1
  Bi  Bi10  1  0.49888086  0.74949210  0.39715379  1
  Bi  Bi11  1  0.99888086  0.25050790  0.89715379  1
  O  O12  1  0.38357262  0.55316234  0.22973994  1
  O  O13  1  0.17967559  0.08127200  0.06768622  1
  O  O14  1  0.80501260  0.56335431  0.43164336  1
  O  O15  1  0.60227558  0.99888625  0.26457145  1
  O  O16  1  0.88357262  0.44683766  0.72973994  1
  O  O17  1  0.82665653  0.44960237  0.04816190  1
  O  O18  1  0.67967559  0.91872800  0.56768622  1
  O  O19  1  0.18920535  0.92045027  0.43458778  1
  O  O20  1  0.32665653  0.55039763  0.54816190  1
  O  O21  1  0.68920535  0.07954973  0.93458778  1
  O  O22  1  0.30501260  0.43664569  0.93164336  1
  O  O23  1  0.10227558  0.00111375  0.76457145  1
