# generated using pymatgen
data_Cs3ClO
_symmetry_space_group_name_H-M   'P 1'
_cell_length_a   4.51795309
_cell_length_b   9.69647249
_cell_length_c   16.66595427
_cell_angle_alpha   90.00000000
_cell_angle_beta   90.00000000
_cell_angle_gamma   90.00000000
_symmetry_Int_Tables_number   1
_chemical_formula_structural   Cs3ClO
_chemical_formula_sum   'Cs12 Cl4 O4'
_cell_volume   730.10558865
_cell_formula_units_Z   4
loop_
 _symmetry_equiv_pos_site_id
 _symmetry_equiv_pos_as_xyz
  1  'x, y, z'
loop_
 _atom_site_type_symbol
 _atom_site_label
 _atom_site_symmetry_multiplicity
 _atom_site_fract_x
 _atom_site_fract_y
 _atom_site_fract_z
 _atom_site_occupancy
  Cs  Cs0  1  0.75000000  0.21202340  0.79163873  1
  Cs  Cs1  1  0.25000000  0.52592289  0.90172558  1
  Cs  Cs2  1  0.25000000  0.02592289  0.59827442  1
  Cs  Cs3  1  0.25000000  0.28797660  0.29163873  1
  Cs  Cs4  1  0.75000000  0.32752000  0.50107140  1
  Cs  Cs5  1  0.25000000  0.78797660  0.20836127  1
  Cs  Cs6  1  0.25000000  0.67248000  0.49892860  1
  Cs  Cs7  1  0.75000000  0.97407711  0.40172558  1
  Cs  Cs8  1  0.25000000  0.17248000  0.00107140  1
  Cs  Cs9  1  0.75000000  0.82752000  0.99892860  1
  Cs  Cs10  1  0.75000000  0.71202340  0.70836127  1
  Cs  Cs11  1  0.75000000  0.47407711  0.09827442  1
  Cl  Cl12  1  0.75000000  0.07745699  0.17245941  1
  Cl  Cl13  1  0.25000000  0.92254301  0.82754059  1
  Cl  Cl14  1  0.25000000  0.42254301  0.67245941  1
  Cl  Cl15  1  0.75000000  0.57745699  0.32754059  1
  O  O16  1  0.25000000  0.66649214  0.06172197  1
  O  O17  1  0.75000000  0.33350786  0.93827803  1
  O  O18  1  0.75000000  0.83350786  0.56172197  1
  O  O19  1  0.25000000  0.16649214  0.43827803  1
