# generated using pymatgen
data_Yb(ClO4)3
_symmetry_space_group_name_H-M   'P 1'
_cell_length_a   9.43058305
_cell_length_b   9.43058266
_cell_length_c   5.87820529
_cell_angle_alpha   90.00000000
_cell_angle_beta   90.00000000
_cell_angle_gamma   120.00000133
_symmetry_Int_Tables_number   1
_chemical_formula_structural   Yb(ClO4)3
_chemical_formula_sum   'Yb2 Cl6 O24'
_cell_volume   452.74373091
_cell_formula_units_Z   2
loop_
 _symmetry_equiv_pos_site_id
 _symmetry_equiv_pos_as_xyz
  1  'x, y, z'
loop_
 _atom_site_type_symbol
 _atom_site_label
 _atom_site_symmetry_multiplicity
 _atom_site_fract_x
 _atom_site_fract_y
 _atom_site_fract_z
 _atom_site_occupancy
  Yb  Yb0  1  0.66666700  0.33333300  0.75000000  1
  Yb  Yb1  1  0.33333300  0.66666700  0.25000000  1
  Cl  Cl2  1  0.29619065  0.90566499  0.75000000  1
  Cl  Cl3  1  0.70380935  0.09433501  0.25000000  1
  Cl  Cl4  1  0.60947434  0.70380935  0.75000000  1
  Cl  Cl5  1  0.39052566  0.29619065  0.25000000  1
  Cl  Cl6  1  0.09433501  0.39052566  0.75000000  1
  Cl  Cl7  1  0.90566499  0.60947434  0.25000000  1
  O  O8  1  0.78306501  0.80906629  0.75000000  1
  O  O9  1  0.96939268  0.43836293  0.75000000  1
  O  O10  1  0.46897024  0.03060732  0.75000000  1
  O  O11  1  0.19093371  0.97399872  0.75000000  1
  O  O12  1  0.97399872  0.78306501  0.25000000  1
  O  O13  1  0.46203499  0.26281485  0.45086350  1
  O  O14  1  0.19922014  0.46203499  0.95086350  1
  O  O15  1  0.53102976  0.96939268  0.25000000  1
  O  O16  1  0.53796501  0.73718515  0.95086350  1
  O  O17  1  0.03060732  0.56163707  0.25000000  1
  O  O18  1  0.02600128  0.21693499  0.75000000  1
  O  O19  1  0.26281485  0.80077986  0.54913650  1
  O  O20  1  0.80077986  0.53796501  0.45086350  1
  O  O21  1  0.46203499  0.26281485  0.04913650  1
  O  O22  1  0.53796501  0.73718515  0.54913650  1
  O  O23  1  0.26281485  0.80077986  0.95086350  1
  O  O24  1  0.80077986  0.53796501  0.04913650  1
  O  O25  1  0.56163707  0.53102976  0.75000000  1
  O  O26  1  0.43836293  0.46897024  0.25000000  1
  O  O27  1  0.19922014  0.46203499  0.54913650  1
  O  O28  1  0.73718515  0.19922014  0.04913650  1
  O  O29  1  0.21693499  0.19093371  0.25000000  1
  O  O30  1  0.73718515  0.19922014  0.45086350  1
  O  O31  1  0.80906629  0.02600128  0.25000000  1
