# generated using pymatgen
data_Ba2V5(PO6)4
_symmetry_space_group_name_H-M   'P 1'
_cell_length_a   7.81630526
_cell_length_b   11.79530580
_cell_length_c   13.27209765
_cell_angle_alpha   111.99580930
_cell_angle_beta   100.89979593
_cell_angle_gamma   103.71716708
_symmetry_Int_Tables_number   1
_chemical_formula_structural   Ba2V5(PO6)4
_chemical_formula_sum   'Ba4 V10 P8 O48'
_cell_volume   1048.43541727
_cell_formula_units_Z   2
loop_
 _symmetry_equiv_pos_site_id
 _symmetry_equiv_pos_as_xyz
  1  'x, y, z'
loop_
 _atom_site_type_symbol
 _atom_site_label
 _atom_site_symmetry_multiplicity
 _atom_site_fract_x
 _atom_site_fract_y
 _atom_site_fract_z
 _atom_site_occupancy
  Ba  Ba0  1  0.99459990  0.52624624  0.49614614  1
  Ba  Ba1  1  0.73827134  0.73344026  0.00000000  1
  Ba  Ba2  1  0.30546386  0.87999371  0.00000000  1
  Ba  Ba3  1  0.49845376  0.03010010  0.50385386  1
  V  V4  1  0.97682427  0.77079461  0.36313623  1
  V  V5  1  0.01145429  0.33535002  0.72390137  1
  V  V6  1  0.19561780  0.92976205  0.71402572  1
  V  V7  1  0.87729955  0.14576778  0.37359429  1
  V  V8  1  0.28755292  0.61144865  0.27609863  1
  V  V9  1  0.60778948  0.42824319  1.00000000  1
  V  V10  1  0.48159208  0.21573533  0.28597428  1
  V  V11  1  0.61368804  0.40765838  0.63686377  1
  V  V12  1  0.88148380  0.08427336  0.00000000  1
  V  V13  1  0.50370526  0.77217349  0.62640571  1
  P  P14  1  0.37675189  0.22275821  0.73972163  1
  P  P15  1  0.84441923  0.05856145  0.74402880  1
  P  P16  1  0.12978843  0.97744962  0.26525236  1
  P  P17  1  0.61885140  0.83596913  0.26253745  1
  P  P18  1  0.10039043  0.31453265  0.25597120  1
  P  P19  1  0.86453607  0.71219726  0.73474764  1
  P  P20  1  0.63703026  0.48303658  0.26027837  1
  P  P21  1  0.35631395  0.57343168  0.73746255  1
  O  O22  1  0.14854622  0.46436057  0.29851791  1
  O  O23  1  0.48712346  0.34954481  0.50507129  1
  O  O24  1  0.94902516  0.72804820  0.85367592  1
  O  O25  1  0.80387109  0.34453095  0.63651695  1
  O  O26  1  0.47614510  0.51779801  0.00000000  1
  O  O27  1  0.77231366  0.56412859  0.64482648  1
  O  O28  1  0.39152767  0.67871200  0.85489807  1
  O  O29  1  0.70997010  0.97937728  0.35696935  1
  O  O30  1  0.48727031  0.12870014  0.15823046  1
  O  O31  1  0.00437231  0.29026761  0.34233289  1
  O  O32  1  0.50500562  0.27320812  0.86319103  1
  O  O33  1  0.35300076  0.62240793  0.64303065  1
  O  O34  1  0.80685280  0.51639954  0.00000000  1
  O  O35  1  0.31237212  0.82430487  0.61518079  1
  O  O36  1  0.70166437  0.97440627  1.00000000  1
  O  O37  1  0.21485300  0.27421992  0.74428296  1
  O  O38  1  0.97533993  0.04062556  0.26460700  1
  O  O39  1  0.05203519  0.02586732  1.00000000  1
  O  O40  1  0.82538041  0.10913153  0.86680635  1
  O  O41  1  0.09534924  0.87437228  0.14632408  1
  O  O42  1  0.26958876  0.27394997  0.25719247  1
  O  O43  1  0.00480437  0.19520979  0.50413692  1
  O  O44  1  0.66203943  0.94793373  0.65766711  1
  O  O45  1  0.50066745  0.69107286  0.49586308  1
  O  O46  1  0.53662860  0.82381393  0.14510193  1
  O  O47  1  0.51610054  0.51296737  0.74372592  1
  O  O48  1  0.01239628  0.01675749  0.74280753  1
  O  O49  1  0.48814266  0.26623549  0.66727298  1
  O  O50  1  0.85002831  0.16584267  0.70148209  1
  O  O51  1  0.17645872  0.57281378  0.14749855  1
  O  O52  1  0.12748818  0.91930210  0.35517352  1
  O  O53  1  0.32726452  0.08045034  0.31989547  1
  O  O54  1  0.47669540  0.77683929  0.31354920  1
  O  O55  1  0.98205216  0.84447351  0.49492871  1
  O  O56  1  0.82086968  0.59896251  0.33272702  1
  O  O57  1  0.02896017  0.42531523  0.85250145  1
  O  O58  1  0.32903985  0.97046968  0.84176954  1
  O  O59  1  0.00736905  0.76055487  0.68010453  1
  O  O60  1  0.16314621  0.46329010  0.68645080  1
  O  O61  1  0.69719132  0.20912408  0.38481921  1
  O  O62  1  0.16735414  0.70801401  0.36348305  1
  O  O63  1  0.64089994  0.39603510  0.32234350  1
  O  O64  1  0.95857406  0.24232618  0.13319365  1
  O  O65  1  0.77237362  0.76924145  0.25627408  1
  O  O66  1  0.64181459  0.41001709  0.13680897  1
  O  O67  1  0.31855645  0.07369160  0.67765650  1
  O  O68  1  0.71073294  0.77601856  0.73539300  1
  O  O69  1  0.47056904  0.52993595  0.25571704  1
