# generated using pymatgen
data_Sr8Si2PtO14
_symmetry_space_group_name_H-M   'P 1'
_cell_length_a   5.79878950
_cell_length_b   7.27649474
_cell_length_c   9.98606907
_cell_angle_alpha   109.72131140
_cell_angle_beta   106.87906199
_cell_angle_gamma   90.00193307
_symmetry_Int_Tables_number   1
_chemical_formula_structural   Sr8Si2PtO14
_chemical_formula_sum   'Sr8 Si2 Pt1 O14'
_cell_volume   377.30486668
_cell_formula_units_Z   1
loop_
 _symmetry_equiv_pos_site_id
 _symmetry_equiv_pos_as_xyz
  1  'x, y, z'
loop_
 _atom_site_type_symbol
 _atom_site_label
 _atom_site_symmetry_multiplicity
 _atom_site_fract_x
 _atom_site_fract_y
 _atom_site_fract_z
 _atom_site_occupancy
  Sr  Sr0  1  0.47555834  0.20111183  0.95575382  1
  Sr  Sr1  1  0.10971359  0.45741562  0.18481325  1
  Sr  Sr2  1  0.16426104  0.99476620  0.33163752  1
  Sr  Sr3  1  0.31612837  0.71125614  0.62783803  1
  Sr  Sr4  1  0.51984437  0.79890908  0.04425168  1
  Sr  Sr5  1  0.83259259  0.00521304  0.66837169  1
  Sr  Sr6  1  0.92485904  0.54254163  0.81526126  1
  Sr  Sr7  1  0.68837574  0.28874511  0.37216744  1
  Si  Si8  1  0.69082524  0.70550893  0.34285427  1
  Si  Si9  1  0.34793159  0.29448339  0.65711885  1
  Pt  Pt10  1  -0.00336771  0.00000488  0.99999394  1
  O  O11  1  0.98818589  0.70051983  0.39183815  1
  O  O12  1  0.67787691  0.85973503  0.83971891  1
  O  O13  1  0.56248538  0.54023733  0.17519920  1
  O  O14  1  0.03038321  0.75873943  0.07541093  1
  O  O15  1  0.63469473  0.92873373  0.34713703  1
  O  O16  1  0.28746979  0.07127002  0.65284901  1
  O  O17  1  0.83836476  0.14041865  0.16033857  1
  O  O18  1  0.11916303  0.34614503  0.53603496  1
  O  O19  1  0.59634625  0.29944355  0.60816684  1
  O  O20  1  0.31730848  0.14229408  0.16097531  1
  O  O21  1  0.95517702  0.24129083  0.92459720  1
  O  O22  1  0.15616751  0.85759019  0.83898553  1
  O  O23  1  0.58302750  0.65385927  0.46391129  1
  O  O24  1  0.38722736  0.45976716  0.82477529  1
