# generated using pymatgen
data_RbB3O5
_symmetry_space_group_name_H-M   'P 1'
_cell_length_a   5.50282263
_cell_length_b   8.34060586
_cell_length_c   10.39062251
_cell_angle_alpha   90.00000000
_cell_angle_beta   90.00000000
_cell_angle_gamma   90.00000000
_symmetry_Int_Tables_number   1
_chemical_formula_structural   RbB3O5
_chemical_formula_sum   'Rb4 B12 O20'
_cell_volume   476.89709913
_cell_formula_units_Z   4
loop_
 _symmetry_equiv_pos_site_id
 _symmetry_equiv_pos_as_xyz
  1  'x, y, z'
loop_
 _atom_site_type_symbol
 _atom_site_label
 _atom_site_symmetry_multiplicity
 _atom_site_fract_x
 _atom_site_fract_y
 _atom_site_fract_z
 _atom_site_occupancy
  Rb  Rb0  1  0.50392032  0.20528750  0.86239407  1
  Rb  Rb1  1  0.49607968  0.70528750  0.63760593  1
  Rb  Rb2  1  0.99607968  0.79471250  0.36239407  1
  Rb  Rb3  1  0.00392032  0.29471250  0.13760593  1
  B  B4  1  0.03895331  0.06049780  0.68875324  1
  B  B5  1  0.71731516  0.11729938  0.53558486  1
  B  B6  1  0.78268484  0.88270062  0.03558486  1
  B  B7  1  0.96104669  0.56049780  0.81124676  1
  B  B8  1  0.08208264  0.84573852  0.85359087  1
  B  B9  1  0.53895331  0.43950220  0.31124676  1
  B  B10  1  0.28268484  0.61729938  0.96441514  1
  B  B11  1  0.58208264  0.65426148  0.14640913  1
  B  B12  1  0.91791736  0.34573852  0.64640913  1
  B  B13  1  0.41791736  0.15426148  0.35359087  1
  B  B14  1  0.46104669  0.93950220  0.18875324  1
  B  B15  1  0.21731516  0.38270062  0.46441514  1
  O  O16  1  0.21389975  0.22639622  0.42526257  1
  O  O17  1  0.71389975  0.27360378  0.57473743  1
  O  O18  1  0.36601082  0.49586425  0.39989881  1
  O  O19  1  0.57507399  0.05595208  0.43988237  1
  O  O20  1  0.68463354  0.54556551  0.24495088  1
  O  O21  1  0.92492601  0.94404792  0.93988237  1
  O  O22  1  0.06523781  0.22030779  0.71110603  1
  O  O23  1  0.31536646  0.04556551  0.25504912  1
  O  O24  1  0.86601082  0.00413575  0.60010119  1
  O  O25  1  0.13398918  0.50413575  0.89989881  1
  O  O26  1  0.07507399  0.44404792  0.56011763  1
  O  O27  1  0.42492601  0.55595208  0.06011763  1
  O  O28  1  0.18463354  0.95443449  0.75504912  1
  O  O29  1  0.93476219  0.72030779  0.78889397  1
  O  O30  1  0.43476219  0.77969221  0.21110603  1
  O  O31  1  0.63398918  0.99586425  0.10010119  1
  O  O32  1  0.56523781  0.27969221  0.28889397  1
  O  O33  1  0.81536646  0.45443449  0.74495088  1
  O  O34  1  0.78610025  0.72639622  0.07473743  1
  O  O35  1  0.28610025  0.77360378  0.92526257  1
