# generated using pymatgen
data_AlH12C4NF4
_symmetry_space_group_name_H-M   'P 1'
_cell_length_a   6.34186153
_cell_length_b   6.30212674
_cell_length_c   6.34754473
_cell_angle_alpha   90.49928094
_cell_angle_beta   89.98279213
_cell_angle_gamma   90.44068232
_symmetry_Int_Tables_number   1
_chemical_formula_structural   AlH12C4NF4
_chemical_formula_sum   'Al1 H12 C4 N1 F4'
_cell_volume   253.67654297
_cell_formula_units_Z   1
loop_
 _symmetry_equiv_pos_site_id
 _symmetry_equiv_pos_as_xyz
  1  'x, y, z'
loop_
 _atom_site_type_symbol
 _atom_site_label
 _atom_site_symmetry_multiplicity
 _atom_site_fract_x
 _atom_site_fract_y
 _atom_site_fract_z
 _atom_site_occupancy
  Al  Al0  1  0.01066035  -0.00010423  0.01060249  1
  H  H1  1  0.73451774  0.46795593  0.73486908  1
  H  H2  1  0.53258683  0.26543776  0.73389525  1
  H  H3  1  0.73398487  0.26550686  0.53260180  1
  H  H4  1  0.26535312  0.53308167  0.73392971  1
  H  H5  1  0.46669517  0.73629394  0.73527878  1
  H  H6  1  0.26590023  0.73436555  0.53370126  1
  H  H7  1  0.73427217  0.53297168  0.26508759  1
  H  H8  1  0.53355307  0.73405334  0.26646634  1
  H  H9  1  0.73574821  0.73587679  0.46669212  1
  H  H10  1  0.26563555  0.46597568  0.26629201  1
  H  H11  1  0.46583432  0.26441717  0.26429134  1
  H  H12  1  0.26480107  0.26401105  0.46567151  1
  C  C13  1  0.63633209  0.36400476  0.63650331  1
  C  C14  1  0.36378527  0.63705939  0.63698170  1
  C  C15  1  0.63723961  0.63671710  0.36392596  1
  C  C16  1  0.36315378  0.36238129  0.36319704  1
  N  N17  1  0.50016867  0.49997074  0.50012107  1
  F  F18  1  0.86367180  0.82690097  0.86338234  1
  F  F19  1  0.18479728  0.13257743  0.85441698  1
  F  F20  1  0.14129089  0.85735209  0.19563099  1
  F  F21  1  0.85411791  0.18319304  0.13056134  1
