# generated using pymatgen
data_Ba6CaEu2Cu6(HgO7)3
_symmetry_space_group_name_H-M   'P 1'
_cell_length_a   5.45618613
_cell_length_b   8.62736290
_cell_length_c   13.39713493
_cell_angle_alpha   97.36267295
_cell_angle_beta   78.25053715
_cell_angle_gamma   71.56588605
_symmetry_Int_Tables_number   1
_chemical_formula_structural   Ba6CaEu2Cu6(HgO7)3
_chemical_formula_sum   'Ba6 Ca1 Eu2 Cu6 Hg3 O21'
_cell_volume   573.01820882
_cell_formula_units_Z   1
loop_
 _symmetry_equiv_pos_site_id
 _symmetry_equiv_pos_as_xyz
  1  'x, y, z'
loop_
 _atom_site_type_symbol
 _atom_site_label
 _atom_site_symmetry_multiplicity
 _atom_site_fract_x
 _atom_site_fract_y
 _atom_site_fract_z
 _atom_site_occupancy
  Ba  Ba0  1  0.30157056  0.59945509  0.79740378  1
  Ba  Ba1  1  0.96870668  0.26535285  0.79723480  1
  Ba  Ba2  1  0.63659135  0.93179884  0.79501747  1
  Ba  Ba3  1  0.69796032  0.40131415  0.20276520  1
  Ba  Ba4  1  0.36509644  0.06721191  0.20259622  1
  Ba  Ba5  1  0.03007465  0.73486716  0.20498253  1
  Ca  Ca6  1  0.83333300  0.83333300  0.50000000  1
  Eu  Eu7  1  0.16786206  0.16429103  0.49998585  1
  Eu  Eu8  1  0.49880494  0.50237597  0.50001415  1
  Cu  Cu9  1  0.24473289  0.87762166  0.63291156  1
  Cu  Cu10  1  0.91073556  0.54607797  0.63245091  1
  Cu  Cu11  1  0.57914532  0.20924482  0.63246555  1
  Cu  Cu12  1  0.42193311  0.78904434  0.36708844  1
  Cu  Cu13  1  0.08752168  0.45742218  0.36753445  1
  Cu  Cu14  1  0.75593144  0.12058903  0.36754909  1
  Hg  Hg15  1  0.66648446  0.66673024  0.00030184  1
  Hg  Hg16  1  0.33333300  0.33333300  0.00000000  1
  Hg  Hg17  1  0.00018254  -0.00006324  -0.00030184  1
  O  O18  1  0.10874478  0.94540139  0.83710905  1
  O  O19  1  0.77567766  0.61243066  0.83621501  1
  O  O20  1  0.44224553  0.27895178  0.83655615  1
  O  O21  1  0.55792222  0.72126561  0.16289095  1
  O  O22  1  0.22442047  0.38771422  0.16344385  1
  O  O23  1  0.89098934  0.05423634  0.16378499  1
  O  O24  1  0.08979972  0.70526303  0.61880266  1
  O  O25  1  0.75509823  0.37261967  0.61747542  1
  O  O26  1  0.41866406  0.04075163  0.61882115  1
  O  O27  1  0.58613460  0.70526303  0.61880266  1
  O  O28  1  0.25480768  0.37261967  0.61747542  1
  O  O29  1  0.92176216  0.04075163  0.61882115  1
  O  O30  1  0.24800194  0.62591437  0.38117885  1
  O  O31  1  0.91156877  0.29404733  0.38252458  1
  O  O32  1  0.57686728  0.96140397  0.38119734  1
  O  O33  1  0.74490384  0.62591437  0.38117885  1
  O  O34  1  0.41185932  0.29404733  0.38252458  1
  O  O35  1  0.08053240  0.96140397  0.38119734  1
  O  O36  1  0.83333300  0.33333300  0.00000000  1
  O  O37  1  0.49961500  0.00157174  0.99919825  1
  O  O38  1  0.16705200  0.66509526  0.00080175  1
