# generated using pymatgen
data_SrIn4
_symmetry_space_group_name_H-M   'P 1'
_cell_length_a   5.26759358
_cell_length_b   6.64423434
_cell_length_c   9.67787589
_cell_angle_alpha   73.73893213
_cell_angle_beta   74.17810929
_cell_angle_gamma   66.34408675
_symmetry_Int_Tables_number   1
_chemical_formula_structural   SrIn4
_chemical_formula_sum   'Sr2 In8'
_cell_volume   292.85331391
_cell_formula_units_Z   2
loop_
 _symmetry_equiv_pos_site_id
 _symmetry_equiv_pos_as_xyz
  1  'x, y, z'
loop_
 _atom_site_type_symbol
 _atom_site_label
 _atom_site_symmetry_multiplicity
 _atom_site_fract_x
 _atom_site_fract_y
 _atom_site_fract_z
 _atom_site_occupancy
  Sr  Sr0  1  0.16604183  0.37688840  0.29116363  1
  Sr  Sr1  1  0.83395817  0.62311160  0.70883637  1
  In  In2  1  0.84717858  0.95537756  0.35013112  1
  In  In3  1  0.43642698  0.22990347  0.89933395  1
  In  In4  1  0.15282142  0.04462244  0.64986888  1
  In  In5  1  0.57740605  0.26865946  0.57658329  1
  In  In6  1  0.56357302  0.77009653  0.10066605  1
  In  In7  1  0.15059466  0.75125052  0.94798686  1
  In  In8  1  0.42259395  0.73134054  0.42341671  1
  In  In9  1  0.84940534  0.24874948  0.05201314  1
