# generated using pymatgen
data_Cs3Sb2Cl9
_symmetry_space_group_name_H-M   'P 1'
_cell_length_a   7.80929690
_cell_length_b   7.80929699
_cell_length_c   9.57374973
_cell_angle_alpha   90.00000000
_cell_angle_beta   90.00000000
_cell_angle_gamma   119.99999964
_symmetry_Int_Tables_number   1
_chemical_formula_structural   Cs3Sb2Cl9
_chemical_formula_sum   'Cs3 Sb2 Cl9'
_cell_volume   505.63435870
_cell_formula_units_Z   1
loop_
 _symmetry_equiv_pos_site_id
 _symmetry_equiv_pos_as_xyz
  1  'x, y, z'
loop_
 _atom_site_type_symbol
 _atom_site_label
 _atom_site_symmetry_multiplicity
 _atom_site_fract_x
 _atom_site_fract_y
 _atom_site_fract_z
 _atom_site_occupancy
  Cs  Cs0  1  0.33333300  0.66666700  0.32567169  1
  Cs  Cs1  1  0.66666700  0.33333300  0.67432831  1
  Cs  Cs2  1  0.00000000  0.00000000  0.00000000  1
  Sb  Sb3  1  0.33333300  0.66666700  0.82005785  1
  Sb  Sb4  1  0.66666700  0.33333300  0.17994215  1
  Cl  Cl5  1  0.53012291  0.53012291  0.00000000  1
  Cl  Cl6  1  0.35597080  0.20333035  0.32529488  1
  Cl  Cl7  1  1.00000000  0.46987709  0.00000000  1
  Cl  Cl8  1  0.84735955  0.64402920  0.32529488  1
  Cl  Cl9  1  0.15264045  0.79666965  0.67470512  1
  Cl  Cl10  1  0.46987709  0.00000000  0.00000000  1
  Cl  Cl11  1  0.20333035  0.35597080  0.67470512  1
  Cl  Cl12  1  0.79666965  0.15264045  0.32529488  1
  Cl  Cl13  1  0.64402920  0.84735955  0.67470512  1
