# generated using pymatgen
data_In2Cu3(PO4)4
_symmetry_space_group_name_H-M   'P 1'
_cell_length_a   7.99886151
_cell_length_b   8.91289883
_cell_length_c   9.08343781
_cell_angle_alpha   90.00000000
_cell_angle_beta   107.66538410
_cell_angle_gamma   90.00000000
_symmetry_Int_Tables_number   1
_chemical_formula_structural   In2Cu3(PO4)4
_chemical_formula_sum   'In4 Cu6 P8 O32'
_cell_volume   617.04900663
_cell_formula_units_Z   2
loop_
 _symmetry_equiv_pos_site_id
 _symmetry_equiv_pos_as_xyz
  1  'x, y, z'
loop_
 _atom_site_type_symbol
 _atom_site_label
 _atom_site_symmetry_multiplicity
 _atom_site_fract_x
 _atom_site_fract_y
 _atom_site_fract_z
 _atom_site_occupancy
  In  In0  1  0.24662735  0.49924186  0.24415307  1
  In  In1  1  0.75337265  0.50075814  0.75584693  1
  In  In2  1  0.25337265  0.99924186  0.75584693  1
  In  In3  1  0.74662735  0.00075814  0.24415307  1
  Cu  Cu4  1  0.38636356  0.87252508  0.40407562  1
  Cu  Cu5  1  0.88636356  0.62747492  0.40407562  1
  Cu  Cu6  1  0.00000000  0.00000000  0.00000000  1
  Cu  Cu7  1  0.61363644  0.12747492  0.59592438  1
  Cu  Cu8  1  0.50000000  0.50000000  0.00000000  1
  Cu  Cu9  1  0.11363644  0.37252508  0.59592438  1
  P  P10  1  0.85500782  0.68704424  0.08638723  1
  P  P11  1  0.14499218  0.31295576  0.91361277  1
  P  P12  1  0.64499218  0.18704424  0.91361277  1
  P  P13  1  0.84135372  0.83831383  0.59810558  1
  P  P14  1  0.15864628  0.16168617  0.40189442  1
  P  P15  1  0.35500782  0.81295576  0.08638723  1
  P  P16  1  0.34135372  0.66168617  0.59810558  1
  P  P17  1  0.65864628  0.33831383  0.40189442  1
  O  O18  1  0.33158757  0.08449284  0.40500347  1
  O  O19  1  0.49933004  0.60996528  0.72918328  1
  O  O20  1  0.10530309  0.36068502  0.06073781  1
  O  O21  1  0.37891738  0.64758160  0.43597930  1
  O  O22  1  0.87891738  0.85241840  0.43597930  1
  O  O23  1  0.83158757  0.41550716  0.40500347  1
  O  O24  1  0.68921855  0.16292588  0.40420899  1
  O  O25  1  0.00066996  0.10996528  0.27081672  1
  O  O26  1  0.50066996  0.39003472  0.27081672  1
  O  O27  1  0.18921855  0.33707412  0.40420899  1
  O  O28  1  0.12108262  0.14758160  0.56402070  1
  O  O29  1  0.39469691  0.86068502  0.93926219  1
  O  O30  1  0.81078145  0.66292588  0.59579101  1
  O  O31  1  0.66841243  0.91550716  0.59499653  1
  O  O32  1  0.50557341  0.86747907  0.23557204  1
  O  O33  1  0.99442659  0.36747907  0.76442796  1
  O  O34  1  0.15767543  0.13647413  0.91272574  1
  O  O35  1  0.16841243  0.58449284  0.59499653  1
  O  O36  1  0.68679860  0.62544999  0.11118922  1
  O  O37  1  0.31078145  0.83707412  0.59579101  1
  O  O38  1  0.65767543  0.36352587  0.91272574  1
  O  O39  1  0.00557341  0.63252093  0.23557204  1
  O  O40  1  0.99933004  0.89003472  0.72918328  1
  O  O41  1  0.81320140  0.12544999  0.88881078  1
  O  O42  1  0.34232457  0.63647413  0.08727426  1
  O  O43  1  0.60530309  0.13931498  0.06073781  1
  O  O44  1  0.18679860  0.87455001  0.11118922  1
  O  O45  1  0.89469691  0.63931498  0.93926219  1
  O  O46  1  0.84232457  0.86352587  0.08727426  1
  O  O47  1  0.49442659  0.13252093  0.76442796  1
  O  O48  1  0.31320140  0.37455001  0.88881078  1
  O  O49  1  0.62108262  0.35241840  0.56402070  1
