# generated using pymatgen
data_Li8Bi2(MoO4)7
_symmetry_space_group_name_H-M   'P 1'
_cell_length_a   5.38002571
_cell_length_b   15.44339040
_cell_length_c   15.44339018
_cell_angle_alpha   88.26134923
_cell_angle_beta   79.96874114
_cell_angle_gamma   79.96874076
_symmetry_Int_Tables_number   1
_chemical_formula_structural   Li8Bi2(MoO4)7
_chemical_formula_sum   'Li16 Bi4 Mo14 O56'
_cell_volume   1244.19620462
_cell_formula_units_Z   2
loop_
 _symmetry_equiv_pos_site_id
 _symmetry_equiv_pos_as_xyz
  1  'x, y, z'
loop_
 _atom_site_type_symbol
 _atom_site_label
 _atom_site_symmetry_multiplicity
 _atom_site_fract_x
 _atom_site_fract_y
 _atom_site_fract_z
 _atom_site_occupancy
  Li  Li0  1  0.91553329  0.50433992  0.99988536  1
  Li  Li1  1  0.56376311  0.30409252  0.55597346  1
  Li  Li2  1  0.50388768  0.75531263  0.24226286  1
  Li  Li3  1  0.43592183  0.44475073  0.69322074  1
  Li  Li4  1  0.25384946  0.24226286  0.24468737  1
  Li  Li5  1  0.87085743  0.69322074  0.55524927  1
  Li  Li6  1  0.88026343  0.55597346  0.69590748  1
  Li  Li7  1  0.74079969  0.75773714  0.75531263  1
  Li  Li8  1  0.42382909  0.69590748  0.44402654  1
  Li  Li9  1  0.41975857  0.49566008  0.00011464  1
  Li  Li10  1  0.13214437  0.44402654  0.30409252  1
  Li  Li11  1  0.11932744  0.30677926  0.44475073  1
  Li  Li12  1  0.50146216  0.24468737  0.75773714  1
  Li  Li13  1  0.57389330  0.55524927  0.30677926  1
  Li  Li14  1  0.08458135  0.99988536  0.49566008  1
  Li  Li15  1  0.58012680  0.00011464  0.50433992  1
  Bi  Bi16  1  0.99846125  0.85941133  0.14111898  1
  Bi  Bi17  1  0.86041978  0.14111898  0.14058867  1
  Bi  Bi18  1  0.14212842  0.85888102  0.85941133  1
  Bi  Bi19  1  0.99899056  0.14058867  0.85888102  1
  Mo  Mo20  1  0.73044024  0.18791943  0.37927323  1
  Mo  Mo21  1  0.91913444  0.81094742  0.37910874  1
  Mo  Mo22  1  0.26991814  0.62089126  0.81094742  1
  Mo  Mo23  1  0.89028653  0.37927323  0.81208057  1
  Mo  Mo24  1  0.63029720  0.73910893  0.00119192  1
  Mo  Mo25  1  0.63059387  0.99880808  0.73910893  1
  Mo  Mo26  1  0.36851088  0.00119192  0.26089107  1
  Mo  Mo27  1  0.50000000  0.00000000  0.00000000  1
  Mo  Mo28  1  0.08164033  0.62072677  0.18791943  1
  Mo  Mo29  1  0.37059805  0.26089107  0.99880808  1
  Mo  Mo30  1  0.70175682  0.37910874  0.18905258  1
  Mo  Mo31  1  0.25000000  0.50000000  0.50000000  1
  Mo  Mo32  1  0.10919060  0.18905258  0.62089126  1
  Mo  Mo33  1  0.29763290  0.81208057  0.62072677  1
  O  O34  1  0.74532413  0.43918643  0.90944833  1
  O  O35  1  0.60521825  0.62734411  0.00072034  1
  O  O36  1  0.65550291  0.35675657  0.75060076  1
  O  O37  1  0.24496843  0.00128355  0.09280961  1
  O  O38  1  0.76743764  0.99927966  0.62734411  1
  O  O39  1  0.31895487  0.81157339  0.00012336  1
  O  O40  1  0.94708384  0.27739883  0.16799408  1
  O  O41  1  0.14769942  0.10152731  0.24239291  1
  O  O42  1  0.60802800  0.16773384  0.27724525  1
  O  O43  1  0.90009197  0.90777566  0.44064236  1
  O  O44  1  0.65926567  0.44064236  0.09222434  1
  O  O45  1  0.24850999  0.09222434  0.55935764  1
  O  O46  1  0.38875644  0.09775459  0.75736132  1
  O  O47  1  0.74054380  0.73878189  0.44682717  1
  O  O48  1  0.26844851  0.55087417  0.25573414  1
  O  O49  1  0.44066369  0.56962561  0.43300528  1
  O  O50  1  0.34522754  0.90944833  0.56081357  1
  O  O51  1  0.85388224  0.75736132  0.90224541  1
  O  O52  1  0.39247574  0.72260117  0.83200592  1
  O  O53  1  0.88492309  0.16799408  0.72260117  1
  O  O54  1  0.86947074  0.99987664  0.81157339  1
  O  O55  1  0.24183685  0.75378178  0.35454924  1
  O  O56  1  0.75077228  0.75760709  0.10152731  1
  O  O57  1  0.92615285  0.26121811  0.55317283  1
  O  O58  1  0.24387235  0.90224541  0.24263868  1
  O  O59  1  0.44329458  0.43037439  0.56699472  1
  O  O60  1  0.75374802  0.90719039  0.00128355  1
  O  O61  1  0.13065262  0.18842661  0.99987664  1
  O  O62  1  0.60990768  0.24239291  0.89847269  1
  O  O63  1  0.59389633  0.75060076  0.64324343  1
  O  O64  1  0.52067431  0.55317283  0.73878189  1
  O  O65  1  0.09395889  0.56081357  0.09055167  1
  O  O66  1  0.40361491  0.35454924  0.24621822  1
  O  O67  1  0.39406141  0.00072034  0.37265589  1
  O  O68  1  0.68092077  0.00012336  0.18842661  1
  O  O69  1  0.00438137  0.64545076  0.75378178  1
  O  O70  1  0.35016787  0.24621822  0.64545076  1
  O  O71  1  0.98971070  0.56699472  0.56962561  1
  O  O72  1  0.11472675  0.27724525  0.83226616  1
  O  O73  1  0.47581735  0.25573414  0.44912583  1
  O  O74  1  0.33906159  0.99871645  0.90719039  1
  O  O75  1  0.81262904  0.44682717  0.26121811  1
  O  O76  1  0.66222196  0.09280961  0.99871645  1
  O  O77  1  0.77551834  0.83200592  0.27739883  1
  O  O78  1  0.22423815  0.72275475  0.16773384  1
  O  O79  1  0.76286023  0.64324343  0.24939924  1
  O  O80  1  0.23328270  0.37265589  0.99927966  1
  O  O81  1  0.07505682  0.44912583  0.74426586  1
  O  O82  1  0.18067732  0.74426586  0.55087417  1
  O  O83  1  0.49161963  0.89847269  0.75760709  1
  O  O84  1  0.12633103  0.43300528  0.43037439  1
  O  O85  1  0.05300710  0.83226616  0.72275475  1
  O  O86  1  0.51348897  0.24263868  0.09775459  1
  O  O87  1  0.19213237  0.55935764  0.90777566  1
  O  O88  1  0.98774052  0.24939924  0.35675657  1
  O  O89  1  0.81548944  0.09055167  0.43918643  1
