# generated using pymatgen
data_VBiPbO5
_symmetry_space_group_name_H-M   'P 1'
_cell_length_a   5.83139705
_cell_length_b   7.32906619
_cell_length_c   7.31773259
_cell_angle_alpha   106.28982187
_cell_angle_beta   112.39444474
_cell_angle_gamma   97.95068523
_symmetry_Int_Tables_number   1
_chemical_formula_structural   VBiPbO5
_chemical_formula_sum   'V2 Bi2 Pb2 O10'
_cell_volume   266.75239545
_cell_formula_units_Z   2
loop_
 _symmetry_equiv_pos_site_id
 _symmetry_equiv_pos_as_xyz
  1  'x, y, z'
loop_
 _atom_site_type_symbol
 _atom_site_label
 _atom_site_symmetry_multiplicity
 _atom_site_fract_x
 _atom_site_fract_y
 _atom_site_fract_z
 _atom_site_occupancy
  V  V0  1  0.57811965  0.37895636  0.30740108  1
  V  V1  1  0.26482247  0.07519228  0.60665511  1
  Bi  Bi2  1  0.01173852  0.98115675  0.98938485  1
  Bi  Bi3  1  0.83321704  0.47616320  0.92341440  1
  Pb  Pb4  1  0.23875980  0.61545377  0.64340705  1
  Pb  Pb5  1  0.60830688  0.84234203  0.26679945  1
  O  O6  1  0.68009090  0.73003529  0.93424873  1
  O  O7  1  0.05372056  0.94183983  0.67373196  1
  O  O8  1  0.08080152  0.02826649  0.33637318  1
  O  O9  1  0.37673624  0.33247493  0.75432257  1
  O  O10  1  0.16475052  0.72657980  0.97611703  1
  O  O11  1  0.47283415  0.12430880  0.15137542  1
  O  O12  1  0.31421989  0.46580385  0.27615033  1
  O  O13  1  0.52138923  0.97812634  0.64518523  1
  O  O14  1  0.77688095  0.52228664  0.23759440  1
  O  O15  1  0.76891269  0.41851265  0.57503923  1
