# generated using pymatgen
data_K2BiPWO8
_symmetry_space_group_name_H-M   'P 1'
_cell_length_a   7.15415654
_cell_length_b   12.37547238
_cell_length_c   12.37547215
_cell_angle_alpha   61.24832554
_cell_angle_beta   73.20227091
_cell_angle_gamma   73.20226339
_symmetry_Int_Tables_number   1
_chemical_formula_structural   K2BiPWO8
_chemical_formula_sum   'K8 Bi4 P4 W4 O32'
_cell_volume   904.80281080
_cell_formula_units_Z   4
loop_
 _symmetry_equiv_pos_site_id
 _symmetry_equiv_pos_as_xyz
  1  'x, y, z'
loop_
 _atom_site_type_symbol
 _atom_site_label
 _atom_site_symmetry_multiplicity
 _atom_site_fract_x
 _atom_site_fract_y
 _atom_site_fract_z
 _atom_site_occupancy
  K  K0  1  0.12395197  0.76579514  0.42238754  1
  K  K1  1  0.68798000  0.26580881  0.92233259  1
  K  K2  1  0.81202000  0.57766741  0.23419119  1
  K  K3  1  0.31202000  0.73419119  0.07766741  1
  K  K4  1  0.37604803  0.07761246  0.73420486  1
  K  K5  1  0.62395197  0.92238754  0.26579514  1
  K  K6  1  0.18798000  0.42233259  0.76580881  1
  K  K7  1  0.87604803  0.23420486  0.57761246  1
  Bi  Bi8  1  0.25000000  0.33032920  0.16967080  1
  Bi  Bi9  1  0.75000000  0.66967080  0.83032920  1
  Bi  Bi10  1  0.75000000  0.16967763  0.33032237  1
  Bi  Bi11  1  0.25000000  0.83032237  0.66967763  1
  P  P12  1  0.75000000  0.92687703  0.57312297  1
  P  P13  1  0.75000000  0.42687843  0.07312157  1
  P  P14  1  0.25000000  0.07312297  0.42687703  1
  P  P15  1  0.25000000  0.57312157  0.92687843  1
  W  W16  1  0.33177311  0.41819209  0.41820015  1
  W  W17  1  0.66822689  0.58180791  0.58179985  1
  W  W18  1  0.83177311  0.91820015  0.91819209  1
  W  W19  1  0.16822689  0.08179985  0.08180791  1
  O  O20  1  0.78519091  0.93853845  0.43855362  1
  O  O21  1  0.33770384  0.43855245  0.93853879  1
  O  O22  1  0.28173701  0.91819080  0.14374517  1
  O  O23  1  0.21826299  0.35625483  0.58180920  1
  O  O24  1  0.66229616  0.56144755  0.06146121  1
  O  O25  1  0.90707219  0.36013792  0.16184737  1
  O  O26  1  0.71826299  0.08180920  0.85625483  1
  O  O27  1  0.67865184  0.83283104  0.90126554  1
  O  O28  1  0.58719599  0.33284382  0.40126650  1
  O  O29  1  0.84367001  0.85627247  0.08179103  1
  O  O30  1  0.09292781  0.63986208  0.83815263  1
  O  O31  1  0.83770384  0.43853879  0.93855245  1
  O  O32  1  0.91280401  0.09873350  0.16715618  1
  O  O33  1  0.41280401  0.66715618  0.59873350  1
  O  O34  1  0.34367001  0.58179103  0.35627247  1
  O  O35  1  0.21480909  0.06146155  0.56144638  1
  O  O36  1  0.08719599  0.90126650  0.83284382  1
  O  O37  1  0.82134816  0.59873446  0.66716896  1
  O  O38  1  0.59292781  0.33815263  0.13986208  1
  O  O39  1  0.57094523  0.86013108  0.66184340  1
  O  O40  1  0.78173701  0.64374517  0.41819080  1
  O  O41  1  0.28519091  0.93855362  0.43853845  1
  O  O42  1  0.17865184  0.40126554  0.33283104  1
  O  O43  1  0.32134816  0.16716896  0.09873446  1
  O  O44  1  0.16229616  0.56146121  0.06144755  1
  O  O45  1  0.15632999  0.14372753  0.91820897  1
  O  O46  1  0.40707219  0.66184737  0.86013792  1
  O  O47  1  0.92905477  0.83815660  0.63986892  1
  O  O48  1  0.65632999  0.41820897  0.64372753  1
  O  O49  1  0.42905477  0.13986892  0.33815660  1
  O  O50  1  0.71480909  0.06144638  0.56146155  1
  O  O51  1  0.07094523  0.16184340  0.36013108  1
