# generated using pymatgen
data_K2Mo2H8O15
_symmetry_space_group_name_H-M   'P 1'
_cell_length_a   6.43289050
_cell_length_b   9.88203637
_cell_length_c   11.42819172
_cell_angle_alpha   77.59562979
_cell_angle_beta   79.81770082
_cell_angle_gamma   73.59413196
_symmetry_Int_Tables_number   1
_chemical_formula_structural   K2Mo2H8O15
_chemical_formula_sum   'K4 Mo4 H16 O30'
_cell_volume   675.39580963
_cell_formula_units_Z   2
loop_
 _symmetry_equiv_pos_site_id
 _symmetry_equiv_pos_as_xyz
  1  'x, y, z'
loop_
 _atom_site_type_symbol
 _atom_site_label
 _atom_site_symmetry_multiplicity
 _atom_site_fract_x
 _atom_site_fract_y
 _atom_site_fract_z
 _atom_site_occupancy
  K  K0  1  0.21983688  0.62228722  0.36574250  1
  K  K1  1  0.25016142  0.73406088  0.00626985  1
  K  K2  1  0.78016312  0.37771278  0.63425750  1
  K  K3  1  0.74983858  0.26593912  0.99373015  1
  Mo  Mo4  1  0.80843873  0.89359034  0.79065999  1
  Mo  Mo5  1  0.85086800  0.47028473  0.22986445  1
  Mo  Mo6  1  0.19156127  0.10640966  0.20934001  1
  Mo  Mo7  1  0.14913200  0.52971527  0.77013555  1
  H  H8  1  0.67807971  0.11312144  0.55881242  1
  H  H9  1  0.49498957  0.68567726  0.72789675  1
  H  H10  1  0.15588447  0.12182994  0.52260772  1
  H  H11  1  0.57218014  0.30189001  0.40266370  1
  H  H12  1  0.84411553  0.87817006  0.47739228  1
  H  H13  1  0.71251949  0.77112184  0.06835723  1
  H  H14  1  0.32192029  0.88687856  0.44118758  1
  H  H15  1  0.57251524  0.81117696  0.43212339  1
  H  H16  1  0.28748051  0.22887816  0.93164277  1
  H  H17  1  0.42748476  0.18882304  0.56787661  1
  H  H18  1  0.50501043  0.31432274  0.27210325  1
  H  H19  1  0.42781986  0.69810999  0.59733630  1
  H  H20  1  0.70636855  0.93337997  0.05656616  1
  H  H21  1  0.15613180  0.07506950  0.66464390  1
  H  H22  1  0.84386820  0.92493050  0.33535610  1
  H  H23  1  0.29363145  0.06662003  0.94343384  1
  O  O24  1  0.66231702  0.52243194  0.09821649  1
  O  O25  1  0.57530291  0.20767783  0.54259346  1
  O  O26  1  0.05562811  0.62019059  0.60935406  1
  O  O27  1  0.17507524  0.15186547  0.59576632  1
  O  O28  1  0.20070701  0.47424780  0.60910591  1
  O  O29  1  0.82492476  0.84813453  0.40423368  1
  O  O30  1  0.48483621  0.93691026  0.82428142  1
  O  O31  1  0.45184266  0.63173240  0.67689487  1
  O  O32  1  0.83706656  0.92778814  0.63350667  1
  O  O33  1  0.79428357  0.08471201  0.82544251  1
  O  O34  1  0.20571643  0.91528799  0.17455749  1
  O  O35  1  0.33768298  0.47756806  0.90178351  1
  O  O36  1  0.06348189  0.54915863  0.16675946  1
  O  O37  1  0.51516379  0.06308974  0.17571858  1
  O  O38  1  0.03256779  0.71664326  0.82228798  1
  O  O39  1  0.77287160  0.84964902  0.01704866  1
  O  O40  1  0.54815834  0.36826760  0.32310513  1
  O  O41  1  0.02025786  0.99313145  0.82059838  1
  O  O42  1  0.59998983  0.63539694  0.17333368  1
  O  O43  1  0.97974214  0.00686855  0.17940162  1
  O  O44  1  0.42469709  0.79232217  0.45740654  1
  O  O45  1  0.96743221  0.28335674  0.17771202  1
  O  O46  1  0.94437189  0.37980941  0.39064594  1
  O  O47  1  0.40001017  0.36460306  0.82666632  1
  O  O48  1  0.16293344  0.07221186  0.36649333  1
  O  O49  1  0.58256521  0.78117200  0.83044312  1
  O  O50  1  0.93651811  0.45084137  0.83324054  1
  O  O51  1  0.79929299  0.52575220  0.39089409  1
  O  O52  1  0.41743479  0.21882800  0.16955688  1
  O  O53  1  0.22712840  0.15035098  0.98295134  1
