# generated using pymatgen
data_TlCoCl3
_symmetry_space_group_name_H-M   'P 1'
_cell_length_a   12.15489689
_cell_length_b   12.15489661
_cell_length_c   5.89122649
_cell_angle_alpha   90.00000000
_cell_angle_beta   90.00000000
_cell_angle_gamma   120.00000073
_symmetry_Int_Tables_number   1
_chemical_formula_structural   TlCoCl3
_chemical_formula_sum   'Tl6 Co6 Cl18'
_cell_volume   753.77008303
_cell_formula_units_Z   6
loop_
 _symmetry_equiv_pos_site_id
 _symmetry_equiv_pos_as_xyz
  1  'x, y, z'
loop_
 _atom_site_type_symbol
 _atom_site_label
 _atom_site_symmetry_multiplicity
 _atom_site_fract_x
 _atom_site_fract_y
 _atom_site_fract_z
 _atom_site_occupancy
  Tl  Tl0  1  1.00000000  0.66660028  0.25062882  1
  Tl  Tl1  1  0.33339972  0.00000000  0.75062882  1
  Tl  Tl2  1  0.66660028  0.66660028  0.75062882  1
  Tl  Tl3  1  0.33339972  0.33339972  0.25062882  1
  Tl  Tl4  1  0.66660028  0.00000000  0.25062882  1
  Tl  Tl5  1  0.00000000  0.33339972  0.75062882  1
  Co  Co6  1  0.66666700  0.33333300  0.53563036  1
  Co  Co7  1  0.33333300  0.66666700  0.03563036  1
  Co  Co8  1  0.66666700  0.33333300  0.03563036  1
  Co  Co9  1  0.00000000  0.00000000  0.46365600  1
  Co  Co10  1  0.00000000  0.00000000  0.96365600  1
  Co  Co11  1  0.33333300  0.66666700  0.53563036  1
  Cl  Cl12  1  0.15845570  0.00000000  0.21149783  1
  Cl  Cl13  1  0.17498526  0.66684404  0.78743389  1
  Cl  Cl14  1  0.82501474  0.49185879  0.78743389  1
  Cl  Cl15  1  0.50814121  0.17498526  0.28743389  1
  Cl  Cl16  1  0.33315596  0.50814121  0.78743389  1
  Cl  Cl17  1  0.49185879  0.82501474  0.78743389  1
  Cl  Cl18  1  0.50814121  0.33315596  0.78743389  1
  Cl  Cl19  1  0.49185879  0.66684404  0.28743389  1
  Cl  Cl20  1  0.15845570  0.15845570  0.71149783  1
  Cl  Cl21  1  0.17498526  0.50814121  0.28743389  1
  Cl  Cl22  1  0.33315596  0.82501474  0.28743389  1
  Cl  Cl23  1  0.00000000  0.84154430  0.71149783  1
  Cl  Cl24  1  0.84154430  0.84154430  0.21149783  1
  Cl  Cl25  1  0.66684404  0.17498526  0.78743389  1
  Cl  Cl26  1  1.00000000  0.15845570  0.21149783  1
  Cl  Cl27  1  0.84154430  0.00000000  0.71149783  1
  Cl  Cl28  1  0.66684404  0.49185879  0.28743389  1
  Cl  Cl29  1  0.82501474  0.33315596  0.28743389  1
