# generated using pymatgen
data_NaVO3
_symmetry_space_group_name_H-M   'P 1'
_cell_length_a   3.65936310
_cell_length_b   5.49029788
_cell_length_c   14.59751528
_cell_angle_alpha   90.00000000
_cell_angle_beta   90.00000000
_cell_angle_gamma   90.00000000
_symmetry_Int_Tables_number   1
_chemical_formula_structural   NaVO3
_chemical_formula_sum   'Na4 V4 O12'
_cell_volume   293.27858417
_cell_formula_units_Z   4
loop_
 _symmetry_equiv_pos_site_id
 _symmetry_equiv_pos_as_xyz
  1  'x, y, z'
loop_
 _atom_site_type_symbol
 _atom_site_label
 _atom_site_symmetry_multiplicity
 _atom_site_fract_x
 _atom_site_fract_y
 _atom_site_fract_z
 _atom_site_occupancy
  Na  Na0  1  0.25000000  0.88831631  0.32724320  1
  Na  Na1  1  0.75000000  0.11168369  0.67275680  1
  Na  Na2  1  0.75000000  0.38831631  0.17275680  1
  Na  Na3  1  0.25000000  0.61168369  0.82724320  1
  V  V4  1  0.75000000  0.07321594  0.91486129  1
  V  V5  1  0.25000000  0.92678406  0.08513871  1
  V  V6  1  0.25000000  0.57321594  0.58513871  1
  V  V7  1  0.75000000  0.42678406  0.41486129  1
  O  O8  1  0.25000000  0.40929961  0.68360061  1
  O  O9  1  0.75000000  0.13135033  0.38826559  1
  O  O10  1  0.25000000  0.49579427  0.44834780  1
  O  O11  1  0.75000000  0.50420573  0.55165220  1
  O  O12  1  0.75000000  0.36864967  0.88826559  1
  O  O13  1  0.75000000  0.99579427  0.05165220  1
  O  O14  1  0.75000000  0.59070039  0.31639939  1
  O  O15  1  0.75000000  0.90929961  0.81639939  1
  O  O16  1  0.25000000  0.86864967  0.61173441  1
  O  O17  1  0.25000000  0.63135033  0.11173441  1
  O  O18  1  0.25000000  0.09070039  0.18360061  1
  O  O19  1  0.25000000  0.00420573  0.94834780  1
