# generated using pymatgen
data_Ba5P9
_symmetry_space_group_name_H-M   'P 1'
_cell_length_a   9.45378284
_cell_length_b   9.45378311
_cell_length_c   10.92576560
_cell_angle_alpha   105.12294354
_cell_angle_beta   105.12294406
_cell_angle_gamma   113.38918928
_symmetry_Int_Tables_number   1
_chemical_formula_structural   Ba5P9
_chemical_formula_sum   'Ba10 P18'
_cell_volume   788.62024887
_cell_formula_units_Z   2
loop_
 _symmetry_equiv_pos_site_id
 _symmetry_equiv_pos_as_xyz
  1  'x, y, z'
loop_
 _atom_site_type_symbol
 _atom_site_label
 _atom_site_symmetry_multiplicity
 _atom_site_fract_x
 _atom_site_fract_y
 _atom_site_fract_z
 _atom_site_occupancy
  Ba  Ba0  1  0.01113672  0.98391613  0.63342390  1
  Ba  Ba1  1  0.66080289  0.16080289  0.50000000  1
  Ba  Ba2  1  0.62771283  0.10049223  0.86657610  1
  Ba  Ba3  1  0.35049223  0.37771283  0.36657610  1
  Ba  Ba4  1  0.68209668  0.64995538  0.78183355  1
  Ba  Ba5  1  0.41080289  0.41080289  0.00000000  1
  Ba  Ba6  1  0.15026313  0.61812183  0.71816645  1
  Ba  Ba7  1  0.89995538  0.43209668  0.28183355  1
  Ba  Ba8  1  0.86812183  0.90026313  0.21816645  1
  Ba  Ba9  1  0.23391613  0.76113672  0.13342390  1
  P  P10  1  0.61411144  0.03744412  0.14569045  1
  P  P11  1  0.53179077  0.80525835  0.55715230  1
  P  P12  1  0.76747929  0.55682220  0.52033973  1
  P  P13  1  0.02590163  0.02590163  0.00000000  1
  P  P14  1  0.22463847  0.99810605  0.94284770  1
  P  P15  1  0.27590163  0.77590163  0.50000000  1
  P  P16  1  0.03648246  0.24713956  0.47966027  1
  P  P17  1  0.05525835  0.28179077  0.05715230  1
  P  P18  1  0.24810605  0.97463847  0.44284770  1
  P  P19  1  0.39127295  0.19265209  0.64770069  1
  P  P20  1  0.28744412  0.36411144  0.64569045  1
  P  P21  1  0.80682220  0.51747929  0.02033973  1
  P  P22  1  0.89175367  0.46842098  0.85430955  1
  P  P23  1  0.71842098  0.64175367  0.35430955  1
  P  P24  1  0.49713956  0.78648246  0.97966027  1
  P  P25  1  0.44265209  0.14127295  0.14770069  1
  P  P26  1  0.54495140  0.74357225  0.35229931  1
  P  P27  1  0.99357225  0.29495140  0.85229931  1
