# generated using pymatgen
data_HgI2
_symmetry_space_group_name_H-M   'P 1'
_cell_length_a   9.16695087
_cell_length_b   9.16695036
_cell_length_c   14.72197241
_cell_angle_alpha   108.13974361
_cell_angle_beta   108.13974248
_cell_angle_gamma   89.99999737
_symmetry_Int_Tables_number   1
_chemical_formula_structural   HgI2
_chemical_formula_sum   'Hg8 I16'
_cell_volume   1110.76215005
_cell_formula_units_Z   8
loop_
 _symmetry_equiv_pos_site_id
 _symmetry_equiv_pos_as_xyz
  1  'x, y, z'
loop_
 _atom_site_type_symbol
 _atom_site_label
 _atom_site_symmetry_multiplicity
 _atom_site_fract_x
 _atom_site_fract_y
 _atom_site_fract_z
 _atom_site_occupancy
  Hg  Hg0  1  0.18156667  0.68611934  0.37223868  1
  Hg  Hg1  1  0.18611934  0.68156667  0.87223868  1
  Hg  Hg2  1  0.69067201  0.68611934  0.37223868  1
  Hg  Hg3  1  0.30932799  0.31388066  0.62776132  1
  Hg  Hg4  1  0.81388066  0.31843333  0.12776132  1
  Hg  Hg5  1  0.18611934  0.19067201  0.87223868  1
  Hg  Hg6  1  0.81843333  0.31388066  0.62776132  1
  Hg  Hg7  1  0.81388066  0.80932799  0.12776132  1
  I  I8  1  0.50068679  0.75068679  0.50137358  1
  I  I9  1  0.00273878  0.75273878  0.50547757  1
  I  I10  1  0.38288887  0.11711113  0.75000000  1
  I  I11  1  0.99726122  0.24726122  0.49452243  1
  I  I12  1  0.38288887  0.63288887  0.75000000  1
  I  I13  1  0.13288887  0.36711113  0.25000000  1
  I  I14  1  0.86711113  0.11711113  0.75000000  1
  I  I15  1  0.25068679  0.00068679  0.00137358  1
  I  I16  1  0.61711113  0.88288887  0.25000000  1
  I  I17  1  0.13288887  0.88288887  0.25000000  1
  I  I18  1  0.74931321  0.99931321  0.99862642  1
  I  I19  1  0.74726122  0.49726122  0.99452243  1
  I  I20  1  0.61711113  0.36711113  0.25000000  1
  I  I21  1  0.49931321  0.24931321  0.49862642  1
  I  I22  1  0.25273878  0.50273878  0.00547757  1
  I  I23  1  0.86711113  0.63288887  0.75000000  1
