# generated using pymatgen
data_CdI2
_symmetry_space_group_name_H-M   'P 1'
_cell_length_a   4.33289120
_cell_length_b   4.33289146
_cell_length_c   29.63997593
_cell_angle_alpha   90.00000000
_cell_angle_beta   90.00000000
_cell_angle_gamma   119.99999802
_symmetry_Int_Tables_number   1
_chemical_formula_structural   CdI2
_chemical_formula_sum   'Cd4 I8'
_cell_volume   481.90793878
_cell_formula_units_Z   4
loop_
 _symmetry_equiv_pos_site_id
 _symmetry_equiv_pos_as_xyz
  1  'x, y, z'
loop_
 _atom_site_type_symbol
 _atom_site_label
 _atom_site_symmetry_multiplicity
 _atom_site_fract_x
 _atom_site_fract_y
 _atom_site_fract_z
 _atom_site_occupancy
  Cd  Cd0  1  0.33333300  0.66666700  0.06250000  1
  Cd  Cd1  1  0.00000000  0.00000000  0.81248237  1
  Cd  Cd2  1  0.66666700  0.33333300  0.31251763  1
  Cd  Cd3  1  0.33333300  0.66666700  0.56250000  1
  I  I4  1  0.33333300  0.66666700  0.37081944  1
  I  I5  1  0.00000000  0.00000000  0.50422882  1
  I  I6  1  0.33333300  0.66666700  0.75418056  1
  I  I7  1  0.66666700  0.33333300  0.62077118  1
  I  I8  1  0.66666700  0.33333300  0.87076175  1
  I  I9  1  0.00000000  0.00000000  0.00421985  1
  I  I10  1  0.00000000  0.00000000  0.25423825  1
  I  I11  1  0.66666700  0.33333300  0.12078015  1
