# generated using pymatgen
data_CdI2
_symmetry_space_group_name_H-M   'P 1'
_cell_length_a   4.33217933
_cell_length_b   4.33217960
_cell_length_c   44.38878253
_cell_angle_alpha   90.00000000
_cell_angle_beta   90.00000000
_cell_angle_gamma   119.99999803
_symmetry_Int_Tables_number   1
_chemical_formula_structural   CdI2
_chemical_formula_sum   'Cd6 I12'
_cell_volume   721.46746741
_cell_formula_units_Z   6
loop_
 _symmetry_equiv_pos_site_id
 _symmetry_equiv_pos_as_xyz
  1  'x, y, z'
loop_
 _atom_site_type_symbol
 _atom_site_label
 _atom_site_symmetry_multiplicity
 _atom_site_fract_x
 _atom_site_fract_y
 _atom_site_fract_z
 _atom_site_occupancy
  Cd  Cd0  1  0.66666700  0.33333300  0.04163627  1
  Cd  Cd1  1  0.33333300  0.66666700  0.20836112  1
  Cd  Cd2  1  0.33333300  0.66666700  0.54166429  1
  Cd  Cd3  1  0.33333300  0.66666700  0.70836180  1
  Cd  Cd4  1  0.00000000  0.00000000  0.37497651  1
  Cd  Cd5  1  0.33333300  0.66666700  0.87496982  1
  I  I6  1  0.00000000  0.00000000  0.16946388  1
  I  I7  1  0.33333300  0.66666700  0.08056175  1
  I  I8  1  0.33333300  0.66666700  0.33604173  1
  I  I9  1  0.00000000  0.00000000  0.83605871  1
  I  I10  1  0.66666700  0.33333300  0.58058943  1
  I  I11  1  0.66666700  0.33333300  0.41391079  1
  I  I12  1  0.00000000  0.00000000  0.00271579  1
  I  I13  1  0.66666700  0.33333300  0.91390601  1
  I  I14  1  0.66666700  0.33333300  0.24728253  1
  I  I15  1  0.00000000  0.00000000  0.66946500  1
  I  I16  1  0.00000000  0.00000000  0.50275406  1
  I  I17  1  0.66666700  0.33333300  0.74728052  1
