# generated using pymatgen
data_CdI2
_symmetry_space_group_name_H-M   'P 1'
_cell_length_a   4.33268477
_cell_length_b   4.33268504
_cell_length_c   67.07753097
_cell_angle_alpha   90.00000000
_cell_angle_beta   90.00000000
_cell_angle_gamma   119.99999799
_symmetry_Int_Tables_number   1
_chemical_formula_structural   CdI2
_chemical_formula_sum   'Cd9 I18'
_cell_volume   1090.49058765
_cell_formula_units_Z   9
loop_
 _symmetry_equiv_pos_site_id
 _symmetry_equiv_pos_as_xyz
  1  'x, y, z'
loop_
 _atom_site_type_symbol
 _atom_site_label
 _atom_site_symmetry_multiplicity
 _atom_site_fract_x
 _atom_site_fract_y
 _atom_site_fract_z
 _atom_site_occupancy
  Cd  Cd0  1  0.33333300  0.66666700  0.36107247  1
  Cd  Cd1  1  0.00000000  0.00000000  0.47223016  1
  Cd  Cd2  1  0.33333300  0.66666700  0.13888056  1
  Cd  Cd3  1  0.33333300  0.66666700  0.80558291  1
  Cd  Cd4  1  0.00000000  0.00000000  0.69443124  1
  Cd  Cd5  1  0.66666700  0.33333300  0.02781154  1
  Cd  Cd6  1  0.33333300  0.66666700  0.91665896  1
  Cd  Cd7  1  0.33333300  0.66666700  0.58331275  1
  Cd  Cd8  1  0.66666700  0.33333300  0.25002049  1
  I  I9  1  0.00000000  0.00000000  0.22430192  1
  I  I10  1  0.33333300  0.66666700  0.66867625  1
  I  I11  1  0.66666700  0.33333300  0.72017731  1
  I  I12  1  0.33333300  0.66666700  0.27574991  1
  I  I13  1  0.00000000  0.00000000  0.77983900  1
  I  I14  1  0.00000000  0.00000000  0.11312502  1
  I  I15  1  0.66666700  0.33333300  0.83133107  1
  I  I16  1  0.33333300  0.66666700  0.05353722  1
  I  I17  1  0.66666700  0.33333300  0.49796426  1
  I  I18  1  0.66666700  0.33333300  0.60904810  1
  I  I19  1  0.00000000  0.00000000  0.00209142  1
  I  I20  1  0.33333300  0.66666700  0.44649798  1
  I  I21  1  0.00000000  0.00000000  0.55758449  1
  I  I22  1  0.66666700  0.33333300  0.38679921  1
  I  I23  1  0.66666700  0.33333300  0.94237138  1
  I  I24  1  0.00000000  0.00000000  0.33533693  1
  I  I25  1  0.66666700  0.33333300  0.16460886  1
  I  I26  1  0.00000000  0.00000000  0.89095858  1
