# generated using pymatgen
data_Na2VOF4
_symmetry_space_group_name_H-M   'P 1'
_cell_length_a   6.85193549
_cell_length_b   8.29575552
_cell_length_c   8.29575592
_cell_angle_alpha   78.15765293
_cell_angle_beta   77.08836762
_cell_angle_gamma   77.08836112
_symmetry_Int_Tables_number   1
_chemical_formula_structural   Na2VOF4
_chemical_formula_sum   'Na8 V4 O4 F16'
_cell_volume   441.97828362
_cell_formula_units_Z   4
loop_
 _symmetry_equiv_pos_site_id
 _symmetry_equiv_pos_as_xyz
  1  'x, y, z'
loop_
 _atom_site_type_symbol
 _atom_site_label
 _atom_site_symmetry_multiplicity
 _atom_site_fract_x
 _atom_site_fract_y
 _atom_site_fract_z
 _atom_site_occupancy
  Na  Na0  1  0.62514362  0.00024922  0.79396160  1
  Na  Na1  1  0.96677495  0.56864639  0.76207277  1
  Na  Na2  1  0.46677495  0.76207277  0.56864639  1
  Na  Na3  1  0.03322505  0.43135361  0.23792723  1
  Na  Na4  1  0.53322505  0.23792723  0.43135361  1
  Na  Na5  1  0.12514362  0.79396160  0.00024922  1
  Na  Na6  1  0.37485638  0.99975078  0.20603840  1
  Na  Na7  1  0.87485638  0.20603840  0.99975078  1
  V  V8  1  0.58280997  0.60078862  0.12851437  1
  V  V9  1  0.91719003  0.87148563  0.39921138  1
  V  V10  1  0.08280997  0.12851437  0.60078862  1
  V  V11  1  0.41719003  0.39921138  0.87148563  1
  O  O12  1  0.01183634  0.31592125  0.65505315  1
  O  O13  1  0.51183634  0.65505315  0.31592125  1
  O  O14  1  0.48816366  0.34494685  0.68407875  1
  O  O15  1  0.98816366  0.68407875  0.34494685  1
  F  F16  1  0.27256845  0.62760868  0.79628897  1
  F  F17  1  0.65078019  0.96381330  0.34264522  1
  F  F18  1  0.84921981  0.65735478  0.03618670  1
  F  F19  1  0.96205765  0.00302597  0.81513980  1
  F  F20  1  0.15078019  0.34264522  0.96381330  1
  F  F21  1  0.15571859  0.88820798  0.49149749  1
  F  F22  1  0.34921981  0.03618670  0.65735478  1
  F  F23  1  0.84428141  0.11179202  0.50850251  1
  F  F24  1  0.22743155  0.20371103  0.37239132  1
  F  F25  1  0.03794235  0.99697403  0.18486020  1
  F  F26  1  0.72743155  0.37239132  0.20371103  1
  F  F27  1  0.46205765  0.81513980  0.00302597  1
  F  F28  1  0.65571859  0.49149749  0.88820798  1
  F  F29  1  0.77256845  0.79628897  0.62760868  1
  F  F30  1  0.53794235  0.18486020  0.99697403  1
  F  F31  1  0.34428141  0.50850251  0.11179202  1
