# generated using pymatgen
data_CdI2
_symmetry_space_group_name_H-M   'P 1'
_cell_length_a   4.33283069
_cell_length_b   4.33283096
_cell_length_c   59.28796711
_cell_angle_alpha   90.00000000
_cell_angle_beta   90.00000000
_cell_angle_gamma   119.99999799
_symmetry_Int_Tables_number   1
_chemical_formula_structural   CdI2
_chemical_formula_sum   'Cd8 I16'
_cell_volume   963.91927528
_cell_formula_units_Z   8
loop_
 _symmetry_equiv_pos_site_id
 _symmetry_equiv_pos_as_xyz
  1  'x, y, z'
loop_
 _atom_site_type_symbol
 _atom_site_label
 _atom_site_symmetry_multiplicity
 _atom_site_fract_x
 _atom_site_fract_y
 _atom_site_fract_z
 _atom_site_occupancy
  Cd  Cd0  1  0.33333300  0.66666700  0.53125000  1
  Cd  Cd1  1  0.33333300  0.66666700  0.78124911  1
  Cd  Cd2  1  0.66666700  0.33333300  0.40625494  1
  Cd  Cd3  1  0.33333300  0.66666700  0.03125000  1
  Cd  Cd4  1  0.00000000  0.00000000  0.65624506  1
  Cd  Cd5  1  0.66666700  0.33333300  0.15625776  1
  Cd  Cd6  1  0.00000000  0.00000000  0.90624224  1
  Cd  Cd7  1  0.33333300  0.66666700  0.28125089  1
  I  I8  1  0.33333300  0.66666700  0.62710267  1
  I  I9  1  0.00000000  0.00000000  0.00213035  1
  I  I10  1  0.00000000  0.00000000  0.37713700  1
  I  I11  1  0.33333300  0.66666700  0.18539982  1
  I  I12  1  0.66666700  0.33333300  0.81036479  1
  I  I13  1  0.66666700  0.33333300  0.56036391  1
  I  I14  1  0.66666700  0.33333300  0.93536113  1
  I  I15  1  0.00000000  0.00000000  0.25213521  1
  I  I16  1  0.00000000  0.00000000  0.12713887  1
  I  I17  1  0.66666700  0.33333300  0.68536300  1
  I  I18  1  0.66666700  0.33333300  0.06036965  1
  I  I19  1  0.00000000  0.00000000  0.75213402  1
  I  I20  1  0.33333300  0.66666700  0.43539733  1
  I  I21  1  0.33333300  0.66666700  0.87710018  1
  I  I22  1  0.66666700  0.33333300  0.31036598  1
  I  I23  1  0.00000000  0.00000000  0.50213609  1
