# generated using pymatgen
data_Ta5Ga3
_symmetry_space_group_name_H-M   'P 1'
_cell_length_a   5.15574083
_cell_length_b   7.70535808
_cell_length_c   7.70535808
_cell_angle_alpha   83.57356674
_cell_angle_beta   70.45448868
_cell_angle_gamma   70.45448868
_symmetry_Int_Tables_number   1
_chemical_formula_structural   Ta5Ga3
_chemical_formula_sum   'Ta10 Ga6'
_cell_volume   271.84741263
_cell_formula_units_Z   2
loop_
 _symmetry_equiv_pos_site_id
 _symmetry_equiv_pos_as_xyz
  1  'x, y, z'
loop_
 _atom_site_type_symbol
 _atom_site_label
 _atom_site_symmetry_multiplicity
 _atom_site_fract_x
 _atom_site_fract_y
 _atom_site_fract_z
 _atom_site_occupancy
  Ta  Ta0  1  0.72219819  0.85335557  0.70224806  1
  Ta  Ta1  1  0.27780181  0.14664443  0.29775194  1
  Ta  Ta2  1  0.77780181  0.29775194  0.14664443  1
  Ta  Ta3  1  0.22219819  0.70224806  0.85335557  1
  Ta  Ta4  1  0.57555375  0.70224806  0.14664443  1
  Ta  Ta5  1  0.42444625  0.29775194  0.85335557  1
  Ta  Ta6  1  0.07555375  0.14664443  0.70224806  1
  Ta  Ta7  1  0.92444625  0.85335557  0.29775194  1
  Ta  Ta8  1  0.75000000  0.50000000  0.50000000  1
  Ta  Ta9  1  0.25000000  0.50000000  0.50000000  1
  Ga  Ga10  1  0.16544409  0.50000000  0.16911182  1
  Ga  Ga11  1  0.83455591  0.50000000  0.83088818  1
  Ga  Ga12  1  0.33455591  0.83088818  0.50000000  1
  Ga  Ga13  1  0.66544409  0.16911182  0.50000000  1
  Ga  Ga14  1  0.25000000  0.00000000  -0.00000000  1
  Ga  Ga15  1  0.75000000  0.00000000  -0.00000000  1
