# generated using pymatgen
data_NbTe4
_symmetry_space_group_name_H-M   'P 1'
_cell_length_a   13.25104310
_cell_length_b   13.25104310
_cell_length_c   20.98175049
_cell_angle_alpha   90.00000000
_cell_angle_beta   90.00000000
_cell_angle_gamma   90.00000000
_symmetry_Int_Tables_number   1
_chemical_formula_structural   NbTe4
_chemical_formula_sum   'Nb24 Te96'
_cell_volume   3684.18857392
_cell_formula_units_Z   24
loop_
 _symmetry_equiv_pos_site_id
 _symmetry_equiv_pos_as_xyz
  1  'x, y, z'
loop_
 _atom_site_type_symbol
 _atom_site_label
 _atom_site_symmetry_multiplicity
 _atom_site_fract_x
 _atom_site_fract_y
 _atom_site_fract_z
 _atom_site_occupancy
  Nb  Nb0  1  0.50000000  0.50000000  0.26045707  1
  Nb  Nb1  1  0.50000000  0.00000000  0.57994348  1
  Nb  Nb2  1  0.00000000  0.50000000  0.73349125  1
  Nb  Nb3  1  0.50000000  0.50000000  0.56661787  1
  Nb  Nb4  1  0.00000000  0.00000000  0.74883884  1
  Nb  Nb5  1  0.00000000  0.00000000  0.59558339  1
  Nb  Nb6  1  0.00000000  0.50000000  0.23266945  1
  Nb  Nb7  1  0.50000000  0.50000000  0.91320742  1
  Nb  Nb8  1  0.50000000  0.00000000  0.73349125  1
  Nb  Nb9  1  0.50000000  0.00000000  0.23266945  1
  Nb  Nb10  1  0.00000000  0.00000000  0.40045680  1
  Nb  Nb11  1  0.00000000  0.00000000  0.90066085  1
  Nb  Nb12  1  0.00000000  0.50000000  0.92695608  1
  Nb  Nb13  1  0.50000000  0.50000000  0.76133964  1
  Nb  Nb14  1  0.00000000  0.00000000  0.09550813  1
  Nb  Nb15  1  0.00000000  0.50000000  0.57994348  1
  Nb  Nb16  1  0.00000000  0.50000000  0.07957292  1
  Nb  Nb17  1  0.50000000  0.00000000  0.92695608  1
  Nb  Nb18  1  0.50000000  0.50000000  0.41260901  1
  Nb  Nb19  1  0.00000000  0.00000000  0.24867481  1
  Nb  Nb20  1  0.50000000  0.00000000  0.07957292  1
  Nb  Nb21  1  0.00000000  0.50000000  0.42664832  1
  Nb  Nb22  1  0.50000000  0.00000000  0.42664832  1
  Nb  Nb23  1  0.50000000  0.50000000  0.06664114  1
  Te  Te24  1  0.93781531  0.15299366  0.49822751  1
  Te  Te25  1  0.55931987  0.84468098  0.83102667  1
  Te  Te26  1  0.84468098  0.44068013  0.83102667  1
  Te  Te27  1  0.34505570  0.05929699  0.32906730  1
  Te  Te28  1  0.07627509  0.33637860  0.16069927  1
  Te  Te29  1  0.65290436  0.56396570  0.16301305  1
  Te  Te30  1  0.42166388  0.83702935  0.99897268  1
  Te  Te31  1  0.57818326  0.33721819  0.83344339  1
  Te  Te32  1  0.92364904  0.33657429  0.66130718  1
  Te  Te33  1  0.07341733  0.33616428  0.49975368  1
  Te  Te34  1  0.15531902  0.55931987  0.83102667  1
  Te  Te35  1  0.15299366  0.06218469  0.49822751  1
  Te  Te36  1  0.92372491  0.66362140  0.16069927  1
  Te  Te37  1  0.93755228  0.84704107  0.99829324  1
  Te  Te38  1  0.57826366  0.66260245  0.33263165  1
  Te  Te39  1  0.83547897  0.57152890  0.66036327  1
  Te  Te40  1  0.33585614  0.07333111  0.99971236  1
  Te  Te41  1  0.55910469  0.15528826  0.33024825  1
  Te  Te42  1  0.56786753  0.66685395  0.99407352  1
  Te  Te43  1  0.83371885  0.93015487  0.16768553  1
  Te  Te44  1  0.65252567  0.43595739  0.66353226  1
  Te  Te45  1  0.16266331  0.57827783  0.49893548  1
  Te  Te46  1  0.84704107  0.06244772  0.99829324  1
  Te  Te47  1  0.33739755  0.57826366  0.33263165  1
  Te  Te48  1  0.06244772  0.15295893  0.99829324  1
  Te  Te49  1  0.57183144  0.83542269  0.15976513  1
  Te  Te50  1  0.56396570  0.34709564  0.16301305  1
  Te  Te51  1  0.84700634  0.93781531  0.49822751  1
  Te  Te52  1  0.83733669  0.42172217  0.49893548  1
  Te  Te53  1  0.33657429  0.07635096  0.66130718  1
  Te  Te54  1  0.92186573  0.83707532  0.32840470  1
  Te  Te55  1  0.43603430  0.65290436  0.16301305  1
  Te  Te56  1  0.16452103  0.42847110  0.66036327  1
  Te  Te57  1  0.94053507  0.65513788  0.82967141  1
  Te  Te58  1  0.42816856  0.16457731  0.15976513  1
  Te  Te59  1  0.93015487  0.16628115  0.16768553  1
  Te  Te60  1  0.66685395  0.43213247  0.99407352  1
  Te  Te61  1  0.66414386  0.92666889  0.99971236  1
  Te  Te62  1  0.66362140  0.07627509  0.16069927  1
  Te  Te63  1  0.56404261  0.65252567  0.66353226  1
  Te  Te64  1  0.34486212  0.94053507  0.82967141  1
  Te  Te65  1  0.43595739  0.34747433  0.66353226  1
  Te  Te66  1  0.42172217  0.16266331  0.49893548  1
  Te  Te67  1  0.34709564  0.43603430  0.16301305  1
  Te  Te68  1  0.83542269  0.42816856  0.15976513  1
  Te  Te69  1  0.44068013  0.15531902  0.83102667  1
  Te  Te70  1  0.56766561  0.33333007  0.49379470  1
  Te  Te71  1  0.33637860  0.92372491  0.16069927  1
  Te  Te72  1  0.65494430  0.94070301  0.32906730  1
  Te  Te73  1  0.66342571  0.92364904  0.66130718  1
  Te  Te74  1  0.92666889  0.33585614  0.99971236  1
  Te  Te75  1  0.93025607  0.83368574  0.66783174  1
  Te  Te76  1  0.83702935  0.57833612  0.99897268  1
  Te  Te77  1  0.94070301  0.34505570  0.32906730  1
  Te  Te78  1  0.15295893  0.93755228  0.99829324  1
  Te  Te79  1  0.83368574  0.06974393  0.66783174  1
  Te  Te80  1  0.33314605  0.56786753  0.99407352  1
  Te  Te81  1  0.16294000  0.07803339  0.82863152  1
  Te  Te82  1  0.83706000  0.92196661  0.82863152  1
  Te  Te83  1  0.06984513  0.83371885  0.16768553  1
  Te  Te84  1  0.16292468  0.92186573  0.32840470  1
  Te  Te85  1  0.16457731  0.57183144  0.15976513  1
  Te  Te86  1  0.66278181  0.57818326  0.83344339  1
  Te  Te87  1  0.66666993  0.56766561  0.49379470  1
  Te  Te88  1  0.16631426  0.93025607  0.66783174  1
  Te  Te89  1  0.34747433  0.56404261  0.66353226  1
  Te  Te90  1  0.16297065  0.42166388  0.99897268  1
  Te  Te91  1  0.42181674  0.66278181  0.83344339  1
  Te  Te92  1  0.06974393  0.16631426  0.66783174  1
  Te  Te93  1  0.07635096  0.66342571  0.66130718  1
  Te  Te94  1  0.07803339  0.83706000  0.82863152  1
  Te  Te95  1  0.43213247  0.33314605  0.99407352  1
  Te  Te96  1  0.05946493  0.34486212  0.82967141  1
  Te  Te97  1  0.05929699  0.65494430  0.32906730  1
  Te  Te98  1  0.33333007  0.43233439  0.49379470  1
  Te  Te99  1  0.33616428  0.92658267  0.49975368  1
  Te  Te100  1  0.92196661  0.16294000  0.82863152  1
  Te  Te101  1  0.07333111  0.66414386  0.99971236  1
  Te  Te102  1  0.16628115  0.06984513  0.16768553  1
  Te  Te103  1  0.57833612  0.16297065  0.99897268  1
  Te  Te104  1  0.65513788  0.05946493  0.82967141  1
  Te  Te105  1  0.92658267  0.66383572  0.49975368  1
  Te  Te106  1  0.06218469  0.84700634  0.49822751  1
  Te  Te107  1  0.42847110  0.83547897  0.66036327  1
  Te  Te108  1  0.43233439  0.66666993  0.49379470  1
  Te  Te109  1  0.15528826  0.44089531  0.33024825  1
  Te  Te110  1  0.66260245  0.42173634  0.33263165  1
  Te  Te111  1  0.57152890  0.16452103  0.66036327  1
  Te  Te112  1  0.33721819  0.42181674  0.83344339  1
  Te  Te113  1  0.07813427  0.16292468  0.32840470  1
  Te  Te114  1  0.83707532  0.07813427  0.32840470  1
  Te  Te115  1  0.44089531  0.84471174  0.33024825  1
  Te  Te116  1  0.57827783  0.83733669  0.49893548  1
  Te  Te117  1  0.66383572  0.07341733  0.49975368  1
  Te  Te118  1  0.84471174  0.55910469  0.33024825  1
  Te  Te119  1  0.42173634  0.33739755  0.33263165  1
