# generated using pymatgen
data_Nd6Fe13Sb
_symmetry_space_group_name_H-M   'P 1'
_cell_length_a   8.06761418
_cell_length_b   8.06761481
_cell_length_c   13.03643002
_cell_angle_alpha   108.02462605
_cell_angle_beta   108.02462752
_cell_angle_gamma   89.99999786
_symmetry_Int_Tables_number   1
_chemical_formula_structural   Nd6Fe13Sb
_chemical_formula_sum   'Nd12 Fe26 Sb2'
_cell_volume   762.94289417
_cell_formula_units_Z   2
loop_
 _symmetry_equiv_pos_site_id
 _symmetry_equiv_pos_as_xyz
  1  'x, y, z'
loop_
 _atom_site_type_symbol
 _atom_site_label
 _atom_site_symmetry_multiplicity
 _atom_site_fract_x
 _atom_site_fract_y
 _atom_site_fract_z
 _atom_site_occupancy
  Nd  Nd0  1  0.89593949  0.89593949  0.79187899  1
  Nd  Nd1  1  0.97743687  0.47743687  0.62977960  1
  Nd  Nd2  1  0.52256313  0.34765727  0.37022040  1
  Nd  Nd3  1  0.34765727  0.84765727  0.37022040  1
  Nd  Nd4  1  0.02256313  0.52256313  0.37022040  1
  Nd  Nd5  1  0.47743687  0.65234273  0.62977960  1
  Nd  Nd6  1  0.10406051  0.10406051  0.20812101  1
  Nd  Nd7  1  0.39593949  0.39593949  0.79187899  1
  Nd  Nd8  1  0.65234273  0.15234273  0.62977960  1
  Nd  Nd9  1  0.60406051  0.60406051  0.20812101  1
  Nd  Nd10  1  0.84765727  0.02256313  0.37022040  1
  Nd  Nd11  1  0.15234273  0.97743687  0.62977960  1
  Fe  Fe12  1  0.43329873  0.70957690  0.00000000  1
  Fe  Fe13  1  0.79277488  0.52027083  0.81304571  1
  Fe  Fe14  1  0.70722512  0.20722512  0.18695429  1
  Fe  Fe15  1  0.70957690  0.56670127  0.00000000  1
  Fe  Fe16  1  0.93329873  0.79042310  1.00000000  1
  Fe  Fe17  1  0.88002059  0.38002059  0.11713622  1
  Fe  Fe18  1  0.76288437  0.26288437  0.88286378  1
  Fe  Fe19  1  0.47972917  0.97972917  0.18695429  1
  Fe  Fe20  1  0.20957690  0.93329873  0.00000000  1
  Fe  Fe21  1  0.38002059  0.23711563  0.11713622  1
  Fe  Fe22  1  0.29277488  0.79277488  0.81304571  1
  Fe  Fe23  1  0.20722512  0.47972917  0.18695429  1
  Fe  Fe24  1  0.23711563  0.73711563  0.11713622  1
  Fe  Fe25  1  0.29042310  0.43329873  0.00000000  1
  Fe  Fe26  1  0.56670127  0.29042310  1.00000000  1
  Fe  Fe27  1  0.50000000  0.00000000  0.00000000  1
  Fe  Fe28  1  0.52027083  0.02027083  0.81304571  1
  Fe  Fe29  1  0.06670127  0.20957690  0.00000000  1
  Fe  Fe30  1  0.26288437  0.11997941  0.88286378  1
  Fe  Fe31  1  0.73711563  0.88002059  0.11713622  1
  Fe  Fe32  1  0.11997941  0.61997941  0.88286378  1
  Fe  Fe33  1  0.79042310  0.06670127  0.00000000  1
  Fe  Fe34  1  0.61997941  0.76288437  0.88286378  1
  Fe  Fe35  1  0.00000000  0.50000000  0.00000000  1
  Fe  Fe36  1  0.02027083  0.29277488  0.81304571  1
  Fe  Fe37  1  0.97972917  0.70722512  0.18695429  1
  Sb  Sb38  1  0.75000000  0.75000000  0.50000000  1
  Sb  Sb39  1  0.25000000  0.25000000  0.50000000  1
