# generated using pymatgen
data_Ba4Cr13O28
_symmetry_space_group_name_H-M   'P 1'
_cell_length_a   5.86343243
_cell_length_b   9.95267071
_cell_length_c   10.16138804
_cell_angle_alpha   69.68961631
_cell_angle_beta   90.00000327
_cell_angle_gamma   90.00000178
_symmetry_Int_Tables_number   1
_chemical_formula_structural   Ba4Cr13O28
_chemical_formula_sum   'Ba4 Cr13 O28'
_cell_volume   556.11791463
_cell_formula_units_Z   1
loop_
 _symmetry_equiv_pos_site_id
 _symmetry_equiv_pos_as_xyz
  1  'x, y, z'
loop_
 _atom_site_type_symbol
 _atom_site_label
 _atom_site_symmetry_multiplicity
 _atom_site_fract_x
 _atom_site_fract_y
 _atom_site_fract_z
 _atom_site_occupancy
  Ba  Ba0  1  0.50000000  0.12075093  0.79470100  1
  Ba  Ba1  1  1.00000000  0.12704751  0.28992598  1
  Ba  Ba2  1  0.50000000  0.86504361  0.23394069  1
  Ba  Ba3  1  0.00000000  0.86754012  0.69551015  1
  Cr  Cr4  1  1.00000000  0.74045194  0.43403020  1
  Cr  Cr5  1  0.50000000  0.72556482  0.91513819  1
  Cr  Cr6  1  0.00000000  0.28240803  0.57230542  1
  Cr  Cr7  1  0.50000000  0.28165716  0.07287874  1
  Cr  Cr8  1  0.25701478  0.50341637  0.74611874  1
  Cr  Cr9  1  0.74863214  0.49952373  0.24978053  1
  Cr  Cr10  1  0.50000000  0.50575284  0.49987801  1
  Cr  Cr11  1  1.00000000  0.49970232  0.99923935  1
  Cr  Cr12  1  0.25136786  0.49952373  0.24978053  1
  Cr  Cr13  1  0.74298522  0.50341637  0.74611874  1
  Cr  Cr14  1  1.00000000  0.81176049  0.06228275  1
  Cr  Cr15  1  0.50000000  0.18354066  0.43950870  1
  Cr  Cr16  1  -0.00000000  0.18960569  0.93665232  1
  O  O17  1  0.75880152  0.14575905  0.53761854  1
  O  O18  1  0.25597556  0.14544002  0.03713377  1
  O  O19  1  0.24119848  0.14575905  0.53761854  1
  O  O20  1  0.74402444  0.14544002  0.03713377  1
  O  O21  1  0.00000000  0.14766009  0.77961902  1
  O  O22  1  0.50000000  0.14421220  0.28131986  1
  O  O23  1  0.21569798  0.85288191  0.44870947  1
  O  O24  1  0.74406002  0.85277654  0.96524458  1
  O  O25  1  0.78430202  0.85288191  0.44870947  1
  O  O26  1  0.25593998  0.85277654  0.96524458  1
  O  O27  1  1.00000000  0.84990230  0.21997020  1
  O  O28  1  0.50000000  0.86049475  0.74934395  1
  O  O29  1  0.74030464  0.61196856  0.37912111  1
  O  O30  1  0.24606789  0.61505699  0.87324597  1
  O  O31  1  0.25969536  0.61196856  0.37912111  1
  O  O32  1  0.75393211  0.61505699  0.87324597  1
  O  O33  1  1.00000000  0.61686874  0.62704093  1
  O  O34  1  0.50000000  0.61414651  0.13273299  1
  O  O35  1  0.26373675  0.38680445  0.62324709  1
  O  O36  1  0.76181063  0.38286851  0.12666527  1
  O  O37  1  0.73626325  0.38680445  0.62324709  1
  O  O38  1  0.23818937  0.38286851  0.12666527  1
  O  O39  1  0.00000000  0.38675441  0.36479228  1
  O  O40  1  0.50000000  0.38457653  0.86319207  1
  O  O41  1  0.50000000  0.60962038  0.62759566  1
  O  O42  1  0.00000000  0.61087175  0.12906977  1
  O  O43  1  0.50000000  0.38660749  0.37197034  1
  O  O44  1  1.00000000  0.39084645  0.86813130  1
