# generated using pymatgen
data_AgHg3As2Cl3
_symmetry_space_group_name_H-M   'P 1'
_cell_length_a   9.38604589
_cell_length_b   13.43099382
_cell_length_c   14.08113142
_cell_angle_alpha   66.98821877
_cell_angle_beta   70.53174289
_cell_angle_gamma   69.54831157
_symmetry_Int_Tables_number   1
_chemical_formula_structural   AgHg3As2Cl3
_chemical_formula_sum   'Ag6 Hg18 As12 Cl18'
_cell_volume   1490.53205416
_cell_formula_units_Z   6
loop_
 _symmetry_equiv_pos_site_id
 _symmetry_equiv_pos_as_xyz
  1  'x, y, z'
loop_
 _atom_site_type_symbol
 _atom_site_label
 _atom_site_symmetry_multiplicity
 _atom_site_fract_x
 _atom_site_fract_y
 _atom_site_fract_z
 _atom_site_occupancy
  Ag  Ag0  1  0.65542148  0.75000000  0.25000000  1
  Ag  Ag1  1  0.94623492  0.93724936  0.72561033  1
  Ag  Ag2  1  0.39090539  0.43724936  0.22561033  1
  Ag  Ag3  1  0.34457852  0.25000000  0.75000000  1
  Ag  Ag4  1  0.05376508  0.06275064  0.27438967  1
  Ag  Ag5  1  0.60909461  0.56275064  0.77438967  1
  Hg  Hg6  1  0.66435672  0.16852871  0.50159830  1
  Hg  Hg7  1  0.79968107  0.25000000  0.75000000  1
  Hg  Hg8  1  0.11908758  0.58844663  0.74922737  1
  Hg  Hg9  1  0.82980063  0.33684301  0.00076167  1
  Hg  Hg10  1  0.17019937  0.66315699  0.99923833  1
  Hg  Hg11  1  0.54323842  0.08844663  0.24922737  1
  Hg  Hg12  1  0.88091242  0.41155337  0.25077263  1
  Hg  Hg13  1  0.33564328  0.83147129  0.49840170  1
  Hg  Hg14  1  0.16740531  0.16315699  0.49923833  1
  Hg  Hg15  1  0.00000000  0.50000000  0.50000000  1
  Hg  Hg16  1  0.20031893  0.75000000  0.25000000  1
  Hg  Hg17  1  0.83259469  0.83684301  0.50076167  1
  Hg  Hg18  1  0.45676158  0.91155337  0.75077263  1
  Hg  Hg19  1  0.50000000  0.50000000  0.50000000  1
  Hg  Hg20  1  0.66551628  0.66852871  0.00159830  1
  Hg  Hg21  1  0.50000000  0.00000000  0.00000000  1
  Hg  Hg22  1  0.33448372  0.33147129  0.99840170  1
  Hg  Hg23  1  0.00000000  0.00000000  0.00000000  1
  As  As24  1  0.58897411  0.98458214  0.55335999  1
  As  As25  1  0.41102589  0.01541786  0.44664001  1
  As  As26  1  0.20314996  0.81521191  0.05128755  1
  As  As27  1  0.12691624  0.51541786  0.94664001  1
  As  As28  1  0.25623109  0.64898401  0.55177261  1
  As  As29  1  0.45698772  0.85101599  0.94822739  1
  As  As30  1  0.06964942  0.68478809  0.44871245  1
  As  As31  1  0.74376891  0.35101599  0.44822739  1
  As  As32  1  0.54301228  0.14898401  0.05177261  1
  As  As33  1  0.87308376  0.48458214  0.05335999  1
  As  As34  1  0.93035058  0.31521191  0.55128755  1
  As  As35  1  0.79685004  0.18478809  0.94871245  1
  Cl  Cl36  1  0.14694903  0.22876145  0.24151772  1
  Cl  Cl37  1  0.50000000  0.50000000  0.00000000  1
  Cl  Cl38  1  0.50057982  0.40338665  0.74867481  1
  Cl  Cl39  1  0.87515602  0.97760707  0.25107513  1
  Cl  Cl40  1  0.12484398  0.02239293  0.74892487  1
  Cl  Cl41  1  0.19855666  0.18593944  0.93689987  1
  Cl  Cl42  1  0.80144334  0.81406056  0.06310013  1
  Cl  Cl43  1  0.67860404  0.68593944  0.43689987  1
  Cl  Cl44  1  0.38277181  0.72876145  0.74151772  1
  Cl  Cl45  1  0.34735872  0.90338665  0.24867481  1
  Cl  Cl46  1  0.49942018  0.59661335  0.25132519  1
  Cl  Cl47  1  0.85305097  0.77123855  0.75848228  1
  Cl  Cl48  1  0.00000000  0.00000000  0.50000000  1
  Cl  Cl49  1  0.32139596  0.31406056  0.56310013  1
  Cl  Cl50  1  0.89616179  0.47760707  0.75107513  1
  Cl  Cl51  1  0.65264128  0.09661335  0.75132519  1
  Cl  Cl52  1  0.61722819  0.27123855  0.25848228  1
  Cl  Cl53  1  0.10383821  0.52239293  0.24892487  1
