# generated using pymatgen
data_TaNi3
_symmetry_space_group_name_H-M   'P 1'
_cell_length_a   4.53954885
_cell_length_b   5.11739594
_cell_length_c   8.63239373
_cell_angle_alpha   90.00000000
_cell_angle_beta   100.82077340
_cell_angle_gamma   90.00000000
_symmetry_Int_Tables_number   1
_chemical_formula_structural   TaNi3
_chemical_formula_sum   'Ta4 Ni12'
_cell_volume   196.97059436
_cell_formula_units_Z   4
loop_
 _symmetry_equiv_pos_site_id
 _symmetry_equiv_pos_as_xyz
  1  'x, y, z'
loop_
 _atom_site_type_symbol
 _atom_site_label
 _atom_site_symmetry_multiplicity
 _atom_site_fract_x
 _atom_site_fract_y
 _atom_site_fract_z
 _atom_site_occupancy
  Ta  Ta0  1  0.38815515  0.75000000  0.62184641  1
  Ta  Ta1  1  0.61184485  0.25000000  0.37815359  1
  Ta  Ta2  1  0.20971645  0.75000000  0.12759937  1
  Ta  Ta3  1  0.79028355  0.25000000  0.87240063  1
  Ni  Ni4  1  0.29528340  0.99869697  0.87662845  1
  Ni  Ni5  1  0.88640352  0.99749770  0.62658957  1
  Ni  Ni6  1  0.79907272  0.75000000  0.87356974  1
  Ni  Ni7  1  0.11359648  0.49749770  0.37341043  1
  Ni  Ni8  1  0.63209438  0.75000000  0.37607389  1
  Ni  Ni9  1  0.29528340  0.50130303  0.87662845  1
  Ni  Ni10  1  0.36790562  0.25000000  0.62392611  1
  Ni  Ni11  1  0.70471660  0.00130303  0.12337155  1
  Ni  Ni12  1  0.70471660  0.49869697  0.12337155  1
  Ni  Ni13  1  0.11359648  0.00250230  0.37341043  1
  Ni  Ni14  1  0.20092728  0.25000000  0.12643026  1
  Ni  Ni15  1  0.88640352  0.50250230  0.62658957  1
