# generated using pymatgen
data_AlInCuO4
_symmetry_space_group_name_H-M   'P 1'
_cell_length_a   3.35099783
_cell_length_b   3.35099783
_cell_length_c   8.52659658
_cell_angle_alpha   78.47268052
_cell_angle_beta   78.47268052
_cell_angle_gamma   59.97764313
_symmetry_Int_Tables_number   1
_chemical_formula_structural   AlInCuO4
_chemical_formula_sum   'Al1 In1 Cu1 O4'
_cell_volume   80.66371261
_cell_formula_units_Z   1
loop_
 _symmetry_equiv_pos_site_id
 _symmetry_equiv_pos_as_xyz
  1  'x, y, z'
loop_
 _atom_site_type_symbol
 _atom_site_label
 _atom_site_symmetry_multiplicity
 _atom_site_fract_x
 _atom_site_fract_y
 _atom_site_fract_z
 _atom_site_occupancy
  Al  Al0  1  0.41435269  0.41435269  0.72625802  1
  In  In1  1  0.20570463  0.20570463  0.36546965  1
  Cu  Cu2  1  0.98764654  0.98764654  0.00094043  1
  O  O3  1  0.49143392  0.49143392  0.50419513  1
  O  O4  1  0.91409387  0.91409387  0.24222103  1
  O  O5  1  0.33687551  0.33687551  0.95156188  1
  O  O6  1  0.07839285  0.07839285  0.73355385  1
