# generated using pymatgen
data_La3CBr5
_symmetry_space_group_name_H-M   'P 1'
_cell_length_a   9.05576576
_cell_length_b   9.05576579
_cell_length_c   14.68950117
_cell_angle_alpha   76.71661091
_cell_angle_beta   76.71661085
_cell_angle_gamma   74.69839654
_symmetry_Int_Tables_number   1
_chemical_formula_structural   La3CBr5
_chemical_formula_sum   'La12 C4 Br20'
_cell_volume   1112.34347869
_cell_formula_units_Z   4
loop_
 _symmetry_equiv_pos_site_id
 _symmetry_equiv_pos_as_xyz
  1  'x, y, z'
loop_
 _atom_site_type_symbol
 _atom_site_label
 _atom_site_symmetry_multiplicity
 _atom_site_fract_x
 _atom_site_fract_y
 _atom_site_fract_z
 _atom_site_occupancy
  La  La0  1  0.37930595  0.33909482  0.40582872  1
  La  La1  1  0.01035121  0.28750440  0.32604311  1
  La  La2  1  0.67971497  0.01497752  0.91320761  1
  La  La3  1  0.98964879  0.71249560  0.67395689  1
  La  La4  1  0.32028503  0.98502248  0.08679239  1
  La  La5  1  0.98502248  0.32028503  0.58679239  1
  La  La6  1  0.01497752  0.67971497  0.41320761  1
  La  La7  1  0.28750440  0.01035121  0.82604311  1
  La  La8  1  0.62069405  0.66090518  0.59417128  1
  La  La9  1  0.33909482  0.37930595  0.90582872  1
  La  La10  1  0.66090518  0.62069405  0.09417128  1
  La  La11  1  0.71249560  0.98964879  0.17395689  1
  C  C12  1  0.88879438  0.60473105  0.57924482  1
  C  C13  1  0.11120562  0.39526895  0.42075518  1
  C  C14  1  0.60473105  0.88879438  0.07924482  1
  C  C15  1  0.39526895  0.11120562  0.92075518  1
  Br  Br16  1  0.02337594  0.97662406  0.25000000  1
  Br  Br17  1  0.11866936  0.36313520  0.77222405  1
  Br  Br18  1  0.36313520  0.11866936  0.27222405  1
  Br  Br19  1  0.63958979  0.36041021  0.75000000  1
  Br  Br20  1  0.33603548  0.12173035  0.59228348  1
  Br  Br21  1  0.61864064  0.29915026  0.01805734  1
  Br  Br22  1  0.30277513  0.69722487  0.75000000  1
  Br  Br23  1  0.70084974  0.38135936  0.48194266  1
  Br  Br24  1  0.36041021  0.63958979  0.25000000  1
  Br  Br25  1  0.87826965  0.66396452  0.90771652  1
  Br  Br26  1  0.69722487  0.30277513  0.25000000  1
  Br  Br27  1  0.12173035  0.33603548  0.09228348  1
  Br  Br28  1  0.63686480  0.88133064  0.72777595  1
  Br  Br29  1  0.00000000  0.00000000  0.00000000  1
  Br  Br30  1  0.97662406  0.02337594  0.75000000  1
  Br  Br31  1  0.38135936  0.70084974  0.98194266  1
  Br  Br32  1  0.66396452  0.87826965  0.40771652  1
  Br  Br33  1  0.29915026  0.61864064  0.51805734  1
  Br  Br34  1  0.88133064  0.63686480  0.22777595  1
  Br  Br35  1  0.00000000  0.00000000  0.50000000  1
