# generated using pymatgen
data_Dy4Ni12Sn25
_symmetry_space_group_name_H-M   'P 1'
_cell_length_a   10.35010837
_cell_length_b   10.35010810
_cell_length_c   10.35010812
_cell_angle_alpha   109.47122272
_cell_angle_beta   109.47122214
_cell_angle_gamma   109.47121678
_symmetry_Int_Tables_number   1
_chemical_formula_structural   Dy4Ni12Sn25
_chemical_formula_sum   'Dy4 Ni12 Sn25'
_cell_volume   853.51818746
_cell_formula_units_Z   1
loop_
 _symmetry_equiv_pos_site_id
 _symmetry_equiv_pos_as_xyz
  1  'x, y, z'
loop_
 _atom_site_type_symbol
 _atom_site_label
 _atom_site_symmetry_multiplicity
 _atom_site_fract_x
 _atom_site_fract_y
 _atom_site_fract_z
 _atom_site_occupancy
  Dy  Dy0  1  0.00000000  0.00000000  0.50000000  1
  Dy  Dy1  1  0.00000000  0.50000000  0.00000000  1
  Dy  Dy2  1  0.50000000  0.00000000  0.00000000  1
  Dy  Dy3  1  0.50000000  0.50000000  0.50000000  1
  Ni  Ni4  1  0.51714955  0.68004496  0.83710458  1
  Ni  Ni5  1  0.84294038  0.68004496  0.16289542  1
  Ni  Ni6  1  0.83710458  0.15705962  0.31995504  1
  Ni  Ni7  1  0.16289542  0.84294038  0.68004496  1
  Ni  Ni8  1  0.31995504  0.83710458  0.15705962  1
  Ni  Ni9  1  0.68004496  0.83710458  0.51714955  1
  Ni  Ni10  1  0.48285045  0.31995504  0.16289542  1
  Ni  Ni11  1  0.68004496  0.16289542  0.84294038  1
  Ni  Ni12  1  0.16289542  0.48285045  0.31995504  1
  Ni  Ni13  1  0.15705962  0.31995504  0.83710458  1
  Ni  Ni14  1  0.83710458  0.51714955  0.68004496  1
  Ni  Ni15  1  0.31995504  0.16289542  0.48285045  1
  Sn  Sn16  1  0.87797340  0.12657689  0.75139651  1
  Sn  Sn17  1  0.24860349  0.12202660  0.87342311  1
  Sn  Sn18  1  0.99813475  0.62742112  0.37071362  1
  Sn  Sn19  1  0.25670750  0.62742112  0.62928638  1
  Sn  Sn20  1  0.62481962  0.87342311  0.75139651  1
  Sn  Sn21  1  0.12657689  0.24860349  0.37518038  1
  Sn  Sn22  1  0.75139651  0.87797340  0.12657689  1
  Sn  Sn23  1  0.62742112  0.37071362  0.99813475  1
  Sn  Sn24  1  0.00186525  0.37257888  0.62928638  1
  Sn  Sn25  1  0.37518038  0.12657689  0.24860349  1
  Sn  Sn26  1  0.62928638  0.25670750  0.62742112  1
  Sn  Sn27  1  0.87342311  0.24860349  0.12202660  1
  Sn  Sn28  1  0.12202660  0.87342311  0.24860349  1
  Sn  Sn29  1  0.62742112  0.62928638  0.25670750  1
  Sn  Sn30  1  0.12657689  0.75139651  0.87797340  1
  Sn  Sn31  1  0.00000000  0.00000000  0.00000000  1
  Sn  Sn32  1  0.87342311  0.75139651  0.62481962  1
  Sn  Sn33  1  0.37257888  0.62928638  0.00186525  1
  Sn  Sn34  1  0.37071362  0.74329250  0.37257888  1
  Sn  Sn35  1  0.24860349  0.37518038  0.12657689  1
  Sn  Sn36  1  0.37257888  0.37071362  0.74329250  1
  Sn  Sn37  1  0.37071362  0.99813475  0.62742112  1
  Sn  Sn38  1  0.62928638  0.00186525  0.37257888  1
  Sn  Sn39  1  0.75139651  0.62481962  0.87342311  1
  Sn  Sn40  1  0.74329250  0.37257888  0.37071362  1
