# generated using pymatgen
data_Cs2MgCl4
_symmetry_space_group_name_H-M   'P 1'
_cell_length_a   7.66170434
_cell_length_b   9.95103552
_cell_length_c   13.53736914
_cell_angle_alpha   90.00000000
_cell_angle_beta   90.00000000
_cell_angle_gamma   90.00000000
_symmetry_Int_Tables_number   1
_chemical_formula_structural   Cs2MgCl4
_chemical_formula_sum   'Cs8 Mg4 Cl16'
_cell_volume   1032.11463636
_cell_formula_units_Z   4
loop_
 _symmetry_equiv_pos_site_id
 _symmetry_equiv_pos_as_xyz
  1  'x, y, z'
loop_
 _atom_site_type_symbol
 _atom_site_label
 _atom_site_symmetry_multiplicity
 _atom_site_fract_x
 _atom_site_fract_y
 _atom_site_fract_z
 _atom_site_occupancy
  Cs  Cs0  1  0.75000000  0.86161376  0.90718665  1
  Cs  Cs1  1  0.25000000  0.13838624  0.09281335  1
  Cs  Cs2  1  0.75000000  0.36161376  0.59281335  1
  Cs  Cs3  1  0.75000000  0.51793527  0.18084689  1
  Cs  Cs4  1  0.75000000  0.01793527  0.31915311  1
  Cs  Cs5  1  0.25000000  0.98206473  0.68084689  1
  Cs  Cs6  1  0.25000000  0.63838624  0.40718665  1
  Cs  Cs7  1  0.25000000  0.48206473  0.81915311  1
  Mg  Mg8  1  0.25000000  0.72897274  0.07711221  1
  Mg  Mg9  1  0.75000000  0.77102726  0.57711221  1
  Mg  Mg10  1  0.75000000  0.27102726  0.92288779  1
  Mg  Mg11  1  0.25000000  0.22897274  0.42288779  1
  Cl  Cl12  1  0.00263371  0.31925223  0.34640591  1
  Cl  Cl13  1  0.25000000  0.99467050  0.41164078  1
  Cl  Cl14  1  0.00263371  0.81925223  0.15359409  1
  Cl  Cl15  1  0.75000000  0.50532950  0.91164078  1
  Cl  Cl16  1  0.25000000  0.31315441  0.58511252  1
  Cl  Cl17  1  0.99736629  0.18074777  0.84640591  1
  Cl  Cl18  1  0.25000000  0.81315441  0.91488748  1
  Cl  Cl19  1  0.75000000  0.00532950  0.58835922  1
  Cl  Cl20  1  0.99736629  0.68074777  0.65359409  1
  Cl  Cl21  1  0.49736629  0.31925223  0.34640591  1
  Cl  Cl22  1  0.49736629  0.81925223  0.15359409  1
  Cl  Cl23  1  0.50263371  0.18074777  0.84640591  1
  Cl  Cl24  1  0.75000000  0.18684559  0.08511252  1
  Cl  Cl25  1  0.50263371  0.68074777  0.65359409  1
  Cl  Cl26  1  0.25000000  0.49467050  0.08835922  1
  Cl  Cl27  1  0.75000000  0.68684559  0.41488748  1
