# generated using pymatgen
data_CsRb(MnCl3)2
_symmetry_space_group_name_H-M   'P 1'
_cell_length_a   14.66752651
_cell_length_b   14.66752626
_cell_length_c   12.11084837
_cell_angle_alpha   90.00000000
_cell_angle_beta   90.00000000
_cell_angle_gamma   120.00000058
_symmetry_Int_Tables_number   1
_chemical_formula_structural   CsRb(MnCl3)2
_chemical_formula_sum   'Cs8 Rb8 Mn16 Cl48'
_cell_volume   2256.41486538
_cell_formula_units_Z   8
loop_
 _symmetry_equiv_pos_site_id
 _symmetry_equiv_pos_as_xyz
  1  'x, y, z'
loop_
 _atom_site_type_symbol
 _atom_site_label
 _atom_site_symmetry_multiplicity
 _atom_site_fract_x
 _atom_site_fract_y
 _atom_site_fract_z
 _atom_site_occupancy
  Cs  Cs0  1  0.50000000  0.00000000  0.00000000  1
  Cs  Cs1  1  0.66666700  0.33333300  0.75000000  1
  Cs  Cs2  1  0.00000000  0.50000000  0.00000000  1
  Cs  Cs3  1  0.50000000  0.00000000  0.50000000  1
  Cs  Cs4  1  0.33333300  0.66666700  0.25000000  1
  Cs  Cs5  1  0.50000000  0.50000000  0.00000000  1
  Cs  Cs6  1  0.00000000  0.50000000  0.50000000  1
  Cs  Cs7  1  0.50000000  0.50000000  0.50000000  1
  Rb  Rb8  1  0.00000000  0.00000000  0.00000000  1
  Rb  Rb9  1  0.16630040  0.33260080  0.75000000  1
  Rb  Rb10  1  0.83369960  0.16630040  0.25000000  1
  Rb  Rb11  1  0.16630040  0.83369960  0.75000000  1
  Rb  Rb12  1  0.66739920  0.83369960  0.75000000  1
  Rb  Rb13  1  0.00000000  0.00000000  0.50000000  1
  Rb  Rb14  1  0.33260080  0.16630040  0.25000000  1
  Rb  Rb15  1  0.83369960  0.66739920  0.25000000  1
  Mn  Mn16  1  0.83404614  0.66809228  0.88281595  1
  Mn  Mn17  1  0.66809228  0.83404614  0.38281595  1
  Mn  Mn18  1  0.83404614  0.66809228  0.61718405  1
  Mn  Mn19  1  0.66809228  0.83404614  0.11718405  1
  Mn  Mn20  1  0.16595386  0.33190772  0.11718405  1
  Mn  Mn21  1  0.16595386  0.33190772  0.38281595  1
  Mn  Mn22  1  0.16595386  0.83404614  0.38281595  1
  Mn  Mn23  1  0.66666700  0.33333300  0.11729661  1
  Mn  Mn24  1  0.33190772  0.16595386  0.61718405  1
  Mn  Mn25  1  0.16595386  0.83404614  0.11718405  1
  Mn  Mn26  1  0.83404614  0.16595386  0.61718405  1
  Mn  Mn27  1  0.83404614  0.16595386  0.88281595  1
  Mn  Mn28  1  0.33190772  0.16595386  0.88281595  1
  Mn  Mn29  1  0.33333300  0.66666700  0.61729661  1
  Mn  Mn30  1  0.66666700  0.33333300  0.38270339  1
  Mn  Mn31  1  0.33333300  0.66666700  0.88270339  1
  Cl  Cl32  1  0.41117014  0.82234029  0.75000000  1
  Cl  Cl33  1  0.00000000  0.75252874  0.00000000  1
  Cl  Cl34  1  0.67827613  0.08708885  0.75000000  1
  Cl  Cl35  1  1.00000000  0.24747126  0.50000000  1
  Cl  Cl36  1  0.24747126  0.00000000  0.50000000  1
  Cl  Cl37  1  0.24928513  0.75071487  0.50155175  1
  Cl  Cl38  1  0.50142973  0.75071487  0.50155175  1
  Cl  Cl39  1  0.17600544  0.08800272  0.75000000  1
  Cl  Cl40  1  0.59118728  0.67827613  0.25000000  1
  Cl  Cl41  1  0.24928513  0.49857027  0.50155175  1
  Cl  Cl42  1  0.59118728  0.91291115  0.25000000  1
  Cl  Cl43  1  0.67827613  0.59118728  0.75000000  1
  Cl  Cl44  1  0.58882986  0.17765971  0.25000000  1
  Cl  Cl45  1  1.00000000  0.24747126  0.00000000  1
  Cl  Cl46  1  0.32172387  0.91291115  0.25000000  1
  Cl  Cl47  1  0.24747126  0.00000000  0.00000000  1
  Cl  Cl48  1  0.82234029  0.41117014  0.25000000  1
  Cl  Cl49  1  0.50142973  0.75071487  0.99844825  1
  Cl  Cl50  1  0.58882986  0.41117014  0.25000000  1
  Cl  Cl51  1  0.40881272  0.08708885  0.75000000  1
  Cl  Cl52  1  0.08708885  0.67827613  0.25000000  1
  Cl  Cl53  1  0.75071487  0.24928513  0.49844825  1
  Cl  Cl54  1  0.91199728  0.08800272  0.75000000  1
  Cl  Cl55  1  0.40881272  0.32172387  0.75000000  1
  Cl  Cl56  1  0.24747126  0.24747126  0.00000000  1
  Cl  Cl57  1  0.75252874  0.00000000  0.00000000  1
  Cl  Cl58  1  0.08800272  0.17600544  0.25000000  1
  Cl  Cl59  1  0.49857027  0.24928513  0.00155175  1
  Cl  Cl60  1  0.75252874  0.00000000  0.50000000  1
  Cl  Cl61  1  0.24747126  0.24747126  0.50000000  1
  Cl  Cl62  1  0.82399456  0.91199728  0.25000000  1
  Cl  Cl63  1  0.32172387  0.40881272  0.25000000  1
  Cl  Cl64  1  0.75252874  0.75252874  0.00000000  1
  Cl  Cl65  1  0.08800272  0.91199728  0.25000000  1
  Cl  Cl66  1  0.75071487  0.50142973  0.00155175  1
  Cl  Cl67  1  0.91291115  0.59118728  0.75000000  1
  Cl  Cl68  1  0.49857027  0.24928513  0.49844825  1
  Cl  Cl69  1  0.24928513  0.75071487  0.99844825  1
  Cl  Cl70  1  0.00000000  0.75252874  0.50000000  1
  Cl  Cl71  1  0.17765971  0.58882986  0.75000000  1
  Cl  Cl72  1  0.91199728  0.82399456  0.75000000  1
  Cl  Cl73  1  0.08708885  0.40881272  0.25000000  1
  Cl  Cl74  1  0.91291115  0.32172387  0.75000000  1
  Cl  Cl75  1  0.75071487  0.24928513  0.00155175  1
  Cl  Cl76  1  0.75071487  0.50142973  0.49844825  1
  Cl  Cl77  1  0.41117014  0.58882986  0.75000000  1
  Cl  Cl78  1  0.75252874  0.75252874  0.50000000  1
  Cl  Cl79  1  0.24928513  0.49857027  0.99844825  1
