# generated using pymatgen
data_InAu3
_symmetry_space_group_name_H-M   'P 1'
_cell_length_a   4.83773508
_cell_length_b   5.40768038
_cell_length_c   5.84960019
_cell_angle_alpha   90.00000000
_cell_angle_beta   90.00000000
_cell_angle_gamma   90.00000000
_symmetry_Int_Tables_number   1
_chemical_formula_structural   InAu3
_chemical_formula_sum   'In2 Au6'
_cell_volume   153.03095229
_cell_formula_units_Z   2
loop_
 _symmetry_equiv_pos_site_id
 _symmetry_equiv_pos_as_xyz
  1  'x, y, z'
loop_
 _atom_site_type_symbol
 _atom_site_label
 _atom_site_symmetry_multiplicity
 _atom_site_fract_x
 _atom_site_fract_y
 _atom_site_fract_z
 _atom_site_occupancy
  In  In0  1  0.75000000  0.66778426  0.75000000  1
  In  In1  1  0.25000000  0.33221574  0.25000000  1
  Au  Au2  1  0.25000000  0.33350293  0.75000000  1
  Au  Au3  1  0.75000000  0.66649707  0.25000000  1
  Au  Au4  1  0.25000000  0.83349985  0.99820748  1
  Au  Au5  1  0.75000000  0.16650015  0.00179252  1
  Au  Au6  1  0.25000000  0.83349985  0.50179252  1
  Au  Au7  1  0.75000000  0.16650015  0.49820748  1
