# generated using pymatgen
data_CdI2
_symmetry_space_group_name_H-M   'P 1'
_cell_length_a   4.33130405
_cell_length_b   4.33130432
_cell_length_c   59.42633670
_cell_angle_alpha   90.00000000
_cell_angle_beta   90.00000000
_cell_angle_gamma   119.99999800
_symmetry_Int_Tables_number   1
_chemical_formula_structural   CdI2
_chemical_formula_sum   'Cd8 I16'
_cell_volume   965.48819941
_cell_formula_units_Z   8
loop_
 _symmetry_equiv_pos_site_id
 _symmetry_equiv_pos_as_xyz
  1  'x, y, z'
loop_
 _atom_site_type_symbol
 _atom_site_label
 _atom_site_symmetry_multiplicity
 _atom_site_fract_x
 _atom_site_fract_y
 _atom_site_fract_z
 _atom_site_occupancy
  Cd  Cd0  1  0.66666700  0.33333300  0.90622501  1
  Cd  Cd1  1  0.66666700  0.33333300  0.78127764  1
  Cd  Cd2  1  0.00000000  0.00000000  0.40622217  1
  Cd  Cd3  1  0.66666700  0.33333300  0.65622866  1
  Cd  Cd4  1  0.66666700  0.33333300  0.03127366  1
  Cd  Cd5  1  0.00000000  0.00000000  0.15622121  1
  Cd  Cd6  1  0.66666700  0.33333300  0.28128146  1
  Cd  Cd7  1  0.00000000  0.00000000  0.53124063  1
  I  I8  1  0.33333300  0.66666700  0.81033640  1
  I  I9  1  0.00000000  0.00000000  0.87716695  1
  I  I10  1  0.33333300  0.66666700  0.56031317  1
  I  I11  1  0.00000000  0.00000000  0.25223723  1
  I  I12  1  0.33333300  0.66666700  0.06033209  1
  I  I13  1  0.66666700  0.33333300  0.12714481  1
  I  I14  1  0.33333300  0.66666700  0.43529930  1
  I  I15  1  0.33333300  0.66666700  0.18529729  1
  I  I16  1  0.66666700  0.33333300  0.50217708  1
  I  I17  1  0.00000000  0.00000000  0.00223326  1
  I  I18  1  0.33333300  0.66666700  0.31033943  1
  I  I19  1  0.33333300  0.66666700  0.93530011  1
  I  I20  1  0.00000000  0.00000000  0.75223498  1
  I  I21  1  0.66666700  0.33333300  0.37714454  1
  I  I22  1  0.33333300  0.66666700  0.68530324  1
  I  I23  1  0.00000000  0.00000000  0.62716966  1
