# generated using pymatgen
data_Al(PS3)2
_symmetry_space_group_name_H-M   'P 1'
_cell_length_a   5.91726202
_cell_length_b   5.91726202
_cell_length_c   7.27317961
_cell_angle_alpha   97.72794042
_cell_angle_beta   97.72794042
_cell_angle_gamma   119.60238574
_symmetry_Int_Tables_number   1
_chemical_formula_structural   Al(PS3)2
_chemical_formula_sum   'Al1 P2 S6'
_cell_volume   213.36406708
_cell_formula_units_Z   1
loop_
 _symmetry_equiv_pos_site_id
 _symmetry_equiv_pos_as_xyz
  1  'x, y, z'
loop_
 _atom_site_type_symbol
 _atom_site_label
 _atom_site_symmetry_multiplicity
 _atom_site_fract_x
 _atom_site_fract_y
 _atom_site_fract_z
 _atom_site_occupancy
  Al  Al0  1  0.81425159  0.18574841  0.00000000  1
  P  P1  1  0.53507840  0.57304842  0.16062717  1
  P  P2  1  0.42695158  0.46492160  0.83937283  1
  S  S3  1  0.87564685  0.56582478  0.22797662  1
  S  S4  1  0.58530973  0.94118403  0.22985254  1
  S  S5  1  0.05881597  0.41469027  0.77014746  1
  S  S6  1  0.43417522  0.12435315  0.77202338  1
  S  S7  1  0.21414961  0.27927896  0.23173975  1
  S  S8  1  0.72072104  0.78585039  0.76826025  1
