# generated using pymatgen
data_CdI2
_symmetry_space_group_name_H-M   'P 1'
_cell_length_a   4.33085438
_cell_length_b   4.33085465
_cell_length_c   59.39884755
_cell_angle_alpha   90.00000000
_cell_angle_beta   90.00000000
_cell_angle_gamma   119.99999797
_symmetry_Int_Tables_number   1
_chemical_formula_structural   CdI2
_chemical_formula_sum   'Cd8 I16'
_cell_volume   964.84121923
_cell_formula_units_Z   8
loop_
 _symmetry_equiv_pos_site_id
 _symmetry_equiv_pos_as_xyz
  1  'x, y, z'
loop_
 _atom_site_type_symbol
 _atom_site_label
 _atom_site_symmetry_multiplicity
 _atom_site_fract_x
 _atom_site_fract_y
 _atom_site_fract_z
 _atom_site_occupancy
  Cd  Cd0  1  0.00000000  0.00000000  0.78125364  1
  Cd  Cd1  1  0.00000000  0.00000000  0.40622743  1
  Cd  Cd2  1  0.00000000  0.00000000  0.90622447  1
  Cd  Cd3  1  0.66666700  0.33333300  0.03128670  1
  Cd  Cd4  1  0.66666700  0.33333300  0.28128258  1
  Cd  Cd5  1  0.00000000  0.00000000  0.15622537  1
  Cd  Cd6  1  0.66666700  0.33333300  0.65622996  1
  Cd  Cd7  1  0.00000000  0.00000000  0.53124898  1
  I  I8  1  0.33333300  0.66666700  0.81033530  1
  I  I9  1  0.33333300  0.66666700  0.56032742  1
  I  I10  1  0.66666700  0.33333300  0.12714204  1
  I  I11  1  0.00000000  0.00000000  0.25222836  1
  I  I12  1  0.33333300  0.66666700  0.06035306  1
  I  I13  1  0.33333300  0.66666700  0.43531386  1
  I  I14  1  0.66666700  0.33333300  0.50217501  1
  I  I15  1  0.33333300  0.66666700  0.18531085  1
  I  I16  1  0.66666700  0.33333300  0.87714502  1
  I  I17  1  0.66666700  0.33333300  0.75217527  1
  I  I18  1  0.33333300  0.66666700  0.31035071  1
  I  I19  1  0.33333300  0.66666700  0.93530942  1
  I  I20  1  0.00000000  0.00000000  0.62716498  1
  I  I21  1  0.66666700  0.33333300  0.37714413  1
  I  I22  1  0.00000000  0.00000000  0.00223232  1
  I  I23  1  0.33333300  0.66666700  0.68531316  1
