# generated using pymatgen
data_Li15Si4
_symmetry_space_group_name_H-M   'P 1'
_cell_length_a   9.17883032
_cell_length_b   9.17883024
_cell_length_c   9.17882995
_cell_angle_alpha   109.47121778
_cell_angle_beta   109.47121761
_cell_angle_gamma   109.47122383
_symmetry_Int_Tables_number   1
_chemical_formula_structural   Li15Si4
_chemical_formula_sum   'Li30 Si8'
_cell_volume   595.30581845
_cell_formula_units_Z   2
loop_
 _symmetry_equiv_pos_site_id
 _symmetry_equiv_pos_as_xyz
  1  'x, y, z'
loop_
 _atom_site_type_symbol
 _atom_site_label
 _atom_site_symmetry_multiplicity
 _atom_site_fract_x
 _atom_site_fract_y
 _atom_site_fract_z
 _atom_site_occupancy
  Li  Li0  1  0.72309351  0.34015207  0.80913327  1
  Li  Li1  1  0.87500000  0.12500000  0.75000000  1
  Li  Li2  1  0.80913327  0.72309351  0.34015207  1
  Li  Li3  1  0.58603975  0.61705855  0.77690649  1
  Li  Li4  1  0.69086673  0.03101880  0.91396025  1
  Li  Li5  1  0.11705855  0.08603975  0.27690649  1
  Li  Li6  1  0.03101880  0.91396025  0.69086673  1
  Li  Li7  1  0.08603975  0.27690649  0.11705855  1
  Li  Li8  1  0.53101880  0.19086673  0.41396025  1
  Li  Li9  1  0.61705855  0.77690649  0.58603975  1
  Li  Li10  1  0.91396025  0.69086673  0.03101880  1
  Li  Li11  1  0.41396025  0.53101880  0.19086673  1
  Li  Li12  1  0.25000000  0.62500000  0.37500000  1
  Li  Li13  1  0.88294145  0.46898120  0.15984793  1
  Li  Li14  1  0.75000000  0.87500000  0.12500000  1
  Li  Li15  1  0.65984793  0.96898120  0.38294145  1
  Li  Li16  1  0.19086673  0.41396025  0.53101880  1
  Li  Li17  1  0.27690649  0.11705855  0.08603975  1
  Li  Li18  1  0.22309351  0.30913327  0.84015207  1
  Li  Li19  1  0.12500000  0.75000000  0.87500000  1
  Li  Li20  1  0.15984793  0.88294145  0.46898120  1
  Li  Li21  1  0.77690649  0.58603975  0.61705855  1
  Li  Li22  1  0.96898120  0.38294145  0.65984793  1
  Li  Li23  1  0.34015207  0.80913327  0.72309351  1
  Li  Li24  1  0.38294145  0.65984793  0.96898120  1
  Li  Li25  1  0.46898120  0.15984793  0.88294145  1
  Li  Li26  1  0.84015207  0.22309351  0.30913327  1
  Li  Li27  1  0.62500000  0.37500000  0.25000000  1
  Li  Li28  1  0.30913327  0.84015207  0.22309351  1
  Li  Li29  1  0.37500000  0.25000000  0.62500000  1
  Si  Si30  1  0.58405828  0.50000000  0.00000000  1
  Si  Si31  1  0.00000000  0.58405828  0.50000000  1
  Si  Si32  1  0.08405828  0.50000000  0.00000000  1
  Si  Si33  1  0.50000000  0.00000000  0.08405828  1
  Si  Si34  1  0.50000000  0.00000000  0.58405828  1
  Si  Si35  1  0.00000000  0.08405828  0.50000000  1
  Si  Si36  1  0.41594172  0.41594172  0.41594172  1
  Si  Si37  1  0.91594172  0.91594172  0.91594172  1
