# generated using pymatgen
data_RbNaUSi2O9
_symmetry_space_group_name_H-M   'P 1'
_cell_length_a   7.45908657
_cell_length_b   7.93812727
_cell_length_c   8.25146170
_cell_angle_alpha   78.23759054
_cell_angle_beta   74.83092074
_cell_angle_gamma   84.58682976
_symmetry_Int_Tables_number   1
_chemical_formula_structural   RbNaUSi2O9
_chemical_formula_sum   'Rb2 Na2 U2 Si4 O18'
_cell_volume   461.21890105
_cell_formula_units_Z   2
loop_
 _symmetry_equiv_pos_site_id
 _symmetry_equiv_pos_as_xyz
  1  'x, y, z'
loop_
 _atom_site_type_symbol
 _atom_site_label
 _atom_site_symmetry_multiplicity
 _atom_site_fract_x
 _atom_site_fract_y
 _atom_site_fract_z
 _atom_site_occupancy
  Rb  Rb0  1  0.89761619  0.55122634  0.79133072  1
  Rb  Rb1  1  0.10238381  0.44877366  0.20866928  1
  Na  Na2  1  0.61491554  0.19087663  0.24391134  1
  Na  Na3  1  0.38508446  0.80912337  0.75608866  1
  U  U4  1  0.50000000  0.50000000  0.50000000  1
  U  U5  1  -0.00000000  0.00000000  -0.00000000  1
  Si  Si6  1  0.78784614  0.86084655  0.43812447  1
  Si  Si7  1  0.21215386  0.13915345  0.56187553  1
  Si  Si8  1  0.21224387  0.85881130  0.34899141  1
  Si  Si9  1  0.78775613  0.14118870  0.65100859  1
  O  O10  1  0.68955267  0.45471342  0.31417553  1
  O  O11  1  0.31044733  0.54528658  0.68582447  1
  O  O12  1  0.92636885  0.22906217  0.02104450  1
  O  O13  1  0.07363115  0.77093783  0.97895550  1
  O  O14  1  0.64969439  0.31106339  0.67244113  1
  O  O15  1  0.35030561  0.68893661  0.32755887  1
  O  O16  1  0.78131299  0.92112969  0.23990044  1
  O  O17  1  0.21868701  0.07887031  0.76009956  1
  O  O18  1  0.64904949  0.71006305  0.54856247  1
  O  O19  1  0.35095051  0.28993695  0.45143753  1
  O  O20  1  -0.00001137  0.79051332  0.45454872  1
  O  O21  1  0.00001137  0.20948668  0.54545128  1
  O  O22  1  0.27980752  0.96639440  0.47341816  1
  O  O23  1  0.72019248  0.03360560  0.52658184  1
  O  O24  1  0.80728354  0.01157574  0.82691146  1
  O  O25  1  0.19271646  0.98842426  0.17308854  1
  O  O26  1  0.56397464  0.74470601  0.97171506  1
  O  O27  1  0.43602536  0.25529399  0.02828494  1
