# generated using pymatgen
data_CdI2
_symmetry_space_group_name_H-M   'P 1'
_cell_length_a   4.33200622
_cell_length_b   4.33200648
_cell_length_c   44.45199748
_cell_angle_alpha   90.00000000
_cell_angle_beta   90.00000000
_cell_angle_gamma   119.99999799
_symmetry_Int_Tables_number   1
_chemical_formula_structural   CdI2
_chemical_formula_sum   'Cd6 I12'
_cell_volume   722.43718382
_cell_formula_units_Z   6
loop_
 _symmetry_equiv_pos_site_id
 _symmetry_equiv_pos_as_xyz
  1  'x, y, z'
loop_
 _atom_site_type_symbol
 _atom_site_label
 _atom_site_symmetry_multiplicity
 _atom_site_fract_x
 _atom_site_fract_y
 _atom_site_fract_z
 _atom_site_occupancy
  Cd  Cd0  1  0.66666700  0.33333300  0.04167192  1
  Cd  Cd1  1  0.66666700  0.33333300  0.37499185  1
  Cd  Cd2  1  0.00000000  0.00000000  0.70835034  1
  Cd  Cd3  1  0.66666700  0.33333300  0.54166108  1
  Cd  Cd4  1  0.00000000  0.00000000  0.20833668  1
  Cd  Cd5  1  0.00000000  0.00000000  0.87497413  1
  I  I6  1  0.33333300  0.66666700  0.08052175  1
  I  I7  1  0.33333300  0.66666700  0.41385413  1
  I  I8  1  0.66666700  0.33333300  0.66948469  1
  I  I9  1  0.33333300  0.66666700  0.58051803  1
  I  I10  1  0.33333300  0.66666700  0.74721169  1
  I  I11  1  0.33333300  0.66666700  0.91384646  1
  I  I12  1  0.00000000  0.00000000  0.33616158  1
  I  I13  1  0.00000000  0.00000000  0.00283252  1
  I  I14  1  0.66666700  0.33333300  0.83609998  1
  I  I15  1  0.33333300  0.66666700  0.24719416  1
  I  I16  1  0.00000000  0.00000000  0.50281490  1
  I  I17  1  0.66666700  0.33333300  0.16947410  1
