# generated using pymatgen
data_CdI2
_symmetry_space_group_name_H-M   'P 1'
_cell_length_a   4.33334371
_cell_length_b   4.33334397
_cell_length_c   37.01754018
_cell_angle_alpha   90.00000000
_cell_angle_beta   90.00000000
_cell_angle_gamma   119.99999793
_symmetry_Int_Tables_number   1
_chemical_formula_structural   CdI2
_chemical_formula_sum   'Cd5 I10'
_cell_volume   601.98337628
_cell_formula_units_Z   5
loop_
 _symmetry_equiv_pos_site_id
 _symmetry_equiv_pos_as_xyz
  1  'x, y, z'
loop_
 _atom_site_type_symbol
 _atom_site_label
 _atom_site_symmetry_multiplicity
 _atom_site_fract_x
 _atom_site_fract_y
 _atom_site_fract_z
 _atom_site_occupancy
  Cd  Cd0  1  0.66666700  0.33333300  0.05002445  1
  Cd  Cd1  1  0.66666700  0.33333300  0.44997014  1
  Cd  Cd2  1  0.33333300  0.66666700  0.85001045  1
  Cd  Cd3  1  0.33333300  0.66666700  0.65005028  1
  Cd  Cd4  1  0.66666700  0.33333300  0.24993099  1
  I  I5  1  0.00000000  0.00000000  0.60344127  1
  I  I6  1  0.00000000  0.00000000  0.20328752  1
  I  I7  1  0.66666700  0.33333300  0.89663545  1
  I  I8  1  0.33333300  0.66666700  0.09665486  1
  I  I9  1  0.00000000  0.00000000  0.00341887  1
  I  I10  1  0.66666700  0.33333300  0.69667138  1
  I  I11  1  0.00000000  0.00000000  0.40333969  1
  I  I12  1  0.33333300  0.66666700  0.29657304  1
  I  I13  1  0.00000000  0.00000000  0.80338029  1
  I  I14  1  0.33333300  0.66666700  0.49661132  1
