# generated using pymatgen
data_SrCeI4
_symmetry_space_group_name_H-M   'P 1'
_cell_length_a   7.49600984
_cell_length_b   8.65788489
_cell_length_c   9.08791987
_cell_angle_alpha   113.33061637
_cell_angle_beta   108.72500104
_cell_angle_gamma   101.03524083
_symmetry_Int_Tables_number   1
_chemical_formula_structural   SrCeI4
_chemical_formula_sum   'Sr2 Ce2 I8'
_cell_volume   477.26154867
_cell_formula_units_Z   2
loop_
 _symmetry_equiv_pos_site_id
 _symmetry_equiv_pos_as_xyz
  1  'x, y, z'
loop_
 _atom_site_type_symbol
 _atom_site_label
 _atom_site_symmetry_multiplicity
 _atom_site_fract_x
 _atom_site_fract_y
 _atom_site_fract_z
 _atom_site_occupancy
  Sr  Sr0  1  0.38517720  0.13528650  0.27032668  1
  Sr  Sr1  1  0.61482280  0.86471350  0.72967332  1
  Ce  Ce2  1  0.75042980  0.50028354  0.00043620  1
  Ce  Ce3  1  0.24957020  0.49971646  0.99956380  1
  I  I4  1  0.99316149  0.25918132  0.12521521  1
  I  I5  1  0.20906993  0.79863199  0.35301675  1
  I  I6  1  0.64366861  0.55420814  0.35279119  1
  I  I7  1  0.35633139  0.44579186  0.64720881  1
  I  I8  1  0.36829755  0.13427031  0.87510117  1
  I  I9  1  0.79093007  0.20136801  0.64698325  1
  I  I10  1  0.63170245  0.86572969  0.12489883  1
  I  I11  1  0.00683851  0.74081868  0.87478479  1
