# generated using pymatgen
data_Ba11Cu4Bi9O29
_symmetry_space_group_name_H-M   'P 1'
_cell_length_a   5.29533732
_cell_length_b   12.71029265
_cell_length_c   14.51495279
_cell_angle_alpha   90.96772900
_cell_angle_beta   79.48984850
_cell_angle_gamma   90.00000000
_symmetry_Int_Tables_number   1
_chemical_formula_structural   Ba11Cu4Bi9O29
_chemical_formula_sum   'Ba11 Cu4 Bi9 O29'
_cell_volume   960.40094957
_cell_formula_units_Z   1
loop_
 _symmetry_equiv_pos_site_id
 _symmetry_equiv_pos_as_xyz
  1  'x, y, z'
loop_
 _atom_site_type_symbol
 _atom_site_label
 _atom_site_symmetry_multiplicity
 _atom_site_fract_x
 _atom_site_fract_y
 _atom_site_fract_z
 _atom_site_occupancy
  Ba  Ba0  1  0.47388347  0.73634506  0.05223306  1
  Ba  Ba1  1  0.52765879  0.26753730  0.94468241  1
  Ba  Ba2  1  0.29216785  0.56019781  0.41566429  1
  Ba  Ba3  1  0.69533417  0.44864477  0.60933165  1
  Ba  Ba4  1  0.93669259  0.95049097  0.12661481  1
  Ba  Ba5  1  0.06350749  0.04956946  0.87298502  1
  Ba  Ba6  1  0.13878052  0.65402346  0.72243895  1
  Ba  Ba7  1  0.85385882  0.33950981  0.29228237  1
  Ba  Ba8  1  0.39854863  0.14819680  0.20290275  1
  Ba  Ba9  1  0.60150982  0.84523474  0.79698035  1
  Ba  Ba10  1  0.01124612  0.51499641  0.97750775  1
  Cu  Cu11  1  0.50023582  0.00177962  0.99952836  1
  Cu  Cu12  1  0.96545536  0.21332943  0.06908928  1
  Cu  Cu13  1  0.03448730  0.79051108  0.93102541  1
  Cu  Cu14  1  0.57314607  0.58148860  0.85370786  1
  Bi  Bi15  1  0.79689989  0.06969788  0.40620023  1
  Bi  Bi16  1  0.20289432  0.92898448  0.59421136  1
  Bi  Bi17  1  0.87837192  0.67196915  0.24325616  1
  Bi  Bi18  1  0.12266669  0.31491453  0.75466662  1
  Bi  Bi19  1  0.24996575  0.23655608  0.50006851  1
  Bi  Bi20  1  0.75223222  0.76971988  0.49553555  1
  Bi  Bi21  1  0.33674911  0.86725776  0.32650178  1
  Bi  Bi22  1  0.66484366  0.12862792  0.67031267  1
  Bi  Bi23  1  0.42230894  0.43917090  0.15538212  1
  O  O24  1  0.94623910  0.73086579  0.10752181  1
  O  O25  1  0.05252146  0.26696594  0.89495708  1
  O  O26  1  0.77355411  0.59799795  0.45289177  1
  O  O27  1  0.22333761  0.40164655  0.55332478  1
  O  O28  1  0.76238623  0.23661355  0.47522754  1
  O  O29  1  0.23984211  0.76350880  0.52031577  1
  O  O30  1  0.63945009  0.61070493  0.72109983  1
  O  O31  1  0.34836930  0.38557315  0.30326140  1
  O  O32  1  0.40409245  0.92763928  0.19181510  1
  O  O33  1  0.59767372  0.06745124  0.80465256  1
  O  O34  1  0.72905591  0.10669743  0.03721581  1
  O  O35  1  0.76719316  0.89728724  0.96351570  1
  O  O36  1  0.26929114  0.89728724  0.96351570  1
  O  O37  1  0.23372827  0.10669743  0.03721581  1
  O  O38  1  0.81925934  0.86605559  0.36148133  1
  O  O39  1  0.18503030  0.13308932  0.62993940  1
  O  O40  1  0.10499300  0.47137715  0.79001400  1
  O  O41  1  0.90270759  0.51580422  0.19458481  1
  O  O42  1  0.69092520  0.31144791  0.11720517  1
  O  O43  1  0.82092734  0.68776764  0.88962965  1
  O  O44  1  0.28944301  0.68776764  0.88962965  1
  O  O45  1  0.19186963  0.31144791  0.11720517  1
  O  O46  1  0.30071358  0.06913456  0.39857283  1
  O  O47  1  0.70034855  0.92266314  0.59930290  1
  O  O48  1  0.86557145  0.12357651  0.26885710  1
  O  O49  1  0.13395842  0.87790736  0.73208316  1
  O  O50  1  0.36615902  0.70110564  0.26768195  1
  O  O51  1  0.63402757  0.28891197  0.73194486  1
  O  O52  1  0.51388599  0.50625302  0.97222802  1
