# generated using pymatgen
data_CdI2
_symmetry_space_group_name_H-M   'P 1'
_cell_length_a   4.33234375
_cell_length_b   4.33234401
_cell_length_c   51.86317509
_cell_angle_alpha   90.00000000
_cell_angle_beta   90.00000000
_cell_angle_gamma   119.99999793
_symmetry_Int_Tables_number   1
_chemical_formula_structural   CdI2
_chemical_formula_sum   'Cd7 I14'
_cell_volume   843.01554852
_cell_formula_units_Z   7
loop_
 _symmetry_equiv_pos_site_id
 _symmetry_equiv_pos_as_xyz
  1  'x, y, z'
loop_
 _atom_site_type_symbol
 _atom_site_label
 _atom_site_symmetry_multiplicity
 _atom_site_fract_x
 _atom_site_fract_y
 _atom_site_fract_z
 _atom_site_occupancy
  Cd  Cd0  1  0.00000000  0.00000000  0.17860051  1
  Cd  Cd1  1  0.00000000  0.00000000  0.75001682  1
  Cd  Cd2  1  0.00000000  0.00000000  0.89283401  1
  Cd  Cd3  1  0.66666700  0.33333300  0.32140833  1
  Cd  Cd4  1  0.00000000  0.00000000  0.46432766  1
  Cd  Cd5  1  0.66666700  0.33333300  0.60710944  1
  Cd  Cd6  1  0.66666700  0.33333300  0.03571297  1
  I  I7  1  0.66666700  0.33333300  0.43104760  1
  I  I8  1  0.66666700  0.33333300  0.14531084  1
  I  I9  1  0.66666700  0.33333300  0.85957226  1
  I  I10  1  0.33333300  0.66666700  0.06898633  1
  I  I11  1  0.33333300  0.66666700  0.21187919  1
  I  I12  1  0.33333300  0.66666700  0.35469671  1
  I  I13  1  0.33333300  0.66666700  0.64039409  1
  I  I14  1  0.00000000  0.00000000  0.00246232  1
  I  I15  1  0.33333300  0.66666700  0.78326797  1
  I  I16  1  0.33333300  0.66666700  0.92609942  1
  I  I17  1  0.00000000  0.00000000  0.57378032  1
  I  I18  1  0.33333300  0.66666700  0.49761821  1
  I  I19  1  0.66666700  0.33333300  0.71676072  1
  I  I20  1  0.00000000  0.00000000  0.28811431  1
