# generated using pymatgen
data_Cu7H9(SN)4
_symmetry_space_group_name_H-M   'P 1'
_cell_length_a   6.83369809
_cell_length_b   8.19213981
_cell_length_c   10.49348899
_cell_angle_alpha   90.00930655
_cell_angle_beta   101.00966696
_cell_angle_gamma   89.99971623
_symmetry_Int_Tables_number   1
_chemical_formula_structural   Cu7H9(SN)4
_chemical_formula_sum   'Cu14 H18 S8 N8'
_cell_volume   576.64081055
_cell_formula_units_Z   2
loop_
 _symmetry_equiv_pos_site_id
 _symmetry_equiv_pos_as_xyz
  1  'x, y, z'
loop_
 _atom_site_type_symbol
 _atom_site_label
 _atom_site_symmetry_multiplicity
 _atom_site_fract_x
 _atom_site_fract_y
 _atom_site_fract_z
 _atom_site_occupancy
  Cu  Cu0  1  0.08470509  0.39873433  0.63113662  1
  Cu  Cu1  1  0.91521582  0.89874607  0.36883752  1
  Cu  Cu2  1  0.56020383  0.61589949  0.64128208  1
  Cu  Cu3  1  0.43961343  0.11578873  0.35869940  1
  Cu  Cu4  1  0.57072254  0.13877977  0.64403994  1
  Cu  Cu5  1  0.42926321  0.63872282  0.35584128  1
  Cu  Cu6  1  0.78458406  0.54726725  0.47253012  1
  Cu  Cu7  1  0.21519778  0.04745912  0.52751787  1
  Cu  Cu8  1  0.95017474  0.89616730  0.62658234  1
  Cu  Cu9  1  0.04979821  0.39622061  0.37343786  1
  Cu  Cu10  1  0.79947952  0.21850685  0.48041407  1
  Cu  Cu11  1  0.20056935  0.71868317  0.51946911  1
  Cu  Cu12  1  0.42519300  0.37642008  0.49559855  1
  Cu  Cu13  1  0.57477702  0.87640790  0.50435360  1
  H  H14  1  0.66351009  0.87751081  0.02843992  1
  H  H15  1  0.33670399  0.37752884  0.97163212  1
  H  H16  1  0.79315395  0.29266229  0.98878956  1
  H  H17  1  0.20683085  0.79259301  0.01124261  1
  H  H18  1  0.79485506  0.64420186  0.97388556  1
  H  H19  1  0.20499167  0.14415984  0.02602927  1
  H  H20  1  0.70614906  0.97465819  0.89736638  1
  H  H21  1  0.29387376  0.47468967  0.10267148  1
  H  H22  1  0.76943664  0.41302011  0.85367673  1
  H  H23  1  0.23053369  0.91297814  0.14637610  1
  H  H24  1  0.76486113  0.11289084  0.14972630  1
  H  H25  1  0.23517521  0.61279991  0.85030555  1
  H  H26  1  0.83677986  0.54269263  0.11192159  1
  H  H27  1  0.16369301  0.04240149  0.88808967  1
  H  H28  1  0.55309772  0.12433700  0.04311699  1
  H  H29  1  0.44686553  0.62445814  0.95697369  1
  H  H30  1  0.99622924  0.41876737  0.96233179  1
  H  H31  1  0.00379480  0.91879363  0.03766054  1
  S  S32  1  0.91312189  0.15134506  0.69093332  1
  S  S33  1  0.08686835  0.65132785  0.30900783  1
  S  S34  1  0.59797285  0.37658482  0.33011691  1
  S  S35  1  0.40196367  0.87675674  0.66982869  1
  S  S36  1  0.41583391  0.37762172  0.70841338  1
  S  S37  1  0.58410975  0.87753348  0.29153555  1
  S  S38  1  0.90384477  0.63512785  0.67360581  1
  S  S39  1  0.09602004  0.13513603  0.32638533  1
  N  N40  1  0.83674966  0.40745194  0.95107633  1
  N  N41  1  0.16327519  0.90741279  0.04896141  1
  N  N42  1  0.75112317  0.96513982  0.99662126  1
  N  N43  1  0.24896310  0.46510685  0.00341043  1
  N  N44  1  0.75615969  0.54002556  0.01755987  1
  N  N45  1  0.24399686  0.03993719  0.98253034  1
  N  N46  1  0.70619552  0.12006357  0.05160569  1
  N  N47  1  0.29376875  0.62004148  0.94843163  1
