# generated using pymatgen
data_GaCl3
_symmetry_space_group_name_H-M   'P 1'
_cell_length_a   7.17430213
_cell_length_b   7.11695237
_cell_length_c   7.29194302
_cell_angle_alpha   116.13160260
_cell_angle_beta   91.93479479
_cell_angle_gamma   116.90915958
_symmetry_Int_Tables_number   1
_chemical_formula_structural   GaCl3
_chemical_formula_sum   'Ga2 Cl6'
_cell_volume   285.15762024
_cell_formula_units_Z   2
loop_
 _symmetry_equiv_pos_site_id
 _symmetry_equiv_pos_as_xyz
  1  'x, y, z'
loop_
 _atom_site_type_symbol
 _atom_site_label
 _atom_site_symmetry_multiplicity
 _atom_site_fract_x
 _atom_site_fract_y
 _atom_site_fract_z
 _atom_site_occupancy
  Ga  Ga0  1  0.15191058  0.06895438  0.22018773  1
  Ga  Ga1  1  0.84808942  0.93104562  0.77981227  1
  Cl  Cl2  1  0.82839616  0.65490263  0.48260208  1
  Cl  Cl3  1  0.21472124  0.21097792  0.98081718  1
  Cl  Cl4  1  0.31902532  0.88148043  0.19655692  1
  Cl  Cl5  1  0.17160384  0.34509737  0.51739792  1
  Cl  Cl6  1  0.78527876  0.78902208  0.01918282  1
  Cl  Cl7  1  0.68097468  0.11851957  0.80344308  1
