# generated using pymatgen
data_Y5Mg16Cu5
_symmetry_space_group_name_H-M   'P 1'
_cell_length_a   4.15359641
_cell_length_b   9.76931763
_cell_length_c   28.89282797
_cell_angle_alpha   90.00000000
_cell_angle_beta   90.00000000
_cell_angle_gamma   102.27380992
_symmetry_Int_Tables_number   1
_chemical_formula_structural   Y5Mg16Cu5
_chemical_formula_sum   'Y10 Mg32 Cu10'
_cell_volume   1145.60957616
_cell_formula_units_Z   2
loop_
 _symmetry_equiv_pos_site_id
 _symmetry_equiv_pos_as_xyz
  1  'x, y, z'
loop_
 _atom_site_type_symbol
 _atom_site_label
 _atom_site_symmetry_multiplicity
 _atom_site_fract_x
 _atom_site_fract_y
 _atom_site_fract_z
 _atom_site_occupancy
  Y  Y0  1  0.60396859  0.20793719  0.65670102  1
  Y  Y1  1  0.41218135  0.82436271  0.62278557  1
  Y  Y2  1  0.58781865  0.17563729  0.12278557  1
  Y  Y3  1  0.58781865  0.17563729  0.37721443  1
  Y  Y4  1  0.37248099  0.74496198  0.75000000  1
  Y  Y5  1  0.39603141  0.79206281  0.15670102  1
  Y  Y6  1  0.39603141  0.79206281  0.34329898  1
  Y  Y7  1  0.62751901  0.25503802  0.25000000  1
  Y  Y8  1  0.60396859  0.20793719  0.84329898  1
  Y  Y9  1  0.41218135  0.82436271  0.87721443  1
  Mg  Mg10  1  0.07478571  0.14957142  0.03234697  1
  Mg  Mg11  1  0.54672691  0.09345382  0.54603255  1
  Mg  Mg12  1  0.24320377  0.48640754  0.83176226  1
  Mg  Mg13  1  0.83829127  0.67658254  0.07026116  1
  Mg  Mg14  1  0.98191527  0.96383053  0.69587581  1
  Mg  Mg15  1  0.30853012  0.61706024  0.98868904  1
  Mg  Mg16  1  0.92521429  0.85042858  0.96765303  1
  Mg  Mg17  1  0.77826570  0.55653140  0.90944618  1
  Mg  Mg18  1  0.87796376  0.75592752  0.25000000  1
  Mg  Mg19  1  0.16170873  0.32341746  0.92973884  1
  Mg  Mg20  1  0.98191527  0.96383053  0.80412419  1
  Mg  Mg21  1  0.69146988  0.38293976  0.01131096  1
  Mg  Mg22  1  0.69146988  0.38293976  0.48868904  1
  Mg  Mg23  1  0.45327309  0.90654618  0.04603255  1
  Mg  Mg24  1  0.75679623  0.51359246  0.16823774  1
  Mg  Mg25  1  0.12203624  0.24407248  0.75000000  1
  Mg  Mg26  1  0.73414668  0.46829335  0.75000000  1
  Mg  Mg27  1  0.01808473  0.03616947  0.19587581  1
  Mg  Mg28  1  0.22173430  0.44346860  0.09055382  1
  Mg  Mg29  1  0.45327309  0.90654618  0.45396745  1
  Mg  Mg30  1  0.75679623  0.51359246  0.33176226  1
  Mg  Mg31  1  0.22173430  0.44346860  0.40944618  1
  Mg  Mg32  1  0.16170873  0.32341746  0.57026116  1
  Mg  Mg33  1  0.77826570  0.55653140  0.59055382  1
  Mg  Mg34  1  0.92521429  0.85042858  0.53234697  1
  Mg  Mg35  1  0.01808473  0.03616947  0.30412419  1
  Mg  Mg36  1  0.30853012  0.61706024  0.51131096  1
  Mg  Mg37  1  0.83829127  0.67658254  0.42973884  1
  Mg  Mg38  1  0.07478571  0.14957142  0.46765303  1
  Mg  Mg39  1  0.24320377  0.48640754  0.66823774  1
  Mg  Mg40  1  0.54672691  0.09345382  0.95396745  1
  Mg  Mg41  1  0.26585332  0.53170665  0.25000000  1
  Cu  Cu42  1  0.97544597  0.95089194  0.10421288  1
  Cu  Cu43  1  0.16531076  0.33062152  0.17907777  1
  Cu  Cu44  1  0.83468924  0.66937848  0.67907777  1
  Cu  Cu45  1  0.52861213  0.05722426  0.75000000  1
  Cu  Cu46  1  0.02455403  0.04910806  0.60421288  1
  Cu  Cu47  1  0.47138787  0.94277574  0.25000000  1
  Cu  Cu48  1  0.02455403  0.04910806  0.89578712  1
  Cu  Cu49  1  0.16531076  0.33062152  0.32092223  1
  Cu  Cu50  1  0.83468924  0.66937848  0.82092223  1
  Cu  Cu51  1  0.97544597  0.95089194  0.39578712  1
