# generated using pymatgen
data_CdI2
_symmetry_space_group_name_H-M   'P 1'
_cell_length_a   4.33185092
_cell_length_b   4.33185119
_cell_length_c   52.20957323
_cell_angle_alpha   90.00000000
_cell_angle_beta   90.00000000
_cell_angle_gamma   119.99999796
_symmetry_Int_Tables_number   1
_chemical_formula_structural   CdI2
_chemical_formula_sum   'Cd7 I14'
_cell_volume   848.45304888
_cell_formula_units_Z   7
loop_
 _symmetry_equiv_pos_site_id
 _symmetry_equiv_pos_as_xyz
  1  'x, y, z'
loop_
 _atom_site_type_symbol
 _atom_site_label
 _atom_site_symmetry_multiplicity
 _atom_site_fract_x
 _atom_site_fract_y
 _atom_site_fract_z
 _atom_site_occupancy
  Cd  Cd0  1  0.00000000  0.00000000  0.17858568  1
  Cd  Cd1  1  0.00000000  0.00000000  0.60715332  1
  Cd  Cd2  1  0.00000000  0.00000000  0.74999455  1
  Cd  Cd3  1  0.00000000  0.00000000  0.89281971  1
  Cd  Cd4  1  0.66666700  0.33333300  0.32139683  1
  Cd  Cd5  1  0.00000000  0.00000000  0.46433051  1
  Cd  Cd6  1  0.66666700  0.33333300  0.03571331  1
  I  I7  1  0.66666700  0.33333300  0.43123496  1
  I  I8  1  0.66666700  0.33333300  0.57409506  1
  I  I9  1  0.66666700  0.33333300  0.14549875  1
  I  I10  1  0.33333300  0.66666700  0.06879103  1
  I  I11  1  0.33333300  0.66666700  0.21166447  1
  I  I12  1  0.33333300  0.66666700  0.35448570  1
  I  I13  1  0.33333300  0.66666700  0.64021025  1
  I  I14  1  0.00000000  0.00000000  0.00265550  1
  I  I15  1  0.33333300  0.66666700  0.78303821  1
  I  I16  1  0.33333300  0.66666700  0.92587830  1
  I  I17  1  0.66666700  0.33333300  0.85976405  1
  I  I18  1  0.33333300  0.66666700  0.49742528  1
  I  I19  1  0.66666700  0.33333300  0.71695023  1
  I  I20  1  0.00000000  0.00000000  0.28831429  1
