# generated using pymatgen
data_K2CoCl4
_symmetry_space_group_name_H-M   'P 1'
_cell_length_a   6.88270057
_cell_length_b   9.70752371
_cell_length_c   12.68987659
_cell_angle_alpha   90.00000000
_cell_angle_beta   104.23434620
_cell_angle_gamma   90.00000000
_symmetry_Int_Tables_number   1
_chemical_formula_structural   K2CoCl4
_chemical_formula_sum   'K8 Co4 Cl16'
_cell_volume   821.83022076
_cell_formula_units_Z   4
loop_
 _symmetry_equiv_pos_site_id
 _symmetry_equiv_pos_as_xyz
  1  'x, y, z'
loop_
 _atom_site_type_symbol
 _atom_site_label
 _atom_site_symmetry_multiplicity
 _atom_site_fract_x
 _atom_site_fract_y
 _atom_site_fract_z
 _atom_site_occupancy
  K  K0  1  0.23064555  0.35476630  0.00701067  1
  K  K1  1  0.76935445  0.64523370  0.99298933  1
  K  K2  1  0.26116907  0.40441952  0.66512400  1
  K  K3  1  0.23883093  0.90441952  0.83487600  1
  K  K4  1  0.26935445  0.85476630  0.49298933  1
  K  K5  1  0.76116907  0.09558048  0.16512400  1
  K  K6  1  0.73883093  0.59558048  0.33487600  1
  K  K7  1  0.73064555  0.14523370  0.50701067  1
  Co  Co8  1  0.70197048  0.14661247  0.81989090  1
  Co  Co9  1  0.29802952  0.85338753  0.18010910  1
  Co  Co10  1  0.20197048  0.35338753  0.31989090  1
  Co  Co11  1  0.79802952  0.64661247  0.68010910  1
  Cl  Cl12  1  0.27510283  0.03671934  0.06891489  1
  Cl  Cl13  1  0.72489717  0.96328066  0.93108511  1
  Cl  Cl14  1  0.45559520  0.10124100  0.66776407  1
  Cl  Cl15  1  0.49908212  0.31248451  0.27982107  1
  Cl  Cl16  1  0.99908212  0.18751549  0.77982107  1
  Cl  Cl17  1  0.90060081  0.83488573  0.60139837  1
  Cl  Cl18  1  0.59939919  0.33488573  0.89860163  1
  Cl  Cl19  1  0.00091788  0.81248451  0.22017893  1
  Cl  Cl20  1  0.54440480  0.89875900  0.33223593  1
  Cl  Cl21  1  0.09939919  0.16511427  0.39860163  1
  Cl  Cl22  1  0.40060081  0.66511427  0.10139837  1
  Cl  Cl23  1  0.50091788  0.68751549  0.72017893  1
  Cl  Cl24  1  0.95559520  0.39875900  0.16776407  1
  Cl  Cl25  1  0.22489717  0.53671934  0.43108511  1
  Cl  Cl26  1  0.04440480  0.60124100  0.83223593  1
  Cl  Cl27  1  0.77510283  0.46328066  0.56891489  1
