# generated using pymatgen
data_AlTeCl7
_symmetry_space_group_name_H-M   'P 1'
_cell_length_a   6.79427928
_cell_length_b   8.78460336
_cell_length_c   20.34757803
_cell_angle_alpha   93.65357823
_cell_angle_beta   94.83092302
_cell_angle_gamma   96.70462811
_symmetry_Int_Tables_number   1
_chemical_formula_structural   AlTeCl7
_chemical_formula_sum   'Al4 Te4 Cl28'
_cell_volume   1198.53171616
_cell_formula_units_Z   4
loop_
 _symmetry_equiv_pos_site_id
 _symmetry_equiv_pos_as_xyz
  1  'x, y, z'
loop_
 _atom_site_type_symbol
 _atom_site_label
 _atom_site_symmetry_multiplicity
 _atom_site_fract_x
 _atom_site_fract_y
 _atom_site_fract_z
 _atom_site_occupancy
  Al  Al0  1  0.30887727  0.10951853  0.39827999  1
  Al  Al1  1  0.72279037  0.33633870  0.87851732  1
  Al  Al2  1  0.69112273  0.89048147  0.60172001  1
  Al  Al3  1  0.27720963  0.66366130  0.12148268  1
  Te  Te4  1  0.72210804  0.29547452  0.10718245  1
  Te  Te5  1  0.24495816  0.25254481  0.61696098  1
  Te  Te6  1  0.27789196  0.70452548  0.89281755  1
  Te  Te7  1  0.75504184  0.74745519  0.38303902  1
  Cl  Cl8  1  0.55751964  0.38271140  0.65511995  1
  Cl  Cl9  1  0.58328363  0.82963178  0.94122006  1
  Cl  Cl10  1  0.31412323  0.86008939  0.18892123  1
  Cl  Cl11  1  0.13937620  0.22381115  0.72214028  1
  Cl  Cl12  1  0.87491795  0.07169199  0.11645083  1
  Cl  Cl13  1  0.56612762  0.60305296  0.09582367  1
  Cl  Cl14  1  0.36636771  0.69661211  0.78467766  1
  Cl  Cl15  1  0.89211387  0.29230516  0.96987817  1
  Cl  Cl16  1  0.86118209  0.81488412  0.68235237  1
  Cl  Cl17  1  0.16345735  0.90763128  0.43979690  1
  Cl  Cl18  1  0.43387238  0.39694704  0.90417633  1
  Cl  Cl19  1  0.12212605  0.46745332  0.16440506  1
  Cl  Cl20  1  0.90133779  0.52224330  0.39867063  1
  Cl  Cl21  1  0.62998418  0.70775055  0.52190945  1
  Cl  Cl22  1  0.83654265  0.09236872  0.56020310  1
  Cl  Cl23  1  0.59683683  0.05655396  0.36924693  1
  Cl  Cl24  1  0.12508205  0.92830801  0.88354917  1
  Cl  Cl25  1  0.41671637  0.17036822  0.05877994  1
  Cl  Cl26  1  0.68587677  0.13991061  0.81107877  1
  Cl  Cl27  1  0.13881791  0.18511588  0.31764763  1
  Cl  Cl28  1  0.09866221  0.47775670  0.60132937  1
  Cl  Cl29  1  0.86062380  0.77618885  0.27785972  1
  Cl  Cl30  1  0.10788613  0.70769484  0.03012183  1
  Cl  Cl31  1  0.63363229  0.30338789  0.21532234  1
  Cl  Cl32  1  0.87787395  0.53254668  0.83559494  1
  Cl  Cl33  1  0.44248036  0.61728860  0.34488005  1
  Cl  Cl34  1  0.40316317  0.94344604  0.63075307  1
  Cl  Cl35  1  0.37001582  0.29224945  0.47809055  1
