# generated using pymatgen
data_CdI2
_symmetry_space_group_name_H-M   'P 1'
_cell_length_a   4.33390193
_cell_length_b   4.33390219
_cell_length_c   59.31700246
_cell_angle_alpha   90.00000000
_cell_angle_beta   90.00000000
_cell_angle_gamma   119.99999795
_symmetry_Int_Tables_number   1
_chemical_formula_structural   CdI2
_chemical_formula_sum   'Cd8 I16'
_cell_volume   964.86826388
_cell_formula_units_Z   8
loop_
 _symmetry_equiv_pos_site_id
 _symmetry_equiv_pos_as_xyz
  1  'x, y, z'
loop_
 _atom_site_type_symbol
 _atom_site_label
 _atom_site_symmetry_multiplicity
 _atom_site_fract_x
 _atom_site_fract_y
 _atom_site_fract_z
 _atom_site_occupancy
  Cd  Cd0  1  0.00000000  0.00000000  0.78125148  1
  Cd  Cd1  1  0.00000000  0.00000000  0.40621805  1
  Cd  Cd2  1  0.00000000  0.00000000  0.90622042  1
  Cd  Cd3  1  0.66666700  0.33333300  0.53128599  1
  Cd  Cd4  1  0.66666700  0.33333300  0.28128106  1
  Cd  Cd5  1  0.00000000  0.00000000  0.15622153  1
  Cd  Cd6  1  0.66666700  0.33333300  0.03128324  1
  Cd  Cd7  1  0.66666700  0.33333300  0.65622079  1
  I  I8  1  0.33333300  0.66666700  0.81031048  1
  I  I9  1  0.33333300  0.66666700  0.56033778  1
  I  I10  1  0.66666700  0.33333300  0.12716358  1
  I  I11  1  0.00000000  0.00000000  0.25224213  1
  I  I12  1  0.33333300  0.66666700  0.06033354  1
  I  I13  1  0.33333300  0.66666700  0.43527650  1
  I  I14  1  0.66666700  0.33333300  0.75219591  1
  I  I15  1  0.33333300  0.66666700  0.18527872  1
  I  I16  1  0.66666700  0.33333300  0.87716320  1
  I  I17  1  0.33333300  0.66666700  0.31033224  1
  I  I18  1  0.33333300  0.66666700  0.93527704  1
  I  I19  1  0.00000000  0.00000000  0.50224701  1
  I  I20  1  0.66666700  0.33333300  0.37716085  1
  I  I21  1  0.00000000  0.00000000  0.62717762  1
  I  I22  1  0.33333300  0.66666700  0.68527389  1
  I  I23  1  0.00000000  0.00000000  0.00224696  1
