# generated using pymatgen
data_CdI2
_symmetry_space_group_name_H-M   'P 1'
_cell_length_a   4.33268098
_cell_length_b   4.33268124
_cell_length_c   51.86658254
_cell_angle_alpha   90.00000000
_cell_angle_beta   90.00000000
_cell_angle_gamma   119.99999798
_symmetry_Int_Tables_number   1
_chemical_formula_structural   CdI2
_chemical_formula_sum   'Cd7 I14'
_cell_volume   843.20218987
_cell_formula_units_Z   7
loop_
 _symmetry_equiv_pos_site_id
 _symmetry_equiv_pos_as_xyz
  1  'x, y, z'
loop_
 _atom_site_type_symbol
 _atom_site_label
 _atom_site_symmetry_multiplicity
 _atom_site_fract_x
 _atom_site_fract_y
 _atom_site_fract_z
 _atom_site_occupancy
  Cd  Cd0  1  0.66666700  0.33333300  0.03572287  1
  Cd  Cd1  1  0.33333300  0.66666700  0.60711787  1
  Cd  Cd2  1  0.33333300  0.66666700  0.89284397  1
  Cd  Cd3  1  0.33333300  0.66666700  0.74998421  1
  Cd  Cd4  1  0.33333300  0.66666700  0.17862916  1
  Cd  Cd5  1  0.33333300  0.66666700  0.46430027  1
  Cd  Cd6  1  0.33333300  0.66666700  0.32141350  1
  I  I7  1  0.00000000  0.00000000  0.14535227  1
  I  I8  1  0.66666700  0.33333300  0.21191540  1
  I  I9  1  0.66666700  0.33333300  0.35470821  1
  I  I10  1  0.33333300  0.66666700  0.06901006  1
  I  I11  1  0.66666700  0.33333300  0.92611301  1
  I  I12  1  0.00000000  0.00000000  0.43099197  1
  I  I13  1  0.66666700  0.33333300  0.64040896  1
  I  I14  1  0.00000000  0.00000000  0.00246670  1
  I  I15  1  0.66666700  0.33333300  0.49760529  1
  I  I16  1  0.66666700  0.33333300  0.78325194  1
  I  I17  1  0.00000000  0.00000000  0.57379663  1
  I  I18  1  0.00000000  0.00000000  0.71670333  1
  I  I19  1  0.00000000  0.00000000  0.85954965  1
  I  I20  1  0.00000000  0.00000000  0.28811474  1
