# generated using pymatgen
data_CdI2
_symmetry_space_group_name_H-M   'P 1'
_cell_length_a   4.33263920
_cell_length_b   4.33263947
_cell_length_c   74.39843608
_cell_angle_alpha   90.00000000
_cell_angle_beta   90.00000000
_cell_angle_gamma   119.99999797
_symmetry_Int_Tables_number   1
_chemical_formula_structural   CdI2
_chemical_formula_sum   'Cd10 I20'
_cell_volume   1209.48231666
_cell_formula_units_Z   10
loop_
 _symmetry_equiv_pos_site_id
 _symmetry_equiv_pos_as_xyz
  1  'x, y, z'
loop_
 _atom_site_type_symbol
 _atom_site_label
 _atom_site_symmetry_multiplicity
 _atom_site_fract_x
 _atom_site_fract_y
 _atom_site_fract_z
 _atom_site_occupancy
  Cd  Cd0  1  0.66666700  0.33333300  0.22501629  1
  Cd  Cd1  1  0.00000000  0.00000000  0.82501532  1
  Cd  Cd2  1  0.66666700  0.33333300  0.72502174  1
  Cd  Cd3  1  0.00000000  0.00000000  0.92497837  1
  Cd  Cd4  1  0.66666700  0.33333300  0.62496147  1
  Cd  Cd5  1  0.00000000  0.00000000  0.32500694  1
  Cd  Cd6  1  0.00000000  0.00000000  0.52496320  1
  Cd  Cd7  1  0.66666700  0.33333300  0.42500218  1
  Cd  Cd8  1  0.00000000  0.00000000  0.12501045  1
  Cd  Cd9  1  0.66666700  0.33333300  0.02501598  1
  I  I10  1  0.00000000  0.00000000  0.20182450  1
  I  I11  1  0.33333300  0.66666700  0.44819787  1
  I  I12  1  0.33333300  0.66666700  0.34820476  1
  I  I13  1  0.66666700  0.33333300  0.80181585  1
  I  I14  1  0.66666700  0.33333300  0.90178504  1
  I  I15  1  0.33333300  0.66666700  0.94817622  1
  I  I16  1  0.00000000  0.00000000  0.60175320  1
  I  I17  1  0.00000000  0.00000000  0.40180784  1
  I  I18  1  0.66666700  0.33333300  0.10181090  1
  I  I19  1  0.33333300  0.66666700  0.04821381  1
  I  I20  1  0.66666700  0.33333300  0.30180997  1
  I  I21  1  0.00000000  0.00000000  0.00182296  1
  I  I22  1  0.33333300  0.66666700  0.54816523  1
  I  I23  1  0.33333300  0.66666700  0.14821091  1
  I  I24  1  0.33333300  0.66666700  0.24821262  1
  I  I25  1  0.00000000  0.00000000  0.70183074  1
  I  I26  1  0.66666700  0.33333300  0.50176350  1
  I  I27  1  0.33333300  0.66666700  0.84821583  1
  I  I28  1  0.33333300  0.66666700  0.64816597  1
  I  I29  1  0.33333300  0.66666700  0.74822035  1
