# generated using pymatgen
data_CdI2
_symmetry_space_group_name_H-M   'P 1'
_cell_length_a   4.33286022
_cell_length_b   4.33286049
_cell_length_c   66.71659432
_cell_angle_alpha   90.00000000
_cell_angle_beta   90.00000000
_cell_angle_gamma   119.99999796
_symmetry_Int_Tables_number   1
_chemical_formula_structural   CdI2
_chemical_formula_sum   'Cd9 I18'
_cell_volume   1084.71062358
_cell_formula_units_Z   9
loop_
 _symmetry_equiv_pos_site_id
 _symmetry_equiv_pos_as_xyz
  1  'x, y, z'
loop_
 _atom_site_type_symbol
 _atom_site_label
 _atom_site_symmetry_multiplicity
 _atom_site_fract_x
 _atom_site_fract_y
 _atom_site_fract_z
 _atom_site_occupancy
  Cd  Cd0  1  0.66666700  0.33333300  0.58331383  1
  Cd  Cd1  1  0.66666700  0.33333300  0.36109228  1
  Cd  Cd2  1  0.00000000  0.00000000  0.47223376  1
  Cd  Cd3  1  0.00000000  0.00000000  0.91664450  1
  Cd  Cd4  1  0.66666700  0.33333300  0.02779000  1
  Cd  Cd5  1  0.00000000  0.00000000  0.13889600  1
  Cd  Cd6  1  0.66666700  0.33333300  0.69445748  1
  Cd  Cd7  1  0.00000000  0.00000000  0.80555875  1
  Cd  Cd8  1  0.66666700  0.33333300  0.25000745  1
  I  I9  1  0.00000000  0.00000000  0.55744922  1
  I  I10  1  0.33333300  0.66666700  0.72033679  1
  I  I11  1  0.00000000  0.00000000  0.22415060  1
  I  I12  1  0.33333300  0.66666700  0.27588354  1
  I  I13  1  0.00000000  0.00000000  0.66858669  1
  I  I14  1  0.33333300  0.66666700  0.05366340  1
  I  I15  1  0.33333300  0.66666700  0.60918740  1
  I  I16  1  0.66666700  0.33333300  0.89078579  1
  I  I17  1  0.33333300  0.66666700  0.94250255  1
  I  I18  1  0.66666700  0.33333300  0.11304196  1
  I  I19  1  0.00000000  0.00000000  0.00193633  1
  I  I20  1  0.66666700  0.33333300  0.44635292  1
  I  I21  1  0.33333300  0.66666700  0.16474513  1
  I  I22  1  0.66666700  0.33333300  0.77966831  1
  I  I23  1  0.33333300  0.66666700  0.38695698  1
  I  I24  1  0.00000000  0.00000000  0.33520573  1
  I  I25  1  0.33333300  0.66666700  0.83144191  1
  I  I26  1  0.33333300  0.66666700  0.49811072  1
