# generated using pymatgen
data_CdI2
_symmetry_space_group_name_H-M   'P 1'
_cell_length_a   4.33266037
_cell_length_b   4.33266064
_cell_length_c   59.29958761
_cell_angle_alpha   90.00000000
_cell_angle_beta   90.00000000
_cell_angle_gamma   119.99999798
_symmetry_Int_Tables_number   1
_chemical_formula_structural   CdI2
_chemical_formula_sum   'Cd8 I16'
_cell_volume   964.03240967
_cell_formula_units_Z   8
loop_
 _symmetry_equiv_pos_site_id
 _symmetry_equiv_pos_as_xyz
  1  'x, y, z'
loop_
 _atom_site_type_symbol
 _atom_site_label
 _atom_site_symmetry_multiplicity
 _atom_site_fract_x
 _atom_site_fract_y
 _atom_site_fract_z
 _atom_site_occupancy
  Cd  Cd0  1  0.00000000  0.00000000  0.78124716  1
  Cd  Cd1  1  0.00000000  0.00000000  0.40622303  1
  Cd  Cd2  1  0.00000000  0.00000000  0.90622181  1
  Cd  Cd3  1  0.66666700  0.33333300  0.03128201  1
  Cd  Cd4  1  0.66666700  0.33333300  0.53127952  1
  Cd  Cd5  1  0.00000000  0.00000000  0.15622441  1
  Cd  Cd6  1  0.00000000  0.00000000  0.65622488  1
  Cd  Cd7  1  0.66666700  0.33333300  0.28128097  1
  I  I8  1  0.33333300  0.66666700  0.81035448  1
  I  I9  1  0.33333300  0.66666700  0.56037438  1
  I  I10  1  0.66666700  0.33333300  0.12711678  1
  I  I11  1  0.00000000  0.00000000  0.25219853  1
  I  I12  1  0.33333300  0.66666700  0.06037582  1
  I  I13  1  0.33333300  0.66666700  0.43533201  1
  I  I14  1  0.66666700  0.33333300  0.62711519  1
  I  I15  1  0.33333300  0.66666700  0.18533335  1
  I  I16  1  0.66666700  0.33333300  0.87711462  1
  I  I17  1  0.66666700  0.33333300  0.75214600  1
  I  I18  1  0.33333300  0.66666700  0.31037519  1
  I  I19  1  0.33333300  0.66666700  0.93533019  1
  I  I20  1  0.66666700  0.33333300  0.37711502  1
  I  I21  1  0.00000000  0.00000000  0.00220048  1
  I  I22  1  0.33333300  0.66666700  0.68533627  1
  I  I23  1  0.00000000  0.00000000  0.50219790  1
