# generated using pymatgen
data_CdI2
_symmetry_space_group_name_H-M   'P 1'
_cell_length_a   4.33070026
_cell_length_b   4.33070052
_cell_length_c   59.40096415
_cell_angle_alpha   90.00000000
_cell_angle_beta   90.00000000
_cell_angle_gamma   119.99999802
_symmetry_Int_Tables_number   1
_chemical_formula_structural   CdI2
_chemical_formula_sum   'Cd8 I16'
_cell_volume   964.80692609
_cell_formula_units_Z   8
loop_
 _symmetry_equiv_pos_site_id
 _symmetry_equiv_pos_as_xyz
  1  'x, y, z'
loop_
 _atom_site_type_symbol
 _atom_site_label
 _atom_site_symmetry_multiplicity
 _atom_site_fract_x
 _atom_site_fract_y
 _atom_site_fract_z
 _atom_site_occupancy
  Cd  Cd0  1  0.00000000  0.00000000  0.78124916  1
  Cd  Cd1  1  0.00000000  0.00000000  0.40622953  1
  Cd  Cd2  1  0.00000000  0.00000000  0.90622618  1
  Cd  Cd3  1  0.66666700  0.33333300  0.03128639  1
  Cd  Cd4  1  0.00000000  0.00000000  0.15622936  1
  Cd  Cd5  1  0.00000000  0.00000000  0.65622844  1
  Cd  Cd6  1  0.66666700  0.33333300  0.28128836  1
  Cd  Cd7  1  0.00000000  0.00000000  0.53125062  1
  I  I8  1  0.33333300  0.66666700  0.81032669  1
  I  I9  1  0.33333300  0.66666700  0.56032713  1
  I  I10  1  0.66666700  0.33333300  0.12715025  1
  I  I11  1  0.00000000  0.00000000  0.25223342  1
  I  I12  1  0.33333300  0.66666700  0.06034988  1
  I  I13  1  0.66666700  0.33333300  0.87714744  1
  I  I14  1  0.33333300  0.66666700  0.43531283  1
  I  I15  1  0.66666700  0.33333300  0.75217726  1
  I  I16  1  0.33333300  0.66666700  0.18531000  1
  I  I17  1  0.66666700  0.33333300  0.50217836  1
  I  I18  1  0.66666700  0.33333300  0.62714792  1
  I  I19  1  0.33333300  0.66666700  0.31035124  1
  I  I20  1  0.33333300  0.66666700  0.93530834  1
  I  I21  1  0.66666700  0.33333300  0.37714821  1
  I  I22  1  0.00000000  0.00000000  0.00223159  1
  I  I23  1  0.33333300  0.66666700  0.68531141  1
