# generated using pymatgen
data_CdI2
_symmetry_space_group_name_H-M   'P 1'
_cell_length_a   4.33560278
_cell_length_b   4.33560305
_cell_length_c   74.05281481
_cell_angle_alpha   90.00000000
_cell_angle_beta   90.00000000
_cell_angle_gamma   119.99999794
_symmetry_Int_Tables_number   1
_chemical_formula_structural   CdI2
_chemical_formula_sum   'Cd10 I20'
_cell_volume   1205.51109282
_cell_formula_units_Z   10
loop_
 _symmetry_equiv_pos_site_id
 _symmetry_equiv_pos_as_xyz
  1  'x, y, z'
loop_
 _atom_site_type_symbol
 _atom_site_label
 _atom_site_symmetry_multiplicity
 _atom_site_fract_x
 _atom_site_fract_y
 _atom_site_fract_z
 _atom_site_occupancy
  Cd  Cd0  1  0.66666700  0.33333300  0.22500226  1
  Cd  Cd1  1  0.33333300  0.66666700  0.92500191  1
  Cd  Cd2  1  0.66666700  0.33333300  0.02499512  1
  Cd  Cd3  1  0.00000000  0.00000000  0.82498582  1
  Cd  Cd4  1  0.66666700  0.33333300  0.42500823  1
  Cd  Cd5  1  0.33333300  0.66666700  0.52500165  1
  Cd  Cd6  1  0.33333300  0.66666700  0.72500043  1
  Cd  Cd7  1  0.33333300  0.66666700  0.32501531  1
  Cd  Cd8  1  0.33333300  0.66666700  0.12498376  1
  Cd  Cd9  1  0.00000000  0.00000000  0.62497480  1
  I  I10  1  0.00000000  0.00000000  0.10169085  1
  I  I11  1  0.33333300  0.66666700  0.44830062  1
  I  I12  1  0.66666700  0.33333300  0.64827366  1
  I  I13  1  0.00000000  0.00000000  0.30172959  1
  I  I14  1  0.66666700  0.33333300  0.94829630  1
  I  I15  1  0.00000000  0.00000000  0.20172245  1
  I  I16  1  0.00000000  0.00000000  0.40172901  1
  I  I17  1  0.66666700  0.33333300  0.34830906  1
  I  I18  1  0.66666700  0.33333300  0.54829443  1
  I  I19  1  0.00000000  0.00000000  0.90171512  1
  I  I20  1  0.33333300  0.66666700  0.80169232  1
  I  I21  1  0.66666700  0.33333300  0.14828326  1
  I  I22  1  0.00000000  0.00000000  0.00171026  1
  I  I23  1  0.33333300  0.66666700  0.04829064  1
  I  I24  1  0.66666700  0.33333300  0.84828486  1
  I  I25  1  0.33333300  0.66666700  0.60167693  1
  I  I26  1  0.33333300  0.66666700  0.24829876  1
  I  I27  1  0.00000000  0.00000000  0.50172272  1
  I  I28  1  0.00000000  0.00000000  0.70171600  1
  I  I29  1  0.66666700  0.33333300  0.74829387  1
