# generated using pymatgen
data_Sr2CdCu(SO)2
_symmetry_space_group_name_H-M   'P 1'
_cell_length_a   3.94783629
_cell_length_b   3.94783655
_cell_length_c   10.14021527
_cell_angle_alpha   101.22499609
_cell_angle_beta   101.22499680
_cell_angle_gamma   90.00000417
_symmetry_Int_Tables_number   1
_chemical_formula_structural   Sr2CdCu(SO)2
_chemical_formula_sum   'Sr2 Cd1 Cu1 S2 O2'
_cell_volume   151.93280359
_cell_formula_units_Z   1
loop_
 _symmetry_equiv_pos_site_id
 _symmetry_equiv_pos_as_xyz
  1  'x, y, z'
loop_
 _atom_site_type_symbol
 _atom_site_label
 _atom_site_symmetry_multiplicity
 _atom_site_fract_x
 _atom_site_fract_y
 _atom_site_fract_z
 _atom_site_occupancy
  Sr  Sr0  1  0.58782540  0.58782540  0.17564980  1
  Sr  Sr1  1  0.41217460  0.41217460  0.82435020  1
  Cd  Cd2  1  0.25000000  0.75000000  0.50000000  1
  Cu  Cu3  1  0.00000000  0.00000000  -0.00000000  1
  S  S4  1  0.83657780  0.83657780  0.67315461  1
  S  S5  1  0.16342220  0.16342220  0.32684539  1
  O  O6  1  0.49879418  0.99879418  0.99758836  1
  O  O7  1  0.00120582  0.50120582  0.00241164  1
