# generated using pymatgen
data_CdI2
_symmetry_space_group_name_H-M   'P 1'
_cell_length_a   4.33293308
_cell_length_b   4.33293335
_cell_length_c   74.25493743
_cell_angle_alpha   90.00000000
_cell_angle_beta   90.00000000
_cell_angle_gamma   119.99999795
_symmetry_Int_Tables_number   1
_chemical_formula_structural   CdI2
_chemical_formula_sum   'Cd10 I20'
_cell_volume   1207.31325091
_cell_formula_units_Z   10
loop_
 _symmetry_equiv_pos_site_id
 _symmetry_equiv_pos_as_xyz
  1  'x, y, z'
loop_
 _atom_site_type_symbol
 _atom_site_label
 _atom_site_symmetry_multiplicity
 _atom_site_fract_x
 _atom_site_fract_y
 _atom_site_fract_z
 _atom_site_occupancy
  Cd  Cd0  1  0.66666700  0.33333300  0.22501037  1
  Cd  Cd1  1  0.00000000  0.00000000  0.72501299  1
  Cd  Cd2  1  0.00000000  0.00000000  0.92499275  1
  Cd  Cd3  1  0.66666700  0.33333300  0.62499409  1
  Cd  Cd4  1  0.00000000  0.00000000  0.32499802  1
  Cd  Cd5  1  0.00000000  0.00000000  0.52498119  1
  Cd  Cd6  1  0.66666700  0.33333300  0.42500579  1
  Cd  Cd7  1  0.00000000  0.00000000  0.12499566  1
  Cd  Cd8  1  0.00000000  0.00000000  0.82500283  1
  Cd  Cd9  1  0.66666700  0.33333300  0.02500672  1
  I  I10  1  0.00000000  0.00000000  0.20177733  1
  I  I11  1  0.33333300  0.66666700  0.44823453  1
  I  I12  1  0.33333300  0.66666700  0.34823068  1
  I  I13  1  0.66666700  0.33333300  0.80177182  1
  I  I14  1  0.66666700  0.33333300  0.90175269  1
  I  I15  1  0.33333300  0.66666700  0.94822837  1
  I  I16  1  0.00000000  0.00000000  0.60175347  1
  I  I17  1  0.66666700  0.33333300  0.70177343  1
  I  I18  1  0.00000000  0.00000000  0.40177433  1
  I  I19  1  0.66666700  0.33333300  0.10175452  1
  I  I20  1  0.33333300  0.66666700  0.04824578  1
  I  I21  1  0.66666700  0.33333300  0.30176853  1
  I  I22  1  0.00000000  0.00000000  0.00177207  1
  I  I23  1  0.33333300  0.66666700  0.54821999  1
  I  I24  1  0.33333300  0.66666700  0.14823111  1
  I  I25  1  0.33333300  0.66666700  0.24824695  1
  I  I26  1  0.66666700  0.33333300  0.50174402  1
  I  I27  1  0.33333300  0.66666700  0.84824162  1
  I  I28  1  0.33333300  0.66666700  0.64822795  1
  I  I29  1  0.33333300  0.66666700  0.74825040  1
