# generated using pymatgen
data_CdI2
_symmetry_space_group_name_H-M   'P 1'
_cell_length_a   4.33549106
_cell_length_b   4.33549132
_cell_length_c   89.31204227
_cell_angle_alpha   90.00000000
_cell_angle_beta   90.00000000
_cell_angle_gamma   119.99999799
_symmetry_Int_Tables_number   1
_chemical_formula_structural   CdI2
_chemical_formula_sum   'Cd12 I24'
_cell_volume   1453.84222179
_cell_formula_units_Z   12
loop_
 _symmetry_equiv_pos_site_id
 _symmetry_equiv_pos_as_xyz
  1  'x, y, z'
loop_
 _atom_site_type_symbol
 _atom_site_label
 _atom_site_symmetry_multiplicity
 _atom_site_fract_x
 _atom_site_fract_y
 _atom_site_fract_z
 _atom_site_occupancy
  Cd  Cd0  1  0.33333300  0.66666700  0.93750236  1
  Cd  Cd1  1  0.66666700  0.33333300  0.02085080  1
  Cd  Cd2  1  0.66666700  0.33333300  0.18749203  1
  Cd  Cd3  1  0.66666700  0.33333300  0.52084680  1
  Cd  Cd4  1  0.66666700  0.33333300  0.35417513  1
  Cd  Cd5  1  0.33333300  0.66666700  0.27082466  1
  Cd  Cd6  1  0.33333300  0.66666700  0.77081640  1
  Cd  Cd7  1  0.00000000  0.00000000  0.85415757  1
  Cd  Cd8  1  0.33333300  0.66666700  0.10415893  1
  Cd  Cd9  1  0.00000000  0.00000000  0.68749294  1
  Cd  Cd10  1  0.33333300  0.66666700  0.60416045  1
  Cd  Cd11  1  0.33333300  0.66666700  0.43749275  1
  I  I12  1  0.00000000  0.00000000  0.16818855  1
  I  I13  1  0.66666700  0.33333300  0.70680500  1
  I  I14  1  0.33333300  0.66666700  0.66818581  1
  I  I15  1  0.66666700  0.33333300  0.45680836  1
  I  I16  1  0.00000000  0.00000000  0.41818857  1
  I  I17  1  0.33333300  0.66666700  0.20680252  1
  I  I18  1  0.00000000  0.00000000  0.91819441  1
  I  I19  1  0.66666700  0.33333300  0.87346887  1
  I  I20  1  0.66666700  0.33333300  0.62346903  1
  I  I21  1  0.00000000  0.00000000  0.58486129  1
  I  I22  1  0.33333300  0.66666700  0.54014972  1
  I  I23  1  0.33333300  0.66666700  0.04015338  1
  I  I24  1  0.00000000  0.00000000  0.00155166  1
  I  I25  1  0.00000000  0.00000000  0.08485803  1
  I  I26  1  0.66666700  0.33333300  0.95682079  1
  I  I27  1  0.00000000  0.00000000  0.33487786  1
  I  I28  1  0.66666700  0.33333300  0.29013547  1
  I  I29  1  0.33333300  0.66666700  0.83485106  1
  I  I30  1  0.00000000  0.00000000  0.75149926  1
  I  I31  1  0.66666700  0.33333300  0.79013991  1
  I  I32  1  0.66666700  0.33333300  0.12346882  1
  I  I33  1  0.00000000  0.00000000  0.50154905  1
  I  I34  1  0.33333300  0.66666700  0.37347986  1
  I  I35  1  0.00000000  0.00000000  0.25152191  1
