# generated using pymatgen
data_P4S9
_symmetry_space_group_name_H-M   'P 1'
_cell_length_a   16.31311280
_cell_length_b   16.31311230
_cell_length_c   16.31311262
_cell_angle_alpha   109.47121952
_cell_angle_beta   109.47121890
_cell_angle_gamma   109.47122301
_symmetry_Int_Tables_number   1
_chemical_formula_structural   P4S9
_chemical_formula_sum   'P32 S72'
_cell_volume   3341.86276482
_cell_formula_units_Z   8
loop_
 _symmetry_equiv_pos_site_id
 _symmetry_equiv_pos_as_xyz
  1  'x, y, z'
loop_
 _atom_site_type_symbol
 _atom_site_label
 _atom_site_symmetry_multiplicity
 _atom_site_fract_x
 _atom_site_fract_y
 _atom_site_fract_z
 _atom_site_occupancy
  P  P0  1  0.59826620  0.45706054  0.85361245  1
  P  P1  1  0.04293946  0.64120566  0.39655191  1
  P  P2  1  0.25534625  0.35361245  0.89655191  1
  P  P3  1  0.40173380  0.54293946  0.14638755  1
  P  P4  1  0.10344809  0.74465375  0.64638755  1
  P  P5  1  0.83740308  0.50000000  0.00000000  1
  P  P6  1  0.74465375  0.64638755  0.10344809  1
  P  P7  1  0.64120566  0.39655191  0.04293946  1
  P  P8  1  1.00000000  0.83740308  0.50000000  1
  P  P9  1  0.00000000  0.16259692  0.50000000  1
  P  P10  1  0.45706054  0.85361245  0.59826620  1
  P  P11  1  0.50000000  1.00000000  0.16259692  1
  P  P12  1  0.85361245  0.59826620  0.45706054  1
  P  P13  1  0.14120566  0.09826620  0.24465375  1
  P  P14  1  0.16259692  0.50000000  1.00000000  1
  P  P15  1  0.75534625  0.85879434  0.90173380  1
  P  P16  1  0.35361245  0.89655191  0.25534625  1
  P  P17  1  0.85879434  0.90173380  0.75534625  1
  P  P18  1  0.54293946  0.14638755  0.40173380  1
  P  P19  1  0.39655191  0.04293946  0.64120566  1
  P  P20  1  0.50000000  0.00000000  0.83740308  1
  P  P21  1  0.09826620  0.24465375  0.14120566  1
  P  P22  1  0.60344809  0.95706054  0.35879434  1
  P  P23  1  0.24465375  0.14120566  0.09826620  1
  P  P24  1  0.90173380  0.75534625  0.85879434  1
  P  P25  1  0.66259692  0.66259692  0.66259692  1
  P  P26  1  0.95706054  0.35879434  0.60344809  1
  P  P27  1  0.14638755  0.40173380  0.54293946  1
  P  P28  1  0.33740308  0.33740308  0.33740308  1
  P  P29  1  0.89655191  0.25534625  0.35361245  1
  P  P30  1  0.64638755  0.10344809  0.74465375  1
  P  P31  1  0.35879434  0.60344809  0.95706054  1
  S  S32  1  0.08129340  0.58168501  0.30342493  1
  S  S33  1  1.00039160  0.27826008  0.08168501  1
  S  S34  1  0.95722621  0.63799026  0.60278631  1
  S  S35  1  0.39721369  0.04277379  0.36200974  1
  S  S36  1  0.91831499  -0.00039160  0.72173992  1
  S  S37  1  0.22898094  0.60182858  0.95647159  1
  S  S38  1  0.04352841  0.77101906  0.39817142  1
  S  S39  1  0.45647159  0.85464300  0.72749065  1
  S  S40  1  0.14535700  0.27250935  0.54352841  1
  S  S41  1  0.14556010  0.68076405  0.54277379  1
  S  S42  1  0.80342493  0.22173992  0.22213152  1
  S  S43  1  0.89721369  0.53520396  0.35443990  1
  S  S44  1  0.39817142  0.04352841  0.77101906  1
  S  S45  1  0.72898094  0.77250935  0.62715236  1
  S  S46  1  0.91870660  0.41831499  0.69657507  1
  S  S47  1  0.69657507  0.91870660  0.41831499  1
  S  S48  1  0.72749065  0.45647159  0.85464300  1
  S  S49  1  0.12715236  0.35464300  0.89817142  1
  S  S50  1  0.04277379  0.36200974  0.39721369  1
  S  S51  1  0.27786848  0.49960840  0.58129340  1
  S  S52  1  0.96479604  0.86200974  0.81923595  1
  S  S53  1  0.64535700  0.10182858  0.87284764  1
  S  S54  1  0.85464300  0.72749065  0.45647159  1
  S  S55  1  0.19657507  0.77826008  0.77786848  1
  S  S56  1  0.22173992  0.22213152  0.80342493  1
  S  S57  1  0.53520396  0.35443990  0.89721369  1
  S  S58  1  0.50039160  0.41870660  0.72213152  1
  S  S59  1  0.54352841  0.14535700  0.27250935  1
  S  S60  1  0.54277379  0.14556010  0.68076405  1
  S  S61  1  0.81923595  0.96479604  0.86200974  1
  S  S62  1  0.46479604  0.64556010  0.10278631  1
  S  S63  1  0.60278631  0.95722621  0.63799026  1
  S  S64  1  0.36200974  0.39721369  0.04277379  1
  S  S65  1  0.08168501  1.00039160  0.27826008  1
  S  S66  1  0.95647159  0.22898094  0.60182858  1
  S  S67  1  0.77101906  0.39817142  0.04352841  1
  S  S68  1  0.63799026  0.60278631  0.95722621  1
  S  S69  1  0.41870660  0.72213152  0.50039160  1
  S  S70  1  0.27101906  0.22749065  0.37284764  1
  S  S71  1  0.27826008  0.08168501  1.00039160  1
  S  S72  1  0.31923595  0.45722621  0.85443990  1
  S  S73  1  0.72213152  0.50039160  0.41870660  1
  S  S74  1  0.03520396  0.13799026  0.18076405  1
  S  S75  1  0.89817142  0.12715236  0.35464300  1
  S  S76  1  0.77786848  0.19657507  0.77826008  1
  S  S77  1  0.35464300  0.89817142  0.12715236  1
  S  S78  1  0.22213152  0.80342493  0.22173992  1
  S  S79  1  0.27250935  0.54352841  0.14535700  1
  S  S80  1  0.37284764  0.27101906  0.22749065  1
  S  S81  1  0.60182858  0.95647159  0.22898094  1
  S  S82  1  0.58168501  0.30342493  0.08129340  1
  S  S83  1  0.87284764  0.64535700  0.10182858  1
  S  S84  1  -0.00039160  0.72173992  0.91831499  1
  S  S85  1  0.58129340  0.27786848  0.49960840  1
  S  S86  1  0.86200974  0.81923595  0.96479604  1
  S  S87  1  0.35443990  0.89721369  0.53520396  1
  S  S88  1  0.13799026  0.18076405  0.03520396  1
  S  S89  1  0.45722621  0.85443990  0.31923595  1
  S  S90  1  0.68076405  0.54277379  0.14556010  1
  S  S91  1  0.85443990  0.31923595  0.45722621  1
  S  S92  1  0.62715236  0.72898094  0.77250935  1
  S  S93  1  0.77250935  0.62715236  0.72898094  1
  S  S94  1  0.49960840  0.58129340  0.27786848  1
  S  S95  1  0.41831499  0.69657507  0.91870660  1
  S  S96  1  0.22749065  0.37284764  0.27101906  1
  S  S97  1  0.30342493  0.08129340  0.58168501  1
  S  S98  1  0.72173992  0.91831499  -0.00039160  1
  S  S99  1  0.10278631  0.46479604  0.64556010  1
  S  S100  1  0.64556010  0.10278631  0.46479604  1
  S  S101  1  0.10182858  0.87284764  0.64535700  1
  S  S102  1  0.77826008  0.77786848  0.19657507  1
  S  S103  1  0.18076405  0.03520396  0.13799026  1
