# generated using pymatgen
data_Fe4(P2O7)3
_symmetry_space_group_name_H-M   'P 1'
_cell_length_a   7.52876245
_cell_length_b   9.67635030
_cell_length_c   21.71523188
_cell_angle_alpha   90.00000000
_cell_angle_beta   90.00000000
_cell_angle_gamma   90.13614498
_symmetry_Int_Tables_number   1
_chemical_formula_structural   Fe4(P2O7)3
_chemical_formula_sum   'Fe16 P24 O84'
_cell_volume   1581.97064869
_cell_formula_units_Z   4
loop_
 _symmetry_equiv_pos_site_id
 _symmetry_equiv_pos_as_xyz
  1  'x, y, z'
loop_
 _atom_site_type_symbol
 _atom_site_label
 _atom_site_symmetry_multiplicity
 _atom_site_fract_x
 _atom_site_fract_y
 _atom_site_fract_z
 _atom_site_occupancy
  Fe  Fe0  1  0.94134451  0.22260190  0.74744348  1
  Fe  Fe1  1  0.96099170  0.73438909  0.49802956  1
  Fe  Fe2  1  0.05865549  0.77739810  0.25255652  1
  Fe  Fe3  1  0.03900830  0.26561091  0.50197044  1
  Fe  Fe4  1  0.55290236  0.74490175  0.50650852  1
  Fe  Fe5  1  0.44134451  0.72260190  0.75255652  1
  Fe  Fe6  1  0.03259754  0.70699516  0.75891347  1
  Fe  Fe7  1  0.55865549  0.27739810  0.24744348  1
  Fe  Fe8  1  0.96740246  0.29300484  0.24108653  1
  Fe  Fe9  1  0.05290236  0.24490175  0.99349148  1
  Fe  Fe10  1  0.53259754  0.20699516  0.74108653  1
  Fe  Fe11  1  0.94709764  0.75509825  0.00650852  1
  Fe  Fe12  1  0.53900830  0.76561091  0.99802956  1
  Fe  Fe13  1  0.44709764  0.25509825  0.49349148  1
  Fe  Fe14  1  0.46099170  0.23438909  0.00197044  1
  Fe  Fe15  1  0.46740246  0.79300484  0.25891347  1
  P  P16  1  0.25055720  0.52776376  0.56161623  1
  P  P17  1  0.23722311  0.44547128  0.70046428  1
  P  P18  1  0.23902609  0.15575154  0.85859249  1
  P  P19  1  0.26295783  0.66798067  0.38920015  1
  P  P20  1  0.24877299  0.53092055  0.04639633  1
  P  P21  1  0.75055720  0.02776376  0.93838377  1
  P  P22  1  0.76755065  0.00620487  0.31383553  1
  P  P23  1  0.74944280  0.47223624  0.43838377  1
  P  P24  1  0.73704217  0.33201933  0.61079985  1
  P  P25  1  0.73722311  0.94547128  0.79953572  1
  P  P26  1  0.73244935  0.49379513  0.81383553  1
  P  P27  1  0.73902609  0.65575154  0.64140751  1
  P  P28  1  0.23244935  0.99379513  0.68616447  1
  P  P29  1  0.74877299  0.03092055  0.45360367  1
  P  P30  1  0.76097391  0.84424846  0.14140751  1
  P  P31  1  0.25122701  0.96907945  0.54639633  1
  P  P32  1  0.75122701  0.46907945  0.95360367  1
  P  P33  1  0.76295783  0.16798067  0.11079985  1
  P  P34  1  0.26277689  0.05452872  0.20046428  1
  P  P35  1  0.26097391  0.34424846  0.35859249  1
  P  P36  1  0.23704217  0.83201933  0.88920015  1
  P  P37  1  0.76277689  0.55452872  0.29953572  1
  P  P38  1  0.26755065  0.50620487  0.18616447  1
  P  P39  1  0.24944280  0.97223624  0.06161623  1
  O  O40  1  0.57047152  0.70194252  0.67534898  1
  O  O41  1  0.07950577  0.89319010  0.05080461  1
  O  O42  1  0.76082572  0.41321724  0.26621851  1
  O  O43  1  0.09277982  0.32862538  0.31962296  1
  O  O44  1  0.10086816  0.13576862  0.21842967  1
  O  O45  1  0.23448445  0.74932800  0.82816863  1
  O  O46  1  0.57453640  0.57897310  0.79337348  1
  O  O47  1  0.25362348  0.10649750  0.02297523  1
  O  O48  1  0.78821071  0.00730043  0.12797701  1
  O  O49  1  0.57900041  0.29015276  0.57061171  1
  O  O50  1  0.61072109  0.39128557  0.98969964  1
  O  O51  1  0.08944921  0.43061987  0.18946160  1
  O  O52  1  0.44050708  0.12318571  0.20982543  1
  O  O53  1  0.26082572  0.91321724  0.23378149  1
  O  O54  1  0.74637652  0.89350250  0.97702477  1
  O  O55  1  0.41928124  0.89048532  0.05389622  1
  O  O56  1  0.25997319  0.47596859  0.63011428  1
  O  O57  1  0.60086816  0.63576862  0.28157033  1
  O  O58  1  0.92546360  0.92102690  0.29337348  1
  O  O59  1  0.05949292  0.37681429  0.70982543  1
  O  O60  1  0.25027261  0.12571374  0.52922742  1
  O  O61  1  0.42952848  0.29805748  0.32465102  1
  O  O62  1  0.23872261  0.85003266  0.71701890  1
  O  O63  1  0.75997319  0.97596859  0.86988572  1
  O  O64  1  0.25299893  0.23359336  0.92078002  1
  O  O65  1  0.08071876  0.60951468  0.55389622  1
  O  O66  1  0.91055079  0.56938013  0.81053840  1
  O  O67  1  0.81339880  0.04086160  0.38423912  1
  O  O68  1  0.55949292  0.87681429  0.79017457  1
  O  O69  1  0.24700107  0.26640664  0.42078002  1
  O  O70  1  0.75027261  0.62571374  0.97077258  1
  O  O71  1  0.74002681  0.52403141  0.36988572  1
  O  O72  1  0.42546360  0.42102690  0.20662652  1
  O  O73  1  0.08295714  0.68162957  0.42173774  1
  O  O74  1  0.75299893  0.73359336  0.57921998  1
  O  O75  1  0.76551555  0.25067200  0.17183137  1
  O  O76  1  0.26551555  0.75067200  0.32816863  1
  O  O77  1  0.88927891  0.10871443  0.48969964  1
  O  O78  1  0.74972739  0.87428626  0.47077258  1
  O  O79  1  0.92099959  0.20984724  0.07061171  1
  O  O80  1  0.23917428  0.58678276  0.73378149  1
  O  O81  1  0.24002681  0.02403141  0.13011428  1
  O  O82  1  0.41704286  0.81837043  0.92173774  1
  O  O83  1  0.38927891  0.60871443  0.01030036  1
  O  O84  1  0.42049423  0.60680990  0.55080461  1
  O  O85  1  0.90722018  0.67137462  0.68037704  1
  O  O86  1  0.07047152  0.20194252  0.82465102  1
  O  O87  1  0.58295714  0.18162957  0.07826226  1
  O  O88  1  0.42099959  0.70984724  0.42938829  1
  O  O89  1  0.92952848  0.79805748  0.17534898  1
  O  O90  1  0.58944921  0.93061987  0.31053840  1
  O  O91  1  0.93520642  0.40593338  0.95802281  1
  O  O92  1  0.40722018  0.17137462  0.81962296  1
  O  O93  1  0.73917428  0.08678276  0.76621851  1
  O  O94  1  0.94050708  0.62318571  0.29017457  1
  O  O95  1  0.39913184  0.36423138  0.71842967  1
  O  O96  1  0.57950577  0.39319010  0.44919539  1
  O  O97  1  0.06479358  0.59406662  0.04197719  1
  O  O98  1  0.11072109  0.89128557  0.51030036  1
  O  O99  1  0.24637652  0.39350250  0.52297523  1
  O  O100  1  0.07453640  0.07897310  0.70662652  1
  O  O101  1  0.91704286  0.31837043  0.57826226  1
  O  O102  1  0.75362348  0.60649750  0.47702477  1
  O  O103  1  0.31339980  0.54086160  0.11576088  1
  O  O104  1  0.74700107  0.76640664  0.07921998  1
  O  O105  1  0.41055079  0.06938013  0.68946160  1
  O  O106  1  0.21178929  0.99269957  0.87202299  1
  O  O107  1  0.91928124  0.39048532  0.44610378  1
  O  O108  1  0.73872261  0.35003266  0.78298110  1
  O  O109  1  0.89913184  0.86423138  0.78157033  1
  O  O110  1  0.24972739  0.37428626  0.02922742  1
  O  O111  1  0.76127739  0.14996734  0.28298110  1
  O  O112  1  0.59277982  0.82862538  0.18037704  1
  O  O113  1  0.68660120  0.45913840  0.88423912  1
  O  O114  1  0.71178929  0.49269957  0.62797701  1
  O  O115  1  0.58071876  0.10951468  0.94610378  1
  O  O116  1  0.26127739  0.64996734  0.21701890  1
  O  O117  1  0.73448445  0.24932800  0.67183137  1
  O  O118  1  0.56479358  0.09406662  0.45802281  1
  O  O119  1  0.18660120  0.95913840  0.61576088  1
  O  O120  1  0.92049423  0.10680990  0.94919539  1
  O  O121  1  0.07900041  0.79015276  0.92938829  1
  O  O122  1  0.43520642  0.90593338  0.54197719  1
  O  O123  1  0.28821071  0.50730043  0.37202299  1
