# generated using pymatgen
data_La3(GaNi2)2
_symmetry_space_group_name_H-M   'P 1'
_cell_length_a   4.23335172
_cell_length_b   5.53504492
_cell_length_c   8.33133402
_cell_angle_alpha   98.13983830
_cell_angle_beta   90.00000000
_cell_angle_gamma   112.48326030
_symmetry_Int_Tables_number   1
_chemical_formula_structural   La3(GaNi2)2
_chemical_formula_sum   'La3 Ga2 Ni4'
_cell_volume   178.24943289
_cell_formula_units_Z   1
loop_
 _symmetry_equiv_pos_site_id
 _symmetry_equiv_pos_as_xyz
  1  'x, y, z'
loop_
 _atom_site_type_symbol
 _atom_site_label
 _atom_site_symmetry_multiplicity
 _atom_site_fract_x
 _atom_site_fract_y
 _atom_site_fract_z
 _atom_site_occupancy
  La  La0  1  0.62392868  0.24785737  0.37958872  1
  La  La1  1  0.00000000  0.00000000  0.00000000  1
  La  La2  1  0.37607132  0.75214263  0.62041128  1
  Ga  Ga3  1  0.67851569  0.35703139  0.78601520  1
  Ga  Ga4  1  0.32148431  0.64296861  0.21398480  1
  Ni  Ni5  1  0.26044562  0.52089125  0.91465830  1
  Ni  Ni6  1  0.91475147  0.82950294  0.36077526  1
  Ni  Ni7  1  0.08524853  0.17049706  0.63922474  1
  Ni  Ni8  1  0.73955438  0.47910875  0.08534170  1
