# generated using pymatgen
data_Al2(MoO4)3
_symmetry_space_group_name_H-M   'P 1'
_cell_length_a   9.20525917
_cell_length_b   15.69438978
_cell_length_c   15.72811112
_cell_angle_alpha   109.18143224
_cell_angle_beta   90.00000000
_cell_angle_gamma   90.00000000
_symmetry_Int_Tables_number   1
_chemical_formula_structural   Al2(MoO4)3
_chemical_formula_sum   'Al16 Mo24 O96'
_cell_volume   2146.10576423
_cell_formula_units_Z   8
loop_
 _symmetry_equiv_pos_site_id
 _symmetry_equiv_pos_as_xyz
  1  'x, y, z'
loop_
 _atom_site_type_symbol
 _atom_site_label
 _atom_site_symmetry_multiplicity
 _atom_site_fract_x
 _atom_site_fract_y
 _atom_site_fract_z
 _atom_site_occupancy
  Al  Al0  1  0.47168798  0.93350637  0.81543844  1
  Al  Al1  1  0.96167549  0.17816321  0.05354327  1
  Al  Al2  1  0.02831202  0.43350637  0.81543844  1
  Al  Al3  1  0.46583921  0.43564735  0.31777718  1
  Al  Al4  1  0.52335242  0.18731139  0.57734359  1
  Al  Al5  1  0.97664758  0.68731139  0.57734359  1
  Al  Al6  1  0.96583921  0.06435265  0.68222282  1
  Al  Al7  1  0.02335242  0.31268861  0.42265641  1
  Al  Al8  1  0.46167549  0.32183679  0.94645673  1
  Al  Al9  1  0.53416079  0.56435265  0.68222282  1
  Al  Al10  1  0.03832451  0.82183679  0.94645673  1
  Al  Al11  1  0.47664758  0.81268861  0.42265641  1
  Al  Al12  1  0.52831202  0.06649363  0.18456156  1
  Al  Al13  1  0.53832451  0.67816321  0.05354327  1
  Al  Al14  1  0.03416079  0.93564735  0.31777718  1
  Al  Al15  1  0.97168798  0.56649363  0.18456156  1
  Mo  Mo16  1  0.62277114  0.13378837  0.78025597  1
  Mo  Mo17  1  0.88640024  0.26611554  0.61768322  1
  Mo  Mo18  1  0.61166116  0.61441094  0.25630780  1
  Mo  Mo19  1  0.74702510  0.98485295  0.98275091  1
  Mo  Mo20  1  0.75213766  0.49087010  0.48718908  1
  Mo  Mo21  1  0.74786234  0.99087010  0.48718908  1
  Mo  Mo22  1  0.62153146  0.27305979  0.13165821  1
  Mo  Mo23  1  0.11166116  0.88558906  0.74369220  1
  Mo  Mo24  1  0.38833884  0.38558906  0.74369220  1
  Mo  Mo25  1  0.38640024  0.23388446  0.38231678  1
  Mo  Mo26  1  0.37846854  0.72694021  0.86834179  1
  Mo  Mo27  1  0.87846854  0.77305979  0.13165821  1
  Mo  Mo28  1  0.12277114  0.36621163  0.21974403  1
  Mo  Mo29  1  0.25297490  0.01514705  0.01724909  1
  Mo  Mo30  1  0.24702510  0.51514705  0.01724909  1
  Mo  Mo31  1  0.87722886  0.63378837  0.78025597  1
  Mo  Mo32  1  0.24786234  0.50912990  0.51281092  1
  Mo  Mo33  1  0.88833884  0.11441094  0.25630780  1
  Mo  Mo34  1  0.25213766  0.00912990  0.51281092  1
  Mo  Mo35  1  0.37722886  0.86621163  0.21974403  1
  Mo  Mo36  1  0.61359976  0.76611554  0.61768322  1
  Mo  Mo37  1  0.11359976  0.73388446  0.38231678  1
  Mo  Mo38  1  0.75297490  0.48485295  0.98275091  1
  Mo  Mo39  1  0.12153146  0.22694021  0.86834179  1
  O  O40  1  0.81375316  0.11075334  0.76744191  1
  O  O41  1  0.79520565  0.57444392  0.25045798  1
  O  O42  1  0.82072822  0.09181168  0.98517802  1
  O  O43  1  0.64079183  0.09005245  0.50108483  1
  O  O44  1  0.37302426  0.99877564  0.92364849  1
  O  O45  1  0.63765030  0.89195821  0.45165818  1
  O  O46  1  0.36234970  0.10804179  0.54834182  1
  O  O47  1  0.90523362  0.73600716  0.87265801  1
  O  O48  1  0.80799486  0.26328868  0.09607076  1
  O  O49  1  0.93097117  0.13068963  0.15151063  1
  O  O50  1  0.43084658  0.13498110  0.29058197  1
  O  O51  1  0.09524943  0.78040616  0.65415335  1
  O  O52  1  0.38910469  0.59081745  0.01132183  1
  O  O53  1  0.51193348  0.46544902  0.72455276  1
  O  O54  1  0.02479791  0.45800237  0.20303359  1
  O  O55  1  0.98806652  0.96544902  0.72455276  1
  O  O56  1  0.56902883  0.63068963  0.15151063  1
  O  O57  1  0.19269151  0.23857018  0.39640578  1
  O  O58  1  0.52311787  0.77102782  0.51867246  1
  O  O59  1  0.59524943  0.71959384  0.34584665  1
  O  O60  1  0.82685714  0.99963698  0.59401087  1
  O  O61  1  0.32685714  0.50036302  0.40598913  1
  O  O62  1  0.38551887  0.51739518  0.59556135  1
  O  O63  1  0.50193191  0.28009458  0.04400056  1
  O  O64  1  0.06902883  0.86931037  0.84848937  1
  O  O65  1  0.60373616  0.37061526  0.23033896  1
  O  O66  1  0.31375316  0.38924666  0.23255809  1
  O  O67  1  0.59476638  0.23600716  0.87265801  1
  O  O68  1  0.02311787  0.72897218  0.48132754  1
  O  O69  1  0.94438946  0.16687874  0.64054134  1
  O  O70  1  0.93789717  0.64897916  0.67846391  1
  O  O71  1  0.29520565  0.92555608  0.74954202  1
  O  O72  1  0.57726728  0.17642986  0.16225255  1
  O  O73  1  0.39626384  0.62938474  0.76966104  1
  O  O74  1  0.70479435  0.07444392  0.25045798  1
  O  O75  1  0.97688213  0.27102782  0.51867246  1
  O  O76  1  0.09476638  0.26399284  0.12734199  1
  O  O77  1  0.67314286  0.49963698  0.59401087  1
  O  O78  1  0.89626384  0.87061526  0.23033896  1
  O  O79  1  0.97520209  0.54199763  0.79696641  1
  O  O80  1  0.35309517  0.06216623  0.11911483  1
  O  O81  1  0.17927178  0.90818832  0.01482198  1
  O  O82  1  0.90475057  0.21959384  0.34584665  1
  O  O83  1  0.42273272  0.82357014  0.83774745  1
  O  O84  1  0.07726728  0.32357014  0.83774745  1
  O  O85  1  0.01193348  0.03455098  0.27544724  1
  O  O86  1  0.11448113  0.01739518  0.59556135  1
  O  O87  1  0.61448113  0.48260482  0.40443865  1
  O  O88  1  0.80730849  0.76142982  0.60359422  1
  O  O89  1  0.14690483  0.56216623  0.11911483  1
  O  O90  1  0.40474957  0.28040616  0.65415335  1
  O  O91  1  0.52479791  0.04199763  0.79696641  1
  O  O92  1  0.92273272  0.67642986  0.16225255  1
  O  O93  1  0.68624684  0.61075334  0.76744191  1
  O  O94  1  0.85920817  0.59005245  0.50108483  1
  O  O95  1  0.06210283  0.35102084  0.32153609  1
  O  O96  1  0.47520209  0.95800237  0.20303359  1
  O  O97  1  0.13765030  0.60804179  0.54834182  1
  O  O98  1  0.55561054  0.66687874  0.64054134  1
  O  O99  1  0.87302426  0.50122436  0.07635151  1
  O  O100  1  0.10373616  0.12938474  0.76966104  1
  O  O101  1  0.43789717  0.85102084  0.32153609  1
  O  O102  1  0.18624684  0.88924666  0.23255809  1
  O  O103  1  0.86234970  0.39195821  0.45165818  1
  O  O104  1  0.30799486  0.23671132  0.90392924  1
  O  O105  1  0.44438946  0.33312126  0.35945866  1
  O  O106  1  0.88910469  0.90918255  0.98867817  1
  O  O107  1  0.32072822  0.40818832  0.01482198  1
  O  O108  1  0.11089531  0.09081745  0.01132183  1
  O  O109  1  0.62697574  0.00122436  0.07635151  1
  O  O110  1  0.88551887  0.98260482  0.40443865  1
  O  O111  1  0.17314286  0.00036302  0.40598913  1
  O  O112  1  0.99806809  0.78009458  0.04400056  1
  O  O113  1  0.20479435  0.42555608  0.74954202  1
  O  O114  1  0.64690483  0.93783377  0.88088517  1
  O  O115  1  0.12697574  0.49877564  0.92364849  1
  O  O116  1  0.40523362  0.76399284  0.12734199  1
  O  O117  1  0.30730849  0.73857018  0.39640578  1
  O  O118  1  0.93084658  0.36501890  0.70941803  1
  O  O119  1  0.61089531  0.40918255  0.98867817  1
  O  O120  1  0.35920817  0.90994755  0.49891517  1
  O  O121  1  0.69200514  0.76328868  0.09607076  1
  O  O122  1  0.85309517  0.43783377  0.88088517  1
  O  O123  1  0.69269151  0.26142982  0.60359422  1
  O  O124  1  0.00193191  0.21990542  0.95599944  1
  O  O125  1  0.56915342  0.86501890  0.70941803  1
  O  O126  1  0.56210283  0.14897916  0.67846391  1
  O  O127  1  0.49806809  0.71990542  0.95599944  1
  O  O128  1  0.06915342  0.63498110  0.29058197  1
  O  O129  1  0.05561054  0.83312126  0.35945866  1
  O  O130  1  0.43097117  0.36931037  0.84848937  1
  O  O131  1  0.67927178  0.59181168  0.98517802  1
  O  O132  1  0.47688213  0.22897218  0.48132754  1
  O  O133  1  0.48806652  0.53455098  0.27544724  1
  O  O134  1  0.19200514  0.73671132  0.90392924  1
  O  O135  1  0.14079183  0.40994755  0.49891517  1
