# generated using pymatgen
data_CdI2
_symmetry_space_group_name_H-M   'P 1'
_cell_length_a   4.33645128
_cell_length_b   4.33645155
_cell_length_c   88.90417163
_cell_angle_alpha   90.00000000
_cell_angle_beta   90.00000000
_cell_angle_gamma   119.99999796
_symmetry_Int_Tables_number   1
_chemical_formula_structural   CdI2
_chemical_formula_sum   'Cd12 I24'
_cell_volume   1447.84393137
_cell_formula_units_Z   12
loop_
 _symmetry_equiv_pos_site_id
 _symmetry_equiv_pos_as_xyz
  1  'x, y, z'
loop_
 _atom_site_type_symbol
 _atom_site_label
 _atom_site_symmetry_multiplicity
 _atom_site_fract_x
 _atom_site_fract_y
 _atom_site_fract_z
 _atom_site_occupancy
  Cd  Cd0  1  0.33333300  0.66666700  0.93748085  1
  Cd  Cd1  1  0.33333300  0.66666700  0.60414629  1
  Cd  Cd2  1  0.66666700  0.33333300  0.02084774  1
  Cd  Cd3  1  0.66666700  0.33333300  0.18751013  1
  Cd  Cd4  1  0.00000000  0.00000000  0.85415887  1
  Cd  Cd5  1  0.66666700  0.33333300  0.35417660  1
  Cd  Cd6  1  0.33333300  0.66666700  0.27081627  1
  Cd  Cd7  1  0.00000000  0.00000000  0.52082411  1
  Cd  Cd8  1  0.66666700  0.33333300  0.68751516  1
  Cd  Cd9  1  0.33333300  0.66666700  0.10415040  1
  Cd  Cd10  1  0.33333300  0.66666700  0.77081459  1
  Cd  Cd11  1  0.33333300  0.66666700  0.43748314  1
  I  I12  1  0.00000000  0.00000000  0.16813240  1
  I  I13  1  0.66666700  0.33333300  0.95688411  1
  I  I14  1  0.66666700  0.33333300  0.45688425  1
  I  I15  1  0.00000000  0.00000000  0.41810570  1
  I  I16  1  0.33333300  0.66666700  0.20690857  1
  I  I17  1  0.33333300  0.66666700  0.70691314  1
  I  I18  1  0.00000000  0.00000000  0.66813804  1
  I  I19  1  0.66666700  0.33333300  0.62355040  1
  I  I20  1  0.66666700  0.33333300  0.79021675  1
  I  I21  1  0.66666700  0.33333300  0.87356467  1
  I  I22  1  0.00000000  0.00000000  0.91809565  1
  I  I23  1  0.00000000  0.00000000  0.58476296  1
  I  I24  1  0.33333300  0.66666700  0.04024449  1
  I  I25  1  0.00000000  0.00000000  0.75143438  1
  I  I26  1  0.00000000  0.00000000  0.08477211  1
  I  I27  1  0.00000000  0.00000000  0.33479974  1
  I  I28  1  0.33333300  0.66666700  0.37357512  1
  I  I29  1  0.66666700  0.33333300  0.29021833  1
  I  I30  1  0.33333300  0.66666700  0.83476241  1
  I  I31  1  0.00000000  0.00000000  0.00147048  1
  I  I32  1  0.66666700  0.33333300  0.54022854  1
  I  I33  1  0.66666700  0.33333300  0.12355181  1
  I  I34  1  0.33333300  0.66666700  0.50142756  1
  I  I35  1  0.00000000  0.00000000  0.25143424  1
