# generated using pymatgen
data_LiSiPO5
_symmetry_space_group_name_H-M   'P 1'
_cell_length_a   6.10852805
_cell_length_b   7.37070193
_cell_length_c   6.64039452
_cell_angle_alpha   90.00000000
_cell_angle_beta   90.00000000
_cell_angle_gamma   90.00000000
_symmetry_Int_Tables_number   1
_chemical_formula_structural   LiSiPO5
_chemical_formula_sum   'Li4 Si4 P4 O20'
_cell_volume   298.97804912
_cell_formula_units_Z   4
loop_
 _symmetry_equiv_pos_site_id
 _symmetry_equiv_pos_as_xyz
  1  'x, y, z'
loop_
 _atom_site_type_symbol
 _atom_site_label
 _atom_site_symmetry_multiplicity
 _atom_site_fract_x
 _atom_site_fract_y
 _atom_site_fract_z
 _atom_site_occupancy
  Li  Li0  1  -0.00000000  0.00000000  0.00000000  1
  Li  Li1  1  0.50000000  0.50000000  0.50000000  1
  Li  Li2  1  0.50000000  -0.00000000  -0.00000000  1
  Li  Li3  1  -0.00000000  0.50000000  0.50000000  1
  Si  Si4  1  0.25000000  0.77118539  0.63995618  1
  Si  Si5  1  0.25000000  0.72881461  0.13995618  1
  Si  Si6  1  0.75000000  0.22881461  0.36004382  1
  Si  Si7  1  0.75000000  0.27118539  0.86004382  1
  P  P8  1  0.75000000  0.88446062  0.62100510  1
  P  P9  1  0.75000000  0.61553938  0.12100510  1
  P  P10  1  0.25000000  0.11553938  0.37899490  1
  P  P11  1  0.25000000  0.38446062  0.87899490  1
  O  O12  1  0.75000000  0.01534701  0.80486971  1
  O  O13  1  0.75000000  0.48465299  0.30486971  1
  O  O14  1  0.25000000  0.98465299  0.19513029  1
  O  O15  1  0.25000000  0.51534701  0.69513029  1
  O  O16  1  0.55067619  0.75729055  0.63059970  1
  O  O17  1  0.94932381  0.74270945  0.13059970  1
  O  O18  1  0.05067619  0.24270945  0.36940030  1
  O  O19  1  0.44932381  0.25729055  0.86940030  1
  O  O20  1  0.44932381  0.24270945  0.36940030  1
  O  O21  1  0.05067619  0.25729055  0.86940030  1
  O  O22  1  0.94932381  0.75729055  0.63059970  1
  O  O23  1  0.55067619  0.74270945  0.13059970  1
  O  O24  1  0.75000000  0.99811107  0.42634870  1
  O  O25  1  0.75000000  0.50188893  0.92634870  1
  O  O26  1  0.25000000  0.00188893  0.57365130  1
  O  O27  1  0.25000000  0.49811107  0.07365130  1
  O  O28  1  0.25000000  0.81948645  0.89202300  1
  O  O29  1  0.25000000  0.68051355  0.39202300  1
  O  O30  1  0.75000000  0.18051355  0.10797700  1
  O  O31  1  0.75000000  0.31948645  0.60797700  1
