# generated using pymatgen
data_CdI2
_symmetry_space_group_name_H-M   'P 1'
_cell_length_a   4.33754772
_cell_length_b   4.33754798
_cell_length_c   88.92714755
_cell_angle_alpha   90.00000000
_cell_angle_beta   90.00000000
_cell_angle_gamma   119.99999799
_symmetry_Int_Tables_number   1
_chemical_formula_structural   CdI2
_chemical_formula_sum   'Cd12 I24'
_cell_volume   1448.95053782
_cell_formula_units_Z   12
loop_
 _symmetry_equiv_pos_site_id
 _symmetry_equiv_pos_as_xyz
  1  'x, y, z'
loop_
 _atom_site_type_symbol
 _atom_site_label
 _atom_site_symmetry_multiplicity
 _atom_site_fract_x
 _atom_site_fract_y
 _atom_site_fract_z
 _atom_site_occupancy
  Cd  Cd0  1  0.33333300  0.66666700  0.68750870  1
  Cd  Cd1  1  0.66666700  0.33333300  0.02084690  1
  Cd  Cd2  1  0.66666700  0.33333300  0.77081737  1
  Cd  Cd3  1  0.33333300  0.66666700  0.27081485  1
  Cd  Cd4  1  0.33333300  0.66666700  0.60414230  1
  Cd  Cd5  1  0.33333300  0.66666700  0.35418297  1
  Cd  Cd6  1  0.33333300  0.66666700  0.10415193  1
  Cd  Cd7  1  0.33333300  0.66666700  0.85418256  1
  Cd  Cd8  1  0.33333300  0.66666700  0.93747315  1
  Cd  Cd9  1  0.33333300  0.66666700  0.43748083  1
  Cd  Cd10  1  0.33333300  0.66666700  0.52084169  1
  Cd  Cd11  1  0.33333300  0.66666700  0.18750813  1
  I  I12  1  0.00000000  0.00000000  0.16814473  1
  I  I13  1  0.66666700  0.33333300  0.70688547  1
  I  I14  1  0.33333300  0.66666700  0.79020132  1
  I  I15  1  0.66666700  0.33333300  0.45686639  1
  I  I16  1  0.00000000  0.00000000  0.41811530  1
  I  I17  1  0.66666700  0.33333300  0.12353423  1
  I  I18  1  0.00000000  0.00000000  0.25144347  1
  I  I19  1  0.00000000  0.00000000  0.58477221  1
  I  I20  1  0.00000000  0.00000000  0.66814478  1
  I  I21  1  0.66666700  0.33333300  0.62353091  1
  I  I22  1  0.66666700  0.33333300  0.20688458  1
  I  I23  1  0.66666700  0.33333300  0.87355453  1
  I  I24  1  0.00000000  0.00000000  0.91810010  1
  I  I25  1  0.00000000  0.00000000  0.83481501  1
  I  I26  1  0.33333300  0.66666700  0.04022327  1
  I  I27  1  0.00000000  0.00000000  0.50147795  1
  I  I28  1  0.00000000  0.00000000  0.08478267  1
  I  I29  1  0.66666700  0.33333300  0.95686242  1
  I  I30  1  0.00000000  0.00000000  0.33481159  1
  I  I31  1  0.66666700  0.33333300  0.29019885  1
  I  I32  1  0.00000000  0.00000000  0.75144644  1
  I  I33  1  0.66666700  0.33333300  0.54021824  1
  I  I34  1  0.66666700  0.33333300  0.37355515  1
  I  I35  1  0.00000000  0.00000000  0.00147898  1
