# generated using pymatgen
data_KMo2(PO4)3
_symmetry_space_group_name_H-M   'P 1'
_cell_length_a   9.37617627
_cell_length_b   12.50360792
_cell_length_c   18.00755613
_cell_angle_alpha   90.00000000
_cell_angle_beta   90.00000000
_cell_angle_gamma   90.00000000
_symmetry_Int_Tables_number   1
_chemical_formula_structural   KMo2(PO4)3
_chemical_formula_sum   'K8 Mo16 P24 O96'
_cell_volume   2111.13442434
_cell_formula_units_Z   8
loop_
 _symmetry_equiv_pos_site_id
 _symmetry_equiv_pos_as_xyz
  1  'x, y, z'
loop_
 _atom_site_type_symbol
 _atom_site_label
 _atom_site_symmetry_multiplicity
 _atom_site_fract_x
 _atom_site_fract_y
 _atom_site_fract_z
 _atom_site_occupancy
  K  K0  1  0.33302249  0.75000000  0.90066824  1
  K  K1  1  0.83302249  0.75000000  0.59933176  1
  K  K2  1  0.66697751  0.25000000  0.09933176  1
  K  K3  1  0.15935999  0.25000000  0.92079509  1
  K  K4  1  0.34064001  0.75000000  0.42079509  1
  K  K5  1  0.16697751  0.25000000  0.40066824  1
  K  K6  1  0.84064001  0.75000000  0.07920491  1
  K  K7  1  0.65935999  0.25000000  0.57920491  1
  Mo  Mo8  1  0.52704230  0.39967923  0.87533419  1
  Mo  Mo9  1  0.47053092  0.60056416  0.62152722  1
  Mo  Mo10  1  0.47295770  0.89967923  0.12466581  1
  Mo  Mo11  1  0.02704230  0.10032077  0.62466581  1
  Mo  Mo12  1  0.52946908  0.10056416  0.37847278  1
  Mo  Mo13  1  0.47295770  0.60032077  0.12466581  1
  Mo  Mo14  1  0.97053092  0.60056416  0.87847278  1
  Mo  Mo15  1  0.97295770  0.89967923  0.37533419  1
  Mo  Mo16  1  0.02704230  0.39967923  0.62466581  1
  Mo  Mo17  1  0.47053092  0.89943584  0.62152722  1
  Mo  Mo18  1  0.52704230  0.10032077  0.87533419  1
  Mo  Mo19  1  0.97295770  0.60032077  0.37533419  1
  Mo  Mo20  1  0.02946908  0.10056416  0.12152722  1
  Mo  Mo21  1  0.52946908  0.39943584  0.37847278  1
  Mo  Mo22  1  0.97053092  0.89943584  0.87847278  1
  Mo  Mo23  1  0.02946908  0.39943584  0.12152722  1
  P  P24  1  0.24731960  0.49867961  0.48463918  1
  P  P25  1  0.12996929  0.86864765  0.19825776  1
  P  P26  1  0.37003071  0.36864765  0.69825776  1
  P  P27  1  0.13966407  0.63002352  0.70594831  1
  P  P28  1  0.37003071  0.13135235  0.69825776  1
  P  P29  1  0.87003071  0.36864765  0.80174224  1
  P  P30  1  0.13966407  0.86997648  0.70594831  1
  P  P31  1  0.24731960  0.00132039  0.48463918  1
  P  P32  1  0.25268040  0.99867961  0.98463918  1
  P  P33  1  0.74731960  0.49867961  0.01536082  1
  P  P34  1  0.63966407  0.63002352  0.79405169  1
  P  P35  1  0.75268040  0.99867961  0.51536082  1
  P  P36  1  0.74731960  0.00132039  0.01536082  1
  P  P37  1  0.36033593  0.36997648  0.20594831  1
  P  P38  1  0.36033593  0.13002352  0.20594831  1
  P  P39  1  0.62996929  0.86864765  0.30174224  1
  P  P40  1  0.75268040  0.50132039  0.51536082  1
  P  P41  1  0.12996929  0.63135235  0.19825776  1
  P  P42  1  0.87003071  0.13135235  0.80174224  1
  P  P43  1  0.25268040  0.50132039  0.98463918  1
  P  P44  1  0.63966407  0.86997648  0.79405169  1
  P  P45  1  0.86033593  0.36997648  0.29405169  1
  P  P46  1  0.62996929  0.63135235  0.30174224  1
  P  P47  1  0.86033593  0.13002352  0.29405169  1
  O  O48  1  0.83432339  0.43135103  0.57213856  1
  O  O49  1  0.54578526  0.56244112  0.84572364  1
  O  O50  1  0.45421474  0.06244112  0.15427636  1
  O  O51  1  0.71015653  0.12252939  0.81258565  1
  O  O52  1  0.85651629  0.57253948  0.47116852  1
  O  O53  1  0.59505510  0.61953826  0.22030698  1
  O  O54  1  0.01509116  0.25000000  0.60607671  1
  O  O55  1  0.65234288  0.92046206  0.55657067  1
  O  O56  1  0.28984347  0.62252939  0.18741435  1
  O  O57  1  0.29956951  0.88075516  0.69386207  1
  O  O58  1  0.61049314  0.88118055  0.71143532  1
  O  O59  1  0.33432339  0.43135103  0.92786144  1
  O  O60  1  0.46028072  0.43751995  0.64528959  1
  O  O61  1  0.02308012  0.25000000  0.10473415  1
  O  O62  1  0.95421474  0.06244112  0.34572364  1
  O  O63  1  0.11049314  0.61881945  0.78856468  1
  O  O64  1  0.33296126  0.92111959  0.53232845  1
  O  O65  1  0.48490884  0.75000000  0.10607671  1
  O  O66  1  0.98490884  0.75000000  0.39392329  1
  O  O67  1  0.14348371  0.07253948  0.52883148  1
  O  O68  1  0.11049314  0.88118055  0.78856468  1
  O  O69  1  0.58039937  0.75000000  0.32867475  1
  O  O70  1  0.64348371  0.07253948  0.97116852  1
  O  O71  1  0.83296126  0.57888041  0.96767155  1
  O  O72  1  0.84765712  0.07953794  0.05657067  1
  O  O73  1  0.40831050  0.25000000  0.18024358  1
  O  O74  1  0.83296126  0.92111959  0.96767155  1
  O  O75  1  0.45421474  0.43755888  0.15427636  1
  O  O76  1  0.28984347  0.87747061  0.18741435  1
  O  O77  1  0.09505510  0.88046174  0.27969302  1
  O  O78  1  0.47691988  0.75000000  0.60473415  1
  O  O79  1  0.16567661  0.93135103  0.42786144  1
  O  O80  1  0.03971928  0.93751995  0.14528959  1
  O  O81  1  0.59168950  0.75000000  0.81975642  1
  O  O82  1  0.70043049  0.11924484  0.30613793  1
  O  O83  1  0.53971928  0.56248005  0.35471041  1
  O  O84  1  0.78984347  0.87747061  0.31258565  1
  O  O85  1  0.35651629  0.92746052  0.02883148  1
  O  O86  1  0.04578526  0.56244112  0.65427636  1
  O  O87  1  0.33296126  0.57888041  0.53232845  1
  O  O88  1  0.79956951  0.88075516  0.80613793  1
  O  O89  1  0.38950686  0.38118055  0.28856468  1
  O  O90  1  0.15234288  0.57953794  0.94342933  1
  O  O91  1  0.52308012  0.25000000  0.39526585  1
  O  O92  1  0.03971928  0.56248005  0.14528959  1
  O  O93  1  0.16703874  0.07888041  0.03232845  1
  O  O94  1  0.78984347  0.62252939  0.31258565  1
  O  O95  1  0.16703874  0.42111959  0.03232845  1
  O  O96  1  0.34765712  0.42046206  0.44342933  1
  O  O97  1  0.66567661  0.56864897  0.07213856  1
  O  O98  1  0.96028072  0.06248005  0.85471041  1
  O  O99  1  0.91960063  0.25000000  0.82867475  1
  O  O100  1  0.85651629  0.92746052  0.47116852  1
  O  O101  1  0.16567661  0.56864897  0.42786144  1
  O  O102  1  0.53971928  0.93751995  0.35471041  1
  O  O103  1  0.96028072  0.43751995  0.85471041  1
  O  O104  1  0.35651629  0.57253948  0.02883148  1
  O  O105  1  0.70043049  0.38075516  0.30613793  1
  O  O106  1  0.04578526  0.93755888  0.65427636  1
  O  O107  1  0.88950686  0.11881945  0.21143532  1
  O  O108  1  0.33432339  0.06864897  0.92786144  1
  O  O109  1  0.08039937  0.75000000  0.17132525  1
  O  O110  1  0.34765712  0.07953794  0.44342933  1
  O  O111  1  0.88950686  0.38118055  0.21143532  1
  O  O112  1  0.83432339  0.06864897  0.57213856  1
  O  O113  1  0.46028072  0.06248005  0.64528959  1
  O  O114  1  0.54578526  0.93755888  0.84572364  1
  O  O115  1  0.21015653  0.37747061  0.68741435  1
  O  O116  1  0.84765712  0.42046206  0.05657067  1
  O  O117  1  0.51509116  0.25000000  0.89392329  1
  O  O118  1  0.29956951  0.61924484  0.69386207  1
  O  O119  1  0.15234288  0.92046206  0.94342933  1
  O  O120  1  0.66703874  0.07888041  0.46767155  1
  O  O121  1  0.90494490  0.38046174  0.72030698  1
  O  O122  1  0.59505510  0.88046174  0.22030698  1
  O  O123  1  0.61049314  0.61881945  0.71143532  1
  O  O124  1  0.71015653  0.37747061  0.81258565  1
  O  O125  1  0.90494490  0.11953826  0.72030698  1
  O  O126  1  0.65234288  0.57953794  0.55657067  1
  O  O127  1  0.97691988  0.75000000  0.89526585  1
  O  O128  1  0.14348371  0.42746052  0.52883148  1
  O  O129  1  0.21015653  0.12252939  0.68741435  1
  O  O130  1  0.66703874  0.42111959  0.46767155  1
  O  O131  1  0.79956951  0.61924484  0.80613793  1
  O  O132  1  0.40494490  0.38046174  0.77969302  1
  O  O133  1  0.95421474  0.43755888  0.34572364  1
  O  O134  1  0.09505510  0.61953826  0.27969302  1
  O  O135  1  0.64348371  0.42746052  0.97116852  1
  O  O136  1  0.66567661  0.93135103  0.07213856  1
  O  O137  1  0.38950686  0.11881945  0.28856468  1
  O  O138  1  0.90831050  0.25000000  0.31975642  1
  O  O139  1  0.09168950  0.75000000  0.68024358  1
  O  O140  1  0.40494490  0.11953826  0.77969302  1
  O  O141  1  0.20043049  0.38075516  0.19386207  1
  O  O142  1  0.20043049  0.11924484  0.19386207  1
  O  O143  1  0.41960063  0.25000000  0.67132525  1
