# generated using pymatgen
data_Cs3Te17Mo15
_symmetry_space_group_name_H-M   'P 1'
_cell_length_a   10.42707692
_cell_length_b   10.42707695
_cell_length_c   21.85103658
_cell_angle_alpha   90.00000000
_cell_angle_beta   90.00000000
_cell_angle_gamma   119.99999987
_symmetry_Int_Tables_number   1
_chemical_formula_structural   Cs3Te17Mo15
_chemical_formula_sum   'Cs6 Te34 Mo30'
_cell_volume   2057.44309522
_cell_formula_units_Z   2
loop_
 _symmetry_equiv_pos_site_id
 _symmetry_equiv_pos_as_xyz
  1  'x, y, z'
loop_
 _atom_site_type_symbol
 _atom_site_label
 _atom_site_symmetry_multiplicity
 _atom_site_fract_x
 _atom_site_fract_y
 _atom_site_fract_z
 _atom_site_occupancy
  Cs  Cs0  1  0.00000000  0.00000000  0.86045018  1
  Cs  Cs1  1  0.33333300  0.66666700  0.25000000  1
  Cs  Cs2  1  0.00000000  0.00000000  0.63954982  1
  Cs  Cs3  1  0.00000000  0.00000000  0.13954982  1
  Cs  Cs4  1  0.66666700  0.33333300  0.75000000  1
  Cs  Cs5  1  0.00000000  0.00000000  0.36045018  1
  Te  Te6  1  0.62479756  0.63216845  0.64295773  1
  Te  Te7  1  0.99262911  0.62479756  0.14295773  1
  Te  Te8  1  0.37520244  0.36783155  0.14295773  1
  Te  Te9  1  0.66284508  0.96120434  0.95740904  1
  Te  Te10  1  0.29835926  0.33715492  0.54259096  1
  Te  Te11  1  0.04056192  0.70543459  0.75000000  1
  Te  Te12  1  0.66666700  0.33333300  0.56586656  1
  Te  Te13  1  0.63216845  0.00737089  0.35704227  1
  Te  Te14  1  0.37520244  0.36783155  0.35704227  1
  Te  Te15  1  0.00737089  0.37520244  0.64295773  1
  Te  Te16  1  0.03879566  0.70164074  0.54259096  1
  Te  Te17  1  0.29835926  0.33715492  0.95740904  1
  Te  Te18  1  0.95943808  0.29456541  0.25000000  1
  Te  Te19  1  0.36783155  0.99262911  0.64295773  1
  Te  Te20  1  0.70543459  0.66487266  0.25000000  1
  Te  Te21  1  0.33715492  0.03879566  0.04259096  1
  Te  Te22  1  0.99262911  0.62479756  0.35704227  1
  Te  Te23  1  0.36783155  0.99262911  0.85704227  1
  Te  Te24  1  0.66487266  0.95943808  0.75000000  1
  Te  Te25  1  0.96120434  0.29835926  0.04259096  1
  Te  Te26  1  0.33715492  0.03879566  0.45740904  1
  Te  Te27  1  0.03879566  0.70164074  0.95740904  1
  Te  Te28  1  0.33333300  0.66666700  0.06586656  1
  Te  Te29  1  0.33512734  0.04056192  0.25000000  1
  Te  Te30  1  0.96120434  0.29835926  0.45740904  1
  Te  Te31  1  0.33333300  0.66666700  0.43413344  1
  Te  Te32  1  0.66666700  0.33333300  0.93413344  1
  Te  Te33  1  0.63216845  0.00737089  0.14295773  1
  Te  Te34  1  0.66284508  0.96120434  0.54259096  1
  Te  Te35  1  0.29456541  0.33512734  0.75000000  1
  Te  Te36  1  0.00737089  0.37520244  0.85704227  1
  Te  Te37  1  0.70164074  0.66284508  0.45740904  1
  Te  Te38  1  0.62479756  0.63216845  0.85704227  1
  Te  Te39  1  0.70164074  0.66284508  0.04259096  1
  Mo  Mo40  1  0.31843720  0.51012625  0.64329540  1
  Mo  Mo41  1  0.48987375  0.80831095  0.64329540  1
  Mo  Mo42  1  0.35053044  0.82129278  0.75000000  1
  Mo  Mo43  1  0.64946956  0.17870722  0.25000000  1
  Mo  Mo44  1  0.52923766  0.35053044  0.25000000  1
  Mo  Mo45  1  0.19168905  0.68156280  0.85670460  1
  Mo  Mo46  1  0.51012625  0.19168905  0.14329540  1
  Mo  Mo47  1  0.35213876  0.82281568  0.53803586  1
  Mo  Mo48  1  0.68156280  0.48987375  0.14329540  1
  Mo  Mo49  1  0.17718432  0.52932309  0.53803586  1
  Mo  Mo50  1  0.52932309  0.35213876  0.03803586  1
  Mo  Mo51  1  0.47076234  0.64946956  0.75000000  1
  Mo  Mo52  1  0.47067691  0.64786124  0.96196414  1
  Mo  Mo53  1  0.52932309  0.35213876  0.46196414  1
  Mo  Mo54  1  0.64786124  0.17718432  0.46196414  1
  Mo  Mo55  1  0.80831095  0.31843720  0.14329540  1
  Mo  Mo56  1  0.82281568  0.47067691  0.03803586  1
  Mo  Mo57  1  0.82129278  0.47076234  0.25000000  1
  Mo  Mo58  1  0.68156280  0.48987375  0.35670460  1
  Mo  Mo59  1  0.47067691  0.64786124  0.53803586  1
  Mo  Mo60  1  0.51012625  0.19168905  0.35670460  1
  Mo  Mo61  1  0.80831095  0.31843720  0.35670460  1
  Mo  Mo62  1  0.17718432  0.52932309  0.96196414  1
  Mo  Mo63  1  0.64786124  0.17718432  0.03803586  1
  Mo  Mo64  1  0.48987375  0.80831095  0.85670460  1
  Mo  Mo65  1  0.35213876  0.82281568  0.96196414  1
  Mo  Mo66  1  0.17870722  0.52923766  0.75000000  1
  Mo  Mo67  1  0.82281568  0.47067691  0.46196414  1
  Mo  Mo68  1  0.19168905  0.68156280  0.64329540  1
  Mo  Mo69  1  0.31843720  0.51012625  0.85670460  1
