# generated using pymatgen
data_Fe3B7IO13
_symmetry_space_group_name_H-M   'P 1'
_cell_length_a   8.76254836
_cell_length_b   8.75888910
_cell_length_c   12.38782511
_cell_angle_alpha   90.00000000
_cell_angle_beta   90.00000000
_cell_angle_gamma   90.00000000
_symmetry_Int_Tables_number   1
_chemical_formula_structural   Fe3B7IO13
_chemical_formula_sum   'Fe12 B28 I4 O52'
_cell_volume   950.76792244
_cell_formula_units_Z   4
loop_
 _symmetry_equiv_pos_site_id
 _symmetry_equiv_pos_as_xyz
  1  'x, y, z'
loop_
 _atom_site_type_symbol
 _atom_site_label
 _atom_site_symmetry_multiplicity
 _atom_site_fract_x
 _atom_site_fract_y
 _atom_site_fract_z
 _atom_site_occupancy
  Fe  Fe0  1  0.01980007  0.99922370  0.98951570  1
  Fe  Fe1  1  0.01980007  0.50077630  0.48951570  1
  Fe  Fe2  1  0.48217643  0.50175374  0.49237453  1
  Fe  Fe3  1  0.48217643  0.99824626  0.99237453  1
  Fe  Fe4  1  0.25135461  0.75797977  0.25784843  1
  Fe  Fe5  1  0.51782357  0.00175374  0.49237453  1
  Fe  Fe6  1  0.74864539  0.25797977  0.25784843  1
  Fe  Fe7  1  0.74864539  0.24202023  0.75784843  1
  Fe  Fe8  1  0.98019993  0.00077630  0.48951570  1
  Fe  Fe9  1  0.98019993  0.49922370  0.98951570  1
  Fe  Fe10  1  0.25135461  0.74202023  0.75784843  1
  Fe  Fe11  1  0.51782357  0.49824626  0.99237453  1
  B  B12  1  0.50354212  0.99881467  0.24398933  1
  B  B13  1  0.49645788  0.00118533  0.74398933  1
  B  B14  1  0.24865513  0.45141014  0.14405517  1
  B  B15  1  0.75501370  0.75674954  0.99603126  1
  B  B16  1  0.75501370  0.74325046  0.49603126  1
  B  B17  1  0.50354212  0.50118533  0.74398933  1
  B  B18  1  0.59982269  0.75607443  0.82348152  1
  B  B19  1  0.90366192  0.74298128  0.32260985  1
  B  B20  1  0.75134487  0.95141014  0.14405517  1
  B  B21  1  0.75016545  0.90683188  0.67116756  1
  B  B22  1  0.75016545  0.59316812  0.17116756  1
  B  B23  1  0.00274554  0.49869848  0.24266770  1
  B  B24  1  0.99725446  0.99869848  0.24266770  1
  B  B25  1  0.24498630  0.25674954  0.99603126  1
  B  B26  1  0.49645788  0.49881467  0.24398933  1
  B  B27  1  0.99725446  0.50130152  0.74266770  1
  B  B28  1  0.09633808  0.25701872  0.82260985  1
  B  B29  1  0.40017731  0.24392557  0.32348152  1
  B  B30  1  0.59982269  0.74392557  0.32348152  1
  B  B31  1  0.24498630  0.24325046  0.49603126  1
  B  B32  1  0.75134487  0.54858986  0.64405517  1
  B  B33  1  0.40017731  0.25607443  0.82348152  1
  B  B34  1  0.24983455  0.09316812  0.17116756  1
  B  B35  1  0.00274554  0.00130152  0.74266770  1
  B  B36  1  0.90366192  0.75701872  0.82260985  1
  B  B37  1  0.24983455  0.40683188  0.67116756  1
  B  B38  1  0.24865513  0.04858986  0.64405517  1
  B  B39  1  0.09633808  0.24298128  0.32260985  1
  I  I40  1  0.74890283  0.24517292  0.48998014  1
  I  I41  1  0.25109717  0.75482708  0.98998014  1
  I  I42  1  0.25109717  0.74517292  0.48998014  1
  I  I43  1  0.74890283  0.25482708  0.98998014  1
  O  O44  1  0.35969249  0.31564024  0.42601291  1
  O  O45  1  0.75058713  0.77372803  0.75543088  1
  O  O46  1  0.51239215  0.33495816  0.26434878  1
  O  O47  1  0.32362805  0.12115335  0.56042979  1
  O  O48  1  0.46031451  0.41214421  0.84057739  1
  O  O49  1  0.40755884  0.04591345  0.15146086  1
  O  O50  1  0.12457087  0.17424511  0.42907833  1
  O  O51  1  0.82194481  0.85903943  0.56940409  1
  O  O52  1  0.87542913  0.82575489  0.92907833  1
  O  O53  1  0.66792219  0.46228490  0.71759945  1
  O  O54  1  0.17805519  0.35903943  0.56940409  1
  O  O55  1  0.12457087  0.32575489  0.92907833  1
  O  O56  1  0.94390556  0.90508681  0.33413719  1
  O  O57  1  0.59244116  0.95408655  0.65146086  1
  O  O58  1  0.48760785  0.83495816  0.26434878  1
  O  O59  1  0.02332884  0.83864879  0.76602046  1
  O  O60  1  0.09124971  0.46075470  0.14277333  1
  O  O61  1  0.46031451  0.08785579  0.34057739  1
  O  O62  1  0.24941287  0.27372803  0.75543088  1
  O  O63  1  0.64030751  0.68435976  0.92601291  1
  O  O64  1  0.94390556  0.59491319  0.83413719  1
  O  O65  1  0.67637195  0.87884665  0.06042979  1
  O  O66  1  0.67637195  0.62115335  0.56042979  1
  O  O67  1  0.16052315  0.96702521  0.21940534  1
  O  O68  1  0.09124971  0.03924530  0.64277333  1
  O  O69  1  0.82194481  0.64096057  0.06940409  1
  O  O70  1  0.40755884  0.45408655  0.65146086  1
  O  O71  1  0.53968549  0.91214421  0.84057739  1
  O  O72  1  0.97667116  0.16135121  0.26602046  1
  O  O73  1  0.59244116  0.54591345  0.15146086  1
  O  O74  1  0.32362805  0.37884665  0.06042979  1
  O  O75  1  0.75058713  0.72627197  0.25543088  1
  O  O76  1  0.66792219  0.03771510  0.21759945  1
  O  O77  1  0.05609444  0.40508681  0.33413719  1
  O  O78  1  0.17805519  0.14096057  0.06940409  1
  O  O79  1  0.48760785  0.66504184  0.76434878  1
  O  O80  1  0.90875029  0.53924530  0.64277333  1
  O  O81  1  0.64030751  0.81564024  0.42601291  1
  O  O82  1  0.83947685  0.03297479  0.71940534  1
  O  O83  1  0.35969249  0.18435976  0.92601291  1
  O  O84  1  0.53968549  0.58785579  0.34057739  1
  O  O85  1  0.02332884  0.66135121  0.26602046  1
  O  O86  1  0.33207781  0.53771510  0.21759945  1
  O  O87  1  0.05609444  0.09491319  0.83413719  1
  O  O88  1  0.90875029  0.96075470  0.14277333  1
  O  O89  1  0.83947685  0.46702521  0.21940534  1
  O  O90  1  0.51239215  0.16504184  0.76434878  1
  O  O91  1  0.87542913  0.67424511  0.42907833  1
  O  O92  1  0.33207781  0.96228490  0.71759945  1
  O  O93  1  0.97667116  0.33864879  0.76602046  1
  O  O94  1  0.16052315  0.53297479  0.71940534  1
  O  O95  1  0.24941287  0.22627197  0.25543088  1
