# generated using pymatgen
data_AlPO4
_symmetry_space_group_name_H-M   'P 1'
_cell_length_a   4.61311193
_cell_length_b   4.61311193
_cell_length_c   6.09925332
_cell_angle_alpha   90.00000000
_cell_angle_beta   90.00000000
_cell_angle_gamma   112.15003353
_symmetry_Int_Tables_number   1
_chemical_formula_structural   AlPO4
_chemical_formula_sum   'Al2 P2 O8'
_cell_volume   120.21794776
_cell_formula_units_Z   2
loop_
 _symmetry_equiv_pos_site_id
 _symmetry_equiv_pos_as_xyz
  1  'x, y, z'
loop_
 _atom_site_type_symbol
 _atom_site_label
 _atom_site_symmetry_multiplicity
 _atom_site_fract_x
 _atom_site_fract_y
 _atom_site_fract_z
 _atom_site_occupancy
  O  O0  1  0.76518720  0.23481280  0.45661114  1
  O  O1  1  0.23481280  0.76518720  0.95661114  1
  O  O2  1  0.23481280  0.76518720  0.54338886  1
  O  O3  1  0.76518720  0.23481280  0.04338886  1
  O  O4  1  0.21729950  0.28404503  0.75000000  1
  O  O5  1  0.78270050  0.71595497  0.25000000  1
  O  O6  1  0.28404503  0.21729950  0.25000000  1
  O  O7  1  0.71595497  0.78270050  0.75000000  1
  Al  Al8  1  0.00000000  0.00000000  0.00000000  1
  Al  Al9  1  0.00000000  0.00000000  0.50000000  1
  P  P10  1  0.34515945  0.65484055  0.75000000  1
  P  P11  1  0.65484055  0.34515945  0.25000000  1
