# generated using pymatgen
data_Ba3Ce2C5O15F2
_symmetry_space_group_name_H-M   'P 1'
_cell_length_a   5.14814292
_cell_length_b   11.11680668
_cell_length_c   13.40440742
_cell_angle_alpha   94.54859792
_cell_angle_beta   90.00000000
_cell_angle_gamma   103.38821079
_symmetry_Int_Tables_number   1
_chemical_formula_structural   Ba3Ce2C5O15F2
_chemical_formula_sum   'Ba6 Ce4 C10 O30 F4'
_cell_volume   743.81420271
_cell_formula_units_Z   2
loop_
 _symmetry_equiv_pos_site_id
 _symmetry_equiv_pos_as_xyz
  1  'x, y, z'
loop_
 _atom_site_type_symbol
 _atom_site_label
 _atom_site_symmetry_multiplicity
 _atom_site_fract_x
 _atom_site_fract_y
 _atom_site_fract_z
 _atom_site_occupancy
  Ba  Ba0  1  0.31377066  0.62754133  0.90482816  1
  Ba  Ba1  1  0.19227725  0.38455450  0.60031071  1
  Ba  Ba2  1  0.50000000  0.00000000  0.50000000  1
  Ba  Ba3  1  0.80772275  0.61544550  0.39968929  1
  Ba  Ba4  1  0.68622934  0.37245867  0.09517184  1
  Ba  Ba5  1  0.00000000  0.00000000  0.00000000  1
  Ce  Ce6  1  0.59984423  0.19968845  0.81478103  1
  Ce  Ce7  1  0.40015577  0.80031155  0.18521897  1
  Ce  Ce8  1  0.10554089  0.21108179  0.28801915  1
  Ce  Ce9  1  0.89445911  0.78891821  0.71198085  1
  C  C10  1  0.45873602  0.91747204  0.79987839  1
  C  C11  1  0.04788263  0.09576526  0.64724533  1
  C  C12  1  0.24634438  0.49268876  0.27499947  1
  C  C13  1  0.54126398  0.08252796  0.20012161  1
  C  C14  1  0.16048430  0.32096860  0.90221310  1
  C  C15  1  0.83951570  0.67903140  0.09778690  1
  C  C16  1  0.34974741  0.69949483  0.54110418  1
  C  C17  1  0.75365562  0.50731124  0.72500053  1
  C  C18  1  0.65025259  0.30050517  0.45889582  1
  C  C19  1  0.95211737  0.90423474  0.35275467  1
  O  O20  1  0.43199890  0.43087109  0.27507923  1
  O  O21  1  0.30626457  0.61252914  0.27963455  1
  O  O22  1  0.89779414  0.79558827  0.13191770  1
  O  O23  1  0.70598692  0.97549583  0.81375982  1
  O  O24  1  0.10220586  0.20441173  0.86808230  1
  O  O25  1  0.29453969  0.58907938  0.49693647  1
  O  O26  1  0.14122014  0.84487201  0.34029612  1
  O  O27  1  1.00112781  0.56912891  0.72492077  1
  O  O28  1  0.59709958  0.75744642  0.56032156  1
  O  O29  1  0.29401308  0.02450417  0.18624018  1
  O  O30  1  -0.00112781  0.43087109  0.27507923  1
  O  O31  1  0.69373543  0.38747086  0.72036545  1
  O  O32  1  0.03064584  0.62198497  0.08391509  1
  O  O33  1  0.01019810  0.02039619  0.38503644  1
  O  O34  1  0.73049110  0.02450417  0.18624018  1
  O  O35  1  0.83965315  0.24255358  0.43967844  1
  O  O36  1  0.59930805  0.19861610  0.23392007  1
  O  O37  1  0.70365187  0.84487201  0.34029612  1
  O  O38  1  0.40290042  0.24255358  0.43967844  1
  O  O39  1  0.26950890  0.97549583  0.81375982  1
  O  O40  1  0.98980190  0.97960381  0.61496356  1
  O  O41  1  0.29634813  0.15512799  0.65970388  1
  O  O42  1  0.70546031  0.41092062  0.50306353  1
  O  O43  1  0.40866087  0.37801503  0.91608491  1
  O  O44  1  0.16034685  0.75744642  0.56032156  1
  O  O45  1  0.96935416  0.37801503  0.91608491  1
  O  O46  1  0.59133913  0.62198497  0.08391509  1
  O  O47  1  0.40069195  0.80138390  0.76607993  1
  O  O48  1  0.56800110  0.56912891  0.72492077  1
  O  O49  1  0.85877986  0.15512799  0.65970388  1
  F  F50  1  0.57375137  0.14750275  0.98236011  1
  F  F51  1  0.42624863  0.85249725  0.01763989  1
  F  F52  1  0.12493998  0.24987996  0.11536925  1
  F  F53  1  0.87506002  0.75012004  0.88463075  1
