# generated using pymatgen
data_Nb2Bi2PbO9
_symmetry_space_group_name_H-M   'P 1'
_cell_length_a   5.70047623
_cell_length_b   5.65752749
_cell_length_c   12.99545089
_cell_angle_alpha   102.57241106
_cell_angle_beta   90.00000000
_cell_angle_gamma   90.00000000
_symmetry_Int_Tables_number   1
_chemical_formula_structural   Nb2Bi2PbO9
_chemical_formula_sum   'Nb4 Bi4 Pb2 O18'
_cell_volume   409.06152478
_cell_formula_units_Z   2
loop_
 _symmetry_equiv_pos_site_id
 _symmetry_equiv_pos_as_xyz
  1  'x, y, z'
loop_
 _atom_site_type_symbol
 _atom_site_label
 _atom_site_symmetry_multiplicity
 _atom_site_fract_x
 _atom_site_fract_y
 _atom_site_fract_z
 _atom_site_occupancy
  Nb  Nb0  1  0.76805056  0.33355051  0.16996616  1
  Nb  Nb1  1  0.76805056  0.16358435  0.83003384  1
  Nb  Nb2  1  0.26805056  0.83641565  0.16996616  1
  Nb  Nb3  1  0.26805056  0.66644949  0.83003384  1
  Bi  Bi4  1  0.68910078  0.51473314  0.59859573  1
  Bi  Bi5  1  0.18910078  0.08386259  0.59859573  1
  Bi  Bi6  1  0.18910078  0.48526686  0.40140427  1
  Bi  Bi7  1  0.68910078  0.91613741  0.40140427  1
  Pb  Pb8  1  0.24551654  0.24559016  0.00000000  1
  Pb  Pb9  1  0.74551654  0.75440984  1.00000000  1
  O  O10  1  0.80810923  0.47888601  0.31525400  1
  O  O11  1  0.52806798  0.40574504  0.86022499  1
  O  O12  1  0.07855888  0.94345567  0.82423847  1
  O  O13  1  0.30810923  0.52111399  0.68474600  1
  O  O14  1  0.47952961  0.73395893  0.50304526  1
  O  O15  1  0.31564936  0.79943064  1.00000000  1
  O  O16  1  0.30810923  0.83636799  0.31525400  1
  O  O17  1  0.57855888  0.88078280  0.82423847  1
  O  O18  1  0.52806798  0.54552005  0.13977501  1
  O  O19  1  0.97952961  0.26604107  0.49695474  1
  O  O20  1  0.07855888  0.11921720  0.17576153  1
  O  O21  1  0.97952961  0.76908633  0.50304526  1
  O  O22  1  0.80810923  0.16363201  0.68474600  1
  O  O23  1  0.47952961  0.23091367  0.49695474  1
  O  O24  1  0.57855888  0.05654433  0.17576153  1
  O  O25  1  0.02806798  0.59425496  0.13977501  1
  O  O26  1  0.81564936  0.20056936  0.00000000  1
  O  O27  1  0.02806798  0.45447995  0.86022499  1
