# generated using pymatgen
data_Cs10Si7O9
_symmetry_space_group_name_H-M   'P 1'
_cell_length_a   8.30661039
_cell_length_b   15.22117470
_cell_length_c   23.91131268
_cell_angle_alpha   93.74345144
_cell_angle_beta   90.00000000
_cell_angle_gamma   90.00000000
_symmetry_Int_Tables_number   1
_chemical_formula_structural   Cs10Si7O9
_chemical_formula_sum   'Cs40 Si28 O36'
_cell_volume   3016.80907552
_cell_formula_units_Z   4
loop_
 _symmetry_equiv_pos_site_id
 _symmetry_equiv_pos_as_xyz
  1  'x, y, z'
loop_
 _atom_site_type_symbol
 _atom_site_label
 _atom_site_symmetry_multiplicity
 _atom_site_fract_x
 _atom_site_fract_y
 _atom_site_fract_z
 _atom_site_occupancy
  Cs  Cs0  1  0.61795797  0.84535637  0.29771819  1
  Cs  Cs1  1  0.36293693  0.37708115  0.96166084  1
  Cs  Cs2  1  0.63706307  0.37708115  0.46166084  1
  Cs  Cs3  1  0.62427789  0.12103625  0.54407583  1
  Cs  Cs4  1  0.54153594  0.08956084  0.85043159  1
  Cs  Cs5  1  0.37572211  0.87896375  0.45592417  1
  Cs  Cs6  1  0.47344172  0.40295112  0.65368854  1
  Cs  Cs7  1  0.63255833  0.64869025  0.69008271  1
  Cs  Cs8  1  0.36744167  0.64869025  0.19008271  1
  Cs  Cs9  1  0.99684350  0.51777072  0.90710806  1
  Cs  Cs10  1  0.52655828  0.59704888  0.34631146  1
  Cs  Cs11  1  0.61795797  0.15464363  0.20228181  1
  Cs  Cs12  1  0.38204203  0.15464363  0.70228181  1
  Cs  Cs13  1  0.45846406  0.91043916  0.14956841  1
  Cs  Cs14  1  0.99684350  0.48222928  0.59289194  1
  Cs  Cs15  1  0.03822018  0.27760435  0.17975820  1
  Cs  Cs16  1  0.04124006  0.03156489  0.59395257  1
  Cs  Cs17  1  0.95875994  0.03156489  0.09395257  1
  Cs  Cs18  1  0.03773268  0.21666193  0.84142261  1
  Cs  Cs19  1  0.63255833  0.35130975  0.80991729  1
  Cs  Cs20  1  0.00315650  0.48222928  0.09289194  1
  Cs  Cs21  1  0.52655828  0.40295112  0.15368854  1
  Cs  Cs22  1  0.03773268  0.78333807  0.65857739  1
  Cs  Cs23  1  0.47344172  0.59704888  0.84631146  1
  Cs  Cs24  1  0.37572211  0.12103625  0.04407583  1
  Cs  Cs25  1  0.96177982  0.27760435  0.67975820  1
  Cs  Cs26  1  0.36293693  0.62291885  0.53833916  1
  Cs  Cs27  1  0.54153594  0.91043916  0.64956841  1
  Cs  Cs28  1  0.03822018  0.72239565  0.32024180  1
  Cs  Cs29  1  0.45846406  0.08956084  0.35043159  1
  Cs  Cs30  1  0.62427789  0.87896375  0.95592417  1
  Cs  Cs31  1  0.00315650  0.51777072  0.40710806  1
  Cs  Cs32  1  0.36744167  0.35130975  0.30991729  1
  Cs  Cs33  1  0.96177982  0.72239565  0.82024180  1
  Cs  Cs34  1  0.96226732  0.21666193  0.34142261  1
  Cs  Cs35  1  0.04124006  0.96843511  0.90604743  1
  Cs  Cs36  1  0.38204203  0.84535637  0.79771819  1
  Cs  Cs37  1  0.63706307  0.62291885  0.03833916  1
  Cs  Cs38  1  0.96226732  0.78333807  0.15857739  1
  Cs  Cs39  1  0.95875994  0.96843511  0.40604743  1
  Si  Si40  1  0.01329397  0.24728023  0.00766583  1
  Si  Si41  1  0.22697159  0.58532632  0.71591184  1
  Si  Si42  1  0.78271860  0.16142518  0.97199282  1
  Si  Si43  1  0.98670603  0.24728023  0.50766583  1
  Si  Si44  1  0.24236844  0.25397900  0.55739627  1
  Si  Si45  1  0.98670603  0.75271977  0.99233417  1
  Si  Si46  1  0.21697632  0.09045506  0.22246929  1
  Si  Si47  1  0.78271860  0.83857482  0.52800718  1
  Si  Si48  1  0.77302841  0.41467368  0.28408816  1
  Si  Si49  1  0.90141328  0.50000000  0.75000000  1
  Si  Si50  1  0.09858672  0.50000000  0.25000000  1
  Si  Si51  1  0.78302368  0.09045506  0.72246929  1
  Si  Si52  1  0.21728140  0.16142518  0.47199282  1
  Si  Si53  1  0.21728140  0.83857482  0.02800718  1
  Si  Si54  1  0.78539081  0.67757321  0.53185683  1
  Si  Si55  1  0.78302368  0.90954494  0.77753071  1
  Si  Si56  1  0.78539081  0.32242679  0.96814317  1
  Si  Si57  1  0.21460919  0.32242679  0.46814317  1
  Si  Si58  1  0.24236844  0.74602100  0.94260373  1
  Si  Si59  1  0.21697632  0.90954494  0.27753071  1
  Si  Si60  1  0.01329397  0.75271977  0.49233417  1
  Si  Si61  1  0.21460919  0.67757321  0.03185683  1
  Si  Si62  1  0.77302841  0.58532632  0.21591184  1
  Si  Si63  1  0.10914729  0.00000000  0.75000000  1
  Si  Si64  1  0.75763156  0.25397900  0.05739627  1
  Si  Si65  1  0.22697159  0.41467368  0.78408816  1
  Si  Si66  1  0.89085271  0.00000000  0.25000000  1
  Si  Si67  1  0.75763156  0.74602100  0.44260373  1
  O  O68  1  0.01497530  0.92170114  0.27356655  1
  O  O69  1  0.21254549  0.95784094  0.69727093  1
  O  O70  1  0.69793563  0.50000000  0.25000000  1
  O  O71  1  0.71830483  0.57310168  0.15057269  1
  O  O72  1  0.30206437  0.50000000  0.75000000  1
  O  O73  1  0.29392041  0.00000000  0.25000000  1
  O  O74  1  0.21254549  0.04215906  0.80272907  1
  O  O75  1  0.79775304  0.54947467  0.80013917  1
  O  O76  1  0.71640531  0.32342054  0.25139663  1
  O  O77  1  0.71830483  0.42689832  0.34942731  1
  O  O78  1  0.71640531  0.67657946  0.24860337  1
  O  O79  1  0.28169517  0.42689832  0.84942731  1
  O  O80  1  0.27205509  0.09057463  0.15735617  1
  O  O81  1  0.27108874  0.17650643  0.26163245  1
  O  O82  1  0.98502470  0.92170114  0.77356655  1
  O  O83  1  0.98502470  0.07829886  0.72643345  1
  O  O84  1  0.97507064  0.57391486  0.22134932  1
  O  O85  1  0.28169517  0.57310168  0.65057269  1
  O  O86  1  0.27205509  0.90942537  0.34264383  1
  O  O87  1  0.70607959  0.00000000  0.75000000  1
  O  O88  1  0.02492936  0.57391486  0.72134932  1
  O  O89  1  0.28359469  0.67657946  0.74860337  1
  O  O90  1  0.02492936  0.42608514  0.77865068  1
  O  O91  1  0.20224696  0.54947467  0.30013917  1
  O  O92  1  0.79775304  0.45052533  0.69986083  1
  O  O93  1  0.27108874  0.82349357  0.23836755  1
  O  O94  1  0.72794491  0.09057463  0.65735617  1
  O  O95  1  0.78745451  0.95784094  0.19727093  1
  O  O96  1  0.78745451  0.04215906  0.30272907  1
  O  O97  1  0.28359469  0.32342054  0.75139663  1
  O  O98  1  0.20224696  0.45052533  0.19986083  1
  O  O99  1  0.72891126  0.82349357  0.73836755  1
  O  O100  1  0.01497530  0.07829886  0.22643345  1
  O  O101  1  0.97507064  0.42608514  0.27865068  1
  O  O102  1  0.72794491  0.90942537  0.84264383  1
  O  O103  1  0.72891126  0.17650643  0.76163245  1
