# generated using pymatgen
data_LuCuPbSe3
_symmetry_space_group_name_H-M   'P 1'
_cell_length_a   4.02481962
_cell_length_b   10.44842033
_cell_length_c   13.60998713
_cell_angle_alpha   90.00000000
_cell_angle_beta   90.00000000
_cell_angle_gamma   90.00000000
_symmetry_Int_Tables_number   1
_chemical_formula_structural   LuCuPbSe3
_chemical_formula_sum   'Lu4 Cu4 Pb4 Se12'
_cell_volume   572.34088598
_cell_formula_units_Z   4
loop_
 _symmetry_equiv_pos_site_id
 _symmetry_equiv_pos_as_xyz
  1  'x, y, z'
loop_
 _atom_site_type_symbol
 _atom_site_label
 _atom_site_symmetry_multiplicity
 _atom_site_fract_x
 _atom_site_fract_y
 _atom_site_fract_z
 _atom_site_occupancy
  Lu  Lu0  1  0.75000000  0.99335723  0.75234340  1
  Lu  Lu1  1  0.25000000  0.50664277  0.25234340  1
  Lu  Lu2  1  0.75000000  0.49335723  0.74765660  1
  Lu  Lu3  1  0.25000000  0.00664277  0.24765660  1
  Cu  Cu4  1  0.25000000  0.24525889  0.71799193  1
  Cu  Cu5  1  0.75000000  0.75474111  0.28200807  1
  Cu  Cu6  1  0.25000000  0.74525889  0.78200807  1
  Cu  Cu7  1  0.75000000  0.25474111  0.21799193  1
  Pb  Pb8  1  0.75000000  0.24072527  0.50752971  1
  Pb  Pb9  1  0.75000000  0.74072527  0.99247029  1
  Pb  Pb10  1  0.25000000  0.25927473  0.00752971  1
  Pb  Pb11  1  0.25000000  0.75927473  0.49247029  1
  Se  Se12  1  0.25000000  0.25546646  0.32814005  1
  Se  Se13  1  0.75000000  0.94645175  0.38714437  1
  Se  Se14  1  0.75000000  0.06754618  0.10985859  1
  Se  Se15  1  0.25000000  0.93245382  0.89014141  1
  Se  Se16  1  0.25000000  0.75546646  0.17185995  1
  Se  Se17  1  0.75000000  0.44645175  0.11285563  1
  Se  Se18  1  0.75000000  0.24453354  0.82814005  1
  Se  Se19  1  0.25000000  0.05354825  0.61285563  1
  Se  Se20  1  0.25000000  0.43245382  0.60985859  1
  Se  Se21  1  0.25000000  0.55354825  0.88714437  1
  Se  Se22  1  0.75000000  0.74453354  0.67185995  1
  Se  Se23  1  0.75000000  0.56754618  0.39014141  1
