# generated using pymatgen
data_Er2Te4O11
_symmetry_space_group_name_H-M   'P 1'
_cell_length_a   5.14403705
_cell_length_b   6.72545288
_cell_length_c   16.00740834
_cell_angle_alpha   80.05623586
_cell_angle_beta   80.75048682
_cell_angle_gamma   67.51528394
_symmetry_Int_Tables_number   1
_chemical_formula_structural   Er2Te4O11
_chemical_formula_sum   'Er4 Te8 O22'
_cell_volume   501.27114498
_cell_formula_units_Z   2
loop_
 _symmetry_equiv_pos_site_id
 _symmetry_equiv_pos_as_xyz
  1  'x, y, z'
loop_
 _atom_site_type_symbol
 _atom_site_label
 _atom_site_symmetry_multiplicity
 _atom_site_fract_x
 _atom_site_fract_y
 _atom_site_fract_z
 _atom_site_occupancy
  Er  Er0  1  0.63139490  0.20198160  0.03704182  1
  Er  Er1  1  0.36860510  0.79801840  0.96295818  1
  Er  Er2  1  0.12968583  0.70191747  0.53703499  1
  Er  Er3  1  0.87031417  0.29808253  0.46296501  1
  Te  Te4  1  0.84468731  0.61994934  0.12494906  1
  Te  Te5  1  0.15787920  0.04642112  0.19781890  1
  Te  Te6  1  0.58966191  0.88033754  0.37505282  1
  Te  Te7  1  0.84212080  0.95357888  0.80218110  1
  Te  Te8  1  0.59800915  0.54621879  0.69788175  1
  Te  Te9  1  0.15531269  0.38005066  0.87505094  1
  Te  Te10  1  0.41033809  0.11966246  0.62494718  1
  Te  Te11  1  0.40199085  0.45378121  0.30211825  1
  O  O12  1  0.90918254  0.63198602  0.66640427  1
  O  O13  1  0.80893406  0.63309414  0.87289190  1
  O  O14  1  0.19106594  0.36690586  0.12710810  1
  O  O15  1  0.24550791  0.96726617  0.44837628  1
  O  O16  1  0.20759952  0.86798694  0.83362206  1
  O  O17  1  0.31476283  0.86673818  0.62712447  1
  O  O18  1  0.09081746  0.36801398  0.33359573  1
  O  O19  1  0.03594938  0.18187687  0.95563257  1
  O  O20  1  0.82646144  0.68199361  0.45562023  1
  O  O21  1  0.33897596  0.46719505  0.94837177  1
  O  O22  1  0.66102404  0.53280495  0.05162823  1
  O  O23  1  0.85436466  0.24992998  0.75002342  1
  O  O24  1  0.40079913  0.95308869  0.09525045  1
  O  O25  1  0.68523717  0.13326182  0.37287553  1
  O  O26  1  0.59920087  0.04691131  0.90474955  1
  O  O27  1  0.55098493  0.45297269  0.59530239  1
  O  O28  1  0.14563534  0.75007002  0.24997658  1
  O  O29  1  0.44901507  0.54702731  0.40469761  1
  O  O30  1  0.75449209  0.03273383  0.55162372  1
  O  O31  1  0.17353856  0.31800639  0.54437977  1
  O  O32  1  0.96405062  0.81812313  0.04436743  1
  O  O33  1  0.79240048  0.13201306  0.16637794  1
