# generated using pymatgen
data_Os(SeCl6)2
_symmetry_space_group_name_H-M   'P 1'
_cell_length_a   8.95020475
_cell_length_b   8.95020500
_cell_length_c   12.61348879
_cell_angle_alpha   109.57170448
_cell_angle_beta   109.57170495
_cell_angle_gamma   93.19935867
_symmetry_Int_Tables_number   1
_chemical_formula_structural   Os(SeCl6)2
_chemical_formula_sum   'Os2 Se4 Cl24'
_cell_volume   880.82045612
_cell_formula_units_Z   2
loop_
 _symmetry_equiv_pos_site_id
 _symmetry_equiv_pos_as_xyz
  1  'x, y, z'
loop_
 _atom_site_type_symbol
 _atom_site_label
 _atom_site_symmetry_multiplicity
 _atom_site_fract_x
 _atom_site_fract_y
 _atom_site_fract_z
 _atom_site_occupancy
  Os  Os0  1  0.66522273  0.66522273  0.33044547  1
  Os  Os1  1  0.41522273  0.91522273  0.83044547  1
  Se  Se2  1  0.48109469  0.02412994  0.49627010  1
  Se  Se3  1  0.77412994  0.73109469  0.99627010  1
  Se  Se4  1  0.22214016  0.26517541  0.99627010  1
  Se  Se5  1  0.01517541  0.47214016  0.49627010  1
  Cl  Cl6  1  0.85685781  0.70460530  0.84637661  1
  Cl  Cl7  1  0.76921653  0.47898021  0.98426747  1
  Cl  Cl8  1  0.52754387  0.87576604  0.68315840  1
  Cl  Cl9  1  0.45460530  0.10685781  0.34637661  1
  Cl  Cl10  1  0.70816780  0.55762650  0.48245675  1
  Cl  Cl11  1  0.55739236  0.40561453  0.18315840  1
  Cl  Cl12  1  0.12768292  0.29129626  0.14322102  1
  Cl  Cl13  1  0.45695678  0.65999584  0.83624692  1
  Cl  Cl14  1  0.89177130  0.23951880  0.34637661  1
  Cl  Cl15  1  0.25528726  0.46505093  0.48426747  1
  Cl  Cl16  1  0.40999584  0.70695678  0.33624692  1
  Cl  Cl17  1  0.67483025  0.02428895  0.98245675  1
  Cl  Cl18  1  0.60192476  0.26553810  0.64322102  1
  Cl  Cl19  1  0.01553810  0.85192476  0.14322102  1
  Cl  Cl20  1  0.62576604  0.77754387  0.18315840  1
  Cl  Cl21  1  0.92625108  0.62929014  0.33624692  1
  Cl  Cl22  1  0.22898021  0.01921653  0.48426747  1
  Cl  Cl23  1  0.77428895  0.92483025  0.48245675  1
  Cl  Cl24  1  0.30762650  0.95816780  0.98245675  1
  Cl  Cl25  1  0.37929014  0.17625108  0.83624692  1
  Cl  Cl26  1  0.15561453  0.80739236  0.68315840  1
  Cl  Cl27  1  0.98951880  0.14177130  0.84637661  1
  Cl  Cl28  1  0.21505093  0.50528726  0.98426747  1
  Cl  Cl29  1  0.04129626  0.37768292  0.64322102  1
