# generated using pymatgen
data_Na3Ca(BO2)5
_symmetry_space_group_name_H-M   'P 1'
_cell_length_a   7.50599735
_cell_length_b   7.54152812
_cell_length_c   9.83868534
_cell_angle_alpha   79.14255090
_cell_angle_beta   70.07928160
_cell_angle_gamma   60.03810762
_symmetry_Int_Tables_number   1
_chemical_formula_structural   Na3Ca(BO2)5
_chemical_formula_sum   'Na6 Ca2 B10 O20'
_cell_volume   453.52131282
_cell_formula_units_Z   2
loop_
 _symmetry_equiv_pos_site_id
 _symmetry_equiv_pos_as_xyz
  1  'x, y, z'
loop_
 _atom_site_type_symbol
 _atom_site_label
 _atom_site_symmetry_multiplicity
 _atom_site_fract_x
 _atom_site_fract_y
 _atom_site_fract_z
 _atom_site_occupancy
  Na  Na0  1  0.01078951  0.22156569  0.45281060  1
  Na  Na1  1  0.72602353  0.53820176  0.75040761  1
  Na  Na2  1  0.98921049  0.77843431  0.54718940  1
  Na  Na3  1  0.82706712  0.97801134  0.17484111  1
  Na  Na4  1  0.17293288  0.02198866  0.82515889  1
  Na  Na5  1  0.27397647  0.46179824  0.24959239  1
  Ca  Ca6  1  0.77812176  0.47407430  0.11995805  1
  Ca  Ca7  1  0.22187824  0.52592570  0.88004195  1
  B  B8  1  0.58819079  0.14431855  0.71238145  1
  B  B9  1  0.70049410  0.18491118  0.91929521  1
  B  B10  1  0.72679612  0.71455776  0.39381190  1
  B  B11  1  0.29950590  0.81508882  0.08070479  1
  B  B12  1  0.22766434  0.15883691  0.13180970  1
  B  B13  1  0.77233566  0.84116309  0.86819030  1
  B  B14  1  0.27320388  0.28544224  0.60618810  1
  B  B15  1  0.63015335  0.24214393  0.44560411  1
  B  B16  1  0.41180921  0.85568145  0.28761855  1
  B  B17  1  0.36984665  0.75785607  0.55439589  1
  O  O18  1  0.72462105  0.29194917  0.99803570  1
  O  O19  1  0.27537895  0.70805083  0.00196430  1
  O  O20  1  0.67448259  0.92501752  0.75818630  1
  O  O21  1  0.32551741  0.07498248  0.24181370  1
  O  O22  1  0.75832380  0.25686569  0.31530577  1
  O  O23  1  0.40029712  0.73075269  0.19072523  1
  O  O24  1  0.21146030  0.02944579  0.05587527  1
  O  O25  1  0.07681671  0.31412833  0.62661827  1
  O  O26  1  0.35805602  0.23184260  0.72531288  1
  O  O27  1  0.14249329  0.36025070  0.09954526  1
  O  O28  1  0.59970288  0.26924731  0.80927477  1
  O  O29  1  0.40984959  0.30465496  0.46863289  1
  O  O30  1  0.71474436  0.15823513  0.56346794  1
  O  O31  1  0.92318329  0.68587167  0.37338173  1
  O  O32  1  0.78853970  0.97055421  0.94412473  1
  O  O33  1  0.24167620  0.74313431  0.68469423  1
  O  O34  1  0.64194398  0.76815740  0.27468712  1
  O  O35  1  0.28525564  0.84176487  0.43653206  1
  O  O36  1  0.85750671  0.63974930  0.90045474  1
  O  O37  1  0.59015041  0.69534504  0.53136711  1
