# generated using pymatgen
data_LiSc(SiO3)2
_symmetry_space_group_name_H-M   'P 1'
_cell_length_a   5.40307569
_cell_length_b   9.06691460
_cell_length_c   9.50632152
_cell_angle_alpha   90.00000000
_cell_angle_beta   101.55395137
_cell_angle_gamma   90.00000000
_symmetry_Int_Tables_number   1
_chemical_formula_structural   LiSc(SiO3)2
_chemical_formula_sum   'Li4 Sc4 Si8 O24'
_cell_volume   456.27049014
_cell_formula_units_Z   4
loop_
 _symmetry_equiv_pos_site_id
 _symmetry_equiv_pos_as_xyz
  1  'x, y, z'
loop_
 _atom_site_type_symbol
 _atom_site_label
 _atom_site_symmetry_multiplicity
 _atom_site_fract_x
 _atom_site_fract_y
 _atom_site_fract_z
 _atom_site_occupancy
  Li  Li0  1  0.00815038  0.00017633  0.24721323  1
  Li  Li1  1  0.50815038  0.49982367  0.24721323  1
  Li  Li2  1  0.99184962  0.99982367  0.75278677  1
  Li  Li3  1  0.49184962  0.50017633  0.75278677  1
  O  O4  1  0.56733734  0.76998588  0.60043915  1
  O  O5  1  0.06733734  0.73001412  0.60043915  1
  O  O6  1  0.43266266  0.23001412  0.39956085  1
  O  O7  1  0.93266266  0.26998588  0.39956085  1
  O  O8  1  0.76535564  0.50518510  0.62475621  1
  O  O9  1  0.73464436  0.00518510  0.37524379  1
  O  O10  1  0.23464436  0.49481490  0.37524379  1
  O  O11  1  0.26535564  0.99481490  0.62475621  1
  O  O12  1  0.70421278  0.33289790  0.87162077  1
  O  O13  1  0.79578722  0.83289790  0.12837923  1
  O  O14  1  0.29578722  0.66710210  0.12837923  1
  O  O15  1  0.20421278  0.16710210  0.87162077  1
  O  O16  1  0.79091355  0.49828587  0.12085262  1
  O  O17  1  0.70908645  0.99828587  0.87914738  1
  O  O18  1  0.20908645  0.50171413  0.87914738  1
  O  O19  1  0.29091355  0.00171413  0.12085262  1
  O  O20  1  0.51924472  0.26223172  0.10558058  1
  O  O21  1  0.98075528  0.76223172  0.89441942  1
  O  O22  1  0.48075528  0.73776828  0.89441942  1
  O  O23  1  0.01924472  0.23776828  0.10558058  1
  O  O24  1  0.72115688  0.66435392  0.37024631  1
  O  O25  1  0.77884312  0.16435392  0.62975369  1
  O  O26  1  0.27884312  0.33564608  0.62975369  1
  O  O27  1  0.22115688  0.83564608  0.37024631  1
  Si  Si28  1  0.77906154  0.66360412  0.54796807  1
  Si  Si29  1  0.72093846  0.16360412  0.45203193  1
  Si  Si30  1  0.22093846  0.33639588  0.45203193  1
  Si  Si31  1  0.27906154  0.83639588  0.54796807  1
  Si  Si32  1  0.26098257  0.16406469  0.04892895  1
  Si  Si33  1  0.23901743  0.66406469  0.95107105  1
  Si  Si34  1  0.73901743  0.83593531  0.95107105  1
  Si  Si35  1  0.76098257  0.33593531  0.04892895  1
  Sc  Sc36  1  0.51039125  0.85795150  0.25054816  1
  Sc  Sc37  1  0.98960875  0.35795150  0.74945184  1
  Sc  Sc38  1  0.48960875  0.14204850  0.74945184  1
  Sc  Sc39  1  0.01039125  0.64204850  0.25054816  1
