# generated using pymatgen
data_TaTe2
_symmetry_space_group_name_H-M   'P 1'
_cell_length_a   3.66743826
_cell_length_b   7.85799984
_cell_length_c   9.66651914
_cell_angle_alpha   112.09820045
_cell_angle_beta   90.00000000
_cell_angle_gamma   103.49479228
_symmetry_Int_Tables_number   1
_chemical_formula_structural   TaTe2
_chemical_formula_sum   'Ta3 Te6'
_cell_volume   249.79217674
_cell_formula_units_Z   3
loop_
 _symmetry_equiv_pos_site_id
 _symmetry_equiv_pos_as_xyz
  1  'x, y, z'
loop_
 _atom_site_type_symbol
 _atom_site_label
 _atom_site_symmetry_multiplicity
 _atom_site_fract_x
 _atom_site_fract_y
 _atom_site_fract_z
 _atom_site_occupancy
  Ta  Ta0  1  0.00000000  0.00000000  0.00000000  1
  Ta  Ta1  1  0.36202139  0.72404277  0.71276514  1
  Ta  Ta2  1  0.63797861  0.27595723  0.28723486  1
  Te  Te3  1  0.35428015  0.70856030  0.98587584  1
  Te  Te4  1  0.64571985  0.29143970  0.01412416  1
  Te  Te5  1  0.70711049  0.41422098  0.61613195  1
  Te  Te6  1  0.29288951  0.58577902  0.38386805  1
  Te  Te7  1  0.00792242  0.01584485  0.30575889  1
  Te  Te8  1  0.99207758  0.98415515  0.69424111  1
