# generated using pymatgen
data_Zr(Se2Cl3)2
_symmetry_space_group_name_H-M   'P 1'
_cell_length_a   11.04801869
_cell_length_b   11.11400862
_cell_length_c   11.11400862
_cell_angle_alpha   90.00000000
_cell_angle_beta   90.00000000
_cell_angle_gamma   90.00000000
_symmetry_Int_Tables_number   1
_chemical_formula_structural   Zr(Se2Cl3)2
_chemical_formula_sum   'Zr4 Se16 Cl24'
_cell_volume   1364.66438928
_cell_formula_units_Z   4
loop_
 _symmetry_equiv_pos_site_id
 _symmetry_equiv_pos_as_xyz
  1  'x, y, z'
loop_
 _atom_site_type_symbol
 _atom_site_label
 _atom_site_symmetry_multiplicity
 _atom_site_fract_x
 _atom_site_fract_y
 _atom_site_fract_z
 _atom_site_occupancy
  Zr  Zr0  1  0.50000000  0.50000000  0.00000000  1
  Zr  Zr1  1  0.00000000  0.00000000  0.00000000  1
  Zr  Zr2  1  0.50000000  0.00000000  0.50000000  1
  Zr  Zr3  1  0.00000000  0.50000000  0.50000000  1
  Se  Se4  1  0.08056612  0.41074735  0.08925265  1
  Se  Se5  1  0.91943388  0.58925265  0.91074735  1
  Se  Se6  1  0.00000000  0.39498305  0.89498305  1
  Se  Se7  1  0.50000000  0.60501695  0.39498305  1
  Se  Se8  1  0.00000000  0.89498305  0.39498305  1
  Se  Se9  1  0.00000000  0.10501695  0.60501695  1
  Se  Se10  1  0.91943388  0.91074735  0.58925265  1
  Se  Se11  1  0.08056612  0.08925265  0.41074735  1
  Se  Se12  1  0.50000000  0.89498305  0.10501695  1
  Se  Se13  1  0.50000000  0.39498305  0.60501695  1
  Se  Se14  1  0.00000000  0.60501695  0.10501695  1
  Se  Se15  1  0.50000000  0.10501695  0.89498305  1
  Se  Se16  1  0.41943388  0.91074735  0.91074735  1
  Se  Se17  1  0.58056612  0.08925265  0.08925265  1
  Se  Se18  1  0.58056612  0.41074735  0.41074735  1
  Se  Se19  1  0.41943388  0.58925265  0.58925265  1
  Cl  Cl20  1  0.36006704  0.66959548  0.05728737  1
  Cl  Cl21  1  0.11057115  0.86451158  0.86451158  1
  Cl  Cl22  1  0.13993296  0.16959548  0.94271263  1
  Cl  Cl23  1  0.38942885  0.36451158  0.13548842  1
  Cl  Cl24  1  0.13993296  0.33040452  0.55728737  1
  Cl  Cl25  1  0.86006704  0.44271263  0.66959548  1
  Cl  Cl26  1  0.36006704  0.83040452  0.44271263  1
  Cl  Cl27  1  0.63993296  0.33040452  0.94271263  1
  Cl  Cl28  1  0.63993296  0.94271263  0.33040452  1
  Cl  Cl29  1  0.36006704  0.44271263  0.83040452  1
  Cl  Cl30  1  0.63993296  0.16959548  0.55728737  1
  Cl  Cl31  1  0.86006704  0.66959548  0.44271263  1
  Cl  Cl32  1  0.38942885  0.13548842  0.36451158  1
  Cl  Cl33  1  0.86006704  0.05728737  0.83040452  1
  Cl  Cl34  1  0.61057115  0.63548842  0.86451158  1
  Cl  Cl35  1  0.36006704  0.05728737  0.66959548  1
  Cl  Cl36  1  0.88942885  0.36451158  0.36451158  1
  Cl  Cl37  1  0.13993296  0.94271263  0.16959548  1
  Cl  Cl38  1  0.13993296  0.55728737  0.33040452  1
  Cl  Cl39  1  0.11057115  0.63548842  0.63548842  1
  Cl  Cl40  1  0.63993296  0.55728737  0.16959548  1
  Cl  Cl41  1  0.88942885  0.13548842  0.13548842  1
  Cl  Cl42  1  0.86006704  0.83040452  0.05728737  1
  Cl  Cl43  1  0.61057115  0.86451158  0.63548842  1
