# generated using pymatgen
data_Ba2CoSi2O7
_symmetry_space_group_name_H-M   'P 1'
_cell_length_a   6.92490546
_cell_length_b   6.92490510
_cell_length_c   8.56900430
_cell_angle_alpha   102.93616091
_cell_angle_beta   102.93616026
_cell_angle_gamma   103.69040678
_symmetry_Int_Tables_number   1
_chemical_formula_structural   Ba2CoSi2O7
_chemical_formula_sum   'Ba4 Co2 Si4 O14'
_cell_volume   372.11159360
_cell_formula_units_Z   2
loop_
 _symmetry_equiv_pos_site_id
 _symmetry_equiv_pos_as_xyz
  1  'x, y, z'
loop_
 _atom_site_type_symbol
 _atom_site_label
 _atom_site_symmetry_multiplicity
 _atom_site_fract_x
 _atom_site_fract_y
 _atom_site_fract_z
 _atom_site_occupancy
  Ba  Ba0  1  0.26827138  0.18634792  0.97413689  1
  Ba  Ba1  1  0.73172862  0.81365208  0.02586311  1
  Ba  Ba2  1  0.81365208  0.73172862  0.52586311  1
  Ba  Ba3  1  0.18634792  0.26827138  0.47413689  1
  Co  Co4  1  0.25738694  0.74261306  0.25000000  1
  Co  Co5  1  0.74261306  0.25738694  0.75000000  1
  Si  Si6  1  0.83217595  0.39439736  0.13778782  1
  Si  Si7  1  0.16782405  0.60560264  0.86221218  1
  Si  Si8  1  0.60560264  0.16782405  0.36221218  1
  Si  Si9  1  0.39439736  0.83217595  0.63778782  1
  O  O10  1  0.62132966  0.32439777  0.54354352  1
  O  O11  1  0.67560223  0.37867034  0.95645648  1
  O  O12  1  0.75887089  0.02332430  0.36684187  1
  O  O13  1  0.97667570  0.24112911  0.13315813  1
  O  O14  1  0.35781617  0.04299719  0.26452075  1
  O  O15  1  0.37867034  0.67560223  0.45645648  1
  O  O16  1  0.02332430  0.75887089  0.86684187  1
  O  O17  1  0.33344239  0.66655761  0.75000000  1
  O  O18  1  0.66655761  0.33344239  0.25000000  1
  O  O19  1  0.64218383  0.95700281  0.73547925  1
  O  O20  1  0.24112911  0.97667570  0.63315813  1
  O  O21  1  0.32439777  0.62132966  0.04354352  1
  O  O22  1  0.95700281  0.64218383  0.23547925  1
  O  O23  1  0.04299719  0.35781617  0.76452075  1
