# generated using pymatgen
data_Cs5SiP3
_symmetry_space_group_name_H-M   'P 1'
_cell_length_a   6.06390357
_cell_length_b   14.33632162
_cell_length_c   15.72158866
_cell_angle_alpha   90.00000000
_cell_angle_beta   90.00000000
_cell_angle_gamma   90.00000000
_symmetry_Int_Tables_number   1
_chemical_formula_structural   Cs5SiP3
_chemical_formula_sum   'Cs20 Si4 P12'
_cell_volume   1366.74171820
_cell_formula_units_Z   4
loop_
 _symmetry_equiv_pos_site_id
 _symmetry_equiv_pos_as_xyz
  1  'x, y, z'
loop_
 _atom_site_type_symbol
 _atom_site_label
 _atom_site_symmetry_multiplicity
 _atom_site_fract_x
 _atom_site_fract_y
 _atom_site_fract_z
 _atom_site_occupancy
  Cs  Cs0  1  0.25000000  0.06227295  0.04875266  1
  Cs  Cs1  1  0.75000000  0.95273835  0.65158218  1
  Cs  Cs2  1  0.75000000  0.45273835  0.84841782  1
  Cs  Cs3  1  0.25000000  0.56227295  0.45124734  1
  Cs  Cs4  1  0.25000000  0.77587637  0.29483534  1
  Cs  Cs5  1  0.25000000  0.35390279  0.94973552  1
  Cs  Cs6  1  0.75000000  0.64609721  0.05026448  1
  Cs  Cs7  1  0.25000000  0.27587637  0.20516466  1
  Cs  Cs8  1  0.25000000  0.11717056  0.81203303  1
  Cs  Cs9  1  0.75000000  0.14609721  0.44973552  1
  Cs  Cs10  1  0.25000000  0.54726165  0.15158218  1
  Cs  Cs11  1  0.25000000  0.04726165  0.34841782  1
  Cs  Cs12  1  0.75000000  0.22412363  0.70516466  1
  Cs  Cs13  1  0.75000000  0.38282944  0.31203303  1
  Cs  Cs14  1  0.75000000  0.43772705  0.54875266  1
  Cs  Cs15  1  0.25000000  0.61717056  0.68796697  1
  Cs  Cs16  1  0.25000000  0.85390279  0.55026448  1
  Cs  Cs17  1  0.75000000  0.72412363  0.79483534  1
  Cs  Cs18  1  0.75000000  0.93772705  0.95124734  1
  Cs  Cs19  1  0.75000000  0.88282944  0.18796697  1
  Si  Si20  1  0.25000000  0.76054821  0.93575466  1
  Si  Si21  1  0.75000000  0.23945179  0.06424534  1
  Si  Si22  1  0.75000000  0.73945179  0.43575466  1
  Si  Si23  1  0.25000000  0.26054821  0.56424534  1
  P  P24  1  0.25000000  0.86222971  0.82903266  1
  P  P25  1  0.25000000  0.80659667  0.07029916  1
  P  P26  1  0.25000000  0.36222971  0.67096734  1
  P  P27  1  0.75000000  0.19340333  0.92970084  1
  P  P28  1  0.75000000  0.89215744  0.41409864  1
  P  P29  1  0.75000000  0.63777029  0.32903266  1
  P  P30  1  0.75000000  0.39215744  0.08590136  1
  P  P31  1  0.25000000  0.10784256  0.58590136  1
  P  P32  1  0.75000000  0.13777029  0.17096734  1
  P  P33  1  0.25000000  0.60784256  0.91409864  1
  P  P34  1  0.25000000  0.30659667  0.42970084  1
  P  P35  1  0.75000000  0.69340333  0.57029916  1
