# generated using pymatgen
data_Ba2Ho(CuO2)4
_symmetry_space_group_name_H-M   'P 1'
_cell_length_a   3.87945961
_cell_length_b   3.89434834
_cell_length_c   13.87398135
_cell_angle_alpha   98.06793657
_cell_angle_beta   90.00000000
_cell_angle_gamma   90.00000000
_symmetry_Int_Tables_number   1
_chemical_formula_structural   Ba2Ho(CuO2)4
_chemical_formula_sum   'Ba2 Ho1 Cu4 O8'
_cell_volume   207.53303078
_cell_formula_units_Z   1
loop_
 _symmetry_equiv_pos_site_id
 _symmetry_equiv_pos_as_xyz
  1  'x, y, z'
loop_
 _atom_site_type_symbol
 _atom_site_label
 _atom_site_symmetry_multiplicity
 _atom_site_fract_x
 _atom_site_fract_y
 _atom_site_fract_z
 _atom_site_occupancy
  O  O0  1  0.00000000  0.28154465  0.56308930  1
  O  O1  1  0.00000000  0.71845535  0.43691070  1
  O  O2  1  0.00000000  0.44850829  0.89701659  1
  O  O3  1  0.00000000  0.55149171  0.10298341  1
  O  O4  1  0.50000000  0.94839024  0.89678048  1
  O  O5  1  0.50000000  0.05160976  0.10321952  1
  O  O6  1  0.00000000  0.85475051  0.70950103  1
  O  O7  1  0.00000000  0.14524949  0.29049897  1
  Cu  Cu8  1  0.00000000  0.93908347  0.87816694  1
  Cu  Cu9  1  0.00000000  0.06091653  0.12183306  1
  Cu  Cu10  1  0.00000000  0.78739748  0.57479496  1
  Cu  Cu11  1  0.00000000  0.21260252  0.42520504  1
  Ba  Ba12  1  0.50000000  0.36445296  0.72890592  1
  Ba  Ba13  1  0.50000000  0.63554704  0.27109408  1
  Ho  Ho14  1  0.50000000  0.50000000  0.00000000  1
