# generated using pymatgen
data_Mn3(P3Pd10)2
_symmetry_space_group_name_H-M   'P 1'
_cell_length_a   8.55559226
_cell_length_b   8.55559226
_cell_length_c   8.55559226
_cell_angle_alpha   60.00000001
_cell_angle_beta   59.99999999
_cell_angle_gamma   59.99999999
_symmetry_Int_Tables_number   1
_chemical_formula_structural   Mn3(P3Pd10)2
_chemical_formula_sum   'Mn3 P6 Pd20'
_cell_volume   442.82816867
_cell_formula_units_Z   1
loop_
 _symmetry_equiv_pos_site_id
 _symmetry_equiv_pos_as_xyz
  1  'x, y, z'
loop_
 _atom_site_type_symbol
 _atom_site_label
 _atom_site_symmetry_multiplicity
 _atom_site_fract_x
 _atom_site_fract_y
 _atom_site_fract_z
 _atom_site_occupancy
  P  P0  1  0.26562811  0.73437189  0.73437189  1
  P  P1  1  0.73437189  0.26562811  0.26562811  1
  P  P2  1  0.73437189  0.73437189  0.26562811  1
  P  P3  1  0.26562811  0.73437189  0.26562811  1
  P  P4  1  0.73437189  0.26562811  0.73437189  1
  P  P5  1  0.26562811  0.26562811  0.73437189  1
  Mn  Mn6  1  0.75000000  0.75000000  0.75000000  1
  Mn  Mn7  1  0.25000000  0.25000000  0.25000000  1
  Mn  Mn8  1  0.00000000  0.00000000  0.00000000  1
  Pd  Pd9  1  0.38144923  0.85565230  0.38144923  1
  Pd  Pd10  1  0.61855077  0.61855077  0.61855077  1
  Pd  Pd11  1  0.34194935  0.00000000  0.00000000  1
  Pd  Pd12  1  0.00000000  0.00000000  0.34194935  1
  Pd  Pd13  1  0.34194935  0.65805065  0.00000000  1
  Pd  Pd14  1  0.38144923  0.38144923  0.85565230  1
  Pd  Pd15  1  0.00000000  0.65805065  0.34194935  1
  Pd  Pd16  1  0.00000000  0.34194935  0.00000000  1
  Pd  Pd17  1  0.34194935  0.00000000  0.65805065  1
  Pd  Pd18  1  0.65805065  0.34194935  0.00000000  1
  Pd  Pd19  1  0.00000000  0.65805065  0.00000000  1
  Pd  Pd20  1  0.65805065  0.00000000  0.34194935  1
  Pd  Pd21  1  0.00000000  0.00000000  0.65805065  1
  Pd  Pd22  1  0.65805065  0.00000000  0.00000000  1
  Pd  Pd23  1  0.85565230  0.38144923  0.38144923  1
  Pd  Pd24  1  0.61855077  0.14434770  0.61855077  1
  Pd  Pd25  1  0.14434770  0.61855077  0.61855077  1
  Pd  Pd26  1  0.61855077  0.61855077  0.14434770  1
  Pd  Pd27  1  0.38144923  0.38144923  0.38144923  1
  Pd  Pd28  1  0.00000000  0.34194935  0.65805065  1
