# generated using pymatgen
data_Zr2InNi2
_symmetry_space_group_name_H-M   'P 1'
_cell_length_a   6.70189715
_cell_length_b   7.23589952
_cell_length_c   7.23569420
_cell_angle_alpha   90.00053257
_cell_angle_beta   90.00203613
_cell_angle_gamma   90.00277051
_symmetry_Int_Tables_number   1
_chemical_formula_structural   Zr2InNi2
_chemical_formula_sum   'Zr8 In4 Ni8'
_cell_volume   350.88959476
_cell_formula_units_Z   4
loop_
 _symmetry_equiv_pos_site_id
 _symmetry_equiv_pos_as_xyz
  1  'x, y, z'
loop_
 _atom_site_type_symbol
 _atom_site_label
 _atom_site_symmetry_multiplicity
 _atom_site_fract_x
 _atom_site_fract_y
 _atom_site_fract_z
 _atom_site_occupancy
  Zr  Zr0  1  0.00001666  0.17544894  0.17543643  1
  Zr  Zr1  1  0.50000655  0.32449876  0.67550946  1
  Zr  Zr2  1  0.99998402  0.66230367  0.33764700  1
  Zr  Zr3  1  0.49997194  0.83771607  0.83769152  1
  Zr  Zr4  1  0.00002650  0.82452238  0.82450461  1
  Zr  Zr5  1  0.49999885  0.16226628  0.16236762  1
  Zr  Zr6  1  0.00000500  0.33767218  0.66227451  1
  Zr  Zr7  1  0.49997039  0.67552361  0.32444874  1
  In  In8  1  0.24997967  0.50002967  0.00006164  1
  In  In9  1  0.74998641  0.50009295  0.00002321  1
  In  In10  1  0.75003729  0.00002328  0.50003502  1
  In  In11  1  0.25003948  0.00004579  0.50002515  1
  Ni  Ni12  1  0.76640171  0.87485041  0.12513786  1
  Ni  Ni13  1  0.23364847  0.87485622  0.12511474  1
  Ni  Ni14  1  0.26637875  0.37482538  0.37480086  1
  Ni  Ni15  1  0.23362946  0.12513100  0.87487083  1
  Ni  Ni16  1  0.73351535  0.62519107  0.62516779  1
  Ni  Ni17  1  0.73362723  0.37480300  0.37481455  1
  Ni  Ni18  1  0.76637381  0.12509030  0.87491745  1
  Ni  Ni19  1  0.26640245  0.62510904  0.62515100  1
