# generated using pymatgen
data_Nd(HO)3
_symmetry_space_group_name_H-M   'P 1'
_cell_length_a   6.54571271
_cell_length_b   6.63310350
_cell_length_c   3.70944216
_cell_angle_alpha   90.00000000
_cell_angle_beta   90.00000000
_cell_angle_gamma   120.67586323
_symmetry_Int_Tables_number   1
_chemical_formula_structural   Nd(HO)3
_chemical_formula_sum   'Nd2 H6 O6'
_cell_volume   138.52071959
_cell_formula_units_Z   2
loop_
 _symmetry_equiv_pos_site_id
 _symmetry_equiv_pos_as_xyz
  1  'x, y, z'
loop_
 _atom_site_type_symbol
 _atom_site_label
 _atom_site_symmetry_multiplicity
 _atom_site_fract_x
 _atom_site_fract_y
 _atom_site_fract_z
 _atom_site_occupancy
  Nd  Nd0  1  0.33816735  0.67082547  0.25000000  1
  Nd  Nd1  1  0.66183265  0.32917453  0.75000000  1
  H  H2  1  0.86604404  0.71490491  0.25000000  1
  H  H3  1  0.85864745  0.14763479  0.25000000  1
  H  H4  1  0.26172890  0.14673154  0.25000000  1
  H  H5  1  0.13395596  0.28509509  0.75000000  1
  H  H6  1  0.14135255  0.85236521  0.75000000  1
  H  H7  1  0.73827110  0.85326846  0.75000000  1
  O  O8  1  0.91586905  0.59989193  0.25000000  1
  O  O9  1  0.68810482  0.08651469  0.25000000  1
  O  O10  1  0.38723128  0.31044355  0.25000000  1
  O  O11  1  0.08413095  0.40010807  0.75000000  1
  O  O12  1  0.31189518  0.91348531  0.75000000  1
  O  O13  1  0.61276872  0.68955645  0.75000000  1
