# generated using pymatgen
data_H2SeO4
_symmetry_space_group_name_H-M   'P 1'
_cell_length_a   9.25393626
_cell_length_b   8.46231764
_cell_length_c   4.74622249
_cell_angle_alpha   90.00000000
_cell_angle_beta   90.00000000
_cell_angle_gamma   90.49566982
_symmetry_Int_Tables_number   1
_chemical_formula_structural   H2SeO4
_chemical_formula_sum   'H8 Se4 O16'
_cell_volume   371.66157886
_cell_formula_units_Z   4
loop_
 _symmetry_equiv_pos_site_id
 _symmetry_equiv_pos_as_xyz
  1  'x, y, z'
loop_
 _atom_site_type_symbol
 _atom_site_label
 _atom_site_symmetry_multiplicity
 _atom_site_fract_x
 _atom_site_fract_y
 _atom_site_fract_z
 _atom_site_occupancy
  H  H0  1  0.95855040  0.02651098  0.40233252  1
  H  H1  1  0.54144960  0.97348902  0.90233252  1
  H  H2  1  0.74211819  0.71381754  0.47354623  1
  H  H3  1  0.75788181  0.28618246  0.97354623  1
  H  H4  1  0.24886435  0.78117393  0.48715249  1
  H  H5  1  0.25113565  0.21882607  0.98715249  1
  H  H6  1  0.04573408  0.52474158  0.05508114  1
  H  H7  1  0.45426592  0.47525842  0.55508114  1
  Se  Se8  1  0.63302983  0.71835406  0.90755068  1
  Se  Se9  1  0.86697017  0.28164594  0.40755068  1
  Se  Se10  1  0.13884248  0.78087051  0.05435400  1
  Se  Se11  1  0.36115752  0.21912949  0.55435400  1
  O  O12  1  0.49413388  0.63401439  0.75483732  1
  O  O13  1  0.00586712  0.36598661  0.25483732  1
  O  O14  1  0.00278041  0.86615482  0.20976816  1
  O  O15  1  0.49721959  0.13384518  0.70976816  1
  O  O16  1  0.70671167  0.62836656  0.17641400  1
  O  O17  1  0.79328833  0.37163344  0.67641400  1
  O  O18  1  0.21607196  0.87121417  0.78795997  1
  O  O19  1  0.28392804  0.12878583  0.28795997  1
  O  O20  1  0.76724278  0.76454059  0.66329155  1
  O  O21  1  0.73275722  0.23545941  0.16329155  1
  O  O22  1  0.27097476  0.72872204  0.29860944  1
  O  O23  1  0.22902524  0.27127796  0.79860944  1
  O  O24  1  0.58707910  0.90127581  0.04625444  1
  O  O25  1  0.91292090  0.09872419  0.54625444  1
  O  O26  1  0.08677307  0.60042414  0.91009206  1
  O  O27  1  0.41322693  0.39957586  0.41009206  1
