# generated using pymatgen
data_Lu(HO)3
_symmetry_space_group_name_H-M   'P 1'
_cell_length_a   7.11553607
_cell_length_b   7.11553607
_cell_length_c   7.12885366
_cell_angle_alpha   109.50913879
_cell_angle_beta   109.50913879
_cell_angle_gamma   109.43327588
_symmetry_Int_Tables_number   1
_chemical_formula_structural   Lu(HO)3
_chemical_formula_sum   'Lu4 H12 O12'
_cell_volume   277.72156928
_cell_formula_units_Z   4
loop_
 _symmetry_equiv_pos_site_id
 _symmetry_equiv_pos_as_xyz
  1  'x, y, z'
loop_
 _atom_site_type_symbol
 _atom_site_label
 _atom_site_symmetry_multiplicity
 _atom_site_fract_x
 _atom_site_fract_y
 _atom_site_fract_z
 _atom_site_occupancy
  Lu  Lu0  1  0.50000000  0.00000000  0.00000000  1
  Lu  Lu1  1  0.00000000  0.00000000  0.50000000  1
  Lu  Lu2  1  0.00000000  0.50000000  0.00000000  1
  Lu  Lu3  1  0.50000000  0.50000000  0.50000000  1
  H  H4  1  0.44200530  0.27179770  0.82946292  1
  H  H5  1  0.55799470  0.72820230  0.17053708  1
  H  H6  1  0.31936283  0.36740344  0.04812372  1
  H  H7  1  0.68063717  0.63259656  0.95187628  1
  H  H8  1  0.95195939  0.31936283  0.27123912  1
  H  H9  1  0.04804061  0.68063717  0.72876088  1
  H  H10  1  0.17020760  0.44200530  0.61254238  1
  H  H11  1  0.82979240  0.55799470  0.38745762  1
  H  H12  1  0.27179770  0.82979240  0.44233478  1
  H  H13  1  0.72820230  0.17020760  0.55766522  1
  H  H14  1  0.36740344  0.04804061  0.31927972  1
  H  H15  1  0.63259656  0.95195939  0.68072028  1
  O  O16  1  0.32058593  0.15137734  0.83021055  1
  O  O17  1  0.67941407  0.84862266  0.16978945  1
  O  O18  1  0.31926507  0.48962565  0.16887261  1
  O  O19  1  0.68073493  0.51037435  0.83112739  1
  O  O20  1  0.82963942  0.31926507  0.15039246  1
  O  O21  1  0.17036058  0.68073493  0.84960754  1
  O  O22  1  0.16920859  0.32058593  0.49037538  1
  O  O23  1  0.83079141  0.67941407  0.50962462  1
  O  O24  1  0.15137734  0.83079141  0.32116679  1
  O  O25  1  0.84862266  0.16920859  0.67883321  1
  O  O26  1  0.48962565  0.17036058  0.32075303  1
  O  O27  1  0.51037435  0.82963942  0.67924697  1
