# generated using pymatgen
data_BaNd2Ti3O10
_symmetry_space_group_name_H-M   'P 1'
_cell_length_a   7.67602109
_cell_length_b   7.78485435
_cell_length_c   14.54373858
_cell_angle_alpha   97.55193804
_cell_angle_beta   90.00000000
_cell_angle_gamma   90.00000000
_symmetry_Int_Tables_number   1
_chemical_formula_structural   BaNd2Ti3O10
_chemical_formula_sum   'Ba4 Nd8 Ti12 O40'
_cell_volume   861.54757749
_cell_formula_units_Z   4
loop_
 _symmetry_equiv_pos_site_id
 _symmetry_equiv_pos_as_xyz
  1  'x, y, z'
loop_
 _atom_site_type_symbol
 _atom_site_label
 _atom_site_symmetry_multiplicity
 _atom_site_fract_x
 _atom_site_fract_y
 _atom_site_fract_z
 _atom_site_occupancy
  O  O0  1  0.25000000  0.93643594  0.97819235  1
  O  O1  1  0.75000000  0.06356406  0.02180765  1
  O  O2  1  0.75000000  0.90661297  0.70607805  1
  O  O3  1  0.25000000  0.09338703  0.29392195  1
  O  O4  1  0.25000000  0.95048953  0.75666854  1
  O  O5  1  0.75000000  0.04951047  0.24333146  1
  O  O6  1  0.48460149  0.81258761  0.25142170  1
  O  O7  1  0.98460149  0.18741239  0.74857830  1
  O  O8  1  0.51539851  0.18741239  0.74857830  1
  O  O9  1  0.01539851  0.81258761  0.25142170  1
  O  O10  1  0.54871954  0.08492956  0.41034362  1
  O  O11  1  0.04871954  0.91507044  0.58965638  1
  O  O12  1  0.45128046  0.91507044  0.58965638  1
  O  O13  1  0.95128046  0.08492956  0.41034362  1
  O  O14  1  0.45199609  0.05256863  0.13156668  1
  O  O15  1  0.75000000  0.44492370  0.71398431  1
  O  O16  1  0.95199609  0.94743137  0.86843332  1
  O  O17  1  0.04800391  0.05256863  0.13156668  1
  O  O18  1  0.54585846  0.75526431  0.02000059  1
  O  O19  1  0.04585846  0.24473569  0.97999941  1
  O  O20  1  0.45414154  0.24473569  0.97999941  1
  O  O21  1  0.95414154  0.75526431  0.02000059  1
  O  O22  1  0.25000000  0.55524698  0.98458935  1
  O  O23  1  0.75000000  0.44475302  0.01541065  1
  O  O24  1  0.03369699  0.50873912  0.13186568  1
  O  O25  1  0.53369699  0.49126088  0.86813432  1
  O  O26  1  0.96630301  0.49126088  0.86813432  1
  O  O27  1  0.46630301  0.50873912  0.13186568  1
  O  O28  1  0.96694572  0.61803337  0.41620663  1
  O  O29  1  0.46694572  0.38196663  0.58379337  1
  O  O30  1  0.03305428  0.38196663  0.58379337  1
  O  O31  1  0.53305428  0.61803337  0.41620663  1
  O  O32  1  0.97881120  0.31890738  0.27264487  1
  O  O33  1  0.47881120  0.68109262  0.72735513  1
  O  O34  1  0.02118880  0.68109262  0.72735513  1
  O  O35  1  0.52118880  0.31890738  0.27264487  1
  O  O36  1  0.75000000  0.57840851  0.25244529  1
  O  O37  1  0.25000000  0.42159149  0.74755471  1
  O  O38  1  0.25000000  0.55507630  0.28601569  1
  O  O39  1  0.54800391  0.94743137  0.86843332  1
  Ti  Ti40  1  0.50194025  0.06717039  0.29043496  1
  Ti  Ti41  1  0.00194025  0.93282961  0.70956504  1
  Ti  Ti42  1  0.49805975  0.93282961  0.70956504  1
  Ti  Ti43  1  0.99805975  0.06717039  0.29043496  1
  Ti  Ti44  1  0.49960720  0.57874572  0.29454797  1
  Ti  Ti45  1  0.99960720  0.42125428  0.70545203  1
  Ti  Ti46  1  0.50039280  0.42125428  0.70545203  1
  Ti  Ti47  1  0.00039280  0.57874572  0.29454797  1
  Ti  Ti48  1  0.50000000  0.50000000  0.00000000  1
  Ti  Ti49  1  0.00000000  0.50000000  0.00000000  1
  Ti  Ti50  1  0.50000000  0.00000000  0.00000000  1
  Ti  Ti51  1  0.00000000  0.00000000  0.00000000  1
  Ba  Ba52  1  0.75000000  0.87126946  0.49421232  1
  Ba  Ba53  1  0.25000000  0.12873054  0.50578768  1
  Ba  Ba54  1  0.75000000  0.36516576  0.46637550  1
  Ba  Ba55  1  0.25000000  0.63483424  0.53362450  1
  Nd  Nd56  1  0.25000000  0.78471144  0.13508828  1
  Nd  Nd57  1  0.75000000  0.21528856  0.86491172  1
  Nd  Nd58  1  0.25000000  0.70512942  0.84401284  1
  Nd  Nd59  1  0.75000000  0.29487058  0.15598716  1
  Nd  Nd60  1  0.25000000  0.29308144  0.16744972  1
  Nd  Nd61  1  0.75000000  0.70691856  0.83255028  1
  Nd  Nd62  1  0.25000000  0.21502665  0.85183972  1
  Nd  Nd63  1  0.75000000  0.78497335  0.14816028  1
