# generated using pymatgen
data_Bi2(PbS2)3
_symmetry_space_group_name_H-M   'P 1'
_cell_length_a   4.12867817
_cell_length_b   7.18924315
_cell_length_c   21.06577598
_cell_angle_alpha   92.27409627
_cell_angle_beta   90.00000000
_cell_angle_gamma   106.68697406
_symmetry_Int_Tables_number   1
_chemical_formula_structural   Bi2(PbS2)3
_chemical_formula_sum   'Bi4 Pb6 S12'
_cell_volume   598.43000966
_cell_formula_units_Z   2
loop_
 _symmetry_equiv_pos_site_id
 _symmetry_equiv_pos_as_xyz
  1  'x, y, z'
loop_
 _atom_site_type_symbol
 _atom_site_label
 _atom_site_symmetry_multiplicity
 _atom_site_fract_x
 _atom_site_fract_y
 _atom_site_fract_z
 _atom_site_occupancy
  Bi  Bi0  1  0.59633113  0.19266225  0.13502175  1
  Bi  Bi1  1  0.13908917  0.27817835  0.55004156  1
  Bi  Bi2  1  0.86091083  0.72182165  0.44995844  1
  Bi  Bi3  1  0.40366887  0.80733775  0.86497825  1
  Pb  Pb4  1  0.41794585  0.83589170  0.63430932  1
  Pb  Pb5  1  0.58205415  0.16410830  0.36569068  1
  Pb  Pb6  1  0.13451445  0.26902889  0.95407289  1
  Pb  Pb7  1  0.32654796  0.65309593  0.23839177  1
  Pb  Pb8  1  0.86548555  0.73097111  0.04592711  1
  Pb  Pb9  1  0.67345204  0.34690407  0.76160823  1
  S  S10  1  0.68485098  0.36970197  0.25042472  1
  S  S11  1  0.23289026  0.46578053  0.10138707  1
  S  S12  1  0.23513457  0.47026915  0.41532961  1
  S  S13  1  0.05854192  0.11708384  0.66341495  1
  S  S14  1  0.31514902  0.63029803  0.74957528  1
  S  S15  1  0.76486543  0.52973085  0.58467039  1
  S  S16  1  0.50000000  0.00000000  0.00000000  1
  S  S17  1  0.76710974  0.53421947  0.89861293  1
  S  S18  1  0.94145808  0.88291616  0.33658505  1
  S  S19  1  0.96535088  0.93070176  0.16443607  1
  S  S20  1  0.50000000  0.00000000  0.50000000  1
  S  S21  1  0.03464912  0.06929824  0.83556393  1
