# generated using pymatgen
data_USi
_symmetry_space_group_name_H-M   'P 1'
_cell_length_a   3.60653230
_cell_length_b   5.02261428
_cell_length_c   8.62390354
_cell_angle_alpha   90.00000000
_cell_angle_beta   90.00000000
_cell_angle_gamma   90.00000000
_symmetry_Int_Tables_number   1
_chemical_formula_structural   USi
_chemical_formula_sum   'U4 Si4'
_cell_volume   156.21529143
_cell_formula_units_Z   4
loop_
 _symmetry_equiv_pos_site_id
 _symmetry_equiv_pos_as_xyz
  1  'x, y, z'
loop_
 _atom_site_type_symbol
 _atom_site_label
 _atom_site_symmetry_multiplicity
 _atom_site_fract_x
 _atom_site_fract_y
 _atom_site_fract_z
 _atom_site_occupancy
  Si  Si0  1  0.25000000  0.84174532  0.52109900  1
  Si  Si1  1  0.75000000  0.15825468  0.47890100  1
  Si  Si2  1  0.75000000  0.34174532  0.97890100  1
  Si  Si3  1  0.25000000  0.65825468  0.02109900  1
  U  U4  1  0.25000000  0.36517998  0.71353414  1
  U  U5  1  0.75000000  0.63482002  0.28646586  1
  U  U6  1  0.75000000  0.86517998  0.78646586  1
  U  U7  1  0.25000000  0.13482002  0.21353414  1
