# generated using pymatgen
data_Sm(HO)3
_symmetry_space_group_name_H-M   'P 1'
_cell_length_a   6.49983112
_cell_length_b   6.41361727
_cell_length_c   3.63502196
_cell_angle_alpha   90.00000000
_cell_angle_beta   90.00000000
_cell_angle_gamma   118.96239622
_symmetry_Int_Tables_number   1
_chemical_formula_structural   Sm(HO)3
_chemical_formula_sum   'Sm2 H6 O6'
_cell_volume   132.58344012
_cell_formula_units_Z   2
loop_
 _symmetry_equiv_pos_site_id
 _symmetry_equiv_pos_as_xyz
  1  'x, y, z'
loop_
 _atom_site_type_symbol
 _atom_site_label
 _atom_site_symmetry_multiplicity
 _atom_site_fract_x
 _atom_site_fract_y
 _atom_site_fract_z
 _atom_site_occupancy
  Sm  Sm0  1  0.32749065  0.65999346  0.25000000  1
  Sm  Sm1  1  0.67250935  0.34000654  0.75000000  1
  H  H2  1  0.86378259  0.72760024  0.25000000  1
  H  H3  1  0.85582417  0.12925618  0.25000000  1
  H  H4  1  0.30351626  0.14186606  0.25000000  1
  H  H5  1  0.13621741  0.27239976  0.75000000  1
  H  H6  1  0.14417583  0.87074382  0.75000000  1
  H  H7  1  0.69648374  0.85813394  0.75000000  1
  O  O8  1  0.91686545  0.60971312  0.25000000  1
  O  O9  1  0.68913754  0.08359979  0.25000000  1
  O  O10  1  0.40494240  0.31433911  0.25000000  1
  O  O11  1  0.08313455  0.39028688  0.75000000  1
  O  O12  1  0.31086246  0.91640021  0.75000000  1
  O  O13  1  0.59505760  0.68566089  0.75000000  1
