# generated using pymatgen
data_P2WO8
_symmetry_space_group_name_H-M   'P 1'
_cell_length_a   5.24558868
_cell_length_b   6.72504592
_cell_length_c   16.93205462
_cell_angle_alpha   90.00000000
_cell_angle_beta   90.00000000
_cell_angle_gamma   90.00000000
_symmetry_Int_Tables_number   1
_chemical_formula_structural   P2WO8
_chemical_formula_sum   'P8 W4 O32'
_cell_volume   597.30912349
_cell_formula_units_Z   4
loop_
 _symmetry_equiv_pos_site_id
 _symmetry_equiv_pos_as_xyz
  1  'x, y, z'
loop_
 _atom_site_type_symbol
 _atom_site_label
 _atom_site_symmetry_multiplicity
 _atom_site_fract_x
 _atom_site_fract_y
 _atom_site_fract_z
 _atom_site_occupancy
  P  P0  1  0.75000000  0.20955495  0.83193349  1
  P  P1  1  0.75000000  0.90532121  0.42165691  1
  P  P2  1  0.75000000  0.29044505  0.33193349  1
  P  P3  1  0.75000000  0.59467879  0.92165691  1
  P  P4  1  0.25000000  0.79044505  0.16806651  1
  P  P5  1  0.25000000  0.40532121  0.07834309  1
  P  P6  1  0.25000000  0.09467879  0.57834309  1
  P  P7  1  0.25000000  0.70955495  0.66806651  1
  W  W8  1  0.25000000  0.62238579  0.37102426  1
  W  W9  1  0.75000000  0.37761421  0.62897574  1
  W  W10  1  0.75000000  0.12238579  0.12897574  1
  W  W11  1  0.25000000  0.87761421  0.87102426  1
  O  O12  1  0.75000000  0.32161050  0.75511477  1
  O  O13  1  0.25000000  0.36447248  0.99325135  1
  O  O14  1  0.51576989  0.82597891  0.37204285  1
  O  O15  1  0.25000000  0.13552752  0.49325135  1
  O  O16  1  0.01198473  0.57879475  0.65786478  1
  O  O17  1  0.75000000  0.36020623  0.90359848  1
  O  O18  1  0.98801527  0.07879475  0.84213522  1
  O  O19  1  0.25000000  0.92484000  0.97102553  1
  O  O20  1  0.25000000  0.82161050  0.74488523  1
  O  O21  1  0.48423011  0.32597891  0.12795715  1
  O  O22  1  0.25000000  0.57516000  0.47102553  1
  O  O23  1  0.25000000  0.67838950  0.24488523  1
  O  O24  1  0.01576989  0.17402109  0.62795715  1
  O  O25  1  0.75000000  0.13979377  0.40359848  1
  O  O26  1  0.75000000  0.42484000  0.52897447  1
  O  O27  1  0.48801527  0.57879475  0.65786478  1
  O  O28  1  0.98423011  0.67402109  0.87204285  1
  O  O29  1  0.98423011  0.82597891  0.37204285  1
  O  O30  1  0.25000000  0.63979377  0.09640152  1
  O  O31  1  0.48423011  0.17402109  0.62795715  1
  O  O32  1  0.51198473  0.07879475  0.84213522  1
  O  O33  1  0.51198473  0.42120525  0.34213522  1
  O  O34  1  0.25000000  0.86020623  0.59640152  1
  O  O35  1  0.75000000  0.63552752  0.00674865  1
  O  O36  1  0.75000000  0.07516000  0.02897447  1
  O  O37  1  0.98801527  0.42120525  0.34213522  1
  O  O38  1  0.48801527  0.92120525  0.15786478  1
  O  O39  1  0.75000000  0.17838950  0.25511477  1
  O  O40  1  0.75000000  0.86447248  0.50674865  1
  O  O41  1  0.51576989  0.67402109  0.87204285  1
  O  O42  1  0.01576989  0.32597891  0.12795715  1
  O  O43  1  0.01198473  0.92120525  0.15786478  1
