# generated using pymatgen
data_WO3
_symmetry_space_group_name_H-M   'P 1'
_cell_length_a   3.88399818
_cell_length_b   7.68169069
_cell_length_c   7.77261800
_cell_angle_alpha   90.00000000
_cell_angle_beta   89.98282342
_cell_angle_gamma   90.00000000
_symmetry_Int_Tables_number   1
_chemical_formula_structural   WO3
_chemical_formula_sum   'W4 O12'
_cell_volume   231.90127575
_cell_formula_units_Z   4
loop_
 _symmetry_equiv_pos_site_id
 _symmetry_equiv_pos_as_xyz
  1  'x, y, z'
loop_
 _atom_site_type_symbol
 _atom_site_label
 _atom_site_symmetry_multiplicity
 _atom_site_fract_x
 _atom_site_fract_y
 _atom_site_fract_z
 _atom_site_occupancy
  W  W0  1  0.03570393  0.25000000  0.01689229  1
  W  W1  1  0.96428185  0.75000000  0.48313109  1
  W  W2  1  0.96428496  0.75000000  0.98311590  1
  W  W3  1  0.03572967  0.25000000  0.51686047  1
  O  O4  1  0.00000207  0.50000675  0.49998588  1
  O  O5  1  0.99999773  0.00000603  0.00001442  1
  O  O6  1  0.00000207  -0.00000675  0.49998588  1
  O  O7  1  0.99999773  0.49999397  0.00001442  1
  O  O8  1  0.48639489  0.75000000  0.99389572  1
  O  O9  1  0.98365304  0.75000000  0.24416538  1
  O  O10  1  0.51360508  0.25000000  0.50607751  1
  O  O11  1  0.48640402  0.75000000  0.49389500  1
  O  O12  1  0.01629344  0.25000000  0.25582823  1
  O  O13  1  0.98370218  0.75000000  0.74415518  1
  O  O14  1  0.01635212  0.25000000  0.75585090  1
  O  O15  1  0.51359723  0.25000000  0.00613172  1
