# generated using pymatgen
data_Ca2AlH8S2Cl(O6F)2
_symmetry_space_group_name_H-M   'P 1'
_cell_length_a   8.24235757
_cell_length_b   8.24235757
_cell_length_c   8.24235757
_cell_angle_alpha   130.03115901
_cell_angle_beta   130.03115901
_cell_angle_gamma   73.35695688
_symmetry_Int_Tables_number   1
_chemical_formula_structural   Ca2AlH8S2Cl(O6F)2
_chemical_formula_sum   'Ca2 Al1 H8 S2 Cl1 O12 F2'
_cell_volume   320.46351900
_cell_formula_units_Z   1
loop_
 _symmetry_equiv_pos_site_id
 _symmetry_equiv_pos_as_xyz
  1  'x, y, z'
loop_
 _atom_site_type_symbol
 _atom_site_label
 _atom_site_symmetry_multiplicity
 _atom_site_fract_x
 _atom_site_fract_y
 _atom_site_fract_z
 _atom_site_occupancy
  Ca  Ca0  1  0.30236767  0.30236767  0.00000000  1
  Ca  Ca1  1  0.69763233  0.69763233  0.00000000  1
  Al  Al2  1  0.00000000  0.00000000  0.00000000  1
  H  H3  1  0.03577961  0.60090730  0.75943830  1
  H  H4  1  0.84146900  0.27634132  0.24056170  1
  H  H5  1  0.27634132  0.03577961  0.43487232  1
  H  H6  1  0.60090730  0.84146900  0.56512768  1
  H  H7  1  0.96422039  0.39909270  0.24056170  1
  H  H8  1  0.15853100  0.72365868  0.75943830  1
  H  H9  1  0.72365868  0.96422039  0.56512768  1
  H  H10  1  0.39909270  0.15853100  0.43487232  1
  S  S11  1  0.75000000  0.25000000  0.50000000  1
  S  S12  1  0.25000000  0.75000000  0.50000000  1
  Cl  Cl13  1  0.50000000  0.50000000  0.00000000  1
  O  O14  1  0.65444098  0.25269106  0.27497712  1
  O  O15  1  0.97771394  0.37946386  0.72502288  1
  O  O16  1  0.37946386  0.65444098  0.40174992  1
  O  O17  1  0.25269106  0.97771394  0.59825008  1
  O  O18  1  0.34555902  0.74730894  0.72502288  1
  O  O19  1  0.02228606  0.62053614  0.27497712  1
  O  O20  1  0.62053614  0.34555902  0.59825008  1
  O  O21  1  0.74730894  0.02228606  0.40174992  1
  O  O22  1  0.04379642  0.72497929  0.76877571  1
  O  O23  1  0.95620358  0.27502071  0.23122429  1
  O  O24  1  0.27502071  0.04379642  0.31881713  1
  O  O25  1  0.72497929  0.95620358  0.68118287  1
  F  F26  1  0.13421947  0.13421947  0.00000000  1
  F  F27  1  0.86578053  0.86578053  0.00000000  1
