# generated using pymatgen
data_Ag2Mo2O7
_symmetry_space_group_name_H-M   'P 1'
_cell_length_a   6.19747511
_cell_length_b   8.08421813
_cell_length_c   13.39814336
_cell_angle_alpha   90.00000000
_cell_angle_beta   90.00000000
_cell_angle_gamma   110.30883704
_symmetry_Int_Tables_number   1
_chemical_formula_structural   Ag2Mo2O7
_chemical_formula_sum   'Ag8 Mo8 O28'
_cell_volume   629.54106325
_cell_formula_units_Z   4
loop_
 _symmetry_equiv_pos_site_id
 _symmetry_equiv_pos_as_xyz
  1  'x, y, z'
loop_
 _atom_site_type_symbol
 _atom_site_label
 _atom_site_symmetry_multiplicity
 _atom_site_fract_x
 _atom_site_fract_y
 _atom_site_fract_z
 _atom_site_occupancy
  Ag  Ag0  1  0.07777378  0.52767565  0.22757142  1
  Ag  Ag1  1  0.54293725  0.40797273  0.09543999  1
  Ag  Ag2  1  0.92222622  0.47232435  0.77242858  1
  Ag  Ag3  1  0.07777378  0.02767565  0.27242858  1
  Ag  Ag4  1  0.45706275  0.59202727  0.90456001  1
  Ag  Ag5  1  0.54293725  0.90797273  0.40456001  1
  Ag  Ag6  1  0.45706275  0.09202727  0.59543999  1
  Ag  Ag7  1  0.92222622  0.97232435  0.72757142  1
  Mo  Mo8  1  0.03038629  0.80279566  0.99504570  1
  Mo  Mo9  1  0.03038629  0.30279566  0.50495430  1
  Mo  Mo10  1  0.52212146  0.89805198  0.12148156  1
  Mo  Mo11  1  0.96961371  0.69720434  0.49504570  1
  Mo  Mo12  1  0.47787854  0.10194802  0.87851844  1
  Mo  Mo13  1  0.52212146  0.39805198  0.37851844  1
  Mo  Mo14  1  0.96961371  0.19720434  0.00495430  1
  Mo  Mo15  1  0.47787854  0.60194802  0.62148156  1
  O  O16  1  0.24579366  0.93032972  0.13920337  1
  O  O17  1  0.94213566  0.11251464  0.42869412  1
  O  O18  1  0.43838788  0.66335422  0.12305237  1
  O  O19  1  0.64824152  0.15439073  0.04296874  1
  O  O20  1  0.94213566  0.61251464  0.07130588  1
  O  O21  1  0.32964902  0.53432474  0.73570305  1
  O  O22  1  0.17869059  0.08187345  0.95651637  1
  O  O23  1  0.10710719  0.27413960  0.12073531  1
  O  O24  1  0.67035098  0.46567526  0.26429695  1
  O  O25  1  0.17869059  0.58187345  0.54348363  1
  O  O26  1  0.43838788  0.16335422  0.37694763  1
  O  O27  1  0.10710719  0.77413960  0.37926469  1
  O  O28  1  0.89289281  0.22586040  0.62073531  1
  O  O29  1  0.75420634  0.06967028  0.86079663  1
  O  O30  1  0.67035098  0.96567526  0.23570305  1
  O  O31  1  0.82130941  0.41812655  0.45651637  1
  O  O32  1  0.56161212  0.33664578  0.87694763  1
  O  O33  1  0.05786434  0.38748536  0.92869412  1
  O  O34  1  0.05786434  0.88748536  0.57130588  1
  O  O35  1  0.24579366  0.43032972  0.36079663  1
  O  O36  1  0.56161212  0.83664578  0.62305237  1
  O  O37  1  0.35175848  0.34560927  0.54296874  1
  O  O38  1  0.75420634  0.56967028  0.63920337  1
  O  O39  1  0.82130941  0.91812655  0.04348363  1
  O  O40  1  0.32964902  0.03432474  0.76429695  1
  O  O41  1  0.64824152  0.65439073  0.45703126  1
  O  O42  1  0.35175848  0.84560927  0.95703126  1
  O  O43  1  0.89289281  0.72586040  0.87926469  1
