# generated using pymatgen
data_Sr2GdCoCu2O7
_symmetry_space_group_name_H-M   'P 1'
_cell_length_a   5.46325110
_cell_length_b   5.53272357
_cell_length_c   12.15646181
_cell_angle_alpha   103.16066292
_cell_angle_beta   102.98706553
_cell_angle_gamma   89.99239720
_symmetry_Int_Tables_number   1
_chemical_formula_structural   Sr2GdCoCu2O7
_chemical_formula_sum   'Sr4 Gd2 Co2 Cu4 O14'
_cell_volume   348.14145030
_cell_formula_units_Z   2
loop_
 _symmetry_equiv_pos_site_id
 _symmetry_equiv_pos_as_xyz
  1  'x, y, z'
loop_
 _atom_site_type_symbol
 _atom_site_label
 _atom_site_symmetry_multiplicity
 _atom_site_fract_x
 _atom_site_fract_y
 _atom_site_fract_z
 _atom_site_occupancy
  Sr  Sr0  1  0.84960010  0.83589156  0.69503106  1
  Sr  Sr1  1  0.15479450  0.16406408  0.30521405  1
  Sr  Sr2  1  0.34947947  0.35890236  0.69479551  1
  Sr  Sr3  1  0.65466864  0.64084319  0.30498669  1
  Gd  Gd4  1  0.50229544  0.50017575  0.99991784  1
  Gd  Gd5  1  0.00233751  0.00020418  0.00004342  1
  Co  Co6  1  0.72026656  0.18790841  0.50000425  1
  Co  Co7  1  0.21902545  0.81154303  0.50002305  1
  Cu  Cu8  1  0.93060117  0.42744943  0.85518931  1
  Cu  Cu9  1  0.43050105  0.92781557  0.85508027  1
  Cu  Cu10  1  0.07553821  0.57285266  0.14488405  1
  Cu  Cu11  1  0.57551488  0.07229566  0.14474984  1
  O  O12  1  0.68723327  0.18329338  0.86739534  1
  O  O13  1  0.31459361  0.31097704  0.12637227  1
  O  O14  1  0.81967921  0.81700132  0.13219618  1
  O  O15  1  0.19876115  0.63606194  0.35138505  1
  O  O16  1  0.84950269  0.36399335  0.64835241  1
  O  O17  1  0.18812895  0.68934433  0.87393476  1
  O  O18  1  0.18751297  0.18445415  0.86781853  1
  O  O19  1  0.87005858  0.87064761  0.50000778  1
  O  O20  1  0.68794079  0.68473706  0.87361053  1
  O  O21  1  0.37149580  0.12760744  0.50000956  1
  O  O22  1  0.81408743  0.31537472  0.12608488  1
  O  O23  1  0.70113382  0.21551813  0.35161293  1
  O  O24  1  0.32020017  0.81622795  0.13261590  1
  O  O25  1  0.34724858  0.78481570  0.64868453  1
