# generated using pymatgen
data_LiAlPHO5
_symmetry_space_group_name_H-M   'P 1'
_cell_length_a   5.09262477
_cell_length_b   5.26167962
_cell_length_c   7.11300424
_cell_angle_alpha   73.25221078
_cell_angle_beta   109.21956120
_cell_angle_gamma   82.08564530
_symmetry_Int_Tables_number   1
_chemical_formula_structural   LiAlPHO5
_chemical_formula_sum   'Li2 Al2 P2 H2 O10'
_cell_volume   166.54378485
_cell_formula_units_Z   2
loop_
 _symmetry_equiv_pos_site_id
 _symmetry_equiv_pos_as_xyz
  1  'x, y, z'
loop_
 _atom_site_type_symbol
 _atom_site_label
 _atom_site_symmetry_multiplicity
 _atom_site_fract_x
 _atom_site_fract_y
 _atom_site_fract_z
 _atom_site_occupancy
  Li  Li0  1  0.25004971  0.39396584  0.68679589  1
  Li  Li1  1  0.74995029  0.60603416  0.31320411  1
  Al  Al2  1  0.00000000  0.00000000  0.00000000  1
  Al  Al3  1  0.00000000  0.00000000  0.50000000  1
  P  P4  1  0.67284010  0.64313919  0.73475300  1
  P  P5  1  0.32715990  0.35686081  0.26524700  1
  H  H6  1  0.66214815  0.07085019  0.15252669  1
  H  H7  1  0.33785185  0.92914981  0.84747331  1
  O  O8  1  0.30253126  0.66566002  0.15854188  1
  O  O9  1  0.69746874  0.33433998  0.84145812  1
  O  O10  1  0.64488590  0.24022701  0.42262694  1
  O  O11  1  0.35511410  0.75977299  0.57737306  1
  O  O12  1  0.12543259  0.32356998  0.38986454  1
  O  O13  1  0.87456741  0.67643002  0.61013546  1
  O  O14  1  0.73608029  0.79251734  0.89623514  1
  O  O15  1  0.26391971  0.20748266  0.10376486  1
  O  O16  1  0.86395562  0.95771329  0.22563976  1
  O  O17  1  0.13604438  0.04228671  0.77436024  1
