# generated using pymatgen
data_NaTiPO5
_symmetry_space_group_name_H-M   'P 1'
_cell_length_a   6.72610086
_cell_length_b   7.21025888
_cell_length_c   8.58280133
_cell_angle_alpha   90.00000000
_cell_angle_beta   90.00000000
_cell_angle_gamma   115.38711417
_symmetry_Int_Tables_number   1
_chemical_formula_structural   NaTiPO5
_chemical_formula_sum   'Na4 Ti4 P4 O20'
_cell_volume   376.04397680
_cell_formula_units_Z   4
loop_
 _symmetry_equiv_pos_site_id
 _symmetry_equiv_pos_as_xyz
  1  'x, y, z'
loop_
 _atom_site_type_symbol
 _atom_site_label
 _atom_site_symmetry_multiplicity
 _atom_site_fract_x
 _atom_site_fract_y
 _atom_site_fract_z
 _atom_site_occupancy
  O  O0  1  0.24766215  0.24799009  0.68239203  1
  O  O1  1  0.75233785  0.25200991  0.18239203  1
  O  O2  1  0.75233785  0.75200991  0.31760797  1
  O  O3  1  0.24766215  0.74799009  0.81760797  1
  O  O4  1  0.66269266  0.37660502  0.46668037  1
  O  O5  1  0.33730734  0.12339498  0.96668037  1
  O  O6  1  0.33730734  0.62339498  0.53331963  1
  O  O7  1  0.66269266  0.87660502  0.03331963  1
  O  O8  1  0.84101627  0.12492211  0.46866153  1
  O  O9  1  0.15898373  0.37507789  0.96866153  1
  O  O10  1  0.15898373  0.87507789  0.53133847  1
  O  O11  1  0.84101627  0.62492211  0.03133847  1
  O  O12  1  0.93048999  0.89583284  0.81801905  1
  O  O13  1  0.06951001  0.60416716  0.31801905  1
  O  O14  1  0.06951001  0.10416716  0.18198095  1
  O  O15  1  0.93048999  0.39583284  0.68198095  1
  O  O16  1  0.56348855  0.60080069  0.82168200  1
  O  O17  1  0.43651145  0.89919931  0.32168200  1
  O  O18  1  0.43651145  0.39919931  0.17831800  1
  O  O19  1  0.56348855  0.10080069  0.67831800  1
  Na  Na20  1  0.24954174  0.77247101  0.07900798  1
  Na  Na21  1  0.75045826  0.72752899  0.57900798  1
  Na  Na22  1  0.24954174  0.27247101  0.42099202  1
  Na  Na23  1  0.75045826  0.22752899  0.92099202  1
  P  P24  1  0.74960906  0.24942651  0.57056835  1
  P  P25  1  0.25039094  0.75057349  0.42943165  1
  P  P26  1  0.25039094  0.25057349  0.07056835  1
  P  P27  1  0.74960906  0.74942651  0.92943165  1
  Ti  Ti28  1  0.24854299  0.01687617  0.74267879  1
  Ti  Ti29  1  0.75145701  0.48312383  0.24267879  1
  Ti  Ti30  1  0.75145701  0.98312383  0.25732121  1
  Ti  Ti31  1  0.24854299  0.51687617  0.75732121  1
