# generated using pymatgen
data_Tb2Sb5
_symmetry_space_group_name_H-M   'P 1'
_cell_length_a   4.22975401
_cell_length_b   13.25832137
_cell_length_c   14.78621871
_cell_angle_alpha   102.12450131
_cell_angle_beta   90.00000000
_cell_angle_gamma   90.00000000
_symmetry_Int_Tables_number   1
_chemical_formula_structural   Tb2Sb5
_chemical_formula_sum   'Tb8 Sb20'
_cell_volume   810.70622892
_cell_formula_units_Z   4
loop_
 _symmetry_equiv_pos_site_id
 _symmetry_equiv_pos_as_xyz
  1  'x, y, z'
loop_
 _atom_site_type_symbol
 _atom_site_label
 _atom_site_symmetry_multiplicity
 _atom_site_fract_x
 _atom_site_fract_y
 _atom_site_fract_z
 _atom_site_occupancy
  Tb  Tb0  1  0.75000000  0.66137348  0.14474401  1
  Tb  Tb1  1  0.25000000  0.04814859  0.36088585  1
  Tb  Tb2  1  0.25000000  0.33862652  0.85525599  1
  Tb  Tb3  1  0.25000000  0.32946903  0.57739705  1
  Tb  Tb4  1  0.75000000  0.95185141  0.63911415  1
  Tb  Tb5  1  0.75000000  0.67053097  0.42260295  1
  Tb  Tb6  1  0.25000000  0.60786320  0.77068946  1
  Tb  Tb7  1  0.75000000  0.39213680  0.22931054  1
  Sb  Sb8  1  0.75000000  0.15347252  0.82686165  1
  Sb  Sb9  1  0.25000000  0.13795479  0.67765822  1
  Sb  Sb10  1  0.25000000  0.85894489  0.48088064  1
  Sb  Sb11  1  0.75000000  0.72180180  0.93823881  1
  Sb  Sb12  1  0.25000000  0.85963213  0.78010587  1
  Sb  Sb13  1  0.75000000  0.42470569  0.44865892  1
  Sb  Sb14  1  0.75000000  0.86204521  0.32234178  1
  Sb  Sb15  1  0.25000000  0.28522011  0.34827589  1
  Sb  Sb16  1  0.75000000  0.71477989  0.65172411  1
  Sb  Sb17  1  0.75000000  0.14036787  0.21989413  1
  Sb  Sb18  1  0.25000000  0.58149185  0.97576715  1
  Sb  Sb19  1  0.25000000  0.57529431  0.55134108  1
  Sb  Sb20  1  0.75000000  0.42487148  0.73413306  1
  Sb  Sb21  1  0.25000000  0.57512852  0.26586694  1
  Sb  Sb22  1  0.75000000  0.14105511  0.51911936  1
  Sb  Sb23  1  0.75000000  0.97172649  0.90535132  1
  Sb  Sb24  1  0.25000000  0.27819820  0.06176119  1
  Sb  Sb25  1  0.25000000  0.02827351  0.09464868  1
  Sb  Sb26  1  0.25000000  0.84652748  0.17313835  1
  Sb  Sb27  1  0.75000000  0.41850815  0.02423285  1
