# generated using pymatgen
data_Rb3ZnH5
_symmetry_space_group_name_H-M   'P 1'
_cell_length_a   7.97083555
_cell_length_b   7.97083555
_cell_length_c   8.12206045
_cell_angle_alpha   119.38597844
_cell_angle_beta   119.38597844
_cell_angle_gamma   90.00000000
_symmetry_Int_Tables_number   1
_chemical_formula_structural   Rb3ZnH5
_chemical_formula_sum   'Rb6 Zn2 H10'
_cell_volume   371.55705538
_cell_formula_units_Z   2
loop_
 _symmetry_equiv_pos_site_id
 _symmetry_equiv_pos_as_xyz
  1  'x, y, z'
loop_
 _atom_site_type_symbol
 _atom_site_label
 _atom_site_symmetry_multiplicity
 _atom_site_fract_x
 _atom_site_fract_y
 _atom_site_fract_z
 _atom_site_occupancy
  Rb  Rb0  1  0.31871972  0.18128028  0.00000000  1
  Rb  Rb1  1  0.68128028  0.81871972  -0.00000000  1
  Rb  Rb2  1  0.18128028  0.68128028  0.00000000  1
  Rb  Rb3  1  0.81871972  0.31871972  1.00000000  1
  Rb  Rb4  1  0.75000000  0.75000000  0.50000000  1
  Rb  Rb5  1  0.25000000  0.25000000  0.50000000  1
  Zn  Zn6  1  0.25000000  0.75000000  0.50000000  1
  Zn  Zn7  1  0.75000000  0.25000000  0.50000000  1
  H  H8  1  0.04511069  0.78452141  0.32963210  1
  H  H9  1  0.28452141  0.54511069  0.32963210  1
  H  H10  1  0.78452141  0.28452141  0.32963210  1
  H  H11  1  0.54511069  0.04511069  0.32963210  1
  H  H12  1  0.95488931  0.21547859  0.67036790  1
  H  H13  1  0.71547859  0.45488931  0.67036790  1
  H  H14  1  0.21547859  0.71547859  0.67036790  1
  H  H15  1  0.45488931  0.95488931  0.67036790  1
  H  H16  1  0.50000000  0.50000000  0.00000000  1
  H  H17  1  0.00000000  -0.00000000  0.00000000  1
