# generated using pymatgen
data_Li2FeSiO4
_symmetry_space_group_name_H-M   'P 1'
_cell_length_a   5.11358375
_cell_length_b   8.33871313
_cell_length_c   8.32542935
_cell_angle_alpha   99.16915181
_cell_angle_beta   90.00000000
_cell_angle_gamma   90.00000000
_symmetry_Int_Tables_number   1
_chemical_formula_structural   Li2FeSiO4
_chemical_formula_sum   'Li8 Fe4 Si4 O16'
_cell_volume   350.46605564
_cell_formula_units_Z   4
loop_
 _symmetry_equiv_pos_site_id
 _symmetry_equiv_pos_as_xyz
  1  'x, y, z'
loop_
 _atom_site_type_symbol
 _atom_site_label
 _atom_site_symmetry_multiplicity
 _atom_site_fract_x
 _atom_site_fract_y
 _atom_site_fract_z
 _atom_site_occupancy
  Li  Li0  1  0.59335154  0.42186126  0.91646283  1
  Li  Li1  1  0.07776956  0.33691005  0.33422678  1
  Li  Li2  1  0.69219043  0.16416797  0.16547334  1
  Li  Li3  1  0.67640972  0.92212959  0.41653764  1
  Li  Li4  1  0.09335154  0.57813874  0.08353717  1
  Li  Li5  1  0.57776956  0.66308995  0.66577322  1
  Li  Li6  1  0.17640972  0.07787041  0.58346236  1
  Li  Li7  1  0.19219043  0.83583203  0.83452666  1
  Fe  Fe8  1  0.68772142  0.79358888  0.04281938  1
  Fe  Fe9  1  0.18772142  0.20641112  0.95718062  1
  Fe  Fe10  1  0.58217796  0.29243754  0.54171066  1
  Fe  Fe11  1  0.08217796  0.70756246  0.45828934  1
  Si  Si12  1  0.69153316  0.04086410  0.79182372  1
  Si  Si13  1  0.57794071  0.54175277  0.29213148  1
  Si  Si14  1  0.19153316  0.95913590  0.20817628  1
  Si  Si15  1  0.07794071  0.45824723  0.70786852  1
  O  O16  1  0.17331937  0.31264428  0.56041489  1
  O  O17  1  0.69503688  0.57282815  0.11424722  1
  O  O18  1  0.57398829  0.07206473  0.61411334  1
  O  O19  1  0.08567665  0.13692830  0.16969008  1
  O  O20  1  0.67331937  0.68735572  0.43958511  1
  O  O21  1  0.75500007  0.46256070  0.71525911  1
  O  O22  1  0.01446764  0.03608871  0.78407931  1
  O  O23  1  0.07398829  0.92793527  0.38588666  1
  O  O24  1  0.19503688  0.42717185  0.88575278  1
  O  O25  1  0.51446764  0.96391129  0.21592069  1
  O  O26  1  0.58567665  0.86307170  0.83030992  1
  O  O27  1  0.68377426  0.36375122  0.33006816  1
  O  O28  1  0.09664234  0.81323550  0.06088373  1
  O  O29  1  0.18377426  0.63624878  0.66993184  1
  O  O30  1  0.25500007  0.53743930  0.28474089  1
  O  O31  1  0.59664234  0.18676450  0.93911627  1
