# generated using pymatgen
data_Cu3Pd
_symmetry_space_group_name_H-M   'P 1'
_cell_length_a   3.72825980
_cell_length_b   3.72825546
_cell_length_c   25.82506436
_cell_angle_alpha   90.00005749
_cell_angle_beta   89.99999328
_cell_angle_gamma   90.00000061
_symmetry_Int_Tables_number   1
_chemical_formula_structural   Cu3Pd
_chemical_formula_sum   'Cu21 Pd7'
_cell_volume   358.96594008
_cell_formula_units_Z   7
loop_
 _symmetry_equiv_pos_site_id
 _symmetry_equiv_pos_as_xyz
  1  'x, y, z'
loop_
 _atom_site_type_symbol
 _atom_site_label
 _atom_site_symmetry_multiplicity
 _atom_site_fract_x
 _atom_site_fract_y
 _atom_site_fract_z
 _atom_site_occupancy
  Cu  Cu0  1  0.49999957  0.00000019  0.14289924  1
  Cu  Cu1  1  0.49999860  0.49999907  0.92863108  1
  Cu  Cu2  1  0.00000153  0.99999955  0.64294068  1
  Cu  Cu3  1  0.50000175  0.49999917  0.78567984  1
  Cu  Cu4  1  0.49999897  0.00000068  0.28571892  1
  Cu  Cu5  1  -0.00000199  0.49999976  0.71428187  1
  Cu  Cu6  1  0.50000137  0.00000048  0.85709801  1
  Cu  Cu7  1  0.50000050  0.50000091  0.07136728  1
  Cu  Cu8  1  0.50000074  0.00000122  0.57142241  1
  Cu  Cu9  1  0.00000092  0.50000026  0.14289917  1
  Cu  Cu10  1  0.00000077  0.49999892  0.42858173  1
  Cu  Cu11  1  0.49999856  0.99999913  0.71428187  1
  Cu  Cu12  1  0.00000027  0.49999992  0.85709802  1
  Cu  Cu13  1  -0.00000037  0.50000151  0.57142231  1
  Cu  Cu14  1  0.99999781  -0.00000130  0.35706113  1
  Cu  Cu15  1  0.49999997  -0.00000035  0.42858167  1
  Cu  Cu16  1  0.50000083  0.50000083  0.21432024  1
  Cu  Cu17  1  0.99999900  0.50000038  0.28571881  1
  Cu  Cu18  1  0.00000122  0.00000063  0.50000284  1
  Cu  Cu19  1  0.00000027  0.50000006  0.99999688  1
  Cu  Cu20  1  0.49999820  0.99999804  0.99999702  1
  Pd  Pd21  1  0.49999933  0.50000107  0.35705960  1
  Pd  Pd22  1  0.99999869  0.00000218  0.92850444  1
  Pd  Pd23  1  0.50000056  0.49999928  0.64294088  1
  Pd  Pd24  1  0.00000117  0.99999829  0.78561368  1
  Pd  Pd25  1  0.50000020  0.50000078  0.50000207  1
  Pd  Pd26  1  0.00000054  0.99999916  0.07149247  1
  Pd  Pd27  1  0.00000100  0.00000017  0.21438584  1
