# generated using pymatgen
data_MnTe
_symmetry_space_group_name_H-M   'P 1'
_cell_length_a   4.22239378
_cell_length_b   7.14853050
_cell_length_c   7.14725489
_cell_angle_alpha   71.94724847
_cell_angle_beta   89.99995077
_cell_angle_gamma   90.00017441
_symmetry_Int_Tables_number   1
_chemical_formula_structural   MnTe
_chemical_formula_sum   'Mn4 Te4'
_cell_volume   205.11195810
_cell_formula_units_Z   4
loop_
 _symmetry_equiv_pos_site_id
 _symmetry_equiv_pos_as_xyz
  1  'x, y, z'
loop_
 _atom_site_type_symbol
 _atom_site_label
 _atom_site_symmetry_multiplicity
 _atom_site_fract_x
 _atom_site_fract_y
 _atom_site_fract_z
 _atom_site_occupancy
  Mn  Mn0  1  0.24999432  0.52476738  0.20063021  1
  Mn  Mn1  1  0.25000336  0.11795883  0.38251118  1
  Mn  Mn2  1  0.75000000  0.88364921  0.61791705  1
  Mn  Mn3  1  0.75000163  0.47516256  0.79764245  1
  Te  Te4  1  0.74999805  0.74915719  0.00141123  1
  Te  Te5  1  0.25000046  0.71947884  0.49559112  1
  Te  Te6  1  0.24999971  0.24976008  -0.00168763  1
  Te  Te7  1  0.75000248  0.28006591  0.50598439  1
