# generated using pymatgen
data_Dy3(Ge3Pt2)2
_symmetry_space_group_name_H-M   'P 1'
_cell_length_a   4.34664236
_cell_length_b   8.80429923
_cell_length_c   26.24637470
_cell_angle_alpha   90.00000000
_cell_angle_beta   90.00000000
_cell_angle_gamma   90.00000000
_symmetry_Int_Tables_number   1
_chemical_formula_structural   Dy3(Ge3Pt2)2
_chemical_formula_sum   'Dy12 Ge24 Pt16'
_cell_volume   1004.42618745
_cell_formula_units_Z   4
loop_
 _symmetry_equiv_pos_site_id
 _symmetry_equiv_pos_as_xyz
  1  'x, y, z'
loop_
 _atom_site_type_symbol
 _atom_site_label
 _atom_site_symmetry_multiplicity
 _atom_site_fract_x
 _atom_site_fract_y
 _atom_site_fract_z
 _atom_site_occupancy
  Dy  Dy0  1  0.75000000  0.37471169  0.78030253  1
  Dy  Dy1  1  0.75000000  0.13542565  0.90586961  1
  Dy  Dy2  1  0.75000000  0.61330887  0.90688794  1
  Dy  Dy3  1  0.75000000  0.88669113  0.40688794  1
  Dy  Dy4  1  0.75000000  0.12528831  0.28030253  1
  Dy  Dy5  1  0.75000000  0.36457435  0.40586961  1
  Dy  Dy6  1  0.25000000  0.11330887  0.59311206  1
  Dy  Dy7  1  0.25000000  0.62528831  0.21969747  1
  Dy  Dy8  1  0.25000000  0.63542565  0.59413039  1
  Dy  Dy9  1  0.25000000  0.87471169  0.71969747  1
  Dy  Dy10  1  0.25000000  0.86457435  0.09413039  1
  Dy  Dy11  1  0.25000000  0.38669113  0.09311206  1
  Ge  Ge12  1  0.25000000  0.12167667  0.00149826  1
  Ge  Ge13  1  0.75000000  0.87404857  0.63855116  1
  Ge  Ge14  1  0.75000000  0.12694126  0.14248326  1
  Ge  Ge15  1  0.25000000  0.37404857  0.86144884  1
  Ge  Ge16  1  0.25000000  0.27293123  0.21614312  1
  Ge  Ge17  1  0.75000000  0.87832333  0.99850174  1
  Ge  Ge18  1  0.75000000  0.12875581  0.50303615  1
  Ge  Ge19  1  0.25000000  0.12595143  0.36144884  1
  Ge  Ge20  1  0.75000000  0.77293123  0.28385688  1
  Ge  Ge21  1  0.25000000  0.87305874  0.85751674  1
  Ge  Ge22  1  0.25000000  0.97727719  0.21645316  1
  Ge  Ge23  1  0.25000000  0.52272281  0.71645316  1
  Ge  Ge24  1  0.75000000  0.62167667  0.49850174  1
  Ge  Ge25  1  0.75000000  0.62595143  0.13855116  1
  Ge  Ge26  1  0.25000000  0.22706877  0.71614312  1
  Ge  Ge27  1  0.75000000  0.37305874  0.64248326  1
  Ge  Ge28  1  0.25000000  0.62694126  0.35751674  1
  Ge  Ge29  1  0.75000000  0.02272281  0.78354684  1
  Ge  Ge30  1  0.75000000  0.72706877  0.78385688  1
  Ge  Ge31  1  0.75000000  0.37124419  0.00303615  1
  Ge  Ge32  1  0.25000000  0.37832333  0.50149826  1
  Ge  Ge33  1  0.25000000  0.62875581  0.99696385  1
  Ge  Ge34  1  0.75000000  0.47727719  0.28354684  1
  Ge  Ge35  1  0.25000000  0.87124419  0.49696385  1
  Pt  Pt36  1  0.25000000  0.62090496  0.44962552  1
  Pt  Pt37  1  0.25000000  0.62228313  0.81272846  1
  Pt  Pt38  1  0.25000000  0.87771687  0.31272846  1
  Pt  Pt39  1  0.75000000  0.12228313  0.68727154  1
  Pt  Pt40  1  0.25000000  0.12615902  0.81262928  1
  Pt  Pt41  1  0.75000000  0.62925617  0.04487924  1
  Pt  Pt42  1  0.25000000  0.37074383  0.95512076  1
  Pt  Pt43  1  0.25000000  0.37384098  0.31262928  1
  Pt  Pt44  1  0.75000000  0.62615902  0.68737072  1
  Pt  Pt45  1  0.25000000  0.87909504  0.94962552  1
  Pt  Pt46  1  0.75000000  0.37909504  0.55037448  1
  Pt  Pt47  1  0.25000000  0.12925617  0.45512076  1
  Pt  Pt48  1  0.75000000  0.87384098  0.18737072  1
  Pt  Pt49  1  0.75000000  0.12090496  0.05037448  1
  Pt  Pt50  1  0.75000000  0.87074383  0.54487924  1
  Pt  Pt51  1  0.75000000  0.37771687  0.18727154  1
