# generated using pymatgen
data_VP2Pb2O9
_symmetry_space_group_name_H-M   'P 1'
_cell_length_a   8.88283722
_cell_length_b   9.17648418
_cell_length_c   9.99229490
_cell_angle_alpha   90.00000000
_cell_angle_beta   100.52505602
_cell_angle_gamma   90.00000000
_symmetry_Int_Tables_number   1
_chemical_formula_structural   VP2Pb2O9
_chemical_formula_sum   'V4 P8 Pb8 O36'
_cell_volume   800.80015080
_cell_formula_units_Z   4
loop_
 _symmetry_equiv_pos_site_id
 _symmetry_equiv_pos_as_xyz
  1  'x, y, z'
loop_
 _atom_site_type_symbol
 _atom_site_label
 _atom_site_symmetry_multiplicity
 _atom_site_fract_x
 _atom_site_fract_y
 _atom_site_fract_z
 _atom_site_occupancy
  V  V0  1  0.75582043  0.99946724  0.06344683  1
  V  V1  1  0.74417957  0.49946724  0.93655317  1
  V  V2  1  0.25582043  0.50053276  0.06344683  1
  V  V3  1  0.24417957  0.00053276  0.93655317  1
  P  P4  1  0.76809924  0.04803096  0.42702504  1
  P  P5  1  0.73190076  0.54803096  0.57297496  1
  P  P6  1  0.26809924  0.45196904  0.42702504  1
  P  P7  1  0.99584929  0.24855016  0.96809525  1
  P  P8  1  0.50415071  0.74855016  0.03190475  1
  P  P9  1  0.00415071  0.75144984  0.03190475  1
  P  P10  1  0.49584929  0.25144984  0.96809525  1
  P  P11  1  0.23190076  0.95196904  0.57297496  1
  Pb  Pb12  1  0.39348643  0.64533956  0.71403241  1
  Pb  Pb13  1  0.48124589  0.80877653  0.35858140  1
  Pb  Pb14  1  0.60651357  0.35466044  0.28596759  1
  Pb  Pb15  1  0.10651357  0.14533956  0.28596759  1
  Pb  Pb16  1  0.01875411  0.30877653  0.64141860  1
  Pb  Pb17  1  0.51875411  0.19122347  0.64141860  1
  Pb  Pb18  1  0.98124589  0.69122347  0.35858140  1
  Pb  Pb19  1  0.89348643  0.85466044  0.71403241  1
  O  O20  1  0.60250735  0.11498345  0.40909298  1
  O  O21  1  0.11431494  0.65105262  0.12871852  1
  O  O22  1  0.87325516  0.10028652  0.56034709  1
  O  O23  1  0.62674484  0.60028652  0.43965291  1
  O  O24  1  0.88568506  0.34894738  0.87128148  1
  O  O25  1  0.28027297  0.03516911  0.10051204  1
  O  O26  1  0.07372582  0.15150431  0.87204337  1
  O  O27  1  0.78027297  0.46483089  0.10051204  1
  O  O28  1  0.58144524  0.65023885  0.93863142  1
  O  O29  1  0.39749265  0.88501655  0.59090702  1
  O  O30  1  0.42627418  0.65150431  0.12795663  1
  O  O31  1  0.83738134  0.08961936  0.29986475  1
  O  O32  1  0.60989810  0.16325090  0.07236642  1
  O  O33  1  0.61431494  0.84894738  0.12871852  1
  O  O34  1  0.41855476  0.34976115  0.06136858  1
  O  O35  1  0.75208592  0.87989467  0.44122367  1
  O  O36  1  0.12674484  0.89971348  0.43965291  1
  O  O37  1  0.57372582  0.34849569  0.87204337  1
  O  O38  1  0.39010190  0.83674910  0.92763358  1
  O  O39  1  0.21972703  0.53516911  0.89948796  1
  O  O40  1  0.10250735  0.38501655  0.40909298  1
  O  O41  1  0.38568506  0.15105262  0.87128148  1
  O  O42  1  0.89010190  0.66325090  0.92763358  1
  O  O43  1  0.89749265  0.61498345  0.59090702  1
  O  O44  1  0.24791408  0.12010533  0.55877633  1
  O  O45  1  0.25208592  0.62010533  0.44122367  1
  O  O46  1  0.37325516  0.39971348  0.56034709  1
  O  O47  1  0.91855476  0.15023885  0.06136858  1
  O  O48  1  0.66261866  0.58961936  0.70013525  1
  O  O49  1  0.08144524  0.84976115  0.93863142  1
  O  O50  1  0.74791408  0.37989467  0.55877633  1
  O  O51  1  0.71972703  0.96483089  0.89948796  1
  O  O52  1  0.33738134  0.41038064  0.29986475  1
  O  O53  1  0.92627418  0.84849569  0.12795663  1
  O  O54  1  0.10989810  0.33674910  0.07236642  1
  O  O55  1  0.16261866  0.91038064  0.70013525  1
