# generated using pymatgen
data_La3GaGe5O16
_symmetry_space_group_name_H-M   'P 1'
_cell_length_a   4.88895768
_cell_length_b   8.21302821
_cell_length_c   15.86603152
_cell_angle_alpha   90.74481984
_cell_angle_beta   94.27823820
_cell_angle_gamma   89.96125691
_symmetry_Int_Tables_number   1
_chemical_formula_structural   La3GaGe5O16
_chemical_formula_sum   'La6 Ga2 Ge10 O32'
_cell_volume   635.24222227
_cell_formula_units_Z   2
loop_
 _symmetry_equiv_pos_site_id
 _symmetry_equiv_pos_as_xyz
  1  'x, y, z'
loop_
 _atom_site_type_symbol
 _atom_site_label
 _atom_site_symmetry_multiplicity
 _atom_site_fract_x
 _atom_site_fract_y
 _atom_site_fract_z
 _atom_site_occupancy
  La  La0  1  0.02227438  0.13470739  0.24948233  1
  La  La1  1  0.02691900  0.73581129  0.45493983  1
  La  La2  1  0.97308100  0.26418871  0.54506017  1
  La  La3  1  0.02132988  0.73767478  0.03540250  1
  La  La4  1  0.97772562  0.86529261  0.75051767  1
  La  La5  1  0.97867012  0.26232522  0.96459750  1
  Ga  Ga6  1  0.50636436  0.19332476  0.74340463  1
  Ga  Ga7  1  0.49363564  0.80667524  0.25659537  1
  Ge  Ge8  1  0.52016522  0.94440769  0.91149605  1
  Ge  Ge9  1  0.00974269  0.56738175  0.24387220  1
  Ge  Ge10  1  0.48422382  0.94413458  0.58564932  1
  Ge  Ge11  1  0.47861545  0.43786707  0.12608032  1
  Ge  Ge12  1  0.55299728  0.43327289  0.36134275  1
  Ge  Ge13  1  0.99025731  0.43261825  0.75612780  1
  Ge  Ge14  1  0.51577618  0.05586542  0.41435068  1
  Ge  Ge15  1  0.44700272  0.56672711  0.63865725  1
  Ge  Ge16  1  0.47983478  0.05559231  0.08850395  1
  Ge  Ge17  1  0.52138455  0.56213293  0.87391968  1
  O  O18  1  0.12901327  0.91880550  0.59466841  1
  O  O19  1  0.20716451  0.72076441  0.18648101  1
  O  O20  1  0.68993987  0.06564225  0.66367679  1
  O  O21  1  0.18912231  0.28271323  0.69250078  1
  O  O22  1  0.81087769  0.71728677  0.30749922  1
  O  O23  1  0.23835644  0.52331035  0.54641223  1
  O  O24  1  0.11874921  0.06283088  0.09475038  1
  O  O25  1  0.74845957  0.52184502  0.96194103  1
  O  O26  1  0.74490170  0.58423894  0.14717155  1
  O  O27  1  0.79283549  0.27923559  0.81351899  1
  O  O28  1  0.76164356  0.47668965  0.45358777  1
  O  O29  1  0.66797373  0.25156688  0.10971884  1
  O  O30  1  0.87098673  0.08119450  0.40533159  1
  O  O31  1  0.55108228  0.85442698  0.48163511  1
  O  O32  1  0.71390835  0.41795746  0.65821944  1
  O  O33  1  0.31006013  0.93435775  0.33632321  1
  O  O34  1  0.54648927  0.86462728  0.03326621  1
  O  O35  1  0.79577573  0.39342043  0.28260029  1
  O  O36  1  0.44891772  0.14557302  0.51836489  1
  O  O37  1  0.45351073  0.13537272  0.96673379  1
  O  O38  1  0.33202627  0.74843312  0.89028116  1
  O  O39  1  0.60436079  0.99235515  0.19668140  1
  O  O40  1  0.20422427  0.60657957  0.71739971  1
  O  O41  1  0.25509830  0.41576106  0.85282845  1
  O  O42  1  0.76250196  0.60753348  0.79659638  1
  O  O43  1  0.39563921  0.00764485  0.80331860  1
  O  O44  1  0.37131222  0.24486578  0.36074567  1
  O  O45  1  0.28609165  0.58204254  0.34178056  1
  O  O46  1  0.88125079  0.93716912  0.90524962  1
  O  O47  1  0.23749804  0.39246652  0.20340362  1
  O  O48  1  0.25154043  0.47815498  0.03805897  1
  O  O49  1  0.62868778  0.75513422  0.63925433  1
