# generated using pymatgen
data_NaSr2CrF8
_symmetry_space_group_name_H-M   'P 1'
_cell_length_a   6.35573201
_cell_length_b   7.88256422
_cell_length_c   14.12557266
_cell_angle_alpha   98.90530773
_cell_angle_beta   90.00000000
_cell_angle_gamma   90.00000000
_symmetry_Int_Tables_number   1
_chemical_formula_structural   NaSr2CrF8
_chemical_formula_sum   'Na4 Sr8 Cr4 F32'
_cell_volume   699.15289160
_cell_formula_units_Z   4
loop_
 _symmetry_equiv_pos_site_id
 _symmetry_equiv_pos_as_xyz
  1  'x, y, z'
loop_
 _atom_site_type_symbol
 _atom_site_label
 _atom_site_symmetry_multiplicity
 _atom_site_fract_x
 _atom_site_fract_y
 _atom_site_fract_z
 _atom_site_occupancy
  Na  Na0  1  0.32677466  0.29972197  0.44068283  1
  Na  Na1  1  0.67322534  0.70027803  0.55931717  1
  Na  Na2  1  0.17322534  0.79972197  0.94068283  1
  Na  Na3  1  0.82677466  0.20027803  0.05931717  1
  Sr  Sr4  1  0.65728159  0.44149386  0.85574855  1
  Sr  Sr5  1  0.84271841  0.94149386  0.35574855  1
  Sr  Sr6  1  0.22090026  0.59982842  0.69727287  1
  Sr  Sr7  1  0.15728159  0.05850614  0.64425145  1
  Sr  Sr8  1  0.27909974  0.09982842  0.19727287  1
  Sr  Sr9  1  0.77909974  0.40017158  0.30272713  1
  Sr  Sr10  1  0.34271841  0.55850614  0.14425145  1
  Sr  Sr11  1  0.72090026  0.90017158  0.80272713  1
  Cr  Cr12  1  0.22200897  0.20928527  0.90272662  1
  Cr  Cr13  1  0.77799103  0.79071473  0.09727338  1
  Cr  Cr14  1  0.27799103  0.70928527  0.40272662  1
  Cr  Cr15  1  0.72200897  0.29071473  0.59727338  1
  F  F16  1  0.31458027  0.42558128  0.97271110  1
  F  F17  1  0.68541973  0.57441872  0.02728890  1
  F  F18  1  0.30183838  0.59644178  0.51555892  1
  F  F19  1  0.51790310  0.14440556  0.88950817  1
  F  F20  1  0.44587605  0.69764905  0.84329631  1
  F  F21  1  0.23537476  0.81185153  0.28433584  1
  F  F22  1  0.56987967  0.77370021  0.41799515  1
  F  F23  1  0.87622581  0.00217164  0.17751172  1
  F  F24  1  0.19816162  0.09644178  0.01555892  1
  F  F25  1  0.81458027  0.07441872  0.52728890  1
  F  F26  1  0.55555924  0.14217360  0.32610673  1
  F  F27  1  0.43012033  0.22629979  0.58200485  1
  F  F28  1  0.76462524  0.18814847  0.71566416  1
  F  F29  1  0.80183838  0.90355822  0.98444108  1
  F  F30  1  0.55412395  0.30235095  0.15670369  1
  F  F31  1  0.26462524  0.31185153  0.78433584  1
  F  F32  1  0.05412395  0.19764905  0.34329631  1
  F  F33  1  0.94587605  0.80235095  0.65670369  1
  F  F34  1  0.01790310  0.35559444  0.61049183  1
  F  F35  1  0.73537476  0.68814847  0.21566416  1
  F  F36  1  0.94444076  0.64217360  0.82610673  1
  F  F37  1  0.12377419  0.99782836  0.82248828  1
  F  F38  1  0.98209690  0.64440556  0.38950817  1
  F  F39  1  0.05555924  0.35782640  0.17389327  1
  F  F40  1  0.93012033  0.27370021  0.91799515  1
  F  F41  1  0.62377419  0.50217164  0.67751172  1
  F  F42  1  0.18541973  0.92558128  0.47271110  1
  F  F43  1  0.48209690  0.85559444  0.11049183  1
  F  F44  1  0.06987967  0.72629979  0.08200485  1
  F  F45  1  0.44444076  0.85782640  0.67389327  1
  F  F46  1  0.37622581  0.49782836  0.32248828  1
  F  F47  1  0.69816162  0.40355822  0.48444108  1
