# generated using pymatgen
data_SrYSi4N7
_symmetry_space_group_name_H-M   'P 1'
_cell_length_a   6.06146910
_cell_length_b   6.06146910
_cell_length_c   9.88814405
_cell_angle_alpha   90.00000000
_cell_angle_beta   90.00000000
_cell_angle_gamma   119.99999998
_symmetry_Int_Tables_number   1
_chemical_formula_structural   SrYSi4N7
_chemical_formula_sum   'Sr2 Y2 Si8 N14'
_cell_volume   314.63078065
_cell_formula_units_Z   2
loop_
 _symmetry_equiv_pos_site_id
 _symmetry_equiv_pos_as_xyz
  1  'x, y, z'
loop_
 _atom_site_type_symbol
 _atom_site_label
 _atom_site_symmetry_multiplicity
 _atom_site_fract_x
 _atom_site_fract_y
 _atom_site_fract_z
 _atom_site_occupancy
  N  N0  1  0.00000000  0.00000000  0.83670017  1
  N  N1  1  0.00000000  0.00000000  0.33670017  1
  N  N2  1  0.84710287  0.69420573  0.08728853  1
  N  N3  1  0.15289713  0.84710287  0.58728853  1
  N  N4  1  0.69420573  0.84710287  0.58728853  1
  N  N5  1  0.30579427  0.15289713  0.08728853  1
  N  N6  1  0.84710287  0.15289713  0.08728853  1
  N  N7  1  0.15289713  0.30579427  0.58728853  1
  N  N8  1  0.48844236  0.51155764  0.81176744  1
  N  N9  1  0.97688473  0.48844236  0.31176744  1
  N  N10  1  0.51155764  0.02311527  0.31176744  1
  N  N11  1  0.48844236  0.97688473  0.81176744  1
  N  N12  1  0.51155764  0.48844236  0.31176744  1
  N  N13  1  0.02311527  0.51155764  0.81176744  1
  Si  Si14  1  0.17397558  0.34795116  0.75984873  1
  Si  Si15  1  0.82602442  0.17397558  0.25984873  1
  Si  Si16  1  0.34795116  0.17397558  0.25984873  1
  Si  Si17  1  0.65204884  0.82602442  0.75984873  1
  Si  Si18  1  0.17397558  0.82602442  0.75984873  1
  Si  Si19  1  0.82602442  0.65204884  0.25984873  1
  Si  Si20  1  0.00000000  0.00000000  0.02746538  1
  Si  Si21  1  0.00000000  0.00000000  0.52746538  1
  Sr  Sr22  1  0.66666667  0.33333333  0.58140778  1
  Sr  Sr23  1  0.33333333  0.66666667  0.08140778  1
  Y  Y24  1  0.66666667  0.33333333  0.95053256  1
  Y  Y25  1  0.33333333  0.66666667  0.45053256  1
