# generated using pymatgen
data_Zr6Co16Ge7
_symmetry_space_group_name_H-M   'P 1'
_cell_length_a   8.18882367
_cell_length_b   8.18852942
_cell_length_c   8.18962980
_cell_angle_alpha   60.00064965
_cell_angle_beta   59.99984928
_cell_angle_gamma   59.99820266
_symmetry_Int_Tables_number   1
_chemical_formula_structural   Zr6Co16Ge7
_chemical_formula_sum   'Zr6 Co16 Ge7'
_cell_volume   388.30451799
_cell_formula_units_Z   1
loop_
 _symmetry_equiv_pos_site_id
 _symmetry_equiv_pos_as_xyz
  1  'x, y, z'
loop_
 _atom_site_type_symbol
 _atom_site_label
 _atom_site_symmetry_multiplicity
 _atom_site_fract_x
 _atom_site_fract_y
 _atom_site_fract_z
 _atom_site_occupancy
  Zr  Zr0  1  0.79442682  0.79445022  0.20557161  1
  Zr  Zr1  1  0.79444295  0.20556682  0.79440965  1
  Zr  Zr2  1  0.20558071  0.20555845  0.79441285  1
  Zr  Zr3  1  0.20556131  0.79442392  0.20559883  1
  Zr  Zr4  1  0.20555608  0.79445407  0.79441745  1
  Zr  Zr5  1  0.79444227  0.20553631  0.20559574  1
  Co  Co6  1  0.62081127  0.13756356  0.62080917  1
  Co  Co7  1  0.49016705  0.16992824  0.16996202  1
  Co  Co8  1  0.37918607  0.37919208  0.86243616  1
  Co  Co9  1  0.83006101  0.83006433  0.50982185  1
  Co  Co10  1  0.16994257  0.16992273  0.49018830  1
  Co  Co11  1  0.83005979  0.50984270  0.83004238  1
  Co  Co12  1  0.16992888  0.49018741  0.16994453  1
  Co  Co13  1  0.62080879  0.62081574  0.13757339  1
  Co  Co14  1  0.16993422  0.16993237  0.16995610  1
  Co  Co15  1  0.37919015  0.86243595  0.37918953  1
  Co  Co16  1  0.62081129  0.62082497  0.62078900  1
  Co  Co17  1  0.86244327  0.37918196  0.37919628  1
  Co  Co18  1  0.37917994  0.37917981  0.37919816  1
  Co  Co19  1  0.83007249  0.83006910  0.83003944  1
  Co  Co20  1  0.13757553  0.62081691  0.62080117  1
  Co  Co21  1  0.50982296  0.83007383  0.83003684  1
  Ge  Ge22  1  0.00000262  0.49999428  0.49999967  1
  Ge  Ge23  1  0.50000035  0.99999206  0.49999546  1
  Ge  Ge24  1  0.49999144  0.50000819  0.50000329  1
  Ge  Ge25  1  0.99999024  0.49999635  0.00000956  1
  Ge  Ge26  1  0.49999746  -0.00000317  0.00000224  1
  Ge  Ge27  1  0.50000755  0.49999042  0.00000198  1
  Ge  Ge28  1  0.00000493  0.00000040  0.49999735  1
