# generated using pymatgen
data_Sr4Ru3O10
_symmetry_space_group_name_H-M   'P 1'
_cell_length_a   5.58404175
_cell_length_b   5.58376074
_cell_length_c   28.93019087
_cell_angle_alpha   90.00000000
_cell_angle_beta   90.00000000
_cell_angle_gamma   90.00000000
_symmetry_Int_Tables_number   1
_chemical_formula_structural   Sr4Ru3O10
_chemical_formula_sum   'Sr16 Ru12 O40'
_cell_volume   902.04199433
_cell_formula_units_Z   4
loop_
 _symmetry_equiv_pos_site_id
 _symmetry_equiv_pos_as_xyz
  1  'x, y, z'
loop_
 _atom_site_type_symbol
 _atom_site_label
 _atom_site_symmetry_multiplicity
 _atom_site_fract_x
 _atom_site_fract_y
 _atom_site_fract_z
 _atom_site_occupancy
  Sr  Sr0  1  0.00000000  0.00000000  0.70373854  1
  Sr  Sr1  1  0.50000000  0.50000000  0.70373854  1
  Sr  Sr2  1  0.00000000  0.00000000  0.42989352  1
  Sr  Sr3  1  0.50000000  0.50000000  0.57010648  1
  Sr  Sr4  1  0.50000000  0.00000000  0.07010212  1
  Sr  Sr5  1  0.00000000  0.50000000  0.07010212  1
  Sr  Sr6  1  0.00000000  0.00000000  0.29626146  1
  Sr  Sr7  1  0.50000000  0.00000000  0.79633043  1
  Sr  Sr8  1  0.50000000  0.50000000  0.29626146  1
  Sr  Sr9  1  0.50000000  0.00000000  0.92989788  1
  Sr  Sr10  1  0.00000000  0.50000000  0.20366957  1
  Sr  Sr11  1  0.00000000  0.50000000  0.79633043  1
  Sr  Sr12  1  0.50000000  0.50000000  0.42989352  1
  Sr  Sr13  1  0.00000000  0.50000000  0.92989788  1
  Sr  Sr14  1  0.50000000  0.00000000  0.20366957  1
  Sr  Sr15  1  0.00000000  0.00000000  0.57010648  1
  Ru  Ru16  1  0.00000000  0.00000000  0.85962918  1
  Ru  Ru17  1  0.50000000  0.50000000  0.14037082  1
  Ru  Ru18  1  0.50000000  0.50000000  0.00000000  1
  Ru  Ru19  1  0.00000000  0.00000000  0.14037082  1
  Ru  Ru20  1  0.50000000  0.50000000  0.85962918  1
  Ru  Ru21  1  0.50000000  0.00000000  0.64046156  1
  Ru  Ru22  1  0.50000000  0.00000000  0.50000000  1
  Ru  Ru23  1  0.00000000  0.50000000  0.50000000  1
  Ru  Ru24  1  0.50000000  0.00000000  0.35953844  1
  Ru  Ru25  1  0.00000000  0.50000000  0.64046156  1
  Ru  Ru26  1  0.00000000  0.50000000  0.35953844  1
  Ru  Ru27  1  0.00000000  0.00000000  0.00000000  1
  O  O28  1  0.69800256  0.69801470  0.50000000  1
  O  O29  1  0.78342113  0.78336321  0.36053283  1
  O  O30  1  0.50000000  0.00000000  0.71089516  1
  O  O31  1  0.71694164  0.21693268  0.13940393  1
  O  O32  1  0.30199827  0.19800579  0.00000000  1
  O  O33  1  0.19800173  0.69800579  0.00000000  1
  O  O34  1  0.21657887  0.21663679  0.36053283  1
  O  O35  1  0.00000000  0.00000000  0.21079773  1
  O  O36  1  0.28305836  0.78306732  0.86059607  1
  O  O37  1  0.00000000  0.00000000  0.06899466  1
  O  O38  1  0.50000000  0.50000000  0.78920227  1
  O  O39  1  0.71694164  0.21693268  0.86059607  1
  O  O40  1  0.00000000  0.00000000  0.93100534  1
  O  O41  1  0.69800173  0.80199421  0.00000000  1
  O  O42  1  0.80199744  0.19801470  0.50000000  1
  O  O43  1  0.28342113  0.71663679  0.63946717  1
  O  O44  1  0.00000000  0.00000000  0.78920227  1
  O  O45  1  0.00000000  0.50000000  0.28910484  1
  O  O46  1  0.78305836  0.71693268  0.13940393  1
  O  O47  1  0.50000000  0.00000000  0.28910484  1
  O  O48  1  0.71657887  0.28336321  0.63946717  1
  O  O49  1  0.28342113  0.71663679  0.36053283  1
  O  O50  1  0.00000000  0.50000000  0.43096704  1
  O  O51  1  0.30199744  0.30198530  0.50000000  1
  O  O52  1  0.50000000  0.50000000  0.93100534  1
  O  O53  1  0.50000000  0.50000000  0.21079773  1
  O  O54  1  0.19800256  0.80198530  0.50000000  1
  O  O55  1  0.21694164  0.28306732  0.86059607  1
  O  O56  1  0.00000000  0.50000000  0.71089516  1
  O  O57  1  0.78305836  0.71693268  0.86059607  1
  O  O58  1  0.50000000  0.00000000  0.56903296  1
  O  O59  1  0.80199827  0.30199421  0.00000000  1
  O  O60  1  0.00000000  0.50000000  0.56903296  1
  O  O61  1  0.50000000  0.50000000  0.06899466  1
  O  O62  1  0.28305836  0.78306732  0.13940393  1
  O  O63  1  0.21694164  0.28306732  0.13940393  1
  O  O64  1  0.78342113  0.78336321  0.63946717  1
  O  O65  1  0.50000000  0.00000000  0.43096704  1
  O  O66  1  0.71657887  0.28336321  0.36053283  1
  O  O67  1  0.21657887  0.21663679  0.63946717  1
