# generated using pymatgen
data_Sr3Pr2(BO3)4
_symmetry_space_group_name_H-M   'P 1'
_cell_length_a   7.40318749
_cell_length_b   8.90328569
_cell_length_c   16.79600361
_cell_angle_alpha   90.00000000
_cell_angle_beta   90.00000000
_cell_angle_gamma   90.00000000
_symmetry_Int_Tables_number   1
_chemical_formula_structural   Sr3Pr2(BO3)4
_chemical_formula_sum   'Sr12 Pr8 B16 O48'
_cell_volume   1107.06983361
_cell_formula_units_Z   4
loop_
 _symmetry_equiv_pos_site_id
 _symmetry_equiv_pos_as_xyz
  1  'x, y, z'
loop_
 _atom_site_type_symbol
 _atom_site_label
 _atom_site_symmetry_multiplicity
 _atom_site_fract_x
 _atom_site_fract_y
 _atom_site_fract_z
 _atom_site_occupancy
  B  B0  1  0.16223723  0.06196259  0.26143907  1
  B  B1  1  0.01498467  0.37080476  0.04893271  1
  B  B2  1  0.98501533  0.62919524  0.54893271  1
  B  B3  1  0.48501533  0.87080476  0.54893271  1
  B  B4  1  0.51498467  0.12919524  0.04893271  1
  B  B5  1  0.72169190  0.35576405  0.55243950  1
  B  B6  1  0.27830810  0.64423595  0.05243950  1
  B  B7  1  0.77830810  0.85576405  0.05243950  1
  B  B8  1  0.22169190  0.14423595  0.55243950  1
  B  B9  1  0.67347784  0.45172758  0.84560198  1
  B  B10  1  0.32652216  0.54827242  0.34560198  1
  B  B11  1  0.82652216  0.95172758  0.34560198  1
  B  B12  1  0.17347784  0.04827242  0.84560198  1
  B  B13  1  0.66223723  0.43803741  0.26143907  1
  B  B14  1  0.33776277  0.56196259  0.76143907  1
  B  B15  1  0.83776277  0.93803741  0.76143907  1
  O  O16  1  0.80949684  0.49141891  0.79275762  1
  O  O17  1  0.24759613  0.71985582  0.98079825  1
  O  O18  1  0.74759613  0.78014418  0.98079825  1
  O  O19  1  0.25240387  0.21985582  0.48079825  1
  O  O20  1  0.61666280  0.25977983  0.04558451  1
  O  O21  1  0.26786955  0.21892761  0.62130231  1
  O  O22  1  0.73213045  0.78107239  0.12130231  1
  O  O23  1  0.23213045  0.71892761  0.12130231  1
  O  O24  1  0.76786955  0.28107239  0.62130231  1
  O  O25  1  0.46094836  0.05500620  0.97885827  1
  O  O26  1  0.53905164  0.94499380  0.47885827  1
  O  O27  1  0.03905164  0.55500620  0.47885827  1
  O  O28  1  0.96094836  0.44499380  0.97885827  1
  O  O29  1  0.45256037  0.07348787  0.12127972  1
  O  O30  1  0.54743963  0.92651213  0.62127972  1
  O  O31  1  0.04743963  0.57348787  0.62127972  1
  O  O32  1  0.95256037  0.42651213  0.12127972  1
  O  O33  1  0.11666280  0.24022017  0.04558451  1
  O  O34  1  0.88333720  0.75977983  0.54558451  1
  O  O35  1  0.38333720  0.74022017  0.54558451  1
  O  O36  1  0.88281500  0.06085625  0.40057005  1
  O  O37  1  0.11718500  0.93914375  0.90057005  1
  O  O38  1  0.61718500  0.56085625  0.90057005  1
  O  O39  1  0.38281500  0.43914375  0.40057005  1
  O  O40  1  0.10355896  0.19145916  0.84782847  1
  O  O41  1  0.89644104  0.80854084  0.34782847  1
  O  O42  1  0.39644104  0.69145916  0.34782847  1
  O  O43  1  0.60355896  0.30854084  0.84782847  1
  O  O44  1  0.69050316  0.99141891  0.29275762  1
  O  O45  1  0.30949684  0.00858109  0.79275762  1
  O  O46  1  0.75240387  0.28014418  0.48079825  1
  O  O47  1  0.19050316  0.50858109  0.29275762  1
  O  O48  1  0.88416323  0.03860205  0.70236197  1
  O  O49  1  0.11583677  0.96139795  0.20236197  1
  O  O50  1  0.61583677  0.53860205  0.20236197  1
  O  O51  1  0.38416323  0.46139795  0.70236197  1
  O  O52  1  0.08261052  0.20417117  0.26105895  1
  O  O53  1  0.91738948  0.79582883  0.76105895  1
  O  O54  1  0.41738948  0.70417117  0.76105895  1
  O  O55  1  0.58261052  0.29582883  0.26105895  1
  O  O56  1  0.70881945  0.97114261  0.81922021  1
  O  O57  1  0.29118055  0.02885739  0.31922021  1
  O  O58  1  0.79118055  0.47114261  0.31922021  1
  O  O59  1  0.20881945  0.52885739  0.81922021  1
  O  O60  1  0.86332680  0.99280584  0.05267527  1
  O  O61  1  0.13667320  0.00719416  0.55267527  1
  O  O62  1  0.63667320  0.49280584  0.55267527  1
  O  O63  1  0.36332680  0.50719416  0.05267527  1
  Sr  Sr64  1  0.32067186  0.34955984  0.92730000  1
  Sr  Sr65  1  0.67932814  0.65044016  0.42730000  1
  Sr  Sr66  1  0.17932814  0.84955984  0.42730000  1
  Sr  Sr67  1  0.82067186  0.15044016  0.92730000  1
  Sr  Sr68  1  0.03684893  0.32755967  0.72212741  1
  Sr  Sr69  1  0.96315107  0.67244033  0.22212741  1
  Sr  Sr70  1  0.46315107  0.82755967  0.22212741  1
  Sr  Sr71  1  0.53684893  0.17244033  0.72212741  1
  Sr  Sr72  1  0.30686607  0.35180963  0.17554576  1
  Sr  Sr73  1  0.69313393  0.64819037  0.67554576  1
  Sr  Sr74  1  0.80686607  0.14819037  0.17554576  1
  Sr  Sr75  1  0.19313393  0.85180963  0.67554576  1
  Pr  Pr76  1  0.03116273  0.32925537  0.38364583  1
  Pr  Pr77  1  0.96883727  0.67074463  0.88364583  1
  Pr  Pr78  1  0.46883727  0.82925537  0.88364583  1
  Pr  Pr79  1  0.53116273  0.17074463  0.38364583  1
  Pr  Pr80  1  0.31552032  0.46570954  0.55467216  1
  Pr  Pr81  1  0.68447968  0.53429046  0.05467216  1
  Pr  Pr82  1  0.18447968  0.96570954  0.05467216  1
  Pr  Pr83  1  0.81552032  0.03429046  0.55467216  1
