# generated using pymatgen
data_Ba6Ti2Nb10Si8O51
_symmetry_space_group_name_H-M   'P 1'
_cell_length_a   9.09706139
_cell_length_b   18.14842168
_cell_length_c   12.05376011
_cell_angle_alpha   41.24103867
_cell_angle_beta   112.01573120
_cell_angle_gamma   119.91714797
_symmetry_Int_Tables_number   1
_chemical_formula_structural   Ba6Ti2Nb10Si8O51
_chemical_formula_sum   'Ba6 Ti2 Nb10 Si8 O51'
_cell_volume   1137.07970116
_cell_formula_units_Z   1
loop_
 _symmetry_equiv_pos_site_id
 _symmetry_equiv_pos_as_xyz
  1  'x, y, z'
loop_
 _atom_site_type_symbol
 _atom_site_label
 _atom_site_symmetry_multiplicity
 _atom_site_fract_x
 _atom_site_fract_y
 _atom_site_fract_z
 _atom_site_occupancy
  Ba  Ba0  1  0.99968363  0.55404333  0.49922408  1
  Ba  Ba1  1  0.40434596  0.95033182  0.49902365  1
  Ba  Ba2  1  0.59280760  0.74817552  0.49976231  1
  Ba  Ba3  1  0.00105395  0.05223264  0.49951476  1
  Ba  Ba4  1  0.40594295  0.45080903  0.50039915  1
  Ba  Ba5  1  0.59739149  0.24783378  0.49968883  1
  Ti  Ti6  1  0.99960018  0.72670983  0.79405280  1
  Ti  Ti7  1  0.99939301  0.01839463  0.20789203  1
  Nb  Nb8  1  0.23822745  0.88815207  0.22983690  1
  Nb  Nb9  1  0.23422313  0.63281634  0.74081794  1
  Nb  Nb10  1  0.76075872  0.00815403  0.74328496  1
  Nb  Nb11  1  0.99880051  0.24451029  0.74841432  1
  Nb  Nb12  1  0.00061263  0.49123559  0.25317738  1
  Nb  Nb13  1  0.24292276  0.38438684  0.22764934  1
  Nb  Nb14  1  0.23806348  0.12725285  0.74347233  1
  Nb  Nb15  1  0.76519973  0.51605000  0.74074389  1
  Nb  Nb16  1  0.76205611  0.76936163  0.22890168  1
  Nb  Nb17  1  0.75841231  0.26363126  0.22742170  1
  Si  Si18  1  0.32564147  0.92994513  0.79602282  1
  Si  Si19  1  0.67328501  0.76747822  0.79593585  1
  Si  Si20  1  0.33055277  0.43386934  0.79900498  1
  Si  Si21  1  0.33222251  0.73101171  0.20493840  1
  Si  Si22  1  0.66795915  0.26854812  0.79894164  1
  Si  Si23  1  0.66820671  0.56480626  0.20517864  1
  Si  Si24  1  0.32651396  0.22383028  0.20774631  1
  Si  Si25  1  0.67370585  0.06128742  0.20806329  1
  O  O26  1  0.17510724  0.88226624  0.71303293  1
  O  O27  1  0.00075352  0.79214499  0.23797647  1
  O  O28  1  0.16957070  0.96545820  0.24648972  1
  O  O29  1  0.16849878  0.71106208  0.75649903  1
  O  O30  1  0.00013237  0.52556183  0.77029056  1
  O  O31  1  0.50568007  0.98399605  0.71894854  1
  O  O32  1  0.23122559  0.74866749  0.50355227  1
  O  O33  1  0.00117419  0.63768895  0.00895491  1
  O  O34  1  0.99803435  0.36249166  0.50070078  1
  O  O35  1  0.30667351  0.76757590  0.28402576  1
  O  O36  1  0.49178705  0.94935517  0.28596492  1
  O  O37  1  0.30645227  0.54904014  0.72060874  1
  O  O38  1  0.49260658  0.73236175  0.71921433  1
  O  O39  1  0.18069547  0.38607869  0.71685129  1
  O  O40  1  0.69954414  0.89608885  0.71725438  1
  O  O41  1  0.18248488  0.60149632  0.28512861  1
  O  O42  1  0.32754871  0.83010686  0.00005794  1
  O  O43  1  0.17589209  0.20563253  0.76649791  1
  O  O44  1  0.00065282  0.29281040  0.23587291  1
  O  O45  1  0.17706066  0.46878778  0.23738897  1
  O  O46  1  0.99886517  0.02592633  0.77014320  1
  O  O47  1  0.51081709  0.70521439  0.28338961  1
  O  O48  1  0.82453143  0.79435729  0.71436372  1
  O  O49  1  0.50928707  0.48536271  0.72284678  1
  O  O50  1  0.22948045  0.24629824  0.50545759  1
  O  O51  1  0.27967666  0.49998438  0.00098625  1
  O  O52  1  0.83109980  0.88204468  0.24314660  1
  O  O53  1  0.83093609  0.62573630  0.75904053  1
  O  O54  1  0.72102340  0.86056298  0.00104354  1
  O  O55  1  0.99936444  0.14414079  0.99439760  1
  O  O56  1  0.76989972  0.63436473  0.50348392  1
  O  O57  1  0.30423963  0.26202466  0.28709882  1
  O  O58  1  0.48916198  0.44895913  0.28402839  1
  O  O59  1  0.48977761  0.23006117  0.72236692  1
  O  O60  1  0.30076038  0.04548516  0.71834790  1
  O  O61  1  0.69546485  0.61337417  0.28570685  1
  O  O62  1  0.69206418  0.39598959  0.71980770  1
  O  O63  1  0.17466348  0.09389112  0.28961259  1
  O  O64  1  0.67104472  0.66642921  0.00034020  1
  O  O65  1  0.32536977  0.32736353  0.00421725  1
  O  O66  1  0.50743184  0.20051981  0.28405146  1
  O  O67  1  0.81632864  0.50932951  0.28467600  1
  O  O68  1  0.81646754  0.29515846  0.71630044  1
  O  O69  1  0.27834862  0.00063907  0.00158762  1
  O  O70  1  0.82222944  0.38139300  0.23507346  1
  O  O71  1  0.81987790  0.11596484  0.76852060  1
  O  O72  1  0.72102372  0.36021012  0.00122327  1
  O  O73  1  0.76853071  0.13332823  0.50521666  1
  O  O74  1  0.70217031  0.11126767  0.28826338  1
  O  O75  1  0.67304933  0.16535069  0.00426134  1
  O  O76  1  0.82363102  0.00591418  0.28857985  1
