# generated using pymatgen
data_GaP3(NCl3)3
_symmetry_space_group_name_H-M   'P 1'
_cell_length_a   11.23480054
_cell_length_b   12.33366684
_cell_length_c   24.95346584
_cell_angle_alpha   91.97347021
_cell_angle_beta   90.00000000
_cell_angle_gamma   90.00000000
_symmetry_Int_Tables_number   1
_chemical_formula_structural   GaP3(NCl3)3
_chemical_formula_sum   'Ga8 P24 N24 Cl72'
_cell_volume   3455.65826938
_cell_formula_units_Z   8
loop_
 _symmetry_equiv_pos_site_id
 _symmetry_equiv_pos_as_xyz
  1  'x, y, z'
loop_
 _atom_site_type_symbol
 _atom_site_label
 _atom_site_symmetry_multiplicity
 _atom_site_fract_x
 _atom_site_fract_y
 _atom_site_fract_z
 _atom_site_occupancy
  Ga  Ga0  1  0.07525757  0.09544971  0.13083655  1
  Ga  Ga1  1  0.92474243  0.90455029  0.86916345  1
  Ga  Ga2  1  0.38777188  0.65897126  0.88163839  1
  Ga  Ga3  1  0.88777188  0.34102874  0.61836161  1
  Ga  Ga4  1  0.61222812  0.34102874  0.11836161  1
  Ga  Ga5  1  0.42474243  0.09544971  0.63083655  1
  Ga  Ga6  1  0.57525757  0.90455029  0.36916345  1
  Ga  Ga7  1  0.11222812  0.65897126  0.38163839  1
  P  P8  1  0.54096111  0.16496679  0.87819717  1
  P  P9  1  0.33403576  0.52909758  0.31867126  1
  P  P10  1  0.54327227  0.47151799  0.37116021  1
  P  P11  1  0.30307443  0.97341888  0.06911947  1
  P  P12  1  0.18780628  0.97633561  0.68281648  1
  P  P13  1  0.15817768  0.52601149  0.93215216  1
  P  P14  1  0.65817768  0.47398851  0.56784784  1
  P  P15  1  0.45903889  0.83503321  0.12180283  1
  P  P16  1  0.04096111  0.83503321  0.62180283  1
  P  P17  1  0.95672773  0.47151799  0.87116021  1
  P  P18  1  0.80307443  0.02658112  0.43088053  1
  P  P19  1  0.66596424  0.47090242  0.68132874  1
  P  P20  1  0.45672773  0.52848201  0.62883979  1
  P  P21  1  0.19692557  0.97341888  0.56911947  1
  P  P22  1  0.83403576  0.47090242  0.18132874  1
  P  P23  1  0.95903889  0.16496679  0.37819717  1
  P  P24  1  0.69692557  0.02658112  0.93088053  1
  P  P25  1  0.34182232  0.52601149  0.43215216  1
  P  P26  1  0.84182232  0.47398851  0.06784784  1
  P  P27  1  0.31219372  0.97633561  0.18281648  1
  P  P28  1  0.16596424  0.52909758  0.81867126  1
  P  P29  1  0.04327227  0.52848201  0.12883979  1
  P  P30  1  0.68780628  0.02366439  0.81718352  1
  P  P31  1  0.81219372  0.02366439  0.31718352  1
  N  N32  1  0.59304546  0.11784461  0.82261037  1
  N  N33  1  0.72682700  0.43445592  0.62275440  1
  N  N34  1  0.47186374  0.50259563  0.31885758  1
  N  N35  1  0.40695454  0.88215539  0.17738963  1
  N  N36  1  0.27317300  0.56554408  0.37724560  1
  N  N37  1  0.52813626  0.49740437  0.68114242  1
  N  N38  1  0.73952403  0.99271306  0.37250937  1
  N  N39  1  0.77317300  0.43445592  0.12275440  1
  N  N40  1  0.02076032  0.49819945  0.92693404  1
  N  N41  1  0.39698369  0.87778443  0.06915099  1
  N  N42  1  0.26047597  0.00728694  0.62749063  1
  N  N43  1  0.89698369  0.12221557  0.43084901  1
  N  N44  1  0.76047597  0.99271306  0.87250937  1
  N  N45  1  0.22682700  0.56554408  0.87724560  1
  N  N46  1  0.97923968  0.50180055  0.07306596  1
  N  N47  1  0.10301631  0.87778443  0.56915099  1
  N  N48  1  0.90695454  0.11784461  0.32261037  1
  N  N49  1  0.52076032  0.50180055  0.57306596  1
  N  N50  1  0.60301631  0.12221557  0.93084901  1
  N  N51  1  0.02813626  0.50259563  0.81885758  1
  N  N52  1  0.47923968  0.49819945  0.42693404  1
  N  N53  1  0.23952403  0.00728694  0.12749063  1
  N  N54  1  0.97186374  0.49740437  0.18114242  1
  N  N55  1  0.09304546  0.88215539  0.67738963  1
  Cl  Cl56  1  0.43250200  0.19481197  0.56066528  1
  Cl  Cl57  1  0.32620603  0.82555817  0.88201558  1
  Cl  Cl58  1  0.42140580  0.19692436  0.70349168  1
  Cl  Cl59  1  0.79722110  0.54134702  0.87102617  1
  Cl  Cl60  1  0.38622248  0.11187912  0.21417943  1
  Cl  Cl61  1  0.24376083  0.40216249  0.28665121  1
  Cl  Cl62  1  0.88622248  0.88812088  0.28582057  1
  Cl  Cl63  1  0.11377752  0.11187912  0.71417943  1
  Cl  Cl64  1  0.25666790  0.39803072  0.46165846  1
  Cl  Cl65  1  0.62395994  0.89375000  0.96105661  1
  Cl  Cl66  1  0.32540993  0.93448114  0.51740335  1
  Cl  Cl67  1  0.54668097  0.32727748  0.87958670  1
  Cl  Cl68  1  0.87604006  0.89375000  0.46105661  1
  Cl  Cl69  1  0.56749800  0.80518803  0.43933472  1
  Cl  Cl70  1  0.95331903  0.32727748  0.37958670  1
  Cl  Cl71  1  0.63507253  0.86261481  0.11942693  1
  Cl  Cl72  1  0.44463156  0.03435184  0.36926831  1
  Cl  Cl73  1  0.24333210  0.39803072  0.96165846  1
  Cl  Cl74  1  0.93250200  0.80518803  0.93933472  1
  Cl  Cl75  1  0.41560099  0.68830333  0.63405543  1
  Cl  Cl76  1  0.12395994  0.10625000  0.53894339  1
  Cl  Cl77  1  0.18234106  0.64159613  0.98820261  1
  Cl  Cl78  1  0.80634145  0.06301932  0.76201143  1
  Cl  Cl79  1  0.74376083  0.59783751  0.21334879  1
  Cl  Cl80  1  0.08439901  0.68830333  0.13405543  1
  Cl  Cl81  1  0.17379397  0.82555817  0.38201558  1
  Cl  Cl82  1  0.49312150  0.61198242  0.81151733  1
  Cl  Cl83  1  0.94463156  0.96564816  0.13073169  1
  Cl  Cl84  1  0.37604006  0.10625000  0.03894339  1
  Cl  Cl85  1  0.30634145  0.93698068  0.73798857  1
  Cl  Cl86  1  0.75623917  0.59783751  0.71334879  1
  Cl  Cl87  1  0.92140580  0.80307564  0.79650832  1
  Cl  Cl88  1  0.69365855  0.06301932  0.26201143  1
  Cl  Cl89  1  0.57859420  0.80307564  0.29650832  1
  Cl  Cl90  1  0.06749800  0.19481197  0.06066528  1
  Cl  Cl91  1  0.19365855  0.93698068  0.23798857  1
  Cl  Cl92  1  0.75666790  0.60196928  0.03834154  1
  Cl  Cl93  1  0.20277890  0.45865298  0.12897383  1
  Cl  Cl94  1  0.29722110  0.45865298  0.62897383  1
  Cl  Cl95  1  0.82620603  0.17444183  0.61798442  1
  Cl  Cl96  1  0.51544399  0.38554385  0.04702111  1
  Cl  Cl97  1  0.01544399  0.61445615  0.45297889  1
  Cl  Cl98  1  0.17459007  0.93448114  0.01740335  1
  Cl  Cl99  1  0.69558273  0.35367531  0.73199595  1
  Cl  Cl100  1  0.67459007  0.06551886  0.48259665  1
  Cl  Cl101  1  0.68234106  0.35840387  0.51179739  1
  Cl  Cl102  1  0.91560099  0.31169667  0.86594457  1
  Cl  Cl103  1  0.00687850  0.61198242  0.31151733  1
  Cl  Cl104  1  0.80441727  0.35367531  0.23199595  1
  Cl  Cl105  1  0.99312150  0.38801758  0.68848267  1
  Cl  Cl106  1  0.50687850  0.38801758  0.18848267  1
  Cl  Cl107  1  0.04668097  0.67272252  0.62041330  1
  Cl  Cl108  1  0.61377752  0.88812088  0.78582057  1
  Cl  Cl109  1  0.05536844  0.03435184  0.86926831  1
  Cl  Cl110  1  0.74333210  0.60196928  0.53834154  1
  Cl  Cl111  1  0.55536844  0.96564816  0.63073169  1
  Cl  Cl112  1  0.98455601  0.38554385  0.54702111  1
  Cl  Cl113  1  0.07859420  0.19692436  0.20349168  1
  Cl  Cl114  1  0.82540993  0.06551886  0.98259665  1
  Cl  Cl115  1  0.48455601  0.61445615  0.95297889  1
  Cl  Cl116  1  0.86492747  0.86261481  0.61942693  1
  Cl  Cl117  1  0.70277890  0.54134702  0.37102617  1
  Cl  Cl118  1  0.81765894  0.35840387  0.01179739  1
  Cl  Cl119  1  0.67379397  0.17444183  0.11798442  1
  Cl  Cl120  1  0.45331903  0.67272252  0.12041330  1
  Cl  Cl121  1  0.36492747  0.13738519  0.88057307  1
  Cl  Cl122  1  0.58439901  0.31169667  0.36594457  1
  Cl  Cl123  1  0.25623917  0.40216249  0.78665121  1
  Cl  Cl124  1  0.31765894  0.64159613  0.48820261  1
  Cl  Cl125  1  0.30441727  0.64632469  0.26800405  1
  Cl  Cl126  1  0.13507253  0.13738519  0.38057307  1
  Cl  Cl127  1  0.19558273  0.64632469  0.76800405  1
