# generated using pymatgen
data_Cs3Bi2Br9
_symmetry_space_group_name_H-M   'P 1'
_cell_length_a   8.20602734
_cell_length_b   8.18539472
_cell_length_c   20.25357029
_cell_angle_alpha   89.28646897
_cell_angle_beta   90.00000000
_cell_angle_gamma   120.08341795
_symmetry_Int_Tables_number   1
_chemical_formula_structural   Cs3Bi2Br9
_chemical_formula_sum   'Cs6 Bi4 Br18'
_cell_volume   1177.04795764
_cell_formula_units_Z   2
loop_
 _symmetry_equiv_pos_site_id
 _symmetry_equiv_pos_as_xyz
  1  'x, y, z'
loop_
 _atom_site_type_symbol
 _atom_site_label
 _atom_site_symmetry_multiplicity
 _atom_site_fract_x
 _atom_site_fract_y
 _atom_site_fract_z
 _atom_site_occupancy
  Cs  Cs0  1  0.65712471  0.33087980  0.16770721  1
  Cs  Cs1  1  0.00000000  0.00000000  0.00000000  1
  Cs  Cs2  1  0.32624491  0.66912020  0.33229279  1
  Cs  Cs3  1  0.00000000  0.00000000  0.50000000  1
  Cs  Cs4  1  0.67375509  0.33087980  0.66770721  1
  Cs  Cs5  1  0.34287529  0.66912020  0.83229279  1
  Bi  Bi6  1  0.66315162  0.33692850  0.40717423  1
  Bi  Bi7  1  0.32622312  0.66307150  0.09282577  1
  Bi  Bi8  1  0.67377688  0.33692850  0.90717423  1
  Bi  Bi9  1  0.33684838  0.66307150  0.59282577  1
  Br  Br10  1  0.66581396  0.82964299  0.66424509  1
  Br  Br11  1  0.34911505  0.17231900  0.83354141  1
  Br  Br12  1  0.50000000  0.50000000  0.50000000  1
  Br  Br13  1  0.16382903  0.82964299  0.16424509  1
  Br  Br14  1  0.18924741  0.33893534  0.66978591  1
  Br  Br15  1  0.85031206  0.66106466  0.83021409  1
  Br  Br16  1  0.50000000  0.50000000  0.00000000  1
  Br  Br17  1  0.81075259  0.66106466  0.33021409  1
  Br  Br18  1  0.83617097  0.17035701  0.83575491  1
  Br  Br19  1  0.33418604  0.17035701  0.33575491  1
  Br  Br20  1  0.50000000  0.00000000  0.00000000  1
  Br  Br21  1  0.82320395  0.17231900  0.33354141  1
  Br  Br22  1  0.17679605  0.82768100  0.66645859  1
  Br  Br23  1  0.65088495  0.82768100  0.16645859  1
  Br  Br24  1  0.00000000  0.50000000  0.00000000  1
  Br  Br25  1  0.14968794  0.33893534  0.16978591  1
  Br  Br26  1  0.00000000  0.50000000  0.50000000  1
  Br  Br27  1  0.50000000  0.00000000  0.50000000  1
