# generated using pymatgen
data_Bi2PbSe4
_symmetry_space_group_name_H-M   'P 1'
_cell_length_a   13.61749818
_cell_length_b   13.61749810
_cell_length_c   13.61749804
_cell_angle_alpha   17.93441889
_cell_angle_beta   17.93441991
_cell_angle_gamma   17.93441863
_symmetry_Int_Tables_number   1
_chemical_formula_structural   Bi2PbSe4
_chemical_formula_sum   'Bi2 Pb1 Se4'
_cell_volume   209.05111352
_cell_formula_units_Z   1
loop_
 _symmetry_equiv_pos_site_id
 _symmetry_equiv_pos_as_xyz
  1  'x, y, z'
loop_
 _atom_site_type_symbol
 _atom_site_label
 _atom_site_symmetry_multiplicity
 _atom_site_fract_x
 _atom_site_fract_y
 _atom_site_fract_z
 _atom_site_occupancy
  Bi  Bi0  1  0.42774522  0.42774522  0.42774522  1
  Bi  Bi1  1  0.57225478  0.57225478  0.57225478  1
  Pb  Pb2  1  0.00000000  0.00000000  0.00000000  1
  Se  Se3  1  0.13238489  0.13238489  0.13238489  1
  Se  Se4  1  0.28691692  0.28691692  0.28691692  1
  Se  Se5  1  0.71308308  0.71308308  0.71308308  1
  Se  Se6  1  0.86761511  0.86761511  0.86761511  1
