# generated using pymatgen
data_Sr9U9O34
_symmetry_space_group_name_H-M   'P 1'
_cell_length_a   59.65585992
_cell_length_b   19.06092222
_cell_length_c   12.62905212
_cell_angle_alpha   16.13709171
_cell_angle_beta   17.69119234
_cell_angle_gamma   11.54455152
_symmetry_Int_Tables_number   1
_chemical_formula_structural   Sr9U9O34
_chemical_formula_sum   'Sr9 U9 O34'
_cell_volume   781.38986849
_cell_formula_units_Z   1
loop_
 _symmetry_equiv_pos_site_id
 _symmetry_equiv_pos_as_xyz
  1  'x, y, z'
loop_
 _atom_site_type_symbol
 _atom_site_label
 _atom_site_symmetry_multiplicity
 _atom_site_fract_x
 _atom_site_fract_y
 _atom_site_fract_z
 _atom_site_occupancy
  Sr  Sr0  1  0.10724484  0.51700110  0.48858564  1
  Sr  Sr1  1  0.22446852  0.49566118  0.49636895  1
  Sr  Sr2  1  0.33487906  0.49168381  0.50965456  1
  Sr  Sr3  1  0.44313158  0.49907274  0.50804591  1
  Sr  Sr4  1  0.55365445  0.51253277  0.48882699  1
  Sr  Sr5  1  0.66436174  0.50939032  0.49471360  1
  Sr  Sr6  1  0.78357999  0.48427825  0.49637617  1
  Sr  Sr7  1  0.88743817  0.49730210  0.51671392  1
  Sr  Sr8  1  0.00085514  0.49668576  0.50217094  1
  U  U9  1  0.99616677  0.01765637  0.99540131  1
  U  U10  1  0.12005605  0.98168835  0.98456205  1
  U  U11  1  0.21537158  0.03241185  0.98297968  1
  U  U12  1  0.33312570  0.98163829  0.02644720  1
  U  U13  1  0.44643370  0.00416175  0.98565877  1
  U  U14  1  0.56507728  0.98252909  0.98347626  1
  U  U15  1  0.66797498  0.98864403  0.01357952  1
  U  U16  1  0.76989959  0.03427323  0.98185891  1
  U  U17  1  0.88686228  0.98148630  0.03460613  1
  O  O18  1  0.08475479  0.10873204  0.11373688  1
  O  O19  1  0.03532185  0.34404591  0.35508587  1
  O  O20  1  0.20247953  0.08958484  0.11577126  1
  O  O21  1  0.13648524  0.38558088  0.33685667  1
  O  O22  1  0.30864291  0.11633877  0.09531644  1
  O  O23  1  0.04559787  0.79189623  0.58593260  1
  O  O24  1  0.25700488  0.33816548  0.36673902  1
  O  O25  1  0.42058295  0.11761579  0.09360295  1
  O  O26  1  0.02927831  0.86761438  0.91165249  1
  O  O27  1  0.23203629  0.57621238  0.56990685  1
  O  O28  1  0.52698100  0.11743773  0.11359755  1
  O  O29  1  0.14141809  0.87906681  0.88110684  1
  O  O30  1  0.30641832  0.62749725  0.64226720  1
  O  O31  1  0.47975963  0.36912899  0.32459629  1
  O  O32  1  0.64670392  0.09388322  0.11054397  1
  O  O33  1  0.23381647  0.94777462  0.86561677  1
  O  O34  1  0.40154433  0.56744657  0.81986206  1
  O  O35  1  0.58420871  0.36265226  0.35735644  1
  O  O36  1  0.75590548  0.08899793  0.12304163  1
  O  O37  1  0.35742282  0.87815214  0.91066075  1
  O  O38  1  0.48654847  0.81608698  0.56367418  1
  O  O39  1  0.69728841  0.35722054  0.35664131  1
  O  O40  1  0.86592081  0.11116031  0.09598592  1
  O  O41  1  0.46736291  0.87316768  0.92816818  1
  O  O42  1  0.63261910  0.65720104  0.62863204  1
  O  O43  1  0.81463855  0.33257282  0.37243077  1
  O  O44  1  0.97399392  0.12866887  0.08849528  1
  O  O45  1  0.59478517  0.86594533  0.86330331  1
  O  O46  1  0.78155156  0.58411448  0.58568785  1
  O  O47  1  0.68147814  0.92891672  0.88235110  1
  O  O48  1  0.85760262  0.62331614  0.66681639  1
  O  O49  1  0.79657941  0.91925435  0.87325416  1
  O  O50  1  0.95752346  0.57005605  0.81323088  1
  O  O51  1  0.91182965  0.87639720  0.91805162  1
