# generated using pymatgen
data_CeSe2
_symmetry_space_group_name_H-M   'P 1'
_cell_length_a   8.84075927
_cell_length_b   10.37752355
_cell_length_c   10.37752355
_cell_angle_alpha   79.54638400
_cell_angle_beta   64.78873901
_cell_angle_gamma   64.78873901
_symmetry_Int_Tables_number   1
_chemical_formula_structural   CeSe2
_chemical_formula_sum   'Ce8 Se16'
_cell_volume   779.34153280
_cell_formula_units_Z   8
loop_
 _symmetry_equiv_pos_site_id
 _symmetry_equiv_pos_as_xyz
  1  'x, y, z'
loop_
 _atom_site_type_symbol
 _atom_site_label
 _atom_site_symmetry_multiplicity
 _atom_site_fract_x
 _atom_site_fract_y
 _atom_site_fract_z
 _atom_site_occupancy
  Ce  Ce0  1  0.24376025  0.25388265  0.75215452  1
  Ce  Ce1  1  0.24979742  0.74611735  0.24784548  1
  Ce  Ce2  1  0.24764290  0.25215452  0.24611735  1
  Ce  Ce3  1  0.74591477  0.74784548  0.75388265  1
  Ce  Ce4  1  0.75155342  0.24992331  0.74382104  1
  Ce  Ce5  1  0.74529777  0.75007669  0.25617896  1
  Ce  Ce6  1  0.75147673  0.24382104  0.25007669  1
  Ce  Ce7  1  0.24537446  0.75617896  0.74992331  1
  Se  Se8  1  0.59086192  0.05669719  0.25102007  1
  Se  Se9  1  0.89857918  0.94330281  0.74897993  1
  Se  Se10  1  0.39755912  0.75102007  0.44330281  1
  Se  Se11  1  0.59188199  0.24897993  0.55669719  1
  Se  Se12  1  0.40170545  0.94530950  0.75265541  1
  Se  Se13  1  0.09967037  0.05469050  0.24734459  1
  Se  Se14  1  0.09701496  0.25265541  0.55469050  1
  Se  Se15  1  0.90436086  0.74734459  0.44530950  1
  Se  Se16  1  0.89826198  0.44170126  0.25099671  1
  Se  Se17  1  0.59095995  0.55829874  0.74900329  1
  Se  Se18  1  0.08996324  0.75099671  0.05829874  1
  Se  Se19  1  0.89925869  0.24900329  0.94170126  1
  Se  Se20  1  0.40432571  0.25384563  0.93925524  1
  Se  Se21  1  0.59742658  0.74615437  0.06074476  1
  Se  Se22  1  0.40817134  0.43925524  0.24615437  1
  Se  Se23  1  0.09358096  0.56074476  0.75384563  1
