# generated using pymatgen
data_V2Re2O11
_symmetry_space_group_name_H-M   'P 1'
_cell_length_a   6.66206806
_cell_length_b   9.62382383
_cell_length_c   8.12436292
_cell_angle_alpha   90.00000000
_cell_angle_beta   90.00000000
_cell_angle_gamma   110.25040572
_symmetry_Int_Tables_number   1
_chemical_formula_structural   V2Re2O11
_chemical_formula_sum   'V4 Re4 O22'
_cell_volume   488.69323615
_cell_formula_units_Z   2
loop_
 _symmetry_equiv_pos_site_id
 _symmetry_equiv_pos_as_xyz
  1  'x, y, z'
loop_
 _atom_site_type_symbol
 _atom_site_label
 _atom_site_symmetry_multiplicity
 _atom_site_fract_x
 _atom_site_fract_y
 _atom_site_fract_z
 _atom_site_occupancy
  V  V0  1  0.24706579  0.49413157  0.73767476  1
  V  V1  1  0.75293421  0.50586843  0.23767476  1
  V  V2  1  0.43258188  0.86516376  0.89755445  1
  V  V3  1  0.56741812  0.13483624  0.39755445  1
  Re  Re4  1  0.99522134  0.99044268  0.48008466  1
  Re  Re5  1  0.00477866  0.00955732  0.98008466  1
  Re  Re6  1  0.68937316  0.37874632  0.84629970  1
  Re  Re7  1  0.31062684  0.62125368  0.34629970  1
  O  O8  1  0.48622599  0.97245199  0.73757969  1
  O  O9  1  0.51377401  0.02754801  0.23757969  1
  O  O10  1  0.05608682  0.11217364  0.80088569  1
  O  O11  1  0.94391318  0.88782636  0.30088569  1
  O  O12  1  0.34052466  0.68104932  0.79312718  1
  O  O13  1  0.65947534  0.31895068  0.29312718  1
  O  O14  1  0.67352029  0.34704058  0.63312963  1
  O  O15  1  0.32647971  0.65295942  0.13312963  1
  O  O16  1  0.92883873  0.85767746  0.63340219  1
  O  O17  1  0.07116127  0.14232254  0.13340219  1
  O  O18  1  0.76895923  0.53791846  0.01645606  1
  O  O19  1  0.23104077  0.46208154  0.51645606  1
  O  O20  1  0.60462198  0.20924396  0.94361873  1
  O  O21  1  0.39537802  0.79075604  0.44361873  1
  O  O22  1  0.98520581  0.41503488  0.84249334  1
  O  O23  1  0.42982907  0.41503488  0.84249334  1
  O  O24  1  0.01479419  0.58496512  0.34249334  1
  O  O25  1  0.57017093  0.58496512  0.34249334  1
  O  O26  1  0.17005009  0.89687945  0.98460029  1
  O  O27  1  0.72682937  0.89687945  0.98460029  1
  O  O28  1  0.82994991  0.10312055  0.48460029  1
  O  O29  1  0.27317063  0.10312055  0.48460029  1
