# generated using pymatgen
data_Sr3La5Mn8O24
_symmetry_space_group_name_H-M   'P 1'
_cell_length_a   11.06935433
_cell_length_b   14.61588181
_cell_length_c   9.56831305
_cell_angle_alpha   29.49897156
_cell_angle_beta   55.27413597
_cell_angle_gamma   41.27097959
_symmetry_Int_Tables_number   1
_chemical_formula_structural   Sr3La5Mn8O24
_chemical_formula_sum   'Sr3 La5 Mn8 O24'
_cell_volume   485.48860769
_cell_formula_units_Z   1
loop_
 _symmetry_equiv_pos_site_id
 _symmetry_equiv_pos_as_xyz
  1  'x, y, z'
loop_
 _atom_site_type_symbol
 _atom_site_label
 _atom_site_symmetry_multiplicity
 _atom_site_fract_x
 _atom_site_fract_y
 _atom_site_fract_z
 _atom_site_occupancy
  Sr  Sr0  1  0.12551227  0.99897547  0.25102453  1
  Sr  Sr1  1  0.87366668  0.50266664  0.24733336  1
  Sr  Sr2  1  0.62568728  0.99862544  0.25137456  1
  La  La3  1  0.12436141  0.49975684  0.75229136  1
  La  La4  1  0.37491423  0.50017154  0.24982846  1
  La  La5  1  0.62588175  0.49975684  0.74819497  1
  La  La6  1  0.37492599  0.00002352  0.74977774  1
  La  La7  1  0.87505049  0.00002352  0.75017522  1
  Mn  Mn8  1  0.99900940  0.00074631  0.00027007  1
  Mn  Mn9  1  0.50050473  0.99892577  0.00120870  1
  Mn  Mn10  1  0.99918765  0.50021005  0.50039462  1
  Mn  Mn11  1  0.24969568  0.50002485  0.99935728  1
  Mn  Mn12  1  0.50027946  0.50002485  0.50059301  1
  Mn  Mn13  1  0.75060230  0.50021005  0.99918528  1
  Mn  Mn14  1  0.25024428  0.00074631  0.49823731  1
  Mn  Mn15  1  0.75056950  0.99892577  0.50093976  1
  O  O16  1  0.34661626  0.05526850  0.19474471  1
  O  O17  1  0.21979241  0.26921286  0.25259747  1
  O  O18  1  0.04247418  0.22174076  0.74974038  1
  O  O19  1  0.10341003  0.55359083  0.19607508  1
  O  O20  1  0.48390994  0.22838323  0.30329943  1
  O  O21  1  0.26307789  0.27609371  0.69768812  1
  O  O22  1  0.84811524  0.05526850  0.19471829  1
  O  O23  1  0.23907394  0.71778246  0.30450067  1
  O  O24  1  0.71082840  0.27609371  0.25012445  1
  O  O25  1  0.00950119  0.77135417  0.70963917  1
  O  O26  1  0.53770683  0.22838323  0.73993410  1
  O  O27  1  0.39504936  0.45990128  0.79009872  1
  O  O28  1  0.59299914  0.55359083  0.19674325  1
  O  O29  1  0.46914464  0.77135417  0.24765248  1
  O  O30  1  0.98578506  0.22174076  0.30677810  1
  O  O31  1  0.29314360  0.71778246  0.75993442  1
  O  O32  1  0.76099473  0.26921286  0.70897681  1
  O  O33  1  0.15135105  0.94729789  0.80270211  1
  O  O34  1  0.73689439  0.72379590  0.30241837  1
  O  O35  1  0.50905014  0.76820576  0.71359857  1
  O  O36  1  0.89609928  0.45780145  0.79219855  1
  O  O37  1  0.97274410  0.76820576  0.24998990  1
  O  O38  1  0.78930971  0.72379590  0.74998983  1
  O  O39  1  0.64283538  0.96432924  0.78567076  1
