# generated using pymatgen
data_LiMg4H13Os2
_symmetry_space_group_name_H-M   'P 1'
_cell_length_a   4.72749532
_cell_length_b   4.72747892
_cell_length_c   18.48529121
_cell_angle_alpha   90.00000000
_cell_angle_beta   90.00000000
_cell_angle_gamma   120.00011473
_symmetry_Int_Tables_number   1
_chemical_formula_structural   LiMg4H13Os2
_chemical_formula_sum   'Li2 Mg8 H26 Os4'
_cell_volume   357.78088593
_cell_formula_units_Z   2
loop_
 _symmetry_equiv_pos_site_id
 _symmetry_equiv_pos_as_xyz
  1  'x, y, z'
loop_
 _atom_site_type_symbol
 _atom_site_label
 _atom_site_symmetry_multiplicity
 _atom_site_fract_x
 _atom_site_fract_y
 _atom_site_fract_z
 _atom_site_occupancy
  Li  Li0  1  0.33330196  0.66660392  0.25000000  1
  Li  Li1  1  0.66669804  0.33339608  0.75000000  1
  Mg  Mg2  1  -0.00000020  -0.00000039  0.35131931  1
  Mg  Mg3  1  0.00000020  0.00000039  0.64868069  1
  Mg  Mg4  1  0.00000020  0.00000039  0.85131931  1
  Mg  Mg5  1  -0.00000020  -0.00000039  0.14868069  1
  Mg  Mg6  1  0.33330467  0.66660934  0.94797370  1
  Mg  Mg7  1  0.66669533  0.33339066  0.05202630  1
  Mg  Mg8  1  0.66669533  0.33339066  0.44797370  1
  Mg  Mg9  1  0.33330467  0.66660934  0.55202630  1
  H  H10  1  0.16363178  0.83636845  0.44877546  1
  H  H11  1  0.16362309  0.32724618  0.44877701  1
  H  H12  1  0.67273666  0.83636845  0.44877546  1
  H  H13  1  0.83636822  0.16363155  0.55122454  1
  H  H14  1  0.83637691  0.67275382  0.55122299  1
  H  H15  1  0.32726334  0.16363155  0.55122454  1
  H  H16  1  0.83636822  0.16363155  0.94877546  1
  H  H17  1  0.83637691  0.67275382  0.94877701  1
  H  H18  1  0.32726334  0.16363155  0.94877546  1
  H  H19  1  0.16363178  0.83636845  0.05122454  1
  H  H20  1  0.16362309  0.32724618  0.05122299  1
  H  H21  1  0.67273666  0.83636845  0.05122454  1
  H  H22  1  0.50211740  0.49788815  0.83952255  1
  H  H23  1  0.50212339  0.00424679  0.83952446  1
  H  H24  1  0.99577075  0.49788815  0.83952255  1
  H  H25  1  0.49788260  0.50211185  0.16047745  1
  H  H26  1  0.49787661  0.99575321  0.16047554  1
  H  H27  1  0.00422925  0.50211185  0.16047745  1
  H  H28  1  0.49788260  0.50211185  0.33952255  1
  H  H29  1  0.49787661  0.99575321  0.33952446  1
  H  H30  1  0.00422925  0.50211185  0.33952255  1
  H  H31  1  0.50211740  0.49788815  0.66047745  1
  H  H32  1  0.50212339  0.00424679  0.66047554  1
  H  H33  1  0.99577075  0.49788815  0.66047745  1
  H  H34  1  0.00000013  0.00000027  0.25000000  1
  H  H35  1  -0.00000013  -0.00000027  0.75000000  1
  Os  Os36  1  0.33332218  0.66664436  0.39566985  1
  Os  Os37  1  0.66667782  0.33335564  0.60433015  1
  Os  Os38  1  0.66667782  0.33335564  0.89566985  1
  Os  Os39  1  0.33332218  0.66664436  0.10433015  1
