# generated using pymatgen
data_K6BiH3(Cl2F)4
_symmetry_space_group_name_H-M   'P 1'
_cell_length_a   9.22720598
_cell_length_b   9.22712335
_cell_length_c   14.72524316
_cell_angle_alpha   90.00000000
_cell_angle_beta   90.00000000
_cell_angle_gamma   120.00029624
_symmetry_Int_Tables_number   1
_chemical_formula_structural   K6BiH3(Cl2F)4
_chemical_formula_sum   'K12 Bi2 H6 Cl16 F8'
_cell_volume   1085.74628539
_cell_formula_units_Z   2
loop_
 _symmetry_equiv_pos_site_id
 _symmetry_equiv_pos_as_xyz
  1  'x, y, z'
loop_
 _atom_site_type_symbol
 _atom_site_label
 _atom_site_symmetry_multiplicity
 _atom_site_fract_x
 _atom_site_fract_y
 _atom_site_fract_z
 _atom_site_occupancy
  K  K0  1  0.49756299  0.99512599  0.99228619  1
  K  K1  1  0.00487933  0.50243972  0.99228830  1
  K  K2  1  0.49756038  0.50243972  0.99228830  1
  K  K3  1  0.50243701  0.00487401  0.49228619  1
  K  K4  1  0.99512067  0.49756028  0.49228830  1
  K  K5  1  0.50243962  0.49756028  0.49228830  1
  K  K6  1  0.82124749  0.64249497  0.74638576  1
  K  K7  1  0.35752190  0.17876657  0.74638514  1
  K  K8  1  0.82124467  0.17876657  0.74638514  1
  K  K9  1  0.17875251  0.35750503  0.24638576  1
  K  K10  1  0.64247810  0.82123343  0.24638514  1
  K  K11  1  0.17875533  0.82123343  0.24638514  1
  Bi  Bi12  1  0.99999994  0.99999988  0.49851040  1
  Bi  Bi13  1  0.00000006  0.00000012  0.99851040  1
  H  H14  1  0.57970262  0.15940524  0.24498046  1
  H  H15  1  0.84060887  0.42031239  0.24498050  1
  H  H16  1  0.57970352  0.42031239  0.24498050  1
  H  H17  1  0.42029738  0.84059476  0.74498046  1
  H  H18  1  0.15939113  0.57968761  0.74498050  1
  H  H19  1  0.42029648  0.57968761  0.74498050  1
  Cl  Cl20  1  0.85937792  0.71875583  0.39120519  1
  Cl  Cl21  1  0.28124357  0.14061773  0.39120715  1
  Cl  Cl22  1  0.85937416  0.14061773  0.39120715  1
  Cl  Cl23  1  0.14062208  0.28124417  0.89120519  1
  Cl  Cl24  1  0.71875643  0.85938227  0.89120715  1
  Cl  Cl25  1  0.14062584  0.85938227  0.89120715  1
  Cl  Cl26  1  0.86060321  0.72120643  0.10544871  1
  Cl  Cl27  1  0.27879169  0.13939315  0.10544747  1
  Cl  Cl28  1  0.86060146  0.13939315  0.10544747  1
  Cl  Cl29  1  0.13939679  0.27879357  0.60544871  1
  Cl  Cl30  1  0.72120831  0.86060685  0.60544747  1
  Cl  Cl31  1  0.13939854  0.86060685  0.60544747  1
  Cl  Cl32  1  0.66667484  0.33334968  0.60230944  1
  Cl  Cl33  1  0.33332516  0.66665032  0.10230944  1
  Cl  Cl34  1  0.66667466  0.33334932  0.88980633  1
  Cl  Cl35  1  0.33332534  0.66665068  0.38980633  1
  F  F36  1  0.66667737  0.33335474  0.25600180  1
  F  F37  1  0.33332263  0.66664526  0.75600180  1
  F  F38  1  0.51679519  0.03359038  0.23781882  1
  F  F39  1  0.96643458  0.48321570  0.23781488  1
  F  F40  1  0.51678112  0.48321570  0.23781488  1
  F  F41  1  0.48320481  0.96640962  0.73781882  1
  F  F42  1  0.03356542  0.51678430  0.73781488  1
  F  F43  1  0.48321888  0.51678430  0.73781488  1
