# generated using pymatgen
data_Rb2YbTi(PO4)3
_symmetry_space_group_name_H-M   'P 1'
_cell_length_a   10.38589074
_cell_length_b   10.42533817
_cell_length_c   20.73047064
_cell_angle_alpha   90.01053819
_cell_angle_beta   90.00000000
_cell_angle_gamma   90.00000000
_symmetry_Int_Tables_number   1
_chemical_formula_structural   Rb2YbTi(PO4)3
_chemical_formula_sum   'Rb16 Yb8 Ti8 P24 O96'
_cell_volume   2244.62117470
_cell_formula_units_Z   8
loop_
 _symmetry_equiv_pos_site_id
 _symmetry_equiv_pos_as_xyz
  1  'x, y, z'
loop_
 _atom_site_type_symbol
 _atom_site_label
 _atom_site_symmetry_multiplicity
 _atom_site_fract_x
 _atom_site_fract_y
 _atom_site_fract_z
 _atom_site_occupancy
  Yb  Yb0  1  0.08629669  0.58426609  0.95710875  1
  Yb  Yb1  1  0.14730553  0.14026277  0.57858342  1
  Yb  Yb2  1  0.41322765  0.41681645  0.21103051  1
  Yb  Yb3  1  0.41293945  0.41846373  0.70389874  1
  Yb  Yb4  1  0.58629669  0.91573391  0.04289125  1
  Yb  Yb5  1  0.64730553  0.35973723  0.42141658  1
  Yb  Yb6  1  0.91293945  0.08153627  0.29610126  1
  Yb  Yb7  1  0.91322765  0.08318355  0.78896949  1
  Rb  Rb8  1  0.06737036  0.42038450  0.28480190  1
  Rb  Rb9  1  0.07421861  0.42475810  0.78495499  1
  Rb  Rb10  1  0.20964610  0.78951367  0.14604605  1
  Rb  Rb11  1  0.20404601  0.79199670  0.64599166  1
  Rb  Rb12  1  0.29185524  0.20544892  0.39798216  1
  Rb  Rb13  1  0.29099060  0.20942529  0.89689020  1
  Rb  Rb14  1  0.42554245  0.57503350  0.03784894  1
  Rb  Rb15  1  0.43060321  0.55900431  0.53581274  1
  Rb  Rb16  1  0.57421861  0.07524190  0.21504501  1
  Rb  Rb17  1  0.56737036  0.07961550  0.71519810  1
  Rb  Rb18  1  0.70404601  0.70800330  0.35400834  1
  Rb  Rb19  1  0.70964610  0.71048633  0.85395395  1
  Rb  Rb20  1  0.79185524  0.29455108  0.60201784  1
  Rb  Rb21  1  0.79099060  0.29057471  0.10310980  1
  Rb  Rb22  1  0.93060321  0.94099569  0.46418726  1
  Rb  Rb23  1  0.92554245  0.92496650  0.96215106  1
  Ti  Ti24  1  0.08020321  0.58958554  0.45789150  1
  Ti  Ti25  1  0.14334570  0.14427127  0.07189083  1
  Ti  Ti26  1  0.35551815  0.84966883  0.32057045  1
  Ti  Ti27  1  0.35742451  0.85700891  0.82499246  1
  Ti  Ti28  1  0.58020321  0.91041446  0.54210850  1
  Ti  Ti29  1  0.64334570  0.35572873  0.92810917  1
  Ti  Ti30  1  0.85742451  0.64299109  0.17500754  1
  Ti  Ti31  1  0.85551815  0.65033117  0.67942955  1
  P  P32  1  0.04364764  0.75629530  0.31246173  1
  P  P33  1  0.04738855  0.76349729  0.80815167  1
  P  P34  1  0.10858705  0.47133412  0.61295446  1
  P  P35  1  0.11753098  0.45414031  0.11843025  1
  P  P36  1  0.23798822  0.11138829  0.22731301  1
  P  P37  1  0.24469958  0.11166173  0.73390090  1
  P  P38  1  0.27259824  0.86677672  0.47633439  1
  P  P39  1  0.26036890  0.88514399  0.97909497  1
  P  P40  1  0.35901051  0.54765602  0.37025192  1
  P  P41  1  0.38782991  0.54549532  0.86785499  1
  P  P42  1  0.45309732  0.24006273  0.05781919  1
  P  P43  1  0.46757070  0.21730917  0.55993500  1
  P  P44  1  0.54738855  0.73650271  0.19184833  1
  P  P45  1  0.54364764  0.74370470  0.68753827  1
  P  P46  1  0.60858705  0.02866588  0.38704554  1
  P  P47  1  0.61753098  0.04585969  0.88156975  1
  P  P48  1  0.74469958  0.38833827  0.26609910  1
  P  P49  1  0.73798822  0.38861171  0.77268699  1
  P  P50  1  0.76036890  0.61485601  0.02090503  1
  P  P51  1  0.77259824  0.63322328  0.52366561  1
  P  P52  1  0.85901051  0.95234398  0.62974808  1
  P  P53  1  0.88782991  0.95450468  0.13214501  1
  P  P54  1  0.96757070  0.28269083  0.44006500  1
  P  P55  1  0.95309732  0.25993727  0.94218081  1
  O  O56  1  0.00457131  0.42925485  0.43416212  1
  O  O57  1  0.00757025  0.39178947  0.92628515  1
  O  O58  1  0.00330899  0.55567642  0.64706879  1
  O  O59  1  0.99747156  0.53041923  0.14454972  1
  O  O60  1  0.02991308  0.66823302  0.37380819  1
  O  O61  1  0.02086031  0.66718401  0.86188563  1
  O  O62  1  0.05821383  0.21692960  0.48803332  1
  O  O63  1  0.02147630  0.20471971  0.00427961  1
  O  O64  1  0.06552458  0.33137527  0.61530207  1
  O  O65  1  0.08461530  0.30649252  0.11660789  1
  O  O66  1  0.10431074  0.13756752  0.25324510  1
  O  O67  1  0.10650525  0.14578953  0.75247733  1
  O  O68  1  0.12201871  0.52002721  0.54169420  1
  O  O69  1  0.15140014  0.50385238  0.05163427  1
  O  O70  1  0.19080721  0.74146284  0.48441010  1
  O  O71  1  0.16367576  0.77766700  0.99268498  1
  O  O72  1  0.18901805  0.76411947  0.29280927  1
  O  O73  1  0.19588933  0.76751505  0.79279480  1
  O  O74  1  0.20522772  0.01076717  0.01145548  1
  O  O75  1  0.20562948  0.97199500  0.51418289  1
  O  O76  1  0.23345367  0.08545669  0.15221023  1
  O  O77  1  0.25747954  0.05865165  0.66540495  1
  O  O78  1  0.22562185  0.47920676  0.16681450  1
  O  O79  1  0.23658460  0.49533023  0.64727445  1
  O  O80  1  0.23843982  0.53206673  0.41548374  1
  O  O81  1  0.27973493  0.52056438  0.91595845  1
  O  O82  1  0.27539635  0.90483323  0.40310556  1
  O  O83  1  0.26731452  0.91090989  0.90443661  1
  O  O84  1  0.29684347  0.98841189  0.26091646  1
  O  O85  1  0.29421995  0.00308479  0.78100438  1
  O  O86  1  0.30422604  0.23316943  0.04297933  1
  O  O87  1  0.32796574  0.22849957  0.53832657  1
  O  O88  1  0.33047862  0.22224106  0.24069971  1
  O  O89  1  0.33170891  0.22864050  0.74609083  1
  O  O90  1  0.32680021  0.49382387  0.30405938  1
  O  O91  1  0.35524128  0.49216684  0.80147317  1
  O  O92  1  0.39300734  0.85439574  0.00578107  1
  O  O93  1  0.41156953  0.84258280  0.50318905  1
  O  O94  1  0.39717251  0.69297902  0.36612038  1
  O  O95  1  0.41939074  0.69363882  0.86363791  1
  O  O96  1  0.47476894  0.78790955  0.25334293  1
  O  O97  1  0.46750702  0.80825515  0.74397794  1
  O  O98  1  0.47738320  0.33506556  0.11297965  1
  O  O99  1  0.49289238  0.28178691  0.62556675  1
  O  O100  1  0.51086470  0.47670857  0.89628528  1
  O  O101  1  0.46992850  0.47697356  0.40265134  1
  O  O102  1  0.49526510  0.60374921  0.17569509  1
  O  O103  1  0.48988156  0.61240959  0.67097319  1
  O  O104  1  0.50757025  0.10821053  0.07371485  1
  O  O105  1  0.50457131  0.07074515  0.56583788  1
  O  O106  1  0.50330899  0.94432358  0.35293121  1
  O  O107  1  0.49747156  0.96958077  0.85545028  1
  O  O108  1  0.52086031  0.83281599  0.13811437  1
  O  O109  1  0.52991308  0.83176698  0.62619181  1
  O  O110  1  0.52147630  0.29528029  0.99572039  1
  O  O111  1  0.55821383  0.28307040  0.51196668  1
  O  O112  1  0.56552458  0.16862473  0.38469793  1
  O  O113  1  0.58461530  0.19350748  0.88339211  1
  O  O114  1  0.60650525  0.35421047  0.24752267  1
  O  O115  1  0.60431074  0.36243248  0.74675490  1
  O  O116  1  0.62201871  0.97997279  0.45830580  1
  O  O117  1  0.65140014  0.99614762  0.94836573  1
  O  O118  1  0.66367576  0.72233300  0.00731502  1
  O  O119  1  0.69080721  0.75853716  0.51558990  1
  O  O120  1  0.69588933  0.73248495  0.20720520  1
  O  O121  1  0.68901805  0.73588053  0.70719073  1
  O  O122  1  0.70562948  0.52800500  0.48581711  1
  O  O123  1  0.70522772  0.48923283  0.98854452  1
  O  O124  1  0.75747954  0.44134835  0.33459505  1
  O  O125  1  0.73345367  0.41454331  0.84778977  1
  O  O126  1  0.73658460  0.00466977  0.35272555  1
  O  O127  1  0.72562185  0.02079324  0.83318550  1
  O  O128  1  0.77973493  0.97943562  0.08404155  1
  O  O129  1  0.73843982  0.96793327  0.58451626  1
  O  O130  1  0.76731452  0.58909011  0.09556339  1
  O  O131  1  0.77539635  0.59516677  0.59689444  1
  O  O132  1  0.79421995  0.49691521  0.21899562  1
  O  O133  1  0.79684347  0.51158811  0.73908354  1
  O  O134  1  0.82796574  0.27150043  0.46167343  1
  O  O135  1  0.80422604  0.26683057  0.95702067  1
  O  O136  1  0.83170891  0.27135950  0.25390917  1
  O  O137  1  0.83047862  0.27775894  0.75930029  1
  O  O138  1  0.82680021  0.00617613  0.69594062  1
  O  O139  1  0.85524128  0.00783316  0.19852683  1
  O  O140  1  0.91156953  0.65741720  0.49681095  1
  O  O141  1  0.89300734  0.64560426  0.99421893  1
  O  O142  1  0.89717251  0.80702098  0.63387962  1
  O  O143  1  0.91939074  0.80636118  0.13636209  1
  O  O144  1  0.96750702  0.69174485  0.25602206  1
  O  O145  1  0.97476894  0.71209045  0.74665707  1
  O  O146  1  0.99289238  0.21821309  0.37443325  1
  O  O147  1  0.97738320  0.16493444  0.88702035  1
  O  O148  1  0.96992850  0.02302644  0.59734866  1
  O  O149  1  0.01086470  0.02329143  0.10371472  1
  O  O150  1  0.98988156  0.88759041  0.32902681  1
  O  O151  1  0.99526510  0.89625079  0.82430491  1
