# generated using pymatgen
data_ReSbH4O7
_symmetry_space_group_name_H-M   'P 1'
_cell_length_a   5.77673962
_cell_length_b   18.51661038
_cell_length_c   11.96335782
_cell_angle_alpha   90.00000000
_cell_angle_beta   90.00000000
_cell_angle_gamma   90.00000000
_symmetry_Int_Tables_number   1
_chemical_formula_structural   ReSbH4O7
_chemical_formula_sum   'Re8 Sb8 H32 O56'
_cell_volume   1279.66818761
_cell_formula_units_Z   8
loop_
 _symmetry_equiv_pos_site_id
 _symmetry_equiv_pos_as_xyz
  1  'x, y, z'
loop_
 _atom_site_type_symbol
 _atom_site_label
 _atom_site_symmetry_multiplicity
 _atom_site_fract_x
 _atom_site_fract_y
 _atom_site_fract_z
 _atom_site_occupancy
  Re  Re0  1  0.00630798  0.07996923  0.37382052  1
  Re  Re1  1  0.50630798  0.42003077  0.62617948  1
  Re  Re2  1  0.99369202  0.57996923  0.12617948  1
  Re  Re3  1  0.49369202  0.92003077  0.87382052  1
  Re  Re4  1  0.99369202  0.92003077  0.62617948  1
  Re  Re5  1  0.49369202  0.57996923  0.37382052  1
  Re  Re6  1  0.00630798  0.42003077  0.87382052  1
  Re  Re7  1  0.50630798  0.07996923  0.12617948  1
  Sb  Sb8  1  0.02511963  0.91084714  0.15750850  1
  Sb  Sb9  1  0.52511963  0.58915286  0.84249150  1
  Sb  Sb10  1  0.97488037  0.41084714  0.34249150  1
  Sb  Sb11  1  0.47488037  0.08915286  0.65750850  1
  Sb  Sb12  1  0.97488037  0.08915286  0.84249150  1
  Sb  Sb13  1  0.47488037  0.41084714  0.15750850  1
  Sb  Sb14  1  0.02511963  0.58915286  0.65750850  1
  Sb  Sb15  1  0.52511963  0.91084714  0.34249150  1
  H  H16  1  0.99059894  0.78687213  0.01066732  1
  H  H17  1  0.49059894  0.71312787  0.98933268  1
  H  H18  1  0.00940106  0.28687213  0.48933268  1
  H  H19  1  0.50940106  0.21312787  0.51066732  1
  H  H20  1  0.00940106  0.21312787  0.98933268  1
  H  H21  1  0.50940106  0.28687213  0.01066732  1
  H  H22  1  0.99059894  0.71312787  0.51066732  1
  H  H23  1  0.49059894  0.78687213  0.48933268  1
  H  H24  1  0.79840863  0.78231373  0.10900446  1
  H  H25  1  0.29840863  0.71768627  0.89099554  1
  H  H26  1  0.20159137  0.28231373  0.39099554  1
  H  H27  1  0.70159137  0.21768627  0.60900446  1
  H  H28  1  0.20159137  0.21768627  0.89099554  1
  H  H29  1  0.70159137  0.28231373  0.10900446  1
  H  H30  1  0.79840863  0.71768627  0.60900446  1
  H  H31  1  0.29840863  0.78231373  0.39099554  1
  H  H32  1  0.43007389  0.79198585  0.15399440  1
  H  H33  1  0.93007389  0.70801415  0.84600560  1
  H  H34  1  0.56992611  0.29198585  0.34600560  1
  H  H35  1  0.06992611  0.20801415  0.65399440  1
  H  H36  1  0.56992611  0.20801415  0.84600560  1
  H  H37  1  0.06992611  0.29198585  0.15399440  1
  H  H38  1  0.43007389  0.70801415  0.65399440  1
  H  H39  1  0.93007389  0.79198585  0.34600560  1
  H  H40  1  0.52572256  0.71250456  0.17890451  1
  H  H41  1  0.02572256  0.78749544  0.82109549  1
  H  H42  1  0.47427744  0.21250456  0.32109549  1
  H  H43  1  0.97427744  0.28749544  0.67890451  1
  H  H44  1  0.47427744  0.28749544  0.82109549  1
  H  H45  1  0.97427744  0.21250456  0.17890451  1
  H  H46  1  0.52572256  0.78749544  0.67890451  1
  H  H47  1  0.02572256  0.71250456  0.32109549  1
  O  O48  1  0.12636596  0.00808587  0.29371792  1
  O  O49  1  0.62636596  0.49191413  0.70628208  1
  O  O50  1  0.87363404  0.50808587  0.20628208  1
  O  O51  1  0.37363404  0.99191413  0.79371792  1
  O  O52  1  0.87363404  0.99191413  0.70628208  1
  O  O53  1  0.37363404  0.50808587  0.29371792  1
  O  O54  1  0.12636596  0.49191413  0.79371792  1
  O  O55  1  0.62636596  0.00808587  0.20628208  1
  O  O56  1  0.21729120  0.11948447  0.45881756  1
  O  O57  1  0.71729120  0.38051553  0.54118244  1
  O  O58  1  0.78270880  0.61948447  0.04118244  1
  O  O59  1  0.28270880  0.88051553  0.95881756  1
  O  O60  1  0.78270880  0.88051553  0.54118244  1
  O  O61  1  0.28270880  0.61948447  0.45881756  1
  O  O62  1  0.21729120  0.38051553  0.95881756  1
  O  O63  1  0.71729120  0.11948447  0.04118244  1
  O  O64  1  0.88563071  0.14614026  0.28730760  1
  O  O65  1  0.38563071  0.35385974  0.71269240  1
  O  O66  1  0.11436929  0.64614026  0.21269240  1
  O  O67  1  0.61436929  0.85385974  0.78730760  1
  O  O68  1  0.11436929  0.85385974  0.71269240  1
  O  O69  1  0.61436929  0.64614026  0.28730760  1
  O  O70  1  0.88563071  0.35385974  0.78730760  1
  O  O71  1  0.38563071  0.14614026  0.21269240  1
  O  O72  1  0.78561233  0.04616786  0.45941427  1
  O  O73  1  0.28561233  0.45383214  0.54058573  1
  O  O74  1  0.21438767  0.54616786  0.04058573  1
  O  O75  1  0.71438767  0.95383214  0.95941427  1
  O  O76  1  0.21438767  0.95383214  0.54058573  1
  O  O77  1  0.71438767  0.54616786  0.45941427  1
  O  O78  1  0.78561233  0.45383214  0.95941427  1
  O  O79  1  0.28561233  0.04616786  0.04058573  1
  O  O80  1  0.81858451  0.87065733  0.27931410  1
  O  O81  1  0.31858451  0.62934267  0.72068590  1
  O  O82  1  0.18141549  0.37065733  0.22068590  1
  O  O83  1  0.68141549  0.12934267  0.77931410  1
  O  O84  1  0.18141549  0.12934267  0.72068590  1
  O  O85  1  0.68141549  0.37065733  0.27931410  1
  O  O86  1  0.81858451  0.62934267  0.77931410  1
  O  O87  1  0.31858451  0.87065733  0.22068590  1
  O  O88  1  0.95945060  0.80034590  0.09052907  1
  O  O89  1  0.45945060  0.69965410  0.90947093  1
  O  O90  1  0.04054940  0.30034590  0.40947093  1
  O  O91  1  0.54054940  0.19965410  0.59052907  1
  O  O92  1  0.04054940  0.19965410  0.90947093  1
  O  O93  1  0.54054940  0.30034590  0.09052907  1
  O  O94  1  0.95945060  0.69965410  0.59052907  1
  O  O95  1  0.45945060  0.80034590  0.40947093  1
  O  O96  1  0.52573970  0.75172792  0.12280222  1
  O  O97  1  0.02573970  0.74827208  0.87719778  1
  O  O98  1  0.47426030  0.25172792  0.37719778  1
  O  O99  1  0.97426030  0.24827208  0.62280222  1
  O  O100  1  0.47426030  0.24827208  0.87719778  1
  O  O101  1  0.97426030  0.25172792  0.12280222  1
  O  O102  1  0.52573970  0.74827208  0.62280222  1
  O  O103  1  0.02573970  0.75172792  0.37719778  1
