# generated using pymatgen
data_Na4MnAl3Si3O16
_symmetry_space_group_name_H-M   'P 1'
_cell_length_a   9.26924543
_cell_length_b   9.16289355
_cell_length_c   9.21392331
_cell_angle_alpha   89.97985319
_cell_angle_beta   89.99964872
_cell_angle_gamma   90.00007499
_symmetry_Int_Tables_number   1
_chemical_formula_structural   Na4MnAl3Si3O16
_chemical_formula_sum   'Na8 Mn2 Al6 Si6 O32'
_cell_volume   782.56710606
_cell_formula_units_Z   2
loop_
 _symmetry_equiv_pos_site_id
 _symmetry_equiv_pos_as_xyz
  1  'x, y, z'
loop_
 _atom_site_type_symbol
 _atom_site_label
 _atom_site_symmetry_multiplicity
 _atom_site_fract_x
 _atom_site_fract_y
 _atom_site_fract_z
 _atom_site_occupancy
  Na  Na0  1  0.22544145  0.22692124  0.22784527  1
  Na  Na1  1  0.22544168  0.77307935  0.77215342  1
  Na  Na2  1  0.27378024  0.27504819  0.72328579  1
  Na  Na3  1  0.27377904  0.72495260  0.27671357  1
  Na  Na4  1  0.72918897  0.27141378  0.27206978  1
  Na  Na5  1  0.72918916  0.72858616  0.72792908  1
  Na  Na6  1  0.77902699  0.22321958  0.77650734  1
  Na  Na7  1  0.77902847  0.77678056  0.22349172  1
  Mn  Mn8  1  0.97021698  0.00000431  0.00001942  1
  Mn  Mn9  1  0.51932441  0.49999303  0.50000032  1
  Al  Al10  1  0.99812733  0.24935361  0.49918343  1
  Al  Al11  1  0.99812744  0.75064659  0.50081672  1
  Al  Al12  1  0.25048959  0.50000030  -0.00000052  1
  Al  Al13  1  0.49827620  0.99946881  0.74932133  1
  Al  Al14  1  0.49827666  0.00053179  0.25067861  1
  Al  Al15  1  0.75055388  0.50000003  0.00000009  1
  Si  Si16  1  0.00116333  0.50005336  0.24885687  1
  Si  Si17  1  0.00116370  0.49994736  0.75114296  1
  Si  Si18  1  0.24872546  0.00000072  0.50000035  1
  Si  Si19  1  0.50021214  0.74972006  0.00128070  1
  Si  Si20  1  0.50021227  0.25028063  0.99871952  1
  Si  Si21  1  0.74674912  0.00000017  0.49999909  1
  O  O22  1  0.03663140  0.64377174  0.34801449  1
  O  O23  1  0.03663078  0.35622830  0.65198573  1
  O  O24  1  0.14790734  0.46390979  0.15603707  1
  O  O25  1  0.14790708  0.53609066  0.84396295  1
  O  O26  1  0.15129382  0.14389224  0.46274455  1
  O  O27  1  0.15129274  0.85610709  0.53725623  1
  O  O28  1  0.34297194  0.03527437  0.64595099  1
  O  O29  1  0.34297202  0.96472454  0.35404947  1
  O  O30  1  0.35722043  0.34747653  0.96080651  1
  O  O31  1  0.35722026  0.65252260  0.03919357  1
  O  O32  1  0.41920134  0.35482582  0.50517179  1
  O  O33  1  0.41920106  0.64517666  0.49482839  1
  O  O34  1  0.46005006  0.15399832  0.14307890  1
  O  O35  1  0.46005041  0.84600157  0.85692039  1
  O  O36  1  0.53708341  0.15438061  0.85361791  1
  O  O37  1  0.53708250  0.84561881  0.14638206  1
  O  O38  1  0.61981300  0.49664400  0.35696589  1
  O  O39  1  0.61981039  0.50335646  0.64303067  1
  O  O40  1  0.64551394  0.34478377  0.03551095  1
  O  O41  1  0.64551517  0.65521635  0.96448848  1
  O  O42  1  0.64849308  0.03895361  0.35845164  1
  O  O43  1  0.64849344  0.96104559  0.64155018  1
  O  O44  1  0.84361791  0.14508874  0.53719802  1
  O  O45  1  0.84361763  0.85491091  0.46280293  1
  O  O46  1  0.86082631  0.46090293  0.85038210  1
  O  O47  1  0.86082648  0.53909773  0.14961743  1
  O  O48  1  0.86845851  0.95884576  0.86293923  1
  O  O49  1  0.86846419  0.04115111  0.13705003  1
  O  O50  1  0.96391791  0.35337634  0.34315828  1
  O  O51  1  0.96391863  0.64662367  0.65684183  1
  O  O52  1  0.07065192  0.13848201  0.95915843  1
  O  O53  1  0.07065040  0.86151916  0.04083807  1
