# generated using pymatgen
data_Sn(PCl6)4
_symmetry_space_group_name_H-M   'P 1'
_cell_length_a   14.51932900
_cell_length_b   15.10885876
_cell_length_c   15.18676356
_cell_angle_alpha   90.00000000
_cell_angle_beta   90.00000000
_cell_angle_gamma   90.00000000
_symmetry_Int_Tables_number   1
_chemical_formula_structural   Sn(PCl6)4
_chemical_formula_sum   'Sn4 P16 Cl96'
_cell_volume   3331.52778115
_cell_formula_units_Z   4
loop_
 _symmetry_equiv_pos_site_id
 _symmetry_equiv_pos_as_xyz
  1  'x, y, z'
loop_
 _atom_site_type_symbol
 _atom_site_label
 _atom_site_symmetry_multiplicity
 _atom_site_fract_x
 _atom_site_fract_y
 _atom_site_fract_z
 _atom_site_occupancy
  Sn  Sn0  1  0.00000000  0.87425873  0.74313012  1
  Sn  Sn1  1  0.50000000  0.24287170  0.37461070  1
  Sn  Sn2  1  0.50000000  0.25712830  0.87461070  1
  Sn  Sn3  1  0.00000000  0.62574127  0.24313012  1
  P  P4  1  0.00000000  0.37551292  0.75719319  1
  P  P5  1  0.25011947  0.00017044  0.99988667  1
  P  P6  1  0.25067750  0.12761022  0.62740574  1
  P  P7  1  0.25011947  0.49982956  0.49988667  1
  P  P8  1  0.24919068  0.87359410  0.37316911  1
  P  P9  1  0.25067750  0.37238978  0.12740574  1
  P  P10  1  0.24919068  0.62640590  0.87316911  1
  P  P11  1  0.50000000  0.74287799  0.12486602  1
  P  P12  1  0.50000000  0.75712201  0.62486602  1
  P  P13  1  0.74988053  0.00017044  0.99988667  1
  P  P14  1  0.74932250  0.37238978  0.12740574  1
  P  P15  1  0.75080932  0.62640590  0.87316911  1
  P  P16  1  0.74932250  0.12761022  0.62740574  1
  P  P17  1  0.75080932  0.87359410  0.37316911  1
  P  P18  1  0.74988053  0.49982956  0.49988667  1
  P  P19  1  0.00000000  0.12448708  0.25719319  1
  Cl  Cl20  1  0.00000000  0.52890078  0.11062714  1
  Cl  Cl21  1  0.00000000  0.49302913  0.34184977  1
  Cl  Cl22  1  0.00000000  0.28831823  0.64181388  1
  Cl  Cl23  1  0.00000000  0.26015195  0.84398666  1
  Cl  Cl24  1  0.00000000  0.74224162  0.64267015  1
  Cl  Cl25  1  0.00000000  0.97109922  0.61062714  1
  Cl  Cl26  1  0.00000000  0.77815627  0.87590234  1
  Cl  Cl27  1  0.14864674  0.12532768  0.25764569  1
  Cl  Cl28  1  0.14864674  0.37467232  0.75764569  1
  Cl  Cl29  1  0.16928568  0.62602258  0.24232472  1
  Cl  Cl30  1  0.16928568  0.87397742  0.74232472  1
  Cl  Cl31  1  0.17186304  0.10537426  0.99455530  1
  Cl  Cl32  1  0.17186304  0.39462574  0.49455530  1
  Cl  Cl33  1  0.17082803  0.60467172  0.50499955  1
  Cl  Cl34  1  0.17082803  0.89532828  0.00499955  1
  Cl  Cl35  1  0.16953269  0.12586111  0.73002344  1
  Cl  Cl36  1  0.16953269  0.37413889  0.23002344  1
  Cl  Cl37  1  0.16910574  0.87083592  0.26966309  1
  Cl  Cl38  1  0.16910574  0.62916408  0.76966309  1
  Cl  Cl39  1  0.17236970  0.62595854  0.97952062  1
  Cl  Cl40  1  0.17354110  0.12865007  0.52109121  1
  Cl  Cl41  1  0.17354110  0.37134993  0.02109121  1
  Cl  Cl42  1  0.17236970  0.87404146  0.47952062  1
  Cl  Cl43  1  0.32729052  0.97982044  0.37251736  1
  Cl  Cl44  1  0.32681750  0.02038523  0.62692122  1
  Cl  Cl45  1  0.32681750  0.47961477  0.12692122  1
  Cl  Cl46  1  0.32729052  0.52017956  0.87251736  1
  Cl  Cl47  1  0.33169774  0.26932906  0.12778022  1
  Cl  Cl48  1  0.33169774  0.23067094  0.62778022  1
  Cl  Cl49  1  0.32952987  0.76935377  0.37296528  1
  Cl  Cl50  1  0.32952987  0.73064623  0.87296528  1
  Cl  Cl51  1  0.32957346  0.50372712  0.39601335  1
  Cl  Cl52  1  0.32803956  0.49347133  0.60513882  1
  Cl  Cl53  1  0.32803956  0.00652867  0.10513882  1
  Cl  Cl54  1  0.32957346  0.99627288  0.89601335  1
  Cl  Cl55  1  0.33061095  0.25781075  0.87379574  1
  Cl  Cl56  1  0.35143817  0.74241696  0.12536961  1
  Cl  Cl57  1  0.33061095  0.24218925  0.37379574  1
  Cl  Cl58  1  0.35143817  0.75758304  0.62536961  1
  Cl  Cl59  1  0.50000000  0.10972522  0.47168361  1
  Cl  Cl60  1  0.50000000  0.34211398  0.50503360  1
  Cl  Cl61  1  0.50000000  0.39027478  0.97168361  1
  Cl  Cl62  1  0.50000000  0.13999079  0.24540058  1
  Cl  Cl63  1  0.50000000  0.37691241  0.27823530  1
  Cl  Cl64  1  0.50000000  0.12308759  0.77823530  1
  Cl  Cl65  1  0.50000000  0.15788602  0.00503360  1
  Cl  Cl66  1  0.50000000  0.36000921  0.74540058  1
  Cl  Cl67  1  0.50000000  0.62782615  0.03867397  1
  Cl  Cl68  1  0.50000000  0.65526726  0.23963639  1
  Cl  Cl69  1  0.50000000  0.83079488  0.00986631  1
  Cl  Cl70  1  0.50000000  0.85861672  0.21100918  1
  Cl  Cl71  1  0.50000000  0.64138328  0.71100918  1
  Cl  Cl72  1  0.50000000  0.84473274  0.73963639  1
  Cl  Cl73  1  0.50000000  0.66920512  0.50986631  1
  Cl  Cl74  1  0.50000000  0.87217385  0.53867397  1
  Cl  Cl75  1  0.66938905  0.24218925  0.37379574  1
  Cl  Cl76  1  0.64856183  0.75758304  0.62536961  1
  Cl  Cl77  1  0.66938905  0.25781075  0.87379574  1
  Cl  Cl78  1  0.64856183  0.74241696  0.12536961  1
  Cl  Cl79  1  0.67196044  0.00652867  0.10513882  1
  Cl  Cl80  1  0.67042654  0.99627288  0.89601335  1
  Cl  Cl81  1  0.67196044  0.49347133  0.60513882  1
  Cl  Cl82  1  0.67042654  0.50372712  0.39601335  1
  Cl  Cl83  1  0.66830226  0.23067094  0.62778022  1
  Cl  Cl84  1  0.66830226  0.26932906  0.12778022  1
  Cl  Cl85  1  0.67047013  0.73064623  0.87296528  1
  Cl  Cl86  1  0.67047013  0.76935377  0.37296528  1
  Cl  Cl87  1  0.67318250  0.47961477  0.12692122  1
  Cl  Cl88  1  0.67270948  0.52017956  0.87251736  1
  Cl  Cl89  1  0.67270948  0.97982044  0.37251736  1
  Cl  Cl90  1  0.67318250  0.02038523  0.62692122  1
  Cl  Cl91  1  0.82645890  0.12865007  0.52109121  1
  Cl  Cl92  1  0.82763030  0.62595854  0.97952062  1
  Cl  Cl93  1  0.82763030  0.87404146  0.47952062  1
  Cl  Cl94  1  0.82645890  0.37134993  0.02109121  1
  Cl  Cl95  1  0.83046731  0.12586111  0.73002344  1
  Cl  Cl96  1  0.83046731  0.37413889  0.23002344  1
  Cl  Cl97  1  0.83089426  0.62916408  0.76966309  1
  Cl  Cl98  1  0.83089426  0.87083592  0.26966309  1
  Cl  Cl99  1  0.82813696  0.10537426  0.99455530  1
  Cl  Cl100  1  0.82813696  0.39462574  0.49455530  1
  Cl  Cl101  1  0.82917197  0.60467172  0.50499955  1
  Cl  Cl102  1  0.82917197  0.89532828  0.00499955  1
  Cl  Cl103  1  0.85135326  0.12532768  0.25764569  1
  Cl  Cl104  1  0.85135326  0.37467232  0.75764569  1
  Cl  Cl105  1  0.83071432  0.62602258  0.24232472  1
  Cl  Cl106  1  0.83071432  0.87397742  0.74232472  1
  Cl  Cl107  1  0.00000000  0.00955407  0.17024910  1
  Cl  Cl108  1  0.00000000  0.03792045  0.37198851  1
  Cl  Cl109  1  0.00000000  0.21168177  0.14181388  1
  Cl  Cl110  1  0.00000000  0.23984805  0.34398666  1
  Cl  Cl111  1  0.00000000  0.46207955  0.87198851  1
  Cl  Cl112  1  0.00000000  0.49044593  0.67024910  1
  Cl  Cl113  1  0.00000000  0.72184373  0.37590234  1
  Cl  Cl114  1  0.00000000  0.75775838  0.14267015  1
  Cl  Cl115  1  0.00000000  0.00697087  0.84184977  1
