# generated using pymatgen
data_Ca2Al2Si(HO4)2
_symmetry_space_group_name_H-M   'P 1'
_cell_length_a   7.73260222
_cell_length_b   7.73260218
_cell_length_c   15.45665374
_cell_angle_alpha   109.63770227
_cell_angle_beta   109.63770216
_cell_angle_gamma   109.16130950
_symmetry_Int_Tables_number   1
_chemical_formula_structural   Ca2Al2Si(HO4)2
_chemical_formula_sum   'Ca8 Al8 Si4 H8 O32'
_cell_volume   711.23613608
_cell_formula_units_Z   4
loop_
 _symmetry_equiv_pos_site_id
 _symmetry_equiv_pos_as_xyz
  1  'x, y, z'
loop_
 _atom_site_type_symbol
 _atom_site_label
 _atom_site_symmetry_multiplicity
 _atom_site_fract_x
 _atom_site_fract_y
 _atom_site_fract_z
 _atom_site_occupancy
  Ca  Ca0  1  0.00043270  0.99543026  0.85696580  1
  Ca  Ca1  1  0.00320017  0.71732744  0.00137500  1
  Ca  Ca2  1  0.28650110  0.28149866  0.64303420  1
  Ca  Ca3  1  0.28149866  0.28650110  0.14303420  1
  Ca  Ca4  1  0.71732744  0.00320017  0.50137500  1
  Ca  Ca5  1  0.00045017  0.71457744  0.49862500  1
  Ca  Ca6  1  0.71457744  0.00045017  0.99862500  1
  Ca  Ca7  1  0.99543026  0.00043270  0.35696580  1
  Al  Al8  1  0.25250142  0.75311866  0.75274938  1
  Al  Al9  1  0.50164512  0.25292146  0.87695644  1
  Al  Al10  1  0.25292146  0.50164512  0.37695644  1
  Al  Al11  1  0.24761989  0.74700265  0.24725062  1
  Al  Al12  1  0.74700265  0.24761989  0.74725062  1
  Al  Al13  1  0.74773224  0.49900858  0.62304356  1
  Al  Al14  1  0.49900858  0.74773224  0.12304356  1
  Al  Al15  1  0.75311866  0.25250142  0.25274938  1
  Si  Si16  1  0.24795615  0.49792223  0.87367448  1
  Si  Si17  1  0.50060719  0.75057327  0.62632552  1
  Si  Si18  1  0.49792223  0.24795615  0.37367448  1
  Si  Si19  1  0.75057327  0.50060719  0.12632552  1
  H  H20  1  0.99970180  0.99643303  0.67613785  1
  H  H21  1  0.64742611  0.64415733  0.82386215  1
  H  H22  1  0.35627403  0.00393514  0.50201259  1
  H  H23  1  0.64415733  0.64742611  0.32386215  1
  H  H24  1  0.35224885  0.99990996  0.99798741  1
  H  H25  1  0.99990996  0.35224885  0.49798741  1
  H  H26  1  0.99643303  0.99970180  0.17613785  1
  H  H27  1  0.00393514  0.35627403  0.00201259  1
  O  O28  1  0.01060232  0.43685116  0.85845076  1
  O  O29  1  0.27676638  0.55472109  0.78376586  1
  O  O30  1  0.00116892  0.00164039  0.61460756  1
  O  O31  1  0.29370080  0.71994964  0.64154924  1
  O  O32  1  0.27879974  0.29091582  0.86174193  1
  O  O33  1  0.00370454  0.44372698  0.36510880  1
  O  O34  1  0.44621856  0.72266869  0.50797568  1
  O  O35  1  0.43685116  0.01060232  0.35845076  1
  O  O36  1  0.44372698  0.00370454  0.86510880  1
  O  O37  1  0.22650013  0.99741342  0.49847749  1
  O  O38  1  0.29071949  0.56608934  0.28365368  1
  O  O39  1  0.70923465  0.98718937  0.71623414  1
  O  O40  1  0.77195381  0.77242528  0.88539244  1
  O  O41  1  0.00164039  0.00116892  0.11460756  1
  O  O42  1  0.56608934  0.29071949  0.78365368  1
  O  O43  1  0.55531588  0.56743196  0.63825807  1
  O  O44  1  0.29091582  0.27879974  0.36174193  1
  O  O45  1  0.27348694  0.71350938  0.13489120  1
  O  O46  1  0.71350938  0.27348694  0.63489120  1
  O  O47  1  0.43026719  0.70671733  0.99202432  1
  O  O48  1  0.22954515  0.00045844  0.00152251  1
  O  O49  1  0.70671733  0.43026719  0.49202432  1
  O  O50  1  0.72341213  0.99878198  0.21634632  1
  O  O51  1  0.77242528  0.77195381  0.38539244  1
  O  O52  1  0.55472109  0.27676638  0.28376586  1
  O  O53  1  0.99878198  0.72341213  0.71634632  1
  O  O54  1  0.56743196  0.55531588  0.13825807  1
  O  O55  1  0.71994964  0.29370080  0.14154924  1
  O  O56  1  0.72266869  0.44621856  0.00797568  1
  O  O57  1  0.00045844  0.22954515  0.50152251  1
  O  O58  1  0.98718937  0.70923465  0.21623414  1
  O  O59  1  0.99741342  0.22650013  0.99847749  1
