# generated using pymatgen
data_Mo5(O4F)3
_symmetry_space_group_name_H-M   'P 1'
_cell_length_a   19.98253564
_cell_length_b   8.85595134
_cell_length_c   5.59999648
_cell_angle_alpha   50.06429772
_cell_angle_beta   44.66643866
_cell_angle_gamma   25.49489694
_symmetry_Int_Tables_number   1
_chemical_formula_structural   Mo5(O4F)3
_chemical_formula_sum   'Mo5 O12 F3'
_cell_volume   299.86010574
_cell_formula_units_Z   1
loop_
 _symmetry_equiv_pos_site_id
 _symmetry_equiv_pos_as_xyz
  1  'x, y, z'
loop_
 _atom_site_type_symbol
 _atom_site_label
 _atom_site_symmetry_multiplicity
 _atom_site_fract_x
 _atom_site_fract_y
 _atom_site_fract_z
 _atom_site_occupancy
  Mo  Mo0  1  0.00395184  0.00479437  0.03267079  1
  Mo  Mo1  1  0.19582484  0.99453663  0.04733395  1
  Mo  Mo2  1  0.40077253  0.00420954  0.95154366  1
  Mo  Mo3  1  0.59318939  -0.00004041  0.96574809  1
  Mo  Mo4  1  0.80119860  0.99669655  0.99935401  1
  O  O5  1  0.10001375  0.99923533  0.01399546  1
  O  O6  1  0.10386713  0.99837197  0.50838850  1
  O  O7  1  0.30393147  0.99647666  0.99825893  1
  O  O8  1  0.20205692  0.49757446  0.99919264  1
  O  O9  1  0.50090976  0.99283157  0.99314628  1
  O  O10  1  0.49864452  0.99661109  0.49499227  1
  O  O11  1  0.40649055  0.48165280  0.00221141  1
  O  O12  1  0.60149903  0.49612454  0.00041057  1
  O  O13  1  0.69625376  0.99518742  0.50731039  1
  O  O14  1  0.90458701  0.99971867  0.49324976  1
  O  O15  1  0.80121192  0.49614722  0.00135634  1
  O  O16  1  0.99692418  0.51018958  0.00087063  1
  F  F17  1  0.29971716  0.99702690  0.50596458  1
  F  F18  1  0.70121021  0.99575885  0.99080921  1
  F  F19  1  0.90130744  0.99942826  0.00760554  1
