# generated using pymatgen
data_BaH2(SO4)2
_symmetry_space_group_name_H-M   'P 1'
_cell_length_a   4.79107700
_cell_length_b   10.79553606
_cell_length_c   13.36699752
_cell_angle_alpha   90.00000000
_cell_angle_beta   90.00000000
_cell_angle_gamma   90.00000000
_symmetry_Int_Tables_number   1
_chemical_formula_structural   BaH2(SO4)2
_chemical_formula_sum   'Ba4 H8 S8 O32'
_cell_volume   691.37111422
_cell_formula_units_Z   4
loop_
 _symmetry_equiv_pos_site_id
 _symmetry_equiv_pos_as_xyz
  1  'x, y, z'
loop_
 _atom_site_type_symbol
 _atom_site_label
 _atom_site_symmetry_multiplicity
 _atom_site_fract_x
 _atom_site_fract_y
 _atom_site_fract_z
 _atom_site_occupancy
  Ba  Ba0  1  0.50749884  0.56260872  0.33570497  1
  Ba  Ba1  1  0.99250116  0.43739128  0.83570497  1
  Ba  Ba2  1  0.00749884  0.93739128  0.66429503  1
  Ba  Ba3  1  0.49250116  0.06260872  0.16429503  1
  H  H4  1  0.21333860  0.76035536  0.90959636  1
  H  H5  1  0.28666140  0.23964464  0.40959636  1
  H  H6  1  0.71333860  0.73964464  0.09040364  1
  H  H7  1  0.78666140  0.26035536  0.59040364  1
  H  H8  1  0.44339574  0.55368395  0.63118141  1
  H  H9  1  0.05660426  0.44631605  0.13118141  1
  H  H10  1  0.94339574  0.94631605  0.36881859  1
  H  H11  1  0.55660426  0.05368395  0.86881859  1
  S  S12  1  0.56224890  0.71545555  0.81484379  1
  S  S13  1  0.93775110  0.28454445  0.31484379  1
  S  S14  1  0.06224890  0.78454445  0.18515621  1
  S  S15  1  0.43775110  0.21545555  0.68515621  1
  S  S16  1  0.03632674  0.57879512  0.56340046  1
  S  S17  1  0.46367326  0.42120488  0.06340046  1
  S  S18  1  0.53632674  0.92120488  0.43659954  1
  S  S19  1  0.96367326  0.07879512  0.93659954  1
  O  O20  1  0.51625188  0.82447267  0.75101095  1
  O  O21  1  0.98374812  0.17552733  0.25101095  1
  O  O22  1  0.01625188  0.67552733  0.24898905  1
  O  O23  1  0.48374812  0.32447267  0.74898905  1
  O  O24  1  0.85493596  0.69832355  0.84347872  1
  O  O25  1  0.64506404  0.30167645  0.34347872  1
  O  O26  1  0.35493596  0.80167645  0.15652128  1
  O  O27  1  0.14506404  0.19832355  0.65652128  1
  O  O28  1  0.44065342  0.60108510  0.77281839  1
  O  O29  1  0.05934658  0.39891490  0.27281839  1
  O  O30  1  0.94065342  0.89891490  0.22718161  1
  O  O31  1  0.55934658  0.10108510  0.72718161  1
  O  O32  1  0.41386307  0.74125268  0.91919917  1
  O  O33  1  0.08613693  0.25874732  0.41919917  1
  O  O34  1  0.91386307  0.75874732  0.08080083  1
  O  O35  1  0.58613693  0.24125268  0.58080083  1
  O  O36  1  0.97710749  0.55860841  0.45682736  1
  O  O37  1  0.52289251  0.44139159  0.95682736  1
  O  O38  1  0.47710749  0.94139159  0.54317264  1
  O  O39  1  0.02289251  0.05860841  0.04317264  1
  O  O40  1  0.97430596  0.70427069  0.59736680  1
  O  O41  1  0.52569404  0.29572931  0.09736680  1
  O  O42  1  0.47430596  0.79572931  0.40263320  1
  O  O43  1  0.02569404  0.20427069  0.90263320  1
  O  O44  1  0.57713873  0.51631159  0.12994839  1
  O  O45  1  0.92286127  0.48368841  0.62994839  1
  O  O46  1  0.07713873  0.98368841  0.87005161  1
  O  O47  1  0.42286127  0.01631159  0.37005161  1
  O  O48  1  0.36920273  0.55982158  0.56227534  1
  O  O49  1  0.13079727  0.44017842  0.06227534  1
  O  O50  1  0.86920273  0.94017842  0.43772466  1
  O  O51  1  0.63079727  0.05982158  0.93772466  1
