# generated using pymatgen
data_H2Pb4SO8
_symmetry_space_group_name_H-M   'P 1'
_cell_length_a   6.48021129
_cell_length_b   7.59734034
_cell_length_c   10.54401173
_cell_angle_alpha   75.57558520
_cell_angle_beta   79.02198454
_cell_angle_gamma   88.15264398
_symmetry_Int_Tables_number   1
_chemical_formula_structural   H2Pb4SO8
_chemical_formula_sum   'H4 Pb8 S2 O16'
_cell_volume   493.47983315
_cell_formula_units_Z   2
loop_
 _symmetry_equiv_pos_site_id
 _symmetry_equiv_pos_as_xyz
  1  'x, y, z'
loop_
 _atom_site_type_symbol
 _atom_site_label
 _atom_site_symmetry_multiplicity
 _atom_site_fract_x
 _atom_site_fract_y
 _atom_site_fract_z
 _atom_site_occupancy
  H  H0  1  0.53803565  0.16559529  0.70034335  1
  H  H1  1  0.46196435  0.83440471  0.29965665  1
  H  H2  1  0.84876008  0.25669835  0.67737517  1
  H  H3  1  0.15123992  0.74330165  0.32262483  1
  Pb  Pb4  1  0.77270019  0.38208181  0.97464744  1
  Pb  Pb5  1  0.22729981  0.61791819  0.02535256  1
  Pb  Pb6  1  0.75888253  0.88195882  0.99468925  1
  Pb  Pb7  1  0.24111747  0.11804118  0.00531075  1
  Pb  Pb8  1  0.21690402  0.48089185  0.67957980  1
  Pb  Pb9  1  0.78309598  0.51910815  0.32042020  1
  Pb  Pb10  1  0.17931274  0.00451908  0.68052949  1
  Pb  Pb11  1  0.82068726  0.99548092  0.31947051  1
  S  S12  1  0.70197970  0.76250498  0.67433853  1
  S  S13  1  0.29802030  0.23749502  0.32566147  1
  O  O14  1  0.59948455  0.79493221  0.25954859  1
  O  O15  1  0.40051545  0.20506779  0.74045141  1
  O  O16  1  0.86235286  0.58709149  0.09326329  1
  O  O17  1  0.13764714  0.41290851  0.90673671  1
  O  O18  1  0.95225239  0.24038967  0.73589380  1
  O  O19  1  0.04774761  0.75961033  0.26410620  1
  O  O20  1  0.11540968  0.89798862  0.91239666  1
  O  O21  1  0.88459032  0.10201138  0.08760334  1
  O  O22  1  0.86459590  0.69896455  0.76163765  1
  O  O23  1  0.13540410  0.30103545  0.23836235  1
  O  O24  1  0.48755518  0.70533729  0.75686454  1
  O  O25  1  0.51244482  0.29466271  0.24313546  1
  O  O26  1  0.74335195  0.67877426  0.55927099  1
  O  O27  1  0.25664805  0.32122574  0.44072901  1
  O  O28  1  0.71600647  0.96551085  0.62821321  1
  O  O29  1  0.28399353  0.03448915  0.37178679  1
