# generated using pymatgen
data_K(WO3)9
_symmetry_space_group_name_H-M   'P 1'
_cell_length_a   7.50981265
_cell_length_b   7.50981301
_cell_length_c   46.37742760
_cell_angle_alpha   90.00000000
_cell_angle_beta   90.00000000
_cell_angle_gamma   119.99999848
_symmetry_Int_Tables_number   1
_chemical_formula_structural   K(WO3)9
_chemical_formula_sum   'K4 W36 O108'
_cell_volume   2265.14245641
_cell_formula_units_Z   4
loop_
 _symmetry_equiv_pos_site_id
 _symmetry_equiv_pos_as_xyz
  1  'x, y, z'
loop_
 _atom_site_type_symbol
 _atom_site_label
 _atom_site_symmetry_multiplicity
 _atom_site_fract_x
 _atom_site_fract_y
 _atom_site_fract_z
 _atom_site_occupancy
  K  K0  1  0.00000000  0.00000000  0.54089577  1
  K  K1  1  0.00000000  0.00000000  0.70368994  1
  K  K2  1  0.00000000  0.00000000  0.95910423  1
  K  K3  1  0.00000000  0.00000000  0.79631006  1
  W  W4  1  0.00023279  0.50923055  0.08394580  1
  W  W5  1  1.00000000  0.51082576  0.25000000  1
  W  W6  1  -0.00023279  0.50899775  0.41605420  1
  W  W7  1  0.00002763  0.50224265  0.58303971  1
  W  W8  1  1.00000000  0.49920083  0.75000000  1
  W  W9  1  -0.00002763  0.50221502  0.91696029  1
  W  W10  1  0.49076945  0.49100225  0.08394580  1
  W  W11  1  0.48917424  0.48917424  0.25000000  1
  W  W12  1  0.49100225  0.49076945  0.41605420  1
  W  W13  1  0.49775735  0.49778498  0.58303971  1
  W  W14  1  0.50079917  0.50079917  0.75000000  1
  W  W15  1  0.49778498  0.49775735  0.91696029  1
  W  W16  1  0.50409194  0.50391868  0.00060690  1
  W  W17  1  0.51050781  0.51043698  0.16697188  1
  W  W18  1  0.51043698  0.51050781  0.33302812  1
  W  W19  1  0.50391868  0.50409194  0.49939310  1
  W  W20  1  0.50094326  0.50101906  0.66634469  1
  W  W21  1  0.50101906  0.50094326  0.83365531  1
  W  W22  1  0.49608132  0.00017325  0.00060690  1
  W  W23  1  0.48956302  0.00007083  0.16697188  1
  W  W24  1  0.48949219  0.99992917  0.33302812  1
  W  W25  1  0.49590806  0.99982675  0.49939310  1
  W  W26  1  0.49898094  0.99992420  0.66634469  1
  W  W27  1  0.49905674  0.00007580  0.83365531  1
  W  W28  1  0.50899775  -0.00023279  0.08394580  1
  W  W29  1  0.51082576  0.00000000  0.25000000  1
  W  W30  1  0.50923055  0.00023279  0.41605420  1
  W  W31  1  0.50221502  -0.00002763  0.58303971  1
  W  W32  1  0.49920083  0.00000000  0.75000000  1
  W  W33  1  0.50224265  0.00002763  0.91696029  1
  W  W34  1  0.99982675  0.49590806  0.00060690  1
  W  W35  1  0.99992917  0.48949219  0.16697188  1
  W  W36  1  0.00007083  0.48956302  0.33302812  1
  W  W37  1  0.00017325  0.49608132  0.49939310  1
  W  W38  1  0.00007580  0.49905674  0.66634469  1
  W  W39  1  0.99992420  0.49898094  0.83365531  1
  O  O40  1  0.99361039  0.49669154  0.04116964  1
  O  O41  1  0.99360750  0.49656781  0.20830813  1
  O  O42  1  0.99368953  0.49767882  0.37519450  1
  O  O43  1  0.99379870  0.49739384  0.54183988  1
  O  O44  1  0.99361829  0.49621347  0.70852514  1
  O  O45  1  0.99351892  0.49652375  0.87486914  1
  O  O46  1  0.21101977  0.78766665  0.99988802  1
  O  O47  1  0.21172751  0.78495890  0.16714888  1
  O  O48  1  0.21166851  0.78500680  0.33406655  1
  O  O49  1  0.21093413  0.78776442  0.50137007  1
  O  O50  1  0.21129748  0.78831701  0.66782021  1
  O  O51  1  0.21136696  0.78824515  0.83343533  1
  O  O52  1  0.21503846  0.78817572  0.08233917  1
  O  O53  1  0.21503448  0.78840046  0.24938669  1
  O  O54  1  0.21512371  0.78813674  0.41644962  1
  O  O55  1  0.21222089  0.78860295  0.58245352  1
  O  O56  1  0.20972250  0.78938735  0.74934389  1
  O  O57  1  0.21222782  0.78859108  0.91629235  1
  O  O58  1  0.21182428  0.42686273  0.08233917  1
  O  O59  1  0.21159954  0.42663401  0.24938669  1
  O  O60  1  0.21186326  0.42698697  0.41644962  1
  O  O61  1  0.21139705  0.42361794  0.58245352  1
  O  O62  1  0.21061265  0.42033515  0.74934389  1
  O  O63  1  0.21140892  0.42363674  0.91629235  1
  O  O64  1  0.50308115  0.00638961  0.04116964  1
  O  O65  1  0.50296031  0.00639250  0.20830813  1
  O  O66  1  0.50398929  0.00631047  0.37519450  1
  O  O67  1  0.50359515  0.00620130  0.54183988  1
  O  O68  1  0.50259519  0.00638171  0.70852514  1
  O  O69  1  0.50300483  0.00648108  0.87486914  1
  O  O70  1  0.21233335  0.42335312  0.99988802  1
  O  O71  1  0.21504110  0.42676861  0.16714888  1
  O  O72  1  0.21499320  0.42666171  0.33406655  1
  O  O73  1  0.21223558  0.42316972  0.50137007  1
  O  O74  1  0.21168299  0.42298047  0.66782021  1
  O  O75  1  0.21175485  0.42312182  0.83343533  1
  O  O76  1  0.57664688  0.78898023  0.99988802  1
  O  O77  1  0.57323139  0.78827249  0.16714888  1
  O  O78  1  0.57333829  0.78833149  0.33406655  1
  O  O79  1  0.57683028  0.78906587  0.50137007  1
  O  O80  1  0.57701953  0.78870252  0.66782021  1
  O  O81  1  0.57687818  0.78863304  0.83343533  1
  O  O82  1  0.57313727  0.78496154  0.08233917  1
  O  O83  1  0.57336599  0.78496552  0.24938669  1
  O  O84  1  0.57638206  0.78777911  0.58245352  1
  O  O85  1  0.57301303  0.78487629  0.41644962  1
  O  O86  1  0.57966485  0.79027750  0.74934389  1
  O  O87  1  0.57636326  0.78777218  0.91629235  1
  O  O88  1  0.50330846  0.49691885  0.04116964  1
  O  O89  1  0.50343219  0.49703969  0.20830813  1
  O  O90  1  0.50232118  0.49601071  0.37519450  1
  O  O91  1  0.50260616  0.49640485  0.54183988  1
  O  O92  1  0.50378653  0.49740481  0.70852514  1
  O  O93  1  0.50347625  0.49699517  0.87486914  1
  O  O94  1  0.49601071  0.50232118  0.12480550  1
  O  O95  1  0.49703969  0.50343219  0.29169187  1
  O  O96  1  0.49691885  0.50330846  0.45883036  1
  O  O97  1  0.49699517  0.50347625  0.62513086  1
  O  O98  1  0.49740481  0.50378653  0.79147486  1
  O  O99  1  0.49640485  0.50260616  0.95816012  1
  O  O100  1  0.42666171  0.21499320  0.16593345  1
  O  O101  1  0.42676861  0.21504110  0.33285112  1
  O  O102  1  0.42335312  0.21233335  0.50011198  1
  O  O103  1  0.42312182  0.21175485  0.66656467  1
  O  O104  1  0.42298047  0.21168299  0.83217979  1
  O  O105  1  0.42316972  0.21223558  0.99862993  1
  O  O106  1  0.42698697  0.21186326  0.08355038  1
  O  O107  1  0.42663401  0.21159954  0.25061331  1
  O  O108  1  0.42686273  0.21182428  0.41766083  1
  O  O109  1  0.42363674  0.21140892  0.58370765  1
  O  O110  1  0.42033515  0.21061265  0.75065611  1
  O  O111  1  0.42361794  0.21139705  0.91754648  1
  O  O112  1  0.78487629  0.57301303  0.08355038  1
  O  O113  1  0.78496552  0.57336599  0.25061331  1
  O  O114  1  0.78496154  0.57313727  0.41766083  1
  O  O115  1  0.78777218  0.57636326  0.58370765  1
  O  O116  1  0.79027750  0.57966485  0.75065611  1
  O  O117  1  0.78777911  0.57638206  0.91754648  1
  O  O118  1  0.49767882  0.99368953  0.12480550  1
  O  O119  1  0.49656781  0.99360750  0.29169187  1
  O  O120  1  0.49669154  0.99361039  0.45883036  1
  O  O121  1  0.49652375  0.99351892  0.62513086  1
  O  O122  1  0.49621347  0.99361829  0.79147486  1
  O  O123  1  0.49739384  0.99379870  0.95816012  1
  O  O124  1  0.78833149  0.57333829  0.16593345  1
  O  O125  1  0.78827249  0.57323139  0.33285112  1
  O  O126  1  0.78898023  0.57664688  0.50011198  1
  O  O127  1  0.78863304  0.57687818  0.66656467  1
  O  O128  1  0.78870252  0.57701953  0.83217979  1
  O  O129  1  0.78906587  0.57683028  0.99862993  1
  O  O130  1  0.78500680  0.21166851  0.16593345  1
  O  O131  1  0.78495890  0.21172751  0.33285112  1
  O  O132  1  0.78766665  0.21101977  0.50011198  1
  O  O133  1  0.78824515  0.21136696  0.66656467  1
  O  O134  1  0.78831701  0.21129748  0.83217979  1
  O  O135  1  0.78776442  0.21093413  0.99862993  1
  O  O136  1  0.78813674  0.21512371  0.08355038  1
  O  O137  1  0.78840046  0.21503448  0.25061331  1
  O  O138  1  0.78817572  0.21503846  0.41766083  1
  O  O139  1  0.78859108  0.21222782  0.58370765  1
  O  O140  1  0.78938735  0.20972250  0.75065611  1
  O  O141  1  0.78860295  0.21222089  0.91754648  1
  O  O142  1  0.00631047  0.50398929  0.12480550  1
  O  O143  1  0.00639250  0.50296031  0.29169187  1
  O  O144  1  0.00638961  0.50308115  0.45883036  1
  O  O145  1  0.00638171  0.50259519  0.79147486  1
  O  O146  1  0.00620130  0.50359515  0.95816012  1
  O  O147  1  0.00648108  0.50300483  0.62513086  1
