# generated using pymatgen
data_Sr10P6ClO24F
_symmetry_space_group_name_H-M   'P 1'
_cell_length_a   9.93906287
_cell_length_b   19.87722448
_cell_length_c   7.30267753
_cell_angle_alpha   90.00000000
_cell_angle_beta   90.00000000
_cell_angle_gamma   120.00191448
_symmetry_Int_Tables_number   1
_chemical_formula_structural   Sr10P6ClO24F
_chemical_formula_sum   'Sr20 P12 Cl2 O48 F2'
_cell_volume   1249.41166655
_cell_formula_units_Z   2
loop_
 _symmetry_equiv_pos_site_id
 _symmetry_equiv_pos_as_xyz
  1  'x, y, z'
loop_
 _atom_site_type_symbol
 _atom_site_label
 _atom_site_symmetry_multiplicity
 _atom_site_fract_x
 _atom_site_fract_y
 _atom_site_fract_z
 _atom_site_occupancy
  Sr  Sr0  1  0.24872002  0.99645185  0.24600413  1
  Sr  Sr1  1  0.00856155  0.62450147  0.25086568  1
  Sr  Sr2  1  0.33419828  0.83311922  0.99915984  1
  Sr  Sr3  1  0.33356795  0.83280904  0.49909233  1
  Sr  Sr4  1  0.24968288  0.62006155  0.75089234  1
  Sr  Sr5  1  0.24329565  0.49589389  0.25121282  1
  Sr  Sr6  1  0.74192315  0.87370232  0.24660619  1
  Sr  Sr7  1  0.00663913  0.12941556  0.24666560  1
  Sr  Sr8  1  0.66750458  0.66638446  0.49981790  1
  Sr  Sr9  1  0.66685680  0.66609250  0.99957396  1
  Sr  Sr10  1  0.33249542  0.33361554  0.99981790  1
  Sr  Sr11  1  0.33314320  0.33390750  0.49957396  1
  Sr  Sr12  1  0.99336087  0.87058444  0.74666560  1
  Sr  Sr13  1  0.25807685  0.12629768  0.74660619  1
  Sr  Sr14  1  0.75670435  0.50410611  0.75121282  1
  Sr  Sr15  1  0.75031712  0.37993845  0.25089234  1
  Sr  Sr16  1  0.66580172  0.16688078  0.49915984  1
  Sr  Sr17  1  0.66643205  0.16719096  0.99909233  1
  Sr  Sr18  1  0.99143845  0.37549853  0.75086568  1
  Sr  Sr19  1  0.75127998  0.00354815  0.74600413  1
  P  P20  1  0.03011829  0.69867846  0.75093641  1
  P  P21  1  0.37172287  0.98348907  0.74978439  1
  P  P22  1  0.39779052  0.68361101  0.25089505  1
  P  P23  1  0.59411464  0.81313702  0.74998518  1
  P  P24  1  0.03267833  0.20317941  0.74995676  1
  P  P25  1  0.36903711  0.48511580  0.75104466  1
  P  P26  1  0.63096289  0.51488420  0.25104466  1
  P  P27  1  0.96732167  0.79682059  0.24995676  1
  P  P28  1  0.40588536  0.18686298  0.24998518  1
  P  P29  1  0.60220948  0.31638899  0.75089505  1
  P  P30  1  0.62827713  0.01651093  0.24978439  1
  P  P31  1  0.96988171  0.30132154  0.25093641  1
  Cl  Cl32  1  0.99959093  0.00002848  0.47558761  1
  Cl  Cl33  1  0.00040907  0.99997152  0.97558761  1
  O  O34  1  0.26798776  0.95498692  0.92366331  1
  O  O35  1  0.26442459  0.95735050  0.57864127  1
  O  O36  1  0.14732714  0.83310280  0.25135543  1
  O  O37  1  0.11921983  0.78965061  0.74847219  1
  O  O38  1  0.07946153  0.66990485  0.57951991  1
  O  O39  1  0.08189321  0.67205410  0.92376741  1
  O  O40  1  0.46734458  0.94050902  0.74558112  1
  O  O41  1  0.33245719  0.74048817  0.25098879  1
  O  O42  1  0.51932753  0.92657525  0.25138822  1
  O  O43  1  0.41276904  0.76509952  0.74597878  1
  O  O44  1  0.34037384  0.62996278  0.07979091  1
  O  O45  1  0.34453385  0.63100642  0.42360283  1
  O  O46  1  0.64128908  0.86511573  0.92407564  1
  O  O47  1  0.64936697  0.86685935  0.57865761  1
  O  O48  1  0.26356823  0.45916233  0.92391364  1
  O  O49  1  0.26150974  0.46023013  0.57983620  1
  O  O50  1  0.14900479  0.33394686  0.25130150  1
  O  O51  1  0.11793613  0.29382051  0.74603588  1
  O  O52  1  0.57966878  0.72995355  0.24853760  1
  O  O53  1  0.08544721  0.17562011  0.57894353  1
  O  O54  1  0.08971263  0.17957734  0.92384197  1
  O  O55  1  0.48146204  0.57477800  0.75123300  1
  O  O56  1  0.66655231  0.75932895  0.75162146  1
  O  O57  1  0.53774948  0.55909587  0.24882450  1
  O  O58  1  0.46225052  0.44090413  0.74882450  1
  O  O59  1  0.33344769  0.24067105  0.25162146  1
  O  O60  1  0.51853796  0.42522200  0.25123300  1
  O  O61  1  0.91455279  0.82437989  0.07894353  1
  O  O62  1  0.91028737  0.82042266  0.42384197  1
  O  O63  1  0.42033122  0.27004645  0.74853760  1
  O  O64  1  0.88206387  0.70617949  0.24603588  1
  O  O65  1  0.85099521  0.66605314  0.75130150  1
  O  O66  1  0.73643177  0.54083767  0.42391364  1
  O  O67  1  0.73849026  0.53976987  0.07983620  1
  O  O68  1  0.35871092  0.13488427  0.42407564  1
  O  O69  1  0.35063303  0.13314065  0.07865761  1
  O  O70  1  0.65962616  0.37003722  0.57979091  1
  O  O71  1  0.65546615  0.36899358  0.92360283  1
  O  O72  1  0.58723096  0.23490048  0.24597878  1
  O  O73  1  0.48067247  0.07342475  0.75138822  1
  O  O74  1  0.66754281  0.25951183  0.75098879  1
  O  O75  1  0.53265542  0.05949098  0.24558112  1
  O  O76  1  0.92053847  0.33009515  0.07951991  1
  O  O77  1  0.91810679  0.32794590  0.42376741  1
  O  O78  1  0.88078017  0.21034939  0.24847219  1
  O  O79  1  0.85267286  0.16689720  0.75135543  1
  O  O80  1  0.73201224  0.04501308  0.42366331  1
  O  O81  1  0.73557541  0.04264950  0.07864127  1
  F  F82  1  0.00116910  0.49993820  0.27534743  1
  F  F83  1  0.99883090  0.50006180  0.77534743  1
