# generated using pymatgen
data_H2O
_symmetry_space_group_name_H-M   'P 1'
_cell_length_a   7.60356657
_cell_length_b   7.60356684
_cell_length_c   7.14296193
_cell_angle_alpha   90.00000000
_cell_angle_beta   90.00000000
_cell_angle_gamma   119.99999886
_symmetry_Int_Tables_number   1
_chemical_formula_structural   H2O
_chemical_formula_sum   'H24 O12'
_cell_volume   357.63802908
_cell_formula_units_Z   12
loop_
 _symmetry_equiv_pos_site_id
 _symmetry_equiv_pos_as_xyz
  1  'x, y, z'
loop_
 _atom_site_type_symbol
 _atom_site_label
 _atom_site_symmetry_multiplicity
 _atom_site_fract_x
 _atom_site_fract_y
 _atom_site_fract_z
 _atom_site_occupancy
  H  H0  1  0.33082284  0.33082284  0.69642762  1
  H  H1  1  0.66917716  0.00000000  0.69642762  1
  H  H2  1  0.00000000  0.66917716  0.69642762  1
  H  H3  1  0.66917716  0.66917716  0.19642762  1
  H  H4  1  0.33082284  0.00000000  0.19642762  1
  H  H5  1  1.00000000  0.33082284  0.19642762  1
  H  H6  1  0.45234697  0.45234697  0.51064553  1
  H  H7  1  0.54765303  0.00000000  0.51064553  1
  H  H8  1  1.00000000  0.54765303  0.51064553  1
  H  H9  1  0.54765303  0.54765303  0.01064553  1
  H  H10  1  0.45234697  0.00000000  0.01064553  1
  H  H11  1  0.00000000  0.45234697  0.01064553  1
  H  H12  1  0.78617086  0.66371605  0.47884696  1
  H  H13  1  0.33628395  0.12245481  0.47884696  1
  H  H14  1  0.87754519  0.21382914  0.47884696  1
  H  H15  1  0.66371605  0.78617086  0.47884696  1
  H  H16  1  0.12245481  0.33628395  0.47884696  1
  H  H17  1  0.21382914  0.87754519  0.47884696  1
  H  H18  1  0.21382914  0.33628395  0.97884696  1
  H  H19  1  0.66371605  0.87754519  0.97884696  1
  H  H20  1  0.12245481  0.78617086  0.97884696  1
  H  H21  1  0.33628395  0.21382914  0.97884696  1
  H  H22  1  0.87754519  0.66371605  0.97884696  1
  H  H23  1  0.78617086  0.12245481  0.97884696  1
  O  O24  1  0.32664233  0.32664233  0.55565782  1
  O  O25  1  0.67335767  0.00000000  0.55565782  1
  O  O26  1  0.00000000  0.67335767  0.55565782  1
  O  O27  1  0.67335767  0.67335767  0.05565782  1
  O  O28  1  0.32664233  0.00000000  0.05565782  1
  O  O29  1  1.00000000  0.32664233  0.05565782  1
  O  O30  1  0.66060459  0.66060459  0.42957510  1
  O  O31  1  0.33939541  0.00000000  0.42957510  1
  O  O32  1  0.00000000  0.33939541  0.42957510  1
  O  O33  1  0.33939541  0.33939541  0.92957510  1
  O  O34  1  0.66060459  0.00000000  0.92957510  1
  O  O35  1  1.00000000  0.66060459  0.92957510  1
