# generated using pymatgen
data_SbH6C(NCl2)3
_symmetry_space_group_name_H-M   'P 1'
_cell_length_a   11.97727580
_cell_length_b   8.20585986
_cell_length_c   13.34304153
_cell_angle_alpha   90.00000000
_cell_angle_beta   105.76431166
_cell_angle_gamma   90.00000000
_symmetry_Int_Tables_number   1
_chemical_formula_structural   SbH6C(NCl2)3
_chemical_formula_sum   'Sb4 H24 C4 N12 Cl24'
_cell_volume   1262.08008616
_cell_formula_units_Z   4
loop_
 _symmetry_equiv_pos_site_id
 _symmetry_equiv_pos_as_xyz
  1  'x, y, z'
loop_
 _atom_site_type_symbol
 _atom_site_label
 _atom_site_symmetry_multiplicity
 _atom_site_fract_x
 _atom_site_fract_y
 _atom_site_fract_z
 _atom_site_occupancy
  Sb  Sb0  1  0.50000000  0.50000000  0.00000000  1
  Sb  Sb1  1  0.00000000  0.00000000  0.00000000  1
  Sb  Sb2  1  0.50000000  0.00000000  0.50000000  1
  Sb  Sb3  1  0.00000000  0.50000000  0.50000000  1
  H  H4  1  0.76771499  0.31127351  0.85309410  1
  H  H5  1  0.73228501  0.81127351  0.14690590  1
  H  H6  1  0.23228501  0.68872649  0.14690590  1
  H  H7  1  0.26771499  0.18872649  0.85309410  1
  H  H8  1  0.69115769  0.23573573  0.73238193  1
  H  H9  1  0.80884231  0.73573573  0.26761807  1
  H  H10  1  0.30884231  0.76426427  0.26761807  1
  H  H11  1  0.19115769  0.26426427  0.73238193  1
  H  H12  1  0.68310175  0.60961879  0.59860934  1
  H  H13  1  0.81689825  0.10961879  0.40139066  1
  H  H14  1  0.31689825  0.39038121  0.40139066  1
  H  H15  1  0.18310175  0.89038121  0.59860934  1
  H  H16  1  0.64940688  0.40380872  0.58544855  1
  H  H17  1  0.85059312  0.90380872  0.41455145  1
  H  H18  1  0.35059312  0.59619128  0.41455145  1
  H  H19  1  0.14940688  0.09619128  0.58544855  1
  H  H20  1  0.76492895  0.72152459  0.76783742  1
  H  H21  1  0.73507105  0.22152459  0.23216258  1
  H  H22  1  0.23507105  0.27847541  0.23216258  1
  H  H23  1  0.26492895  0.77847541  0.76783742  1
  H  H24  1  0.81082226  0.59327672  0.87263901  1
  H  H25  1  0.68917774  0.09327672  0.12736099  1
  H  H26  1  0.18917774  0.40672328  0.12736099  1
  H  H27  1  0.31082226  0.90672328  0.87263901  1
  C  C28  1  0.72949501  0.47957441  0.73498906  1
  C  C29  1  0.77050499  0.97957441  0.26501094  1
  C  C30  1  0.27050499  0.52042559  0.26501094  1
  C  C31  1  0.22949501  0.02042559  0.73498906  1
  N  N32  1  0.68052446  0.50013532  0.63280657  1
  N  N33  1  0.81947554  0.00013532  0.36719343  1
  N  N34  1  0.31947554  0.49986468  0.36719343  1
  N  N35  1  0.18052446  -0.00013532  0.63280657  1
  N  N36  1  0.72904484  0.33208656  0.77674582  1
  N  N37  1  0.77095516  0.83208656  0.22325418  1
  N  N38  1  0.27095516  0.66791344  0.22325418  1
  N  N39  1  0.22904484  0.16791344  0.77674582  1
  N  N40  1  0.77976187  0.60514478  0.79407088  1
  N  N41  1  0.72023813  0.10514478  0.20592912  1
  N  N42  1  0.22023813  0.39485522  0.20592912  1
  N  N43  1  0.27976187  0.89485522  0.79407088  1
  Cl  Cl44  1  0.71032311  0.50232348  0.03511969  1
  Cl  Cl45  1  0.78967689  0.00232348  0.96488031  1
  Cl  Cl46  1  0.28967689  0.49767652  0.96488031  1
  Cl  Cl47  1  0.21032311  0.99767652  0.03511969  1
  Cl  Cl48  1  0.49968291  0.20841249  0.97280546  1
  Cl  Cl49  1  0.00031709  0.70841249  0.02719454  1
  Cl  Cl50  1  0.50031709  0.79158751  0.02719454  1
  Cl  Cl51  1  0.99968291  0.29158751  0.97280546  1
  Cl  Cl52  1  0.52312936  0.45726677  0.18251297  1
  Cl  Cl53  1  0.97687064  0.95726677  0.81748703  1
  Cl  Cl54  1  0.47687064  0.54273323  0.81748703  1
  Cl  Cl55  1  0.02312936  0.04273323  0.18251297  1
  Cl  Cl56  1  0.69273701  0.98063910  0.62029675  1
  Cl  Cl57  1  0.80726299  0.48063910  0.37970325  1
  Cl  Cl58  1  0.30726299  0.01936090  0.37970325  1
  Cl  Cl59  1  0.19273701  0.51936090  0.62029675  1
  Cl  Cl60  1  0.44668892  0.19988790  0.61091035  1
  Cl  Cl61  1  0.05331108  0.69988790  0.38908965  1
  Cl  Cl62  1  0.55331108  0.80011210  0.38908965  1
  Cl  Cl63  1  0.94668892  0.30011210  0.61091035  1
  Cl  Cl64  1  0.43315773  0.78148199  0.58933070  1
  Cl  Cl65  1  0.06684227  0.28148199  0.41066930  1
  Cl  Cl66  1  0.56684227  0.21851801  0.41066930  1
  Cl  Cl67  1  0.93315773  0.71851801  0.58933070  1
