# generated using pymatgen
data_BaPHO4
_symmetry_space_group_name_H-M   'P 1'
_cell_length_a   4.63737806
_cell_length_b   14.37609375
_cell_length_c   17.48109261
_cell_angle_alpha   90.00000000
_cell_angle_beta   90.00000000
_cell_angle_gamma   90.00000000
_symmetry_Int_Tables_number   1
_chemical_formula_structural   BaPHO4
_chemical_formula_sum   'Ba12 P12 H12 O48'
_cell_volume   1165.41867435
_cell_formula_units_Z   12
loop_
 _symmetry_equiv_pos_site_id
 _symmetry_equiv_pos_as_xyz
  1  'x, y, z'
loop_
 _atom_site_type_symbol
 _atom_site_label
 _atom_site_symmetry_multiplicity
 _atom_site_fract_x
 _atom_site_fract_y
 _atom_site_fract_z
 _atom_site_occupancy
  Ba  Ba0  1  0.35968560  0.39785287  0.25000000  1
  Ba  Ba1  1  0.14031440  0.89785287  0.25000000  1
  Ba  Ba2  1  0.64031440  0.60214713  0.75000000  1
  Ba  Ba3  1  0.85968560  0.10214713  0.75000000  1
  Ba  Ba4  1  0.80013228  0.60276672  0.41367973  1
  Ba  Ba5  1  0.69986772  0.10276672  0.08632027  1
  Ba  Ba6  1  0.19986772  0.39723328  0.91367973  1
  Ba  Ba7  1  0.30013228  0.89723328  0.58632027  1
  Ba  Ba8  1  0.19986772  0.39723328  0.58632027  1
  Ba  Ba9  1  0.30013228  0.89723328  0.91367973  1
  Ba  Ba10  1  0.80013228  0.60276672  0.08632027  1
  Ba  Ba11  1  0.69986772  0.10276672  0.41367973  1
  P  P12  1  0.25537503  0.13316503  0.25000000  1
  P  P13  1  0.24462497  0.63316503  0.25000000  1
  P  P14  1  0.74462497  0.86683497  0.75000000  1
  P  P15  1  0.75537503  0.36683497  0.75000000  1
  P  P16  1  0.77105591  0.35913270  0.41702880  1
  P  P17  1  0.72894409  0.85913270  0.08297120  1
  P  P18  1  0.22894409  0.64086730  0.91702880  1
  P  P19  1  0.27105591  0.14086730  0.58297120  1
  P  P20  1  0.22894409  0.64086730  0.58297120  1
  P  P21  1  0.27105591  0.14086730  0.91702880  1
  P  P22  1  0.77105591  0.35913270  0.08297120  1
  P  P23  1  0.72894409  0.85913270  0.41702880  1
  H  H24  1  0.22234576  0.29324984  0.42134706  1
  H  H25  1  0.27765424  0.79324984  0.07865294  1
  H  H26  1  0.77765424  0.70675016  0.92134706  1
  H  H27  1  0.72234576  0.20675016  0.57865294  1
  H  H28  1  0.77765424  0.70675016  0.57865294  1
  H  H29  1  0.72234576  0.20675016  0.92134706  1
  H  H30  1  0.22234576  0.29324984  0.07865294  1
  H  H31  1  0.27765424  0.79324984  0.42134706  1
  H  H32  1  0.85952921  0.21329514  0.25000000  1
  H  H33  1  0.64047079  0.71329514  0.25000000  1
  H  H34  1  0.14047079  0.78670486  0.75000000  1
  H  H35  1  0.35952921  0.28670486  0.75000000  1
  O  O36  1  0.87706501  0.41759288  0.34847376  1
  O  O37  1  0.62293499  0.91759288  0.15152624  1
  O  O38  1  0.12293499  0.58240712  0.84847376  1
  O  O39  1  0.37706501  0.08240712  0.65152624  1
  O  O40  1  0.12293499  0.58240712  0.65152624  1
  O  O41  1  0.37706501  0.08240712  0.84847376  1
  O  O42  1  0.87706501  0.41759288  0.15152624  1
  O  O43  1  0.62293499  0.91759288  0.34847376  1
  O  O44  1  0.17742452  0.07803751  0.32276492  1
  O  O45  1  0.32257548  0.57803751  0.17723508  1
  O  O46  1  0.82257548  0.92196249  0.82276492  1
  O  O47  1  0.67742452  0.42196249  0.67723508  1
  O  O48  1  0.82257548  0.92196249  0.67723508  1
  O  O49  1  0.67742452  0.42196249  0.82276492  1
  O  O50  1  0.17742452  0.07803751  0.17723508  1
  O  O51  1  0.32257548  0.57803751  0.32276492  1
  O  O52  1  0.71213660  0.42094292  0.48706592  1
  O  O53  1  0.78786340  0.92094292  0.01293408  1
  O  O54  1  0.28786340  0.57905708  0.98706592  1
  O  O55  1  0.21213660  0.07905708  0.51293408  1
  O  O56  1  0.28786340  0.57905708  0.51293408  1
  O  O57  1  0.21213660  0.07905708  0.98706592  1
  O  O58  1  0.71213660  0.42094292  0.01293408  1
  O  O59  1  0.78786340  0.92094292  0.48706592  1
  O  O60  1  0.51110164  0.29872641  0.39169735  1
  O  O61  1  0.98889836  0.79872641  0.10830265  1
  O  O62  1  0.48889836  0.70127359  0.89169735  1
  O  O63  1  0.01110164  0.20127359  0.60830265  1
  O  O64  1  0.48889836  0.70127359  0.60830265  1
  O  O65  1  0.01110164  0.20127359  0.89169735  1
  O  O66  1  0.51110164  0.29872641  0.10830265  1
  O  O67  1  0.98889836  0.79872641  0.39169735  1
  O  O68  1  0.01242428  0.28525253  0.44293009  1
  O  O69  1  0.48757572  0.78525253  0.05706991  1
  O  O70  1  0.98757572  0.71474747  0.94293009  1
  O  O71  1  0.51242428  0.21474747  0.55706991  1
  O  O72  1  0.98757572  0.71474747  0.55706991  1
  O  O73  1  0.51242428  0.21474747  0.94293009  1
  O  O74  1  0.01242428  0.28525253  0.05706991  1
  O  O75  1  0.48757572  0.78525253  0.44293009  1
  O  O76  1  0.57323575  0.16152701  0.25000000  1
  O  O77  1  0.92676425  0.66152701  0.25000000  1
  O  O78  1  0.42676425  0.83847299  0.75000000  1
  O  O79  1  0.07323575  0.33847299  0.75000000  1
  O  O80  1  0.07389174  0.22898151  0.25000000  1
  O  O81  1  0.42610826  0.72898151  0.25000000  1
  O  O82  1  0.92610826  0.77101849  0.75000000  1
  O  O83  1  0.57389174  0.27101849  0.75000000  1
