# generated using pymatgen
data_CrH17N4Cl2O3
_symmetry_space_group_name_H-M   'P 1'
_cell_length_a   10.81935022
_cell_length_b   10.20360933
_cell_length_c   9.52033852
_cell_angle_alpha   90.00000000
_cell_angle_beta   98.53825736
_cell_angle_gamma   90.00000000
_symmetry_Int_Tables_number   1
_chemical_formula_structural   CrH17N4Cl2O3
_chemical_formula_sum   'Cr4 H68 N16 Cl8 O12'
_cell_volume   1039.36290344
_cell_formula_units_Z   4
loop_
 _symmetry_equiv_pos_site_id
 _symmetry_equiv_pos_as_xyz
  1  'x, y, z'
loop_
 _atom_site_type_symbol
 _atom_site_label
 _atom_site_symmetry_multiplicity
 _atom_site_fract_x
 _atom_site_fract_y
 _atom_site_fract_z
 _atom_site_occupancy
  Cr  Cr0  1  0.61947070  0.57040966  0.47168141  1
  Cr  Cr1  1  0.11947070  0.92959034  0.97168141  1
  Cr  Cr2  1  0.38052930  0.42959034  0.52831859  1
  Cr  Cr3  1  0.88052930  0.07040966  0.02831859  1
  H  H4  1  0.39806294  0.61278052  0.33898084  1
  H  H5  1  0.89806294  0.88721948  0.83898084  1
  H  H6  1  0.60193706  0.38721948  0.66101916  1
  H  H7  1  0.10193706  0.11278052  0.16101916  1
  H  H8  1  0.56361903  0.79856616  0.35003180  1
  H  H9  1  0.06361903  0.70143384  0.85003180  1
  H  H10  1  0.43638097  0.20143384  0.64996820  1
  H  H11  1  0.93638097  0.29856616  0.14996820  1
  H  H12  1  0.71269030  0.80404888  0.42736261  1
  H  H13  1  0.21269030  0.69595112  0.92736261  1
  H  H14  1  0.28730970  0.19595112  0.57263739  1
  H  H15  1  0.78730970  0.30404888  0.07263739  1
  H  H16  1  0.67511522  0.73651237  0.26832317  1
  H  H17  1  0.17511522  0.76348763  0.76832317  1
  H  H18  1  0.32488478  0.26348763  0.73167683  1
  H  H19  1  0.82488478  0.23651237  0.23167683  1
  H  H20  1  0.86123090  0.57668645  0.44589534  1
  H  H21  1  0.36123090  0.92331355  0.94589534  1
  H  H22  1  0.13876910  0.42331355  0.55410466  1
  H  H23  1  0.63876910  0.07668645  0.05410466  1
  H  H24  1  0.84780680  0.57068547  0.61816090  1
  H  H25  1  0.34780680  0.92931453  0.11816090  1
  H  H26  1  0.15219320  0.42931453  0.38183910  1
  H  H27  1  0.65219320  0.07068547  0.88183910  1
  H  H28  1  0.83140305  0.43545865  0.51906714  1
  H  H29  1  0.33140305  0.06454135  0.01906714  1
  H  H30  1  0.16859695  0.56454135  0.48093286  1
  H  H31  1  0.66859695  0.93545865  0.98093286  1
  H  H32  1  0.65416368  0.61852590  0.74837623  1
  H  H33  1  0.15416368  0.88147410  0.24837623  1
  H  H34  1  0.34583632  0.38147410  0.25162377  1
  H  H35  1  0.84583632  0.11852590  0.75162377  1
  H  H36  1  0.71287398  0.74217492  0.66653457  1
  H  H37  1  0.21287398  0.75782508  0.16653457  1
  H  H38  1  0.28712602  0.25782508  0.33346543  1
  H  H39  1  0.78712602  0.24217492  0.83346543  1
  H  H40  1  0.56043589  0.73559810  0.67063131  1
  H  H41  1  0.06043589  0.76440190  0.17063131  1
  H  H42  1  0.43956411  0.26440190  0.32936869  1
  H  H43  1  0.93956411  0.23559810  0.82936869  1
  H  H44  1  0.54659528  0.48622982  0.21175800  1
  H  H45  1  0.04659528  0.01377018  0.71175800  1
  H  H46  1  0.45340472  0.51377018  0.78824200  1
  H  H47  1  0.95340472  0.98622982  0.28824200  1
  H  H48  1  0.70113594  0.49083127  0.23817449  1
  H  H49  1  0.20113594  0.00916873  0.73817449  1
  H  H50  1  0.29886406  0.50916873  0.76182551  1
  H  H51  1  0.79886406  0.99083127  0.26182551  1
  H  H52  1  0.62792349  0.36472506  0.30133755  1
  H  H53  1  0.12792349  0.13527494  0.80133755  1
  H  H54  1  0.37207651  0.63527494  0.69866245  1
  H  H55  1  0.87207651  0.86472506  0.19866245  1
  H  H56  1  0.46557891  0.98796072  0.33842271  1
  H  H57  1  0.96557891  0.51203928  0.83842271  1
  H  H58  1  0.53442109  0.01203928  0.66157729  1
  H  H59  1  0.03442109  0.48796072  0.16157729  1
  H  H60  1  0.39258075  0.89919859  0.43363402  1
  H  H61  1  0.89258075  0.60080141  0.93363402  1
  H  H62  1  0.60741925  0.10080141  0.56636598  1
  H  H63  1  0.10741925  0.39919859  0.06636598  1
  H  H64  1  0.53925978  0.71061502  0.02247771  1
  H  H65  1  0.03925978  0.78938498  0.52247771  1
  H  H66  1  0.46074022  0.28938498  0.97752229  1
  H  H67  1  0.96074022  0.21061502  0.47752229  1
  H  H68  1  0.68260924  0.68517196  0.02799770  1
  H  H69  1  0.18260924  0.81482804  0.52799770  1
  H  H70  1  0.31739076  0.31482804  0.97200230  1
  H  H71  1  0.81739076  0.18517196  0.47200230  1
  N  N72  1  0.64684414  0.74692661  0.36585780  1
  N  N73  1  0.14684414  0.75307339  0.86585780  1
  N  N74  1  0.35315586  0.25307339  0.63414220  1
  N  N75  1  0.85315586  0.24692661  0.13414220  1
  N  N76  1  0.81297398  0.53472462  0.51951129  1
  N  N77  1  0.31297398  0.96527538  0.01951129  1
  N  N78  1  0.18702602  0.46527538  0.48048871  1
  N  N79  1  0.68702602  0.03472462  0.98048871  1
  N  N80  1  0.63802336  0.67905541  0.66178897  1
  N  N81  1  0.13802336  0.82094459  0.16178897  1
  N  N82  1  0.36197664  0.32094459  0.33821103  1
  N  N83  1  0.86197664  0.17905541  0.83821103  1
  N  N84  1  0.62447857  0.46468018  0.28383270  1
  N  N85  1  0.12447857  0.03531982  0.78383270  1
  N  N86  1  0.37552143  0.53531982  0.71616730  1
  N  N87  1  0.87552143  0.96468018  0.21616730  1
  Cl  Cl88  1  0.36765836  0.60266821  0.09727146  1
  Cl  Cl89  1  0.86765836  0.89733179  0.59727146  1
  Cl  Cl90  1  0.63234164  0.39733179  0.90272854  1
  Cl  Cl91  1  0.13234164  0.10266821  0.40272854  1
  Cl  Cl92  1  0.88095203  0.62429062  0.18047287  1
  Cl  Cl93  1  0.38095203  0.87570938  0.68047287  1
  Cl  Cl94  1  0.11904797  0.37570938  0.81952713  1
  Cl  Cl95  1  0.61904797  0.12429062  0.31952713  1
  O  O96  1  0.43296009  0.59389334  0.43845787  1
  O  O97  1  0.93296009  0.90610666  0.93845787  1
  O  O98  1  0.56703991  0.40610666  0.56154213  1
  O  O99  1  0.06703991  0.09389334  0.06154213  1
  O  O100  1  0.41130725  0.90953197  0.33625605  1
  O  O101  1  0.91130725  0.59046803  0.83625605  1
  O  O102  1  0.58869275  0.09046803  0.66374395  1
  O  O103  1  0.08869275  0.40953197  0.16374395  1
  O  O104  1  0.61898115  0.75422974  0.01300186  1
  O  O105  1  0.11898115  0.74577026  0.51300186  1
  O  O106  1  0.38101885  0.24577026  0.98699814  1
  O  O107  1  0.88101885  0.25422974  0.48699814  1
