# generated using pymatgen
data_Tl2Sn2S5
_symmetry_space_group_name_H-M   'P 1'
_cell_length_a   6.93455869
_cell_length_b   6.93455869
_cell_length_c   11.63268500
_cell_angle_alpha   75.08568216
_cell_angle_beta   75.08568217
_cell_angle_gamma   70.20915814
_symmetry_Int_Tables_number   1
_chemical_formula_structural   Tl2Sn2S5
_chemical_formula_sum   'Tl4 Sn4 S10'
_cell_volume   499.62744044
_cell_formula_units_Z   2
loop_
 _symmetry_equiv_pos_site_id
 _symmetry_equiv_pos_as_xyz
  1  'x, y, z'
loop_
 _atom_site_type_symbol
 _atom_site_label
 _atom_site_symmetry_multiplicity
 _atom_site_fract_x
 _atom_site_fract_y
 _atom_site_fract_z
 _atom_site_occupancy
  S  S0  1  0.68506112  0.31493888  0.75000000  1
  S  S1  1  0.31493888  0.68506112  0.25000000  1
  S  S2  1  0.87486242  0.14845226  0.38535875  1
  S  S3  1  0.85154774  0.12513758  0.11464125  1
  S  S4  1  0.12513758  0.85154774  0.61464125  1
  S  S5  1  0.14845226  0.87486242  0.88535875  1
  S  S6  1  0.24907260  0.35864225  0.53780247  1
  S  S7  1  0.64135775  0.75092740  0.96219753  1
  S  S8  1  0.35864225  0.24907260  0.03780247  1
  S  S9  1  0.75092740  0.64135775  0.46219753  1
  Sn  Sn10  1  0.05995774  0.75091090  0.44204410  1
  Sn  Sn11  1  0.24908910  0.94004226  0.05795590  1
  Sn  Sn12  1  0.94004226  0.24908910  0.55795590  1
  Sn  Sn13  1  0.75091090  0.05995774  0.94204410  1
  Tl  Tl14  1  0.89643492  0.53900840  0.18283946  1
  Tl  Tl15  1  0.46099160  0.10356508  0.31716054  1
  Tl  Tl16  1  0.10356508  0.46099160  0.81716054  1
  Tl  Tl17  1  0.53900840  0.89643492  0.68283946  1
