# generated using pymatgen
data_RhF3
_symmetry_space_group_name_H-M   'P 1'
_cell_length_a   5.01440294
_cell_length_b   5.01440260
_cell_length_c   7.31985593
_cell_angle_alpha   90.00000000
_cell_angle_beta   90.00000000
_cell_angle_gamma   119.99999415
_symmetry_Int_Tables_number   1
_chemical_formula_structural   RhF3
_chemical_formula_sum   'Rh3 F9'
_cell_volume   159.39387168
_cell_formula_units_Z   3
loop_
 _symmetry_equiv_pos_site_id
 _symmetry_equiv_pos_as_xyz
  1  'x, y, z'
loop_
 _atom_site_type_symbol
 _atom_site_label
 _atom_site_symmetry_multiplicity
 _atom_site_fract_x
 _atom_site_fract_y
 _atom_site_fract_z
 _atom_site_occupancy
  Rh  Rh0  1  0.66666700  0.33333300  0.33943162  1
  Rh  Rh1  1  0.33333300  0.66666700  0.66056838  1
  Rh  Rh2  1  -0.00000000  -0.00000000  -0.00000000  1
  F  F3  1  0.66617202  0.96424045  0.82182539  1
  F  F4  1  0.03575955  0.70193158  0.82182539  1
  F  F5  1  0.29806842  0.33382798  0.82182539  1
  F  F6  1  0.65311272  0.65311272  0.50000000  1
  F  F7  1  0.34688728  1.00000000  0.50000000  1
  F  F8  1  1.00000000  0.34688728  0.50000000  1
  F  F9  1  0.96424045  0.66617202  0.17817461  1
  F  F10  1  0.33382798  0.29806842  0.17817461  1
  F  F11  1  0.70193158  0.03575955  0.17817461  1
