# generated using pymatgen
data_La2Se2O
_symmetry_space_group_name_H-M   'P 1'
_cell_length_a   16.70880754
_cell_length_b   4.17871618
_cell_length_c   7.38593407
_cell_angle_alpha   90.00000000
_cell_angle_beta   90.00000000
_cell_angle_gamma   90.00000000
_symmetry_Int_Tables_number   1
_chemical_formula_structural   La2Se2O
_chemical_formula_sum   'La8 Se8 O4'
_cell_volume   515.69599425
_cell_formula_units_Z   4
loop_
 _symmetry_equiv_pos_site_id
 _symmetry_equiv_pos_as_xyz
  1  'x, y, z'
loop_
 _atom_site_type_symbol
 _atom_site_label
 _atom_site_symmetry_multiplicity
 _atom_site_fract_x
 _atom_site_fract_y
 _atom_site_fract_z
 _atom_site_occupancy
  La  La0  1  0.03834275  0.25000000  0.69960782  1
  La  La1  1  0.16451781  0.25000000  0.25846636  1
  La  La2  1  0.33548219  0.75000000  0.75846636  1
  La  La3  1  0.46165725  0.75000000  0.19960782  1
  La  La4  1  0.53834275  0.25000000  0.80039218  1
  La  La5  1  0.66451781  0.25000000  0.24153364  1
  La  La6  1  0.83548219  0.75000000  0.74153364  1
  La  La7  1  0.96165725  0.75000000  0.30039218  1
  Se  Se8  1  0.10092360  0.75000000  0.01040482  1
  Se  Se9  1  0.17645793  0.75000000  0.54924265  1
  Se  Se10  1  0.32354207  0.25000000  0.04924265  1
  Se  Se11  1  0.39907640  0.25000000  0.51040482  1
  Se  Se12  1  0.60092360  0.75000000  0.48959518  1
  Se  Se13  1  0.67645793  0.75000000  0.95075735  1
  Se  Se14  1  0.82354207  0.25000000  0.45075735  1
  Se  Se15  1  0.89907640  0.25000000  0.98959518  1
  O  O16  1  0.03203419  0.25000000  0.37185726  1
  O  O17  1  0.46796581  0.75000000  0.87185726  1
  O  O18  1  0.53203419  0.25000000  0.12814274  1
  O  O19  1  0.96796581  0.75000000  0.62814274  1
