# generated using pymatgen
data_Rb4LiH3(SO4)4
_symmetry_space_group_name_H-M   'P 1'
_cell_length_a   7.74802788
_cell_length_b   7.74802788
_cell_length_c   30.00459738
_cell_angle_alpha   90.00000000
_cell_angle_beta   90.00000000
_cell_angle_gamma   90.00000000
_symmetry_Int_Tables_number   1
_chemical_formula_structural   Rb4LiH3(SO4)4
_chemical_formula_sum   'Rb16 Li4 H12 S16 O64'
_cell_volume   1801.23407050
_cell_formula_units_Z   4
loop_
 _symmetry_equiv_pos_site_id
 _symmetry_equiv_pos_as_xyz
  1  'x, y, z'
loop_
 _atom_site_type_symbol
 _atom_site_label
 _atom_site_symmetry_multiplicity
 _atom_site_fract_x
 _atom_site_fract_y
 _atom_site_fract_z
 _atom_site_occupancy
  Rb  Rb0  1  0.93464163  0.11442125  0.47482094  1
  Rb  Rb1  1  0.06535837  0.88557875  0.97482094  1
  Rb  Rb2  1  0.11442125  0.06535837  0.72482094  1
  Rb  Rb3  1  0.88557875  0.93464163  0.22482094  1
  Rb  Rb4  1  0.51852730  0.22708727  0.37000289  1
  Rb  Rb5  1  0.48147270  0.77291273  0.87000289  1
  Rb  Rb6  1  0.22708727  0.48147270  0.62000289  1
  Rb  Rb7  1  0.77291273  0.51852730  0.12000289  1
  Rb  Rb8  1  0.63579645  0.61799935  0.48805455  1
  Rb  Rb9  1  0.36420355  0.38200065  0.98805455  1
  Rb  Rb10  1  0.61799935  0.36420355  0.73805455  1
  Rb  Rb11  1  0.38200065  0.63579645  0.23805455  1
  Rb  Rb12  1  0.02385210  0.52860273  0.35959266  1
  Rb  Rb13  1  0.97614790  0.47139727  0.85959266  1
  Rb  Rb14  1  0.52860273  0.97614790  0.60959266  1
  Rb  Rb15  1  0.47139727  0.02385210  0.10959266  1
  Li  Li16  1  0.27923664  0.87141863  0.42245380  1
  Li  Li17  1  0.72076336  0.12858137  0.92245380  1
  Li  Li18  1  0.87141863  0.72076336  0.67245380  1
  Li  Li19  1  0.12858137  0.27923664  0.17245380  1
  H  H20  1  0.07224058  0.78388340  0.53887167  1
  H  H21  1  0.92775942  0.21611660  0.03887167  1
  H  H22  1  0.78388340  0.92775942  0.78887167  1
  H  H23  1  0.21611660  0.07224058  0.28887167  1
  H  H24  1  0.31280989  0.31812862  0.52391490  1
  H  H25  1  0.68719011  0.68187138  0.02391490  1
  H  H26  1  0.31812862  0.68719011  0.77391490  1
  H  H27  1  0.68187138  0.31280989  0.27391490  1
  H  H28  1  0.73227222  0.84628198  0.32338873  1
  H  H29  1  0.26772778  0.15371802  0.82338873  1
  H  H30  1  0.84628198  0.26772778  0.57338873  1
  H  H31  1  0.15371802  0.73227222  0.07338873  1
  S  S32  1  0.12604528  0.58624945  0.48553836  1
  S  S33  1  0.87395472  0.41375055  0.98553836  1
  S  S34  1  0.58624945  0.87395472  0.73553836  1
  S  S35  1  0.41375055  0.12604528  0.23553836  1
  S  S36  1  0.46341999  0.12492049  0.48832792  1
  S  S37  1  0.53658001  0.87507951  0.98832792  1
  S  S38  1  0.12492049  0.53658001  0.73832792  1
  S  S39  1  0.87507951  0.46341999  0.23832792  1
  S  S40  1  0.53721229  0.69551229  0.36026917  1
  S  S41  1  0.46278771  0.30448771  0.86026917  1
  S  S42  1  0.69551229  0.46278771  0.61026917  1
  S  S43  1  0.30448771  0.53721229  0.11026917  1
  S  S44  1  0.00660305  0.03649751  0.35622802  1
  S  S45  1  0.99339695  0.96350249  0.85622802  1
  S  S46  1  0.03649751  0.99339695  0.60622802  1
  S  S47  1  0.96350249  0.00660305  0.10622802  1
  O  O48  1  0.25905491  0.65271152  0.45488876  1
  O  O49  1  0.74094509  0.34728848  0.95488876  1
  O  O50  1  0.65271152  0.74094509  0.70488876  1
  O  O51  1  0.34728848  0.25905491  0.20488876  1
  O  O52  1  0.02768474  0.74546165  0.50681327  1
  O  O53  1  0.97231526  0.25453835  0.00681327  1
  O  O54  1  0.74546165  0.97231526  0.75681327  1
  O  O55  1  0.25453835  0.02768474  0.25681327  1
  O  O56  1  0.20476201  0.49368669  0.52362216  1
  O  O57  1  0.79523799  0.50631331  0.02362216  1
  O  O58  1  0.49368669  0.79523799  0.77362216  1
  O  O59  1  0.50631331  0.20476201  0.27362216  1
  O  O60  1  0.99377156  0.48767520  0.46207408  1
  O  O61  1  0.00622844  0.51232480  0.96207408  1
  O  O62  1  0.48767520  0.00622844  0.71207408  1
  O  O63  1  0.51232480  0.99377156  0.21207408  1
  O  O64  1  0.55882671  0.97708327  0.50597438  1
  O  O65  1  0.44117329  0.02291673  0.00597438  1
  O  O66  1  0.97708327  0.44117329  0.75597438  1
  O  O67  1  0.02291673  0.55882671  0.25597438  1
  O  O68  1  0.57426547  0.25571535  0.46747177  1
  O  O69  1  0.42573453  0.74428465  0.96747177  1
  O  O70  1  0.25571535  0.42573453  0.71747177  1
  O  O71  1  0.74428465  0.57426547  0.21747177  1
  O  O72  1  0.37891859  0.20854001  0.53148903  1
  O  O73  1  0.62108141  0.79145999  0.03148903  1
  O  O74  1  0.20854001  0.62108141  0.78148903  1
  O  O75  1  0.79145999  0.37891859  0.28148903  1
  O  O76  1  0.31845926  0.07713019  0.45875156  1
  O  O77  1  0.68154074  0.92286981  0.95875156  1
  O  O78  1  0.07713019  0.68154074  0.70875156  1
  O  O79  1  0.92286981  0.31845926  0.20875156  1
  O  O80  1  0.89331852  0.16641177  0.37733395  1
  O  O81  1  0.10668148  0.83358823  0.87733395  1
  O  O82  1  0.16641177  0.10668148  0.62733395  1
  O  O83  1  0.83358823  0.89331852  0.12733395  1
  O  O84  1  0.07077009  0.91355823  0.39071967  1
  O  O85  1  0.92922991  0.08644177  0.89071967  1
  O  O86  1  0.91355823  0.92922991  0.64071967  1
  O  O87  1  0.08644177  0.07077009  0.14071967  1
  O  O88  1  0.91166227  0.93685390  0.32110751  1
  O  O89  1  0.08833773  0.06314610  0.82110751  1
  O  O90  1  0.93685390  0.08833773  0.57110751  1
  O  O91  1  0.06314610  0.91166227  0.07110751  1
  O  O92  1  0.15760690  0.12635652  0.33405149  1
  O  O93  1  0.84239310  0.87364348  0.83405149  1
  O  O94  1  0.12635652  0.84239310  0.58405149  1
  O  O95  1  0.87364348  0.15760690  0.08405149  1
  O  O96  1  0.48700789  0.84567795  0.38762408  1
  O  O97  1  0.51299211  0.15432205  0.88762408  1
  O  O98  1  0.84567795  0.51299211  0.63762408  1
  O  O99  1  0.15432205  0.48700789  0.13762408  1
  O  O100  1  0.39110462  0.59604745  0.34274022  1
  O  O101  1  0.60889538  0.40395255  0.84274022  1
  O  O102  1  0.59604745  0.60889538  0.59274022  1
  O  O103  1  0.40395255  0.39110462  0.09274022  1
  O  O104  1  0.62390465  0.77311597  0.31665949  1
  O  O105  1  0.37609535  0.22688403  0.81665949  1
  O  O106  1  0.77311597  0.37609535  0.56665949  1
  O  O107  1  0.22688403  0.62390465  0.06665949  1
  O  O108  1  0.66424295  0.58703320  0.38351498  1
  O  O109  1  0.33575705  0.41296680  0.88351498  1
  O  O110  1  0.58703320  0.33575705  0.63351498  1
  O  O111  1  0.41296680  0.66424295  0.13351498  1
