# generated using pymatgen
data_Na2B4H8O11
_symmetry_space_group_name_H-M   'P 1'
_cell_length_a   7.12312111
_cell_length_b   9.19362638
_cell_length_c   15.79437573
_cell_angle_alpha   90.00000000
_cell_angle_beta   108.92466150
_cell_angle_gamma   90.00000000
_symmetry_Int_Tables_number   1
_chemical_formula_structural   Na2B4H8O11
_chemical_formula_sum   'Na8 B16 H32 O44'
_cell_volume   978.42134753
_cell_formula_units_Z   4
loop_
 _symmetry_equiv_pos_site_id
 _symmetry_equiv_pos_as_xyz
  1  'x, y, z'
loop_
 _atom_site_type_symbol
 _atom_site_label
 _atom_site_symmetry_multiplicity
 _atom_site_fract_x
 _atom_site_fract_y
 _atom_site_fract_z
 _atom_site_occupancy
  Na  Na0  1  0.31946534  0.03581997  0.81006390  1
  Na  Na1  1  0.68053466  0.53581997  0.68993610  1
  Na  Na2  1  0.68053466  0.96418003  0.18993610  1
  Na  Na3  1  0.31946534  0.46418003  0.31006390  1
  Na  Na4  1  0.18824302  0.12919585  0.57244023  1
  Na  Na5  1  0.81175698  0.62919585  0.92755977  1
  Na  Na6  1  0.81175698  0.87080415  0.42755977  1
  Na  Na7  1  0.18824302  0.37080415  0.07244023  1
  B  B8  1  0.55401330  0.32931966  0.92102512  1
  B  B9  1  0.44598670  0.82931966  0.57897488  1
  B  B10  1  0.44598670  0.67068034  0.07897488  1
  B  B11  1  0.55401330  0.17068034  0.42102512  1
  B  B12  1  0.55383184  0.26647621  0.76765912  1
  B  B13  1  0.44616816  0.76647621  0.73234088  1
  B  B14  1  0.44616816  0.73352379  0.23234088  1
  B  B15  1  0.55383184  0.23352379  0.26765912  1
  B  B16  1  0.57218910  0.01782894  0.69947970  1
  B  B17  1  0.42781090  0.51782894  0.80052030  1
  B  B18  1  0.42781090  0.98217106  0.30052030  1
  B  B19  1  0.57218910  0.48217106  0.19947970  1
  B  B20  1  0.86720480  0.18322716  0.74136343  1
  B  B21  1  0.13279520  0.68322716  0.75863657  1
  B  B22  1  0.13279520  0.81677284  0.25863657  1
  B  B23  1  0.86720480  0.31677284  0.24136343  1
  H  H24  1  0.26336432  0.39824694  0.63310704  1
  H  H25  1  0.73663568  0.89824694  0.86689296  1
  H  H26  1  0.73663568  0.60175306  0.36689296  1
  H  H27  1  0.26336432  0.10175306  0.13310704  1
  H  H28  1  0.10934754  0.30581990  0.75162981  1
  H  H29  1  0.89065246  0.80581990  0.74837019  1
  H  H30  1  0.89065246  0.69418010  0.24837019  1
  H  H31  1  0.10934754  0.19418010  0.25162981  1
  H  H32  1  0.94998644  0.37539388  0.87398111  1
  H  H33  1  0.05001356  0.87539388  0.62601889  1
  H  H34  1  0.05001356  0.62460612  0.12601889  1
  H  H35  1  0.94998644  0.12460612  0.37398111  1
  H  H36  1  0.56412378  0.12840910  0.54560300  1
  H  H37  1  0.43587622  0.62840910  0.95439700  1
  H  H38  1  0.43587622  0.87159090  0.45439700  1
  H  H39  1  0.56412378  0.37159090  0.04560300  1
  H  H40  1  0.11942825  0.48268733  0.87872095  1
  H  H41  1  0.88057175  0.98268733  0.62127905  1
  H  H42  1  0.88057175  0.51731267  0.12127905  1
  H  H43  1  0.11942825  0.01731267  0.37872095  1
  H  H44  1  0.70713267  0.38318037  0.54431149  1
  H  H45  1  0.29286733  0.88318037  0.95568851  1
  H  H46  1  0.29286733  0.61681963  0.45568851  1
  H  H47  1  0.70713267  0.11681963  0.04431149  1
  H  H48  1  0.21444297  0.03048459  0.98481849  1
  H  H49  1  0.78555703  0.53048459  0.51518151  1
  H  H50  1  0.78555703  0.96951541  0.01518151  1
  H  H51  1  0.21444297  0.46951541  0.48481849  1
  H  H52  1  0.03318088  0.41587305  0.57748548  1
  H  H53  1  0.96681912  0.91587305  0.92251452  1
  H  H54  1  0.96681912  0.58412695  0.42251452  1
  H  H55  1  0.03318088  0.08412695  0.07748548  1
  O  O56  1  0.51473332  0.47305021  0.89721706  1
  O  O57  1  0.48526668  0.97305021  0.60278294  1
  O  O58  1  0.48526668  0.52694979  0.10278294  1
  O  O59  1  0.51473332  0.02694979  0.39721706  1
  O  O60  1  0.44302722  0.40170647  0.73940955  1
  O  O61  1  0.55697278  0.90170647  0.76059045  1
  O  O62  1  0.55697278  0.59829353  0.26059045  1
  O  O63  1  0.44302722  0.09829353  0.23940955  1
  O  O64  1  0.76805250  0.29179443  0.76891958  1
  O  O65  1  0.23194750  0.79179443  0.73108042  1
  O  O66  1  0.23194750  0.70820557  0.23108042  1
  O  O67  1  0.76805250  0.20820557  0.26891958  1
  O  O68  1  0.46561913  0.14938354  0.70707005  1
  O  O69  1  0.53438087  0.64938354  0.79292995  1
  O  O70  1  0.53438087  0.85061646  0.29292995  1
  O  O71  1  0.46561913  0.35061646  0.20707005  1
  O  O72  1  0.78903255  0.04826516  0.71353716  1
  O  O73  1  0.21096745  0.54826516  0.78646284  1
  O  O74  1  0.21096745  0.95173484  0.28646284  1
  O  O75  1  0.78903255  0.45173484  0.21353716  1
  O  O76  1  0.06058349  0.20588796  0.74056303  1
  O  O77  1  0.93941651  0.70588796  0.75943697  1
  O  O78  1  0.93941651  0.79411204  0.25943697  1
  O  O79  1  0.06058349  0.29411204  0.24056303  1
  O  O80  1  0.58729369  0.21069226  0.50953554  1
  O  O81  1  0.41270631  0.71069226  0.99046446  1
  O  O82  1  0.41270631  0.78930774  0.49046446  1
  O  O83  1  0.58729369  0.28930774  0.00953554  1
  O  O84  1  0.78539823  0.47214036  0.56844714  1
  O  O85  1  0.21460177  0.97214036  0.93155286  1
  O  O86  1  0.21460177  0.52785964  0.43155286  1
  O  O87  1  0.78539823  0.02785964  0.06844714  1
  O  O88  1  0.56466817  0.22500696  0.86138085  1
  O  O89  1  0.43533183  0.72500696  0.63861915  1
  O  O90  1  0.43533183  0.77499304  0.13861915  1
  O  O91  1  0.56466817  0.27499304  0.36138085  1
  O  O92  1  0.04426040  0.44187179  0.91607898  1
  O  O93  1  0.95573960  0.94187179  0.58392102  1
  O  O94  1  0.95573960  0.55812821  0.08392102  1
  O  O95  1  0.04426040  0.05812821  0.41607898  1
  O  O96  1  0.16166443  0.38119440  0.57285403  1
  O  O97  1  0.83833557  0.88119440  0.92714597  1
  O  O98  1  0.83833557  0.61880560  0.42714597  1
  O  O99  1  0.16166443  0.11880560  0.07285403  1
