# generated using pymatgen
data_Ca2Y2Si4H2CO16
_symmetry_space_group_name_H-M   'P 1'
_cell_length_a   13.12476752
_cell_length_b   14.43465456
_cell_length_c   6.82695507
_cell_angle_alpha   90.00000000
_cell_angle_beta   90.00000000
_cell_angle_gamma   90.00000000
_symmetry_Int_Tables_number   1
_chemical_formula_structural   Ca2Y2Si4H2CO16
_chemical_formula_sum   'Ca8 Y8 Si16 H8 C4 O64'
_cell_volume   1293.37677830
_cell_formula_units_Z   4
loop_
 _symmetry_equiv_pos_site_id
 _symmetry_equiv_pos_as_xyz
  1  'x, y, z'
loop_
 _atom_site_type_symbol
 _atom_site_label
 _atom_site_symmetry_multiplicity
 _atom_site_fract_x
 _atom_site_fract_y
 _atom_site_fract_z
 _atom_site_occupancy
  Ca  Ca0  1  0.07748231  0.95195671  0.19987132  1
  Ca  Ca1  1  0.42251769  0.45195671  0.30012868  1
  Ca  Ca2  1  0.57748231  0.04804329  0.80012868  1
  Ca  Ca3  1  0.92251769  0.54804329  0.69987132  1
  Ca  Ca4  1  0.92251769  0.04804329  0.80012868  1
  Ca  Ca5  1  0.57748231  0.54804329  0.69987132  1
  Ca  Ca6  1  0.42251769  0.95195671  0.19987132  1
  Ca  Ca7  1  0.07748231  0.45195671  0.30012868  1
  Y  Y8  1  0.05710642  0.71924525  0.38859731  1
  Y  Y9  1  0.44289358  0.21924525  0.11140269  1
  Y  Y10  1  0.55710642  0.28075475  0.61140269  1
  Y  Y11  1  0.94289358  0.78075475  0.88859731  1
  Y  Y12  1  0.94289358  0.28075475  0.61140269  1
  Y  Y13  1  0.55710642  0.78075475  0.88859731  1
  Y  Y14  1  0.44289358  0.71924525  0.38859731  1
  Y  Y15  1  0.05710642  0.21924525  0.11140269  1
  Si  Si16  1  0.13040673  0.64699202  0.88859534  1
  Si  Si17  1  0.36959327  0.14699202  0.61140466  1
  Si  Si18  1  0.63040673  0.35300798  0.11140466  1
  Si  Si19  1  0.86959327  0.85300798  0.38859534  1
  Si  Si20  1  0.86959327  0.35300798  0.11140466  1
  Si  Si21  1  0.63040673  0.85300798  0.38859534  1
  Si  Si22  1  0.36959327  0.64699202  0.88859534  1
  Si  Si23  1  0.13040673  0.14699202  0.61140466  1
  Si  Si24  1  0.13068971  0.93068536  0.66086733  1
  Si  Si25  1  0.36931029  0.43068536  0.83913267  1
  Si  Si26  1  0.63068971  0.06931464  0.33913267  1
  Si  Si27  1  0.86931029  0.56931464  0.16086733  1
  Si  Si28  1  0.86931029  0.06931464  0.33913267  1
  Si  Si29  1  0.63068971  0.56931464  0.16086733  1
  Si  Si30  1  0.36931029  0.93068536  0.66086733  1
  Si  Si31  1  0.13068971  0.43068536  0.83913267  1
  H  H32  1  0.25000000  0.81501472  0.18071857  1
  H  H33  1  0.25000000  0.31501472  0.31928143  1
  H  H34  1  0.75000000  0.18498528  0.81928143  1
  H  H35  1  0.75000000  0.68498528  0.68071857  1
  H  H36  1  0.25000000  0.87540994  0.98581547  1
  H  H37  1  0.25000000  0.37540994  0.51418453  1
  H  H38  1  0.75000000  0.12459006  0.01418453  1
  H  H39  1  0.75000000  0.62459006  0.48581547  1
  C  C40  1  0.25000000  0.62446766  0.38678901  1
  C  C41  1  0.25000000  0.12446766  0.11321099  1
  C  C42  1  0.75000000  0.37553234  0.61321099  1
  C  C43  1  0.75000000  0.87553234  0.88678901  1
  O  O44  1  0.11270698  0.53529963  0.94381671  1
  O  O45  1  0.38729302  0.03529963  0.55618329  1
  O  O46  1  0.61270698  0.46470037  0.05618329  1
  O  O47  1  0.88729302  0.96470037  0.44381671  1
  O  O48  1  0.88729302  0.46470037  0.05618329  1
  O  O49  1  0.61270698  0.96470037  0.44381671  1
  O  O50  1  0.38729302  0.53529963  0.94381671  1
  O  O51  1  0.11270698  0.03529963  0.55618329  1
  O  O52  1  0.05268257  0.67066074  0.70723900  1
  O  O53  1  0.44731743  0.17066074  0.79276100  1
  O  O54  1  0.55268257  0.32933926  0.29276100  1
  O  O55  1  0.94731743  0.82933926  0.20723900  1
  O  O56  1  0.94731743  0.32933926  0.29276100  1
  O  O57  1  0.55268257  0.82933926  0.20723900  1
  O  O58  1  0.44731743  0.67066074  0.70723900  1
  O  O59  1  0.05268257  0.17066074  0.79276100  1
  O  O60  1  0.09536628  0.71650795  0.06189319  1
  O  O61  1  0.40463372  0.21650795  0.43810681  1
  O  O62  1  0.59536628  0.28349205  0.93810681  1
  O  O63  1  0.90463372  0.78349205  0.56189319  1
  O  O64  1  0.90463372  0.28349205  0.93810681  1
  O  O65  1  0.59536628  0.78349205  0.56189319  1
  O  O66  1  0.40463372  0.71650795  0.06189319  1
  O  O67  1  0.09536628  0.21650795  0.43810681  1
  O  O68  1  0.25000000  0.66034398  0.82656861  1
  O  O69  1  0.25000000  0.16034398  0.67343139  1
  O  O70  1  0.75000000  0.33965602  0.17343139  1
  O  O71  1  0.75000000  0.83965602  0.32656861  1
  O  O72  1  0.05253932  0.91948531  0.84638457  1
  O  O73  1  0.44746068  0.41948531  0.65361543  1
  O  O74  1  0.55253932  0.08051469  0.15361543  1
  O  O75  1  0.94746068  0.58051469  0.34638457  1
  O  O76  1  0.94746068  0.08051469  0.15361543  1
  O  O77  1  0.55253932  0.58051469  0.34638457  1
  O  O78  1  0.44746068  0.91948531  0.84638457  1
  O  O79  1  0.05253932  0.41948531  0.65361543  1
  O  O80  1  0.11053735  0.86147569  0.48002535  1
  O  O81  1  0.38946265  0.36147569  0.01997465  1
  O  O82  1  0.61053735  0.13852431  0.51997465  1
  O  O83  1  0.88946265  0.63852431  0.98002535  1
  O  O84  1  0.88946265  0.13852431  0.51997465  1
  O  O85  1  0.61053735  0.63852431  0.98002535  1
  O  O86  1  0.38946265  0.86147569  0.48002535  1
  O  O87  1  0.11053735  0.36147569  0.01997465  1
  O  O88  1  0.25000000  0.92573036  0.74417255  1
  O  O89  1  0.25000000  0.42573036  0.75582745  1
  O  O90  1  0.75000000  0.07426964  0.25582745  1
  O  O91  1  0.75000000  0.57426964  0.24417255  1
  O  O92  1  0.16365767  0.58184688  0.38497227  1
  O  O93  1  0.33634233  0.08184688  0.11502773  1
  O  O94  1  0.66365767  0.41815312  0.61502773  1
  O  O95  1  0.83634233  0.91815312  0.88497227  1
  O  O96  1  0.83634233  0.41815312  0.61502773  1
  O  O97  1  0.66365767  0.91815312  0.88497227  1
  O  O98  1  0.33634233  0.58184688  0.38497227  1
  O  O99  1  0.16365767  0.08184688  0.11502773  1
  O  O100  1  0.25000000  0.71406469  0.39104890  1
  O  O101  1  0.25000000  0.21406469  0.10895110  1
  O  O102  1  0.75000000  0.28593531  0.60895110  1
  O  O103  1  0.75000000  0.78593531  0.89104890  1
  O  O104  1  0.25000000  0.87904281  0.13065407  1
  O  O105  1  0.25000000  0.37904281  0.36934593  1
  O  O106  1  0.75000000  0.12095719  0.86934593  1
  O  O107  1  0.75000000  0.62095719  0.63065407  1
