# generated using pymatgen
data_La2Se2O
_symmetry_space_group_name_H-M   'P 1'
_cell_length_a   9.03745530
_cell_length_b   7.50910469
_cell_length_c   7.49488082
_cell_angle_alpha   90.00000000
_cell_angle_beta   99.84613850
_cell_angle_gamma   90.00000000
_symmetry_Int_Tables_number   1
_chemical_formula_structural   La2Se2O
_chemical_formula_sum   'La8 Se8 O4'
_cell_volume   501.13477314
_cell_formula_units_Z   4
loop_
 _symmetry_equiv_pos_site_id
 _symmetry_equiv_pos_as_xyz
  1  'x, y, z'
loop_
 _atom_site_type_symbol
 _atom_site_label
 _atom_site_symmetry_multiplicity
 _atom_site_fract_x
 _atom_site_fract_y
 _atom_site_fract_z
 _atom_site_occupancy
  La  La0  1  0.14261198  0.55252766  0.75494040  1
  La  La1  1  0.14261198  0.94747234  0.25494040  1
  La  La2  1  0.42609703  0.14834004  0.67509343  1
  La  La3  1  0.42609703  0.35165996  0.17509343  1
  La  La4  1  0.57390297  0.64834004  0.82490657  1
  La  La5  1  0.57390297  0.85165996  0.32490657  1
  La  La6  1  0.85738802  0.05252766  0.74505960  1
  La  La7  1  0.85738802  0.44747234  0.24505960  1
  Se  Se8  1  0.07864592  0.22300677  0.52858248  1
  Se  Se9  1  0.07864592  0.27699323  0.02858248  1
  Se  Se10  1  0.32012057  0.87052440  0.93408321  1
  Se  Se11  1  0.32012057  0.62947560  0.43408321  1
  Se  Se12  1  0.67987943  0.37052440  0.56591679  1
  Se  Se13  1  0.67987943  0.12947560  0.06591679  1
  Se  Se14  1  0.92135408  0.72300677  0.97141752  1
  Se  Se15  1  0.92135408  0.77699323  0.47141752  1
  O  O16  1  0.38544225  0.41631105  0.85120870  1
  O  O17  1  0.38544225  0.08368895  0.35120870  1
  O  O18  1  0.61455775  0.91631105  0.64879130  1
  O  O19  1  0.61455775  0.58368895  0.14879130  1
