# generated using pymatgen
data_Nb3InSe12
_symmetry_space_group_name_H-M   'P 1'
_cell_length_a   9.22478602
_cell_length_b   9.22478602
_cell_length_c   19.65151255
_cell_angle_alpha   90.00000000
_cell_angle_beta   90.00000000
_cell_angle_gamma   90.00000000
_symmetry_Int_Tables_number   1
_chemical_formula_structural   Nb3InSe12
_chemical_formula_sum   'Nb12 In4 Se48'
_cell_volume   1672.27841828
_cell_formula_units_Z   4
loop_
 _symmetry_equiv_pos_site_id
 _symmetry_equiv_pos_as_xyz
  1  'x, y, z'
loop_
 _atom_site_type_symbol
 _atom_site_label
 _atom_site_symmetry_multiplicity
 _atom_site_fract_x
 _atom_site_fract_y
 _atom_site_fract_z
 _atom_site_occupancy
  Se  Se0  1  0.93119501  0.27619994  0.67063008  1
  Se  Se1  1  0.06880499  0.72380006  0.67063008  1
  Se  Se2  1  0.77619994  0.43119501  0.82936992  1
  Se  Se3  1  0.27619994  0.06880499  0.67063008  1
  Se  Se4  1  0.72380006  0.93119501  0.67063008  1
  Se  Se5  1  0.56880499  0.77619994  0.82936992  1
  Se  Se6  1  0.43119501  0.22380006  0.82936992  1
  Se  Se7  1  0.22380006  0.56880499  0.82936992  1
  Se  Se8  1  0.06880499  0.72380006  0.32936992  1
  Se  Se9  1  0.93119501  0.27619994  0.32936992  1
  Se  Se10  1  0.22380006  0.56880499  0.17063008  1
  Se  Se11  1  0.72380006  0.93119501  0.32936992  1
  Se  Se12  1  0.27619994  0.06880499  0.32936992  1
  Se  Se13  1  0.43119501  0.22380006  0.17063008  1
  Se  Se14  1  0.56880499  0.77619994  0.17063008  1
  Se  Se15  1  0.19497458  0.61815359  0.50000000  1
  Se  Se16  1  0.77619994  0.43119501  0.17063008  1
  Se  Se17  1  0.70597407  0.11875083  0.16599818  1
  Se  Se18  1  0.29402593  0.88124917  0.16599818  1
  Se  Se19  1  0.61875083  0.20597407  0.33400182  1
  Se  Se20  1  0.38124917  0.79402593  0.33400182  1
  Se  Se21  1  0.88124917  0.70597407  0.16599818  1
  Se  Se22  1  0.79402593  0.61875083  0.33400182  1
  Se  Se23  1  0.20597407  0.38124917  0.33400182  1
  Se  Se24  1  0.88124917  0.70597407  0.83400182  1
  Se  Se25  1  0.29402593  0.88124917  0.83400182  1
  Se  Se26  1  0.70597407  0.11875083  0.83400182  1
  Se  Se27  1  0.38124917  0.79402593  0.66599818  1
  Se  Se28  1  0.61875083  0.20597407  0.66599818  1
  Se  Se29  1  0.11875083  0.29402593  0.83400182  1
  Se  Se30  1  0.20597407  0.38124917  0.66599818  1
  Se  Se31  1  0.79402593  0.61875083  0.66599818  1
  Se  Se32  1  0.21421231  0.45638905  0.00000000  1
  Se  Se33  1  0.54361095  0.21421231  0.00000000  1
  Se  Se34  1  0.45638905  0.78578769  0.00000000  1
  Se  Se35  1  0.71421231  0.04361095  0.50000000  1
  Se  Se36  1  0.28578769  0.95638905  0.50000000  1
  Se  Se37  1  0.78578769  0.54361095  0.00000000  1
  Se  Se38  1  0.95638905  0.71421231  0.50000000  1
  Se  Se39  1  0.04361095  0.28578769  0.50000000  1
  Se  Se40  1  0.88184641  0.30502542  0.00000000  1
  Se  Se41  1  0.69497458  0.88184641  0.00000000  1
  Se  Se42  1  0.30502542  0.11815359  0.00000000  1
  Se  Se43  1  0.38184641  0.19497458  0.50000000  1
  Se  Se44  1  0.61815359  0.80502542  0.50000000  1
  Se  Se45  1  0.11815359  0.69497458  0.00000000  1
  Se  Se46  1  0.80502542  0.38184641  0.50000000  1
  Se  Se47  1  0.11875083  0.29402593  0.16599818  1
  Nb  Nb48  1  0.50000000  0.00000000  0.75000000  1
  Nb  Nb49  1  0.00000000  0.50000000  0.75000000  1
  Nb  Nb50  1  0.50000000  0.00000000  0.25000000  1
  Nb  Nb51  1  0.00000000  0.50000000  0.25000000  1
  Nb  Nb52  1  0.00000000  0.50000000  0.59229191  1
  Nb  Nb53  1  0.50000000  0.00000000  0.59229191  1
  Nb  Nb54  1  0.50000000  0.00000000  0.90770809  1
  Nb  Nb55  1  0.00000000  0.50000000  0.90770809  1
  Nb  Nb56  1  0.00000000  0.50000000  0.40770809  1
  Nb  Nb57  1  0.50000000  0.00000000  0.40770809  1
  Nb  Nb58  1  0.50000000  0.00000000  0.09229191  1
  Nb  Nb59  1  0.00000000  0.50000000  0.09229191  1
  In  In60  1  0.50000000  0.50000000  0.66418559  1
  In  In61  1  0.00000000  0.00000000  0.83581441  1
  In  In62  1  0.50000000  0.50000000  0.33581441  1
  In  In63  1  0.00000000  0.00000000  0.16418559  1
