# generated using pymatgen
data_Li5CuF8
_symmetry_space_group_name_H-M   'P 1'
_cell_length_a   5.83299580
_cell_length_b   5.97526255
_cell_length_c   5.83299580
_cell_angle_alpha   119.21546796
_cell_angle_beta   119.99999639
_cell_angle_gamma   90.00000618
_symmetry_Int_Tables_number   1
_chemical_formula_structural   Li5CuF8
_chemical_formula_sum   'Li5 Cu1 F8'
_cell_volume   145.43694827
_cell_formula_units_Z   1
loop_
 _symmetry_equiv_pos_site_id
 _symmetry_equiv_pos_as_xyz
  1  'x, y, z'
loop_
 _atom_site_type_symbol
 _atom_site_label
 _atom_site_symmetry_multiplicity
 _atom_site_fract_x
 _atom_site_fract_y
 _atom_site_fract_z
 _atom_site_occupancy
  Li  Li0  1  0.14190431  0.42571192  0.28380761  1
  Li  Li1  1  0.50000000  0.00000000  0.00000000  1
  Li  Li2  1  0.00000000  0.00000000  0.50000000  1
  Li  Li3  1  0.85809569  0.57428808  0.71619239  1
  Li  Li4  1  0.50000000  0.00000000  0.50000000  1
  Cu  Cu5  1  0.50000000  0.50000000  0.00000000  1
  F  F6  1  0.26764963  0.26833934  0.00068871  1
  F  F7  1  0.26703905  0.80111715  0.53407810  1
  F  F8  1  0.73303908  0.26833934  0.00068871  1
  F  F9  1  0.73235037  0.73166166  0.46469974  1
  F  F10  1  0.26764963  0.26833934  0.53530026  1
  F  F11  1  0.26696092  0.73166166  0.99931129  1
  F  F12  1  0.73296095  0.19888285  0.46592190  1
  F  F13  1  0.73235037  0.73166166  0.99931129  1
