# generated using pymatgen
data_SmY15O24
_symmetry_space_group_name_H-M   'P 1'
_cell_length_a   9.28561251
_cell_length_b   9.29776175
_cell_length_c   9.28561251
_cell_angle_alpha   109.49078938
_cell_angle_beta   109.40569876
_cell_angle_gamma   109.46416337
_symmetry_Int_Tables_number   1
_chemical_formula_structural   SmY15O24
_chemical_formula_sum   'Sm1 Y15 O24'
_cell_volume   617.53452992
_cell_formula_units_Z   1
loop_
 _symmetry_equiv_pos_site_id
 _symmetry_equiv_pos_as_xyz
  1  'x, y, z'
loop_
 _atom_site_type_symbol
 _atom_site_label
 _atom_site_symmetry_multiplicity
 _atom_site_fract_x
 _atom_site_fract_y
 _atom_site_fract_z
 _atom_site_occupancy
  Sm  Sm0  1  0.03221438  0.75000000  0.78221438  1
  Y  Y1  1  0.96708128  0.25000000  0.21708128  1
  Y  Y2  1  0.50125349  0.00068775  0.00065101  1
  Y  Y3  1  0.78238920  0.03381516  0.74986736  1
  Y  Y4  1  0.71605220  0.46618484  0.24857404  1
  Y  Y5  1  0.74886633  0.28155161  0.53190586  1
  Y  Y6  1  0.74969050  0.78316056  0.03365403  1
  Y  Y7  1  0.99996325  0.49931225  0.00056674  1
  Y  Y8  1  0.49853335  0.49877561  0.49872127  1
  Y  Y9  1  0.99994566  0.00122439  0.49975774  1
  Y  Y10  1  0.53307715  0.75000000  0.28307715  1
  Y  Y11  1  0.46686944  0.25000000  0.71686944  1
  Y  Y12  1  0.25049346  0.71683944  0.46652993  1
  Y  Y13  1  0.25035425  0.21844839  0.96731473  1
  Y  Y14  1  0.28388356  0.53273265  0.75008972  1
  Y  Y15  1  0.21735707  0.96726735  0.25115091  1
  O  O16  1  0.75998143  0.03145086  0.48821202  1
  O  O17  1  0.73925110  0.22799284  0.27050455  1
  O  O18  1  0.27497918  0.01502192  0.04629105  1
  O  O19  1  0.96821344  0.51071344  0.23941186  1
  O  O20  1  0.77192941  0.72942024  0.26160247  1
  O  O21  1  0.46766270  0.22890618  0.45806557  1
  O  O22  1  0.45676116  0.46854914  0.22853057  1
  O  O23  1  0.04251172  0.27200716  0.01125827  1
  O  O24  1  0.01077644  0.04293258  0.27181386  1
  O  O25  1  0.76592729  0.53820032  0.52723260  1
  O  O26  1  0.72904998  0.26129617  0.77204123  1
  O  O27  1  0.48917100  0.76117541  0.03209828  1
  O  O28  1  0.22888128  0.45706742  0.46784386  1
  O  O29  1  0.27092387  0.73882459  0.22799658  1
  O  O30  1  0.98903228  0.96179968  0.72772597  1
  O  O31  1  0.51074506  0.23870383  0.96775381  1
  O  O32  1  0.54316038  0.53223413  0.77087893  1
  O  O33  1  0.95739733  0.72750329  0.99316772  1
  O  O34  1  0.53218222  0.77057976  0.54250817  1
  O  O35  1  0.22915939  0.27109382  0.73875652  1
  O  O36  1  0.03127013  0.48497808  0.75995826  1
  O  O37  1  0.72869842  0.98928656  0.95750000  1
  O  O38  1  0.23864480  0.96776587  0.51092624  1
  O  O39  1  0.26566543  0.77249671  0.72989404  1
