# generated using pymatgen
data_BaTi7O14
_symmetry_space_group_name_H-M   'P 1'
_cell_length_a   7.38766551
_cell_length_b   20.60257594
_cell_length_c   7.39038818
_cell_angle_alpha   80.32540527
_cell_angle_beta   92.30204031
_cell_angle_gamma   99.66660964
_symmetry_Int_Tables_number   1
_chemical_formula_structural   BaTi7O14
_chemical_formula_sum   'Ba4 Ti28 O56'
_cell_volume   1093.02927467
_cell_formula_units_Z   4
loop_
 _symmetry_equiv_pos_site_id
 _symmetry_equiv_pos_as_xyz
  1  'x, y, z'
loop_
 _atom_site_type_symbol
 _atom_site_label
 _atom_site_symmetry_multiplicity
 _atom_site_fract_x
 _atom_site_fract_y
 _atom_site_fract_z
 _atom_site_occupancy
  Ba  Ba0  1  0.70787244  0.70758015  0.29243553  1
  Ba  Ba1  1  0.97530641  0.97409618  0.02513695  1
  Ba  Ba2  1  0.43498456  0.43527685  0.56470747  1
  Ba  Ba3  1  0.16755059  0.16876082  0.83200605  1
  Ti  Ti4  1  0.55732425  0.04835782  0.13305967  1
  Ti  Ti5  1  0.93645536  0.12039042  0.39211699  1
  Ti  Ti6  1  0.48872789  0.30756395  0.17078809  1
  Ti  Ti7  1  0.63437792  0.45008938  0.04084943  1
  Ti  Ti8  1  0.20640164  0.02246658  0.46502601  1
  Ti  Ti9  1  0.34648295  0.16400284  0.32263663  1
  Ti  Ti10  1  0.87337417  0.38039070  0.43535117  1
  Ti  Ti11  1  0.71293167  0.23901098  0.58007644  1
  Ti  Ti12  1  0.58553375  0.09449918  0.72408233  1
  Ti  Ti13  1  0.85352444  0.33302888  0.84644865  1
  Ti  Ti14  1  0.70750636  0.19069302  0.99520695  1
  Ti  Ti15  1  0.98660522  0.47676163  0.70802330  1
  Ti  Ti16  1  0.08464224  0.26509595  0.25825097  1
  Ti  Ti17  1  0.22283141  0.40676299  0.10096802  1
  Ti  Ti18  1  0.77264294  0.59267040  0.88425369  1
  Ti  Ti19  1  0.92002559  0.73609401  0.75617498  1
  Ti  Ti20  1  0.15625278  0.66609637  0.14911970  1
  Ti  Ti21  1  0.28933256  0.80982812  0.01069335  1
  Ti  Ti22  1  0.00105943  0.52444150  0.29570869  1
  Ti  Ti23  1  0.26948283  0.76246630  0.42179183  1
  Ti  Ti24  1  0.42992533  0.90384602  0.27706556  1
  Ti  Ti25  1  0.14179757  0.61841550  0.56143431  1
  Ti  Ti26  1  0.37021406  0.55018660  0.97288931  1
  Ti  Ti27  1  0.79637405  0.97885416  0.53450637  1
  Ti  Ti28  1  0.50847908  0.69276762  0.81629357  1
  Ti  Ti29  1  0.65412911  0.83529305  0.68635491  1
  Ti  Ti30  1  0.05821476  0.87776205  0.59889203  1
  Ti  Ti31  1  0.43535064  0.95216398  0.86193605  1
  O  O32  1  0.90078990  0.19061476  0.18011808  1
  O  O33  1  0.75394452  0.04684410  0.32203226  1
  O  O34  1  0.50565437  0.13769008  0.15202819  1
  O  O35  1  0.65644054  0.28028884  0.01388289  1
  O  O36  1  0.91475197  0.29005614  0.41587674  1
  O  O37  1  0.77784696  0.14945655  0.55881117  1
  O  O38  1  0.63720263  0.00516792  0.70511481  1
  O  O39  1  0.28105124  0.23602481  0.11954928  1
  O  O40  1  0.13780035  0.09283090  0.25793563  1
  O  O41  1  0.67184874  0.38097609  0.25056711  1
  O  O42  1  0.38891248  0.09601290  0.53511074  1
  O  O43  1  0.53249608  0.23779236  0.38527581  1
  O  O44  1  0.81961592  0.52425009  0.09959379  1
  O  O45  1  0.88699632  0.24233598  0.80292294  1
  O  O46  1  0.74936697  0.09942510  0.94604837  1
  O  O47  1  0.97207240  0.61500673  0.33924545  1
  O  O48  1  0.82358073  0.47044270  0.48309351  1
  O  O49  1  0.39349003  0.04343190  0.91109463  1
  O  O50  1  0.68687748  0.32938126  0.62432996  1
  O  O51  1  0.53974125  0.18505651  0.76981921  1
  O  O52  1  0.03735032  0.33287660  0.04276962  1
  O  O53  1  0.57540281  0.62156577  0.02163778  1
  O  O54  1  0.43140819  0.47712470  0.16968172  1
  O  O55  1  0.00505665  0.05002610  0.59920737  1
  O  O56  1  0.14643289  0.19148688  0.45455168  1
  O  O57  1  0.28980542  0.33593131  0.30636346  1
  O  O58  1  0.94235692  0.56672803  0.72807557  1
  O  O59  1  0.79153747  0.42238348  0.86807074  1
  O  O60  1  0.06641824  0.43533828  0.27392013  1
  O  O61  1  0.20050008  0.57612997  0.12906743  1
  O  O62  1  0.85305158  0.80692569  0.55077954  1
  O  O63  1  0.99642411  0.95137012  0.40259132  1
  O  O64  1  0.42654193  0.38052874  0.97296438  1
  O  O65  1  0.71144981  0.66573230  0.68746028  1
  O  O66  1  0.56745419  0.52129123  0.83550522  1
  O  O67  1  0.95650917  0.66631588  0.96498771  1
  O  O68  1  0.60311575  0.95780149  0.08732279  1
  O  O69  1  0.17078460  0.52785027  0.51789755  1
  O  O70  1  0.45597952  0.81347574  0.23281304  1
  O  O71  1  0.03386163  0.38714450  0.65904628  1
  O  O72  1  0.31927727  0.67241430  0.37404949  1
  O  O73  1  0.25586068  0.90052102  0.05422006  1
  O  O74  1  0.10899637  0.75571250  0.19809672  1
  O  O75  1  0.47100926  0.76188091  0.60657589  1
  O  O76  1  0.32324108  0.61860691  0.75754921  1
  O  O77  1  0.18634783  0.47654112  0.89215529  1
  O  O78  1  0.61036092  0.90506564  0.47186719  1
  O  O79  1  0.86180576  0.90683219  0.73759372  1
  O  O80  1  0.71631507  0.76232826  0.88417862  1
  O  O81  1  0.07643876  0.70751872  0.58322287  1
  O  O82  1  0.22810503  0.85280086  0.44126626  1
  O  O83  1  0.36501004  0.99340045  0.29833183  1
  O  O84  1  0.48641646  0.86256816  0.84326011  1
  O  O85  1  0.35131953  0.72047352  0.98907226  1
  O  O86  1  0.10550768  0.80998040  0.81437338  1
  O  O87  1  0.24206710  0.95224224  0.67702492  1
