# generated using pymatgen
data_Gd3Y5O12
_symmetry_space_group_name_H-M   'P 1'
_cell_length_a   9.31281724
_cell_length_b   9.32524122
_cell_length_c   9.31922624
_cell_angle_alpha   109.48460571
_cell_angle_beta   109.44858164
_cell_angle_gamma   109.48087258
_symmetry_Int_Tables_number   1
_chemical_formula_structural   Gd3Y5O12
_chemical_formula_sum   'Gd6 Y10 O24'
_cell_volume   623.01276731
_cell_formula_units_Z   2
loop_
 _symmetry_equiv_pos_site_id
 _symmetry_equiv_pos_as_xyz
  1  'x, y, z'
loop_
 _atom_site_type_symbol
 _atom_site_label
 _atom_site_symmetry_multiplicity
 _atom_site_fract_x
 _atom_site_fract_y
 _atom_site_fract_z
 _atom_site_occupancy
  Gd  Gd0  1  0.74921087  0.28114185  0.53140059  1
  Gd  Gd1  1  0.25028230  0.71723992  0.46711078  1
  Gd  Gd2  1  0.25027697  0.21869093  0.96789992  1
  Gd  Gd3  1  0.28356378  0.53265736  0.75095053  1
  Gd  Gd4  1  0.21722512  0.96789883  0.25037525  1
  Gd  Gd5  1  0.03121898  0.75001572  0.78218490  1
  Y  Y6  1  0.50150785  0.00072475  0.99985806  1
  Y  Y7  1  0.96603969  0.24937860  0.21589208  1
  Y  Y8  1  0.78210470  0.03269282  0.75008987  1
  Y  Y9  1  0.71693479  0.46709579  0.24872432  1
  Y  Y10  1  0.74987808  0.78356971  0.03389979  1
  Y  Y11  1  0.99810010  0.49915040  0.00011907  1
  Y  Y12  1  0.50090291  0.50093610  0.50057919  1
  Y  Y13  1  0.46790286  0.25089406  0.71791917  1
  Y  Y14  1  0.99916063  0.99940526  0.49936635  1
  Y  Y15  1  0.53413621  0.74988025  0.28352064  1
  O  O16  1  0.76065278  0.02931426  0.48908532  1
  O  O17  1  0.73888625  0.22825938  0.26804742  1
  O  O18  1  0.27417685  0.01160683  0.04257228  1
  O  O19  1  0.96648987  0.50906260  0.23726345  1
  O  O20  1  0.46832088  0.23233672  0.46033407  1
  O  O21  1  0.77218293  0.72899641  0.26097432  1
  O  O22  1  0.03970596  0.27165950  0.01044839  1
  O  O23  1  0.45983919  0.47064371  0.23130565  1
  O  O24  1  0.72817605  0.25931225  0.77227005  1
  O  O25  1  0.49279826  0.76434698  0.03487934  1
  O  O26  1  0.00736605  0.04216275  0.27161633  1
  O  O27  1  0.76901501  0.54139544  0.52831470  1
  O  O28  1  0.51279042  0.24000390  0.96854166  1
  O  O29  1  0.22933060  0.45551547  0.46605697  1
  O  O30  1  0.27064853  0.73667424  0.22622834  1
  O  O31  1  0.98713469  0.95845358  0.72713266  1
  O  O32  1  0.54465144  0.53242205  0.77169314  1
  O  O33  1  0.95581097  0.72688018  0.99009968  1
  O  O34  1  0.53380249  0.77040780  0.54271439  1
  O  O35  1  0.22820031  0.26830985  0.73652262  1
  O  O36  1  0.03083687  0.48870234  0.76300902  1
  O  O37  1  0.72833994  0.98858666  0.95694481  1
  O  O38  1  0.23933509  0.97040515  0.51237331  1
  O  O39  1  0.26306474  0.77316859  0.73168156  1
