# generated using pymatgen
data_Al2H10S3O17
_symmetry_space_group_name_H-M   'P 1'
_cell_length_a   5.53787100
_cell_length_b   10.90979583
_cell_length_c   20.96622301
_cell_angle_alpha   90.00000000
_cell_angle_beta   96.50855543
_cell_angle_gamma   90.00000000
_symmetry_Int_Tables_number   1
_chemical_formula_structural   Al2H10S3O17
_chemical_formula_sum   'Al8 H40 S12 O68'
_cell_volume   1258.55310738
_cell_formula_units_Z   4
loop_
 _symmetry_equiv_pos_site_id
 _symmetry_equiv_pos_as_xyz
  1  'x, y, z'
loop_
 _atom_site_type_symbol
 _atom_site_label
 _atom_site_symmetry_multiplicity
 _atom_site_fract_x
 _atom_site_fract_y
 _atom_site_fract_z
 _atom_site_occupancy
  Al  Al0  1  0.00000000  0.00000000  0.50000000  1
  Al  Al1  1  0.00000000  0.50000000  0.50000000  1
  Al  Al2  1  0.08596369  0.23912905  0.18722599  1
  Al  Al3  1  0.41403631  0.73912905  0.31277401  1
  Al  Al4  1  0.58596369  0.26087095  0.68722599  1
  Al  Al5  1  0.50000000  0.00000000  0.00000000  1
  Al  Al6  1  0.50000000  0.50000000  0.00000000  1
  Al  Al7  1  0.91403631  0.76087095  0.81277401  1
  H  H8  1  0.07048793  0.67448164  0.70789684  1
  H  H9  1  0.10794843  0.82469878  0.71155407  1
  H  H10  1  0.10068980  0.87297593  0.23761693  1
  H  H11  1  0.10836283  0.92116434  0.31010624  1
  H  H12  1  0.10717616  0.56132149  0.29715557  1
  H  H13  1  0.22088325  0.43581384  0.40510721  1
  H  H14  1  0.24084319  0.09170320  0.41557191  1
  H  H15  1  0.39205157  0.32469878  0.78844593  1
  H  H16  1  0.15420732  0.60757321  0.22590585  1
  H  H17  1  0.42951207  0.17448164  0.79210316  1
  H  H18  1  0.30190950  0.16462290  0.48096154  1
  H  H19  1  0.36903094  0.38658672  0.47147163  1
  H  H20  1  0.13096906  0.88658672  0.02852837  1
  H  H21  1  0.19809050  0.66462290  0.01903846  1
  H  H22  1  0.34579268  0.10757321  0.27409415  1
  H  H23  1  0.25915681  0.59170320  0.08442809  1
  H  H24  1  0.27911675  0.93581384  0.09489279  1
  H  H25  1  0.60068980  0.62702407  0.73761693  1
  H  H26  1  0.60836283  0.57883566  0.81010624  1
  H  H27  1  0.60717616  0.93867851  0.79715557  1
  H  H28  1  0.39282384  0.06132149  0.20284443  1
  H  H29  1  0.39163717  0.42116434  0.18989376  1
  H  H30  1  0.39931020  0.37297593  0.26238307  1
  H  H31  1  0.72088325  0.06418616  0.90510721  1
  H  H32  1  0.74084319  0.40829680  0.91557191  1
  H  H33  1  0.65420732  0.89242679  0.72590585  1
  H  H34  1  0.80190950  0.33537710  0.98096154  1
  H  H35  1  0.86903094  0.11341328  0.97147163  1
  H  H36  1  0.63096906  0.61341328  0.52852837  1
  H  H37  1  0.69809050  0.83537710  0.51903846  1
  H  H38  1  0.57048793  0.82551836  0.20789684  1
  H  H39  1  0.84579268  0.39242679  0.77409415  1
  H  H40  1  0.60794843  0.67530122  0.21155407  1
  H  H41  1  0.75915681  0.90829680  0.58442809  1
  H  H42  1  0.77911675  0.56418616  0.59489279  1
  H  H43  1  0.89282384  0.43867851  0.70284443  1
  H  H44  1  0.89163717  0.07883566  0.68989376  1
  H  H45  1  0.89931020  0.12702407  0.76238307  1
  H  H46  1  0.89205157  0.17530122  0.28844593  1
  H  H47  1  0.92951207  0.32551836  0.29210316  1
  S  S48  1  0.15848499  0.50524878  0.86629811  1
  S  S49  1  0.20887821  0.00727308  0.85944185  1
  S  S50  1  0.29112179  0.50727308  0.64055815  1
  S  S51  1  0.23256864  0.74695181  0.45324579  1
  S  S52  1  0.34151501  0.00524878  0.63370189  1
  S  S53  1  0.26743136  0.24695181  0.04675421  1
  S  S54  1  0.73256864  0.75304819  0.95324579  1
  S  S55  1  0.65848499  0.99475122  0.36629811  1
  S  S56  1  0.76743136  0.25304819  0.54675421  1
  S  S57  1  0.70887821  0.49272692  0.35944185  1
  S  S58  1  0.79112179  0.99272692  0.14055815  1
  S  S59  1  0.84151501  0.49475122  0.13370189  1
  O  O60  1  0.00515888  0.08901018  0.83823627  1
  O  O61  1  0.05715378  0.75045394  0.73424080  1
  O  O62  1  0.11429574  0.63915070  0.85442683  1
  O  O63  1  0.06375380  0.54564133  0.66781237  1
  O  O64  1  0.15956909  0.87757414  0.84052488  1
  O  O65  1  0.23005249  0.49105011  0.93684231  1
  O  O66  1  0.04671784  0.66803522  0.47840068  1
  O  O67  1  0.25434044  0.01370929  0.93090331  1
  O  O68  1  0.14570551  0.96420250  0.67102945  1
  O  O69  1  0.14200550  0.87540132  0.45190855  1
  O  O70  1  0.17091804  0.11791017  0.45498980  1
  O  O71  1  0.35429449  0.46420250  0.82897055  1
  O  O72  1  0.24565956  0.51370929  0.56909669  1
  O  O73  1  0.06747296  0.56662350  0.14941175  1
  O  O74  1  0.26994751  0.99105011  0.56315769  1
  O  O75  1  0.03063740  0.23611290  0.00762159  1
  O  O76  1  0.24776187  0.44707390  0.45180504  1
  O  O77  1  0.18024710  0.86150340  0.28244660  1
  O  O78  1  0.34043091  0.37757414  0.65947512  1
  O  O79  1  0.43624620  0.04564133  0.83218763  1
  O  O80  1  0.24828308  0.70980064  0.38550659  1
  O  O81  1  0.20734276  0.61613263  0.27283335  1
  O  O82  1  0.38570426  0.13915070  0.64557317  1
  O  O83  1  0.44284622  0.25045394  0.76575920  1
  O  O84  1  0.54671784  0.83196478  0.97840068  1
  O  O85  1  0.29265724  0.11613263  0.22716665  1
  O  O86  1  0.25171692  0.20980064  0.11449341  1
  O  O87  1  0.49484112  0.58901018  0.66176373  1
  O  O88  1  0.31975290  0.36150340  0.21755340  1
  O  O89  1  0.25223813  0.94707390  0.04819496  1
  O  O90  1  0.64200550  0.62459868  0.95190855  1
  O  O91  1  0.46936260  0.73611290  0.49237841  1
  O  O92  1  0.67091804  0.38208983  0.95498980  1
  O  O93  1  0.43252704  0.06662350  0.35058825  1
  O  O94  1  0.56747296  0.93337650  0.64941175  1
  O  O95  1  0.32908196  0.61791017  0.04501020  1
  O  O96  1  0.53063740  0.26388710  0.50762159  1
  O  O97  1  0.35799450  0.37540132  0.04809145  1
  O  O98  1  0.74776187  0.05292610  0.95180504  1
  O  O99  1  0.68024710  0.63849660  0.78244660  1
  O  O100  1  0.50515888  0.41098982  0.33823627  1
  O  O101  1  0.74828308  0.79019936  0.88550659  1
  O  O102  1  0.70734276  0.88386737  0.77283335  1
  O  O103  1  0.45328216  0.16803522  0.02159932  1
  O  O104  1  0.55715378  0.74954606  0.23424080  1
  O  O105  1  0.61429574  0.86084930  0.35442683  1
  O  O106  1  0.79265724  0.38386737  0.72716665  1
  O  O107  1  0.75171692  0.29019936  0.61449341  1
  O  O108  1  0.56375380  0.95435867  0.16781237  1
  O  O109  1  0.65956909  0.62242586  0.34052488  1
  O  O110  1  0.81975290  0.13849660  0.71755340  1
  O  O111  1  0.75223813  0.55292610  0.54819496  1
  O  O112  1  0.96936260  0.76388710  0.99237841  1
  O  O113  1  0.73005249  0.00894989  0.43684231  1
  O  O114  1  0.93252704  0.43337650  0.85058825  1
  O  O115  1  0.75434044  0.48629071  0.43090331  1
  O  O116  1  0.64570551  0.53579750  0.17102945  1
  O  O117  1  0.82908196  0.88208983  0.54501020  1
  O  O118  1  0.85799450  0.12459868  0.54809145  1
  O  O119  1  0.85429449  0.03579750  0.32897055  1
  O  O120  1  0.74565956  0.98629071  0.06909669  1
  O  O121  1  0.95328216  0.33196478  0.52159932  1
  O  O122  1  0.76994751  0.50894989  0.06315769  1
  O  O123  1  0.84043091  0.12242586  0.15947512  1
  O  O124  1  0.93624620  0.45435867  0.33218763  1
  O  O125  1  0.88570426  0.36084930  0.14557317  1
  O  O126  1  0.94284622  0.24954606  0.26575920  1
  O  O127  1  0.99484112  0.91098982  0.16176373  1
