# generated using pymatgen
data_CeU5O12
_symmetry_space_group_name_H-M   'P 1'
_cell_length_a   6.65455698
_cell_length_b   6.65521033
_cell_length_c   6.65544147
_cell_angle_alpha   120.00122197
_cell_angle_beta   109.47133390
_cell_angle_gamma   80.40546461
_symmetry_Int_Tables_number   1
_chemical_formula_structural   CeU5O12
_chemical_formula_sum   'Ce1 U5 O12'
_cell_volume   240.66144569
_cell_formula_units_Z   1
loop_
 _symmetry_equiv_pos_site_id
 _symmetry_equiv_pos_as_xyz
  1  'x, y, z'
loop_
 _atom_site_type_symbol
 _atom_site_label
 _atom_site_symmetry_multiplicity
 _atom_site_fract_x
 _atom_site_fract_y
 _atom_site_fract_z
 _atom_site_occupancy
  Ce  Ce0  1  0.50000000  0.66666411  0.83333155  1
  U  U1  1  0.50000000  0.33326611  0.16663305  1
  U  U2  1  0.50000000  0.00005537  0.50002819  1
  U  U3  1  0.00000000  0.99993324  0.99996612  1
  U  U4  1  0.00000000  0.66666302  0.33333151  1
  U  U5  1  0.00000000  0.33336679  0.66668390  1
  O  O6  1  0.62927420  0.66666895  0.21767568  1
  O  O7  1  0.87667096  0.33225403  0.29116958  1
  O  O8  1  0.12332904  0.33225403  0.04108445  1
  O  O9  1  0.88422758  0.66667480  0.96257555  1
  O  O10  1  0.87661970  0.00108223  0.62552558  1
  O  O11  1  0.37076269  0.00749430  0.13134927  1
  O  O12  1  0.37072580  0.66666895  0.44899427  1
  O  O13  1  0.62924621  0.32585037  0.53532425  1
  O  O14  1  0.11577242  0.66667480  0.70409925  1
  O  O15  1  0.12338030  0.00108223  0.37555665  1
  O  O16  1  0.62923731  0.00749430  0.87614503  1
  O  O17  1  0.37075379  0.32585037  0.79052613  1
