# generated using pymatgen
data_Er2TeO6
_symmetry_space_group_name_H-M   'P 1'
_cell_length_a   9.15263136
_cell_length_b   9.15263136
_cell_length_c   5.13740999
_cell_angle_alpha   90.00447144
_cell_angle_beta   90.00447144
_cell_angle_gamma   59.99997959
_symmetry_Int_Tables_number   1
_chemical_formula_structural   Er2TeO6
_chemical_formula_sum   'Er6 Te3 O18'
_cell_volume   372.70627763
_cell_formula_units_Z   3
loop_
 _symmetry_equiv_pos_site_id
 _symmetry_equiv_pos_as_xyz
  1  'x, y, z'
loop_
 _atom_site_type_symbol
 _atom_site_label
 _atom_site_symmetry_multiplicity
 _atom_site_fract_x
 _atom_site_fract_y
 _atom_site_fract_z
 _atom_site_occupancy
  Er  Er0  1  0.00001335  0.62482555  0.00000693  1
  Er  Er1  1  0.28759893  0.71240107  0.50000000  1
  Er  Er2  1  -0.00002771  0.28754250  0.50001301  1
  Er  Er3  1  0.62479792  0.37520208  0.00000000  1
  Er  Er4  1  0.37517445  -0.00001335  -0.00000693  1
  Er  Er5  1  0.71245750  0.00002771  0.49998699  1
  Te  Te6  1  0.33333756  0.33350197  0.50703570  1
  Te  Te7  1  0.66649803  0.66666244  0.49296430  1
  Te  Te8  1  -0.00001793  0.00001793  0.00000000  1
  O  O9  1  0.08283111  0.79806225  0.78808657  1
  O  O10  1  0.20193775  0.91716889  0.21191343  1
  O  O11  1  0.22169919  0.53699041  0.29226675  1
  O  O12  1  0.46300959  0.77830081  0.70773325  1
  O  O13  1  0.13183474  0.41091888  0.72342388  1
  O  O14  1  0.58908112  0.86816526  0.27657612  1
  O  O15  1  0.54282465  0.58908833  0.27662762  1
  O  O16  1  0.41091167  0.45717535  0.72337238  1
  O  O17  1  0.24124140  0.22171007  0.29222751  1
  O  O18  1  0.77828893  0.75875860  0.70777249  1
  O  O19  1  0.11910411  0.08285218  0.78806417  1
  O  O20  1  0.91714782  0.88089589  0.21193583  1
  O  O21  1  0.53700378  0.24124573  0.29226571  1
  O  O22  1  0.75875427  0.46299622  0.70773429  1
  O  O23  1  0.45722530  0.13182933  0.72344016  1
  O  O24  1  0.86817067  0.54277470  0.27655984  1
  O  O25  1  0.88092611  0.20192431  0.21194015  1
  O  O26  1  0.79807569  0.11907389  0.78805985  1
