# generated using pymatgen
data_NaZn2HSe2O7
_symmetry_space_group_name_H-M   'P 1'
_cell_length_a   13.57149075
_cell_length_b   6.17704596
_cell_length_c   8.47213172
_cell_angle_alpha   90.00000000
_cell_angle_beta   90.00000000
_cell_angle_gamma   90.00000000
_symmetry_Int_Tables_number   1
_chemical_formula_structural   NaZn2HSe2O7
_chemical_formula_sum   'Na4 Zn8 H4 Se8 O28'
_cell_volume   710.23339202
_cell_formula_units_Z   4
loop_
 _symmetry_equiv_pos_site_id
 _symmetry_equiv_pos_as_xyz
  1  'x, y, z'
loop_
 _atom_site_type_symbol
 _atom_site_label
 _atom_site_symmetry_multiplicity
 _atom_site_fract_x
 _atom_site_fract_y
 _atom_site_fract_z
 _atom_site_occupancy
  Na  Na0  1  0.24966541  0.25000000  0.12799778  1
  Na  Na1  1  0.25033459  0.75000000  0.62799778  1
  Na  Na2  1  0.74966541  0.25000000  0.37200222  1
  Na  Na3  1  0.75033459  0.75000000  0.87200222  1
  Zn  Zn4  1  0.00000000  0.00000000  0.00000000  1
  Zn  Zn5  1  0.00000000  0.50000000  0.00000000  1
  Zn  Zn6  1  0.11281352  0.75000000  0.28992975  1
  Zn  Zn7  1  0.38718648  0.25000000  0.78992975  1
  Zn  Zn8  1  0.50000000  0.00000000  0.50000000  1
  Zn  Zn9  1  0.50000000  0.50000000  0.50000000  1
  Zn  Zn10  1  0.61281352  0.75000000  0.21007025  1
  Zn  Zn11  1  0.88718648  0.25000000  0.71007025  1
  H  H12  1  0.15436077  0.75000000  0.97759581  1
  H  H13  1  0.34563923  0.25000000  0.47759581  1
  H  H14  1  0.65436077  0.75000000  0.52240419  1
  H  H15  1  0.84563923  0.25000000  0.02240419  1
  Se  Se16  1  0.02647385  0.25000000  0.38333601  1
  Se  Se17  1  0.17048566  0.25000000  0.77427245  1
  Se  Se18  1  0.32951434  0.75000000  0.27427245  1
  Se  Se19  1  0.47352615  0.75000000  0.88333601  1
  Se  Se20  1  0.52647385  0.25000000  0.11666399  1
  Se  Se21  1  0.67048566  0.25000000  0.72572755  1
  Se  Se22  1  0.82951434  0.75000000  0.22572755  1
  Se  Se23  1  0.97352615  0.75000000  0.61666399  1
  O  O24  1  0.01815125  0.03106895  0.25456582  1
  O  O25  1  0.01815125  0.46893105  0.25456582  1
  O  O26  1  0.08920431  0.75000000  0.53185920  1
  O  O27  1  0.09489059  0.75000000  0.04151054  1
  O  O28  1  0.11013699  0.25000000  0.95845045  1
  O  O29  1  0.24593881  0.54191881  0.30122599  1
  O  O30  1  0.24593881  0.95808119  0.30122599  1
  O  O31  1  0.25406119  0.04191881  0.80122599  1
  O  O32  1  0.25406119  0.45808119  0.80122599  1
  O  O33  1  0.38986301  0.75000000  0.45845045  1
  O  O34  1  0.40510941  0.25000000  0.54151054  1
  O  O35  1  0.41079569  0.25000000  0.03185920  1
  O  O36  1  0.48184875  0.53106895  0.75456582  1
  O  O37  1  0.48184875  0.96893105  0.75456582  1
  O  O38  1  0.51815125  0.03106895  0.24543418  1
  O  O39  1  0.51815125  0.46893105  0.24543418  1
  O  O40  1  0.58920431  0.75000000  0.96814080  1
  O  O41  1  0.59489059  0.75000000  0.45848946  1
  O  O42  1  0.61013699  0.25000000  0.54154955  1
  O  O43  1  0.74593881  0.54191881  0.19877401  1
  O  O44  1  0.74593881  0.95808119  0.19877401  1
  O  O45  1  0.75406119  0.04191881  0.69877401  1
  O  O46  1  0.75406119  0.45808119  0.69877401  1
  O  O47  1  0.88986301  0.75000000  0.04154955  1
  O  O48  1  0.90510941  0.25000000  0.95848946  1
  O  O49  1  0.91079569  0.25000000  0.46814080  1
  O  O50  1  0.98184875  0.53106895  0.74543418  1
  O  O51  1  0.98184875  0.96893105  0.74543418  1
