# generated using pymatgen
data_Li2FeCo3O8
_symmetry_space_group_name_H-M   'P 1'
_cell_length_a   8.17818438
_cell_length_b   8.17448196
_cell_length_c   8.17110203
_cell_angle_alpha   89.91939321
_cell_angle_beta   89.98948433
_cell_angle_gamma   90.05144009
_symmetry_Int_Tables_number   1
_chemical_formula_structural   Li2FeCo3O8
_chemical_formula_sum   'Li8 Fe4 Co12 O32'
_cell_volume   546.25718034
_cell_formula_units_Z   4
loop_
 _symmetry_equiv_pos_site_id
 _symmetry_equiv_pos_as_xyz
  1  'x, y, z'
loop_
 _atom_site_type_symbol
 _atom_site_label
 _atom_site_symmetry_multiplicity
 _atom_site_fract_x
 _atom_site_fract_y
 _atom_site_fract_z
 _atom_site_occupancy
  Li  Li0  1  0.99827164  0.99778901  0.99869774  1
  Li  Li1  1  0.25229120  0.25177158  0.25109184  1
  Li  Li2  1  0.24740789  0.74639297  0.75232597  1
  Li  Li3  1  0.50193163  0.00304781  0.49767696  1
  Li  Li4  1  0.49741147  0.50281121  0.00261850  1
  Li  Li5  1  0.75226849  0.24776133  0.74775789  1
  Li  Li6  1  0.74860123  0.75121877  0.24634163  1
  Li  Li7  1  0.00273081  0.49864917  0.50246936  1
  Fe  Fe8  1  0.12472677  0.87375309  0.37262272  1
  Fe  Fe9  1  0.37613610  0.12702600  0.87605321  1
  Fe  Fe10  1  0.62472266  0.62267630  0.62663733  1
  Fe  Fe11  1  0.87564950  0.37891124  0.12249537  1
  Co  Co12  1  0.12299389  0.12868791  0.62556414  1
  Co  Co13  1  0.12417983  0.37885235  0.87278777  1
  Co  Co14  1  0.12774934  0.62412803  0.12179193  1
  Co  Co15  1  0.37162831  0.37488886  0.62162638  1
  Co  Co16  1  0.37564686  0.62189903  0.37265153  1
  Co  Co17  1  0.37780232  0.87214824  0.12516954  1
  Co  Co18  1  0.62181464  0.37160821  0.37429854  1
  Co  Co19  1  0.62489686  0.12156383  0.12873694  1
  Co  Co20  1  0.62779557  0.87506712  0.87823929  1
  Co  Co21  1  0.87121944  0.12666562  0.37616999  1
  Co  Co22  1  0.87444135  0.87691487  0.62854636  1
  Co  Co23  1  0.87827905  0.62790778  0.87538696  1
  O  O24  1  0.10716694  0.12099322  0.39463633  1
  O  O25  1  0.10591324  0.89420829  0.62169443  1
  O  O26  1  0.11131737  0.60955186  0.88865523  1
  O  O27  1  0.12796729  0.14331401  0.85514424  1
  O  O28  1  0.12081030  0.38911966  0.10473522  1
  O  O29  1  0.13816485  0.36085602  0.63939375  1
  O  O30  1  0.14505033  0.62952473  0.35959193  1
  O  O31  1  0.14571331  0.86049318  0.12830360  1
  O  O32  1  0.35264646  0.13945136  0.62890021  1
  O  O33  1  0.35535020  0.37046535  0.85833285  1
  O  O34  1  0.36278033  0.64035875  0.14121461  1
  O  O35  1  0.37911802  0.61037650  0.60257232  1
  O  O36  1  0.37220363  0.85708141  0.35682225  1
  O  O37  1  0.39042133  0.38849617  0.38741323  1
  O  O38  1  0.38978039  0.10353200  0.12063535  1
  O  O39  1  0.39447970  0.87783965  0.89356856  1
  O  O40  1  0.60861138  0.37941700  0.60521636  1
  O  O41  1  0.60572657  0.60588054  0.37833091  1
  O  O42  1  0.61061087  0.88791340  0.11000173  1
  O  O43  1  0.63063139  0.35770429  0.14552370  1
  O  O44  1  0.62058895  0.10462311  0.89146120  1
  O  O45  1  0.63846513  0.13960517  0.36189247  1
  O  O46  1  0.64452688  0.87236478  0.64412259  1
  O  O47  1  0.64094708  0.64544535  0.86981076  1
  O  O48  1  0.85490277  0.35487819  0.37402517  1
  O  O49  1  0.85975038  0.12878243  0.14903893  1
  O  O50  1  0.86011842  0.86229795  0.86103766  1
  O  O51  1  0.87833860  0.89389504  0.39387432  1
  O  O52  1  0.87101812  0.64805094  0.63886355  1
  O  O53  1  0.88952276  0.11050367  0.60953776  1
  O  O54  1  0.89417951  0.39130697  0.87769937  1
  O  O55  1  0.89258166  0.61966970  0.11033250  1
