# generated using pymatgen
data_Bi12Rh12O41
_symmetry_space_group_name_H-M   'P 1'
_cell_length_a   7.31393259
_cell_length_b   12.67771608
_cell_length_c   10.36199231
_cell_angle_alpha   65.87871649
_cell_angle_beta   90.00000000
_cell_angle_gamma   73.23444421
_symmetry_Int_Tables_number   1
_chemical_formula_structural   Bi12Rh12O41
_chemical_formula_sum   'Bi12 Rh12 O41'
_cell_volume   831.96069611
_cell_formula_units_Z   1
loop_
 _symmetry_equiv_pos_site_id
 _symmetry_equiv_pos_as_xyz
  1  'x, y, z'
loop_
 _atom_site_type_symbol
 _atom_site_label
 _atom_site_symmetry_multiplicity
 _atom_site_fract_x
 _atom_site_fract_y
 _atom_site_fract_z
 _atom_site_occupancy
  Bi  Bi0  1  0.82821175  0.84357550  0.82070248  1
  Bi  Bi1  1  0.83440408  0.32976591  0.83300704  1
  Bi  Bi2  1  0.33583001  0.32976591  0.83300704  1
  Bi  Bi3  1  0.33314396  0.83371308  0.33813396  1
  Bi  Bi4  1  0.50179494  0.49641012  0.49855802  1
  Bi  Bi5  1  0.67178825  0.15642450  0.66427798  1
  Bi  Bi6  1  0.99277843  -0.00000000  0.50961510  1
  Bi  Bi7  1  0.16416999  0.67023409  0.16277295  1
  Bi  Bi8  1  0.50722157  0.00000000  0.50961510  1
  Bi  Bi9  1  0.66559592  0.67023409  0.16277295  1
  Bi  Bi10  1  0.16685604  0.16628692  0.17184704  1
  Bi  Bi11  1  0.99820506  0.50358988  0.99496814  1
  Rh  Rh12  1  0.33392560  0.83214881  0.83478556  1
  Rh  Rh13  1  0.16844016  0.66603261  0.66641059  1
  Rh  Rh14  1  0.66552723  0.66603261  0.66641059  1
  Rh  Rh15  1  0.16607440  0.16785119  0.66693437  1
  Rh  Rh16  1  0.00038117  0.49923766  0.49983540  1
  Rh  Rh17  1  0.83299881  0.83400339  0.33181958  1
  Rh  Rh18  1  0.33155984  0.33396739  0.33244320  1
  Rh  Rh19  1  0.83447277  0.33396739  0.33244320  1
  Rh  Rh20  1  0.66700119  0.16599661  0.16582296  1
  Rh  Rh21  1  0.49961883  0.50076234  0.99907407  1
  Rh  Rh22  1  0.99974223  -0.00000000  0.00190965  1
  Rh  Rh23  1  0.50025777  0.00000000  0.00190965  1
  O  O24  1  0.53081198  0.86187713  0.94283747  1
  O  O25  1  0.10730988  0.86187713  0.94283747  1
  O  O26  1  0.41649360  0.66701181  0.00067752  1
  O  O27  1  0.27769166  0.52828251  0.86028377  1
  O  O28  1  0.08443149  0.33113603  0.96063501  1
  O  O29  1  0.14090982  0.80399964  0.72351331  1
  O  O30  1  0.69402583  0.52828251  0.86028377  1
  O  O31  1  0.55509054  0.80399964  0.72351331  1
  O  O32  1  0.91569748  0.66860504  0.74944518  1
  O  O33  1  0.75000000  0.00000000  0.91869769  1
  O  O34  1  0.41684578  0.66630843  0.58306248  1
  O  O35  1  0.59203929  0.31592142  0.70333974  1
  O  O36  1  0.63619812  0.80883864  0.47222565  1
  O  O37  1  0.39269012  0.13812287  0.80471460  1
  O  O38  1  0.77797119  0.52749098  0.61077141  1
  O  O39  1  0.96918802  0.13812287  0.80471460  1
  O  O40  1  0.05496324  0.80883864  0.47222565  1
  O  O41  1  0.19453783  0.52749098  0.61077141  1
  O  O42  1  0.08350640  0.33298819  0.66768933  1
  O  O43  1  0.91698968  0.66602064  0.33344794  1
  O  O44  1  0.25000000  -0.00000000  0.66521036  1
  O  O45  1  0.61128167  0.86063937  0.19479344  1
  O  O46  1  0.22230834  0.47171749  0.38856528  1
  O  O47  1  0.80597417  0.47171749  0.38856528  1
  O  O48  1  0.02807896  0.86063937  0.19479344  1
  O  O49  1  0.94490946  0.19600036  0.52751294  1
  O  O50  1  0.35909018  0.19600036  0.52751294  1
  O  O51  1  0.41556851  0.66886397  0.29177204  1
  O  O52  1  0.58430252  0.33139496  0.41804922  1
  O  O53  1  0.08315422  0.33369157  0.24937091  1
  O  O54  1  0.25000000  0.00000000  0.40045877  1
  O  O55  1  0.90796071  0.68407858  0.01926116  1
  O  O56  1  0.44503676  0.19116136  0.28106429  1
  O  O57  1  0.72202881  0.47250902  0.13826239  1
  O  O58  1  0.86380188  0.19116136  0.28106429  1
  O  O59  1  0.30546217  0.47250902  0.13826239  1
  O  O60  1  0.75000000  -0.00000000  0.33062650  1
  O  O61  1  0.58301032  0.33397936  0.99946858  1
  O  O62  1  0.88871833  0.13936063  0.05543281  1
  O  O63  1  0.47192104  0.13936063  0.05543281  1
  O  O64  1  0.25000000  0.00000000  0.08475620  1
