# generated using pymatgen
data_SbOF
_symmetry_space_group_name_H-M   'P 1'
_cell_length_a   4.15738536
_cell_length_b   5.82045364
_cell_length_c   8.92841145
_cell_angle_alpha   90.00000000
_cell_angle_beta   90.00000000
_cell_angle_gamma   90.00000000
_symmetry_Int_Tables_number   1
_chemical_formula_structural   SbOF
_chemical_formula_sum   'Sb4 O4 F4'
_cell_volume   216.04852843
_cell_formula_units_Z   4
loop_
 _symmetry_equiv_pos_site_id
 _symmetry_equiv_pos_as_xyz
  1  'x, y, z'
loop_
 _atom_site_type_symbol
 _atom_site_label
 _atom_site_symmetry_multiplicity
 _atom_site_fract_x
 _atom_site_fract_y
 _atom_site_fract_z
 _atom_site_occupancy
  O  O0  1  0.25000000  0.59079568  0.44879073  1
  O  O1  1  0.25000000  0.90920432  0.94879073  1
  O  O2  1  0.75000000  0.09079568  0.05120927  1
  O  O3  1  0.75000000  0.40920432  0.55120927  1
  F  F4  1  0.75000000  0.94307335  0.72892026  1
  F  F5  1  0.75000000  0.55692665  0.22892026  1
  F  F6  1  0.25000000  0.44307335  0.77107974  1
  F  F7  1  0.25000000  0.05692665  0.27107974  1
  Sb  Sb8  1  0.25000000  0.29508829  0.56921660  1
  Sb  Sb9  1  0.75000000  0.70491171  0.43078340  1
  Sb  Sb10  1  0.75000000  0.79508829  0.93078340  1
  Sb  Sb11  1  0.25000000  0.20491171  0.06921660  1
