# generated using pymatgen
data_LiNiPO4
_symmetry_space_group_name_H-M   'P 1'
_cell_length_a   5.91542504
_cell_length_b   10.17909078
_cell_length_c   4.72372629
_cell_angle_alpha   90.00000000
_cell_angle_beta   90.13739674
_cell_angle_gamma   90.00000000
_symmetry_Int_Tables_number   1
_chemical_formula_structural   LiNiPO4
_chemical_formula_sum   'Li4 Ni4 P4 O16'
_cell_volume   284.43197647
_cell_formula_units_Z   4
loop_
 _symmetry_equiv_pos_site_id
 _symmetry_equiv_pos_as_xyz
  1  'x, y, z'
loop_
 _atom_site_type_symbol
 _atom_site_label
 _atom_site_symmetry_multiplicity
 _atom_site_fract_x
 _atom_site_fract_y
 _atom_site_fract_z
 _atom_site_occupancy
  Li  Li0  1  0.25138416  0.29572306  0.25468568  1
  Li  Li1  1  0.24564346  0.80102962  0.74924007  1
  Li  Li2  1  0.75435654  0.30102962  0.25075993  1
  Li  Li3  1  0.74861584  0.79572306  0.74531432  1
  Ni  Ni4  1  0.99341584  0.02134548  0.26210163  1
  Ni  Ni5  1  0.49541599  0.07239666  0.76216257  1
  Ni  Ni6  1  0.50458401  0.57239666  0.23783743  1
  Ni  Ni7  1  0.00658416  0.52134548  0.73789837  1
  P  P8  1  0.99718597  0.20217599  0.83016810  1
  P  P9  1  0.49637158  0.89150430  0.32596982  1
  P  P10  1  0.50362842  0.39150430  0.67403018  1
  P  P11  1  0.00281403  0.70217599  0.16983190  1
  O  O12  1  0.00707035  0.34408658  0.95225636  1
  O  O13  1  0.99637085  0.19805966  0.50547542  1
  O  O14  1  0.21394495  0.63427585  0.02903602  1
  O  O15  1  0.20157854  0.12654034  0.96921826  1
  O  O16  1  0.28693459  0.96127103  0.46657151  1
  O  O17  1  0.49775920  0.24953857  0.55274356  1
  O  O18  1  0.49541504  0.89612949  0.00135276  1
  O  O19  1  0.29766824  0.46484239  0.53240822  1
  O  O20  1  0.70233176  0.96484239  0.46759178  1
  O  O21  1  0.50458496  0.39612949  0.99864724  1
  O  O22  1  0.50224080  0.74953857  0.44725644  1
  O  O23  1  0.71306541  0.46127103  0.53342849  1
  O  O24  1  0.79842146  0.62654034  0.03078174  1
  O  O25  1  0.78605505  0.13427585  0.97096398  1
  O  O26  1  0.00362915  0.69805966  0.49452458  1
  O  O27  1  0.99292965  0.84408658  0.04774364  1
