# generated using pymatgen
data_Na5SbO5
_symmetry_space_group_name_H-M   'P 1'
_cell_length_a   4.46709472
_cell_length_b   5.88894013
_cell_length_c   6.48447543
_cell_angle_alpha   72.80980515
_cell_angle_beta   90.13956596
_cell_angle_gamma   67.74876801
_symmetry_Int_Tables_number   1
_chemical_formula_structural   Na5SbO5
_chemical_formula_sum   'Na5 Sb1 O5'
_cell_volume   149.56125334
_cell_formula_units_Z   1
loop_
 _symmetry_equiv_pos_site_id
 _symmetry_equiv_pos_as_xyz
  1  'x, y, z'
loop_
 _atom_site_type_symbol
 _atom_site_label
 _atom_site_symmetry_multiplicity
 _atom_site_fract_x
 _atom_site_fract_y
 _atom_site_fract_z
 _atom_site_occupancy
  Na  Na0  1  0.67851288  0.64345748  0.85756369  1
  Na  Na1  1  0.69696297  0.60599977  0.32334255  1
  Na  Na2  1  0.30174686  0.39277775  0.67466035  1
  Na  Na3  1  0.32344100  0.35755348  0.13779382  1
  Na  Na4  1  0.99437275  0.00044665  0.49946479  1
  Sb  Sb5  1  0.00894201  0.00006928  0.99949842  1
  O  O6  1  0.13065667  0.73722628  0.84313393  1
  O  O7  1  0.14270960  0.71305018  0.29160950  1
  O  O8  1  0.85335291  0.28778332  0.70748138  1
  O  O9  1  0.86984273  0.26339106  0.15540524  1
  O  O10  1  0.49305061  0.00007277  0.99828335  1
