# generated using pymatgen
data_Cr2As
_symmetry_space_group_name_H-M   'P 1'
_cell_length_a   6.43920119
_cell_length_b   6.43920119
_cell_length_c   3.60960017
_cell_angle_alpha   90.00000000
_cell_angle_beta   90.00000000
_cell_angle_gamma   119.99999996
_symmetry_Int_Tables_number   1
_chemical_formula_structural   Cr2As
_chemical_formula_sum   'Cr6 As3'
_cell_volume   129.61453895
_cell_formula_units_Z   3
loop_
 _symmetry_equiv_pos_site_id
 _symmetry_equiv_pos_as_xyz
  1  'x, y, z'
loop_
 _atom_site_type_symbol
 _atom_site_label
 _atom_site_symmetry_multiplicity
 _atom_site_fract_x
 _atom_site_fract_y
 _atom_site_fract_z
 _atom_site_occupancy
  Cr  Cr0  1  0.00000000  0.60298374  0.50000000  1
  Cr  Cr1  1  0.39701626  0.39701626  0.50000000  1
  Cr  Cr2  1  0.60298374  0.00000000  0.50000000  1
  Cr  Cr3  1  0.25106566  0.00000000  0.00000000  1
  Cr  Cr4  1  0.74893434  0.74893434  0.00000000  1
  Cr  Cr5  1  0.00000000  0.25106566  0.00000000  1
  As  As6  1  0.66666667  0.33333333  0.00000000  1
  As  As7  1  0.33333333  0.66666667  0.00000000  1
  As  As8  1  0.00000000  0.00000000  0.50000000  1
