# generated using pymatgen
data_Yb2P4O13
_symmetry_space_group_name_H-M   'P 1'
_cell_length_a   7.13186897
_cell_length_b   9.61815275
_cell_length_c   8.74610468
_cell_angle_alpha   90.00000000
_cell_angle_beta   90.00000000
_cell_angle_gamma   68.23809625
_symmetry_Int_Tables_number   1
_chemical_formula_structural   Yb2P4O13
_chemical_formula_sum   'Yb4 P8 O26'
_cell_volume   557.18621299
_cell_formula_units_Z   2
loop_
 _symmetry_equiv_pos_site_id
 _symmetry_equiv_pos_as_xyz
  1  'x, y, z'
loop_
 _atom_site_type_symbol
 _atom_site_label
 _atom_site_symmetry_multiplicity
 _atom_site_fract_x
 _atom_site_fract_y
 _atom_site_fract_z
 _atom_site_occupancy
  Yb  Yb0  1  0.39991972  0.70661279  0.39742603  1
  Yb  Yb1  1  0.89346649  0.70661279  0.60257397  1
  Yb  Yb2  1  0.10653351  0.29338721  0.10257397  1
  Yb  Yb3  1  0.60008028  0.29338721  0.89742603  1
  P  P4  1  0.27933488  0.88274490  0.02202846  1
  P  P5  1  0.83792022  0.88274490  0.97797154  1
  P  P6  1  0.90279216  0.68278945  0.24811712  1
  P  P7  1  0.41441840  0.68278945  0.75188288  1
  P  P8  1  0.58558160  0.31721055  0.25188288  1
  P  P9  1  0.09720784  0.31721055  0.74811712  1
  P  P10  1  0.72066512  0.11725510  0.52202846  1
  P  P11  1  0.16207978  0.11725510  0.47797154  1
  O  O12  1  0.74327020  0.95688813  0.54431594  1
  O  O13  1  0.29984167  0.95688813  0.45568406  1
  O  O14  1  0.06107292  0.87785517  0.00000000  1
  O  O15  1  0.78943120  0.82931327  0.14139682  1
  O  O16  1  0.38125453  0.82931327  0.85860318  1
  O  O17  1  0.84054910  0.77423958  0.85429145  1
  O  O18  1  0.38521032  0.77423958  0.14570855  1
  O  O19  1  0.06720429  0.71130099  0.34169147  1
  O  O20  1  0.22149372  0.71130099  0.65830853  1
  O  O21  1  0.58241875  0.67627031  0.64047694  1
  O  O22  1  0.74131093  0.67627031  0.35952306  1
  O  O23  1  0.46981766  0.54683323  0.85488480  1
  O  O24  1  0.98334911  0.54683323  0.14511520  1
  O  O25  1  0.53018234  0.45316677  0.35488480  1
  O  O26  1  0.01665089  0.45316677  0.64511520  1
  O  O27  1  0.41758125  0.32372969  0.14047694  1
  O  O28  1  0.25868907  0.32372969  0.85952306  1
  O  O29  1  0.93279571  0.28869901  0.84169147  1
  O  O30  1  0.77850628  0.28869901  0.15830853  1
  O  O31  1  0.15945090  0.22576042  0.35429145  1
  O  O32  1  0.61478968  0.22576042  0.64570855  1
  O  O33  1  0.61874547  0.17068673  0.35860318  1
  O  O34  1  0.21056880  0.17068673  0.64139682  1
  O  O35  1  0.93892708  0.12214483  0.50000000  1
  O  O36  1  0.70015833  0.04311187  0.95568406  1
  O  O37  1  0.25672980  0.04311187  0.04431594  1
