# generated using pymatgen
data_Zn2Fe7O12
_symmetry_space_group_name_H-M   'P 1'
_cell_length_a   6.06253073
_cell_length_b   6.06253073
_cell_length_c   13.55155614
_cell_angle_alpha   102.92550071
_cell_angle_beta   77.07449929
_cell_angle_gamma   90.00000000
_symmetry_Int_Tables_number   1
_chemical_formula_structural   Zn2Fe7O12
_chemical_formula_sum   'Zn4 Fe14 O24'
_cell_volume   472.49985523
_cell_formula_units_Z   2
loop_
 _symmetry_equiv_pos_site_id
 _symmetry_equiv_pos_as_xyz
  1  'x, y, z'
loop_
 _atom_site_type_symbol
 _atom_site_label
 _atom_site_symmetry_multiplicity
 _atom_site_fract_x
 _atom_site_fract_y
 _atom_site_fract_z
 _atom_site_occupancy
  Zn  Zn0  1  0.99977036  0.00022964  0.00045828  1
  Zn  Zn1  1  0.41689564  0.08310436  0.16620772  1
  Zn  Zn2  1  0.74977036  0.75022964  0.50045828  1
  Zn  Zn3  1  0.66689564  0.33310436  0.66620772  1
  Fe  Fe4  1  0.70833300  0.54166700  0.08333300  1
  Fe  Fe5  1  0.20833300  0.54166700  0.08333300  1
  Fe  Fe6  1  0.87517773  0.87491995  0.24964553  1
  Fe  Fe7  1  0.87517773  0.37472558  0.24964553  1
  Fe  Fe8  1  0.33333300  0.66666700  0.33333300  1
  Fe  Fe9  1  0.54158695  0.20851073  0.41702147  1
  Fe  Fe10  1  0.04139158  0.20851073  0.41702147  1
  Fe  Fe11  1  0.20833300  0.04166700  0.58333300  1
  Fe  Fe12  1  0.20833300  0.54166700  0.58333300  1
  Fe  Fe13  1  0.37527442  0.87482227  0.74964553  1
  Fe  Fe14  1  0.87508005  0.87482227  0.74964553  1
  Fe  Fe15  1  0.08333300  0.41666700  0.83333300  1
  Fe  Fe16  1  0.54148927  0.20841305  0.91702147  1
  Fe  Fe17  1  0.54148927  0.70860842  0.91702147  1
  O  O18  1  0.46167044  0.30911250  0.07665813  1
  O  O19  1  0.46167044  0.76754563  0.07665813  1
  O  O20  1  0.95499556  0.31578837  0.09000887  1
  O  O21  1  0.95499556  0.77422050  0.09000887  1
  O  O22  1  0.10461829  0.62079492  0.24158983  1
  O  O23  1  0.65379188  0.62079492  0.24158983  1
  O  O24  1  0.64228189  0.12850015  0.25700031  1
  O  O25  1  0.10071681  0.12850015  0.25700031  1
  O  O26  1  0.79516715  0.43405081  0.40966569  1
  O  O27  1  0.79516715  0.97561589  0.40966569  1
  O  O28  1  0.28746192  0.43795229  0.42507717  1
  O  O29  1  0.28746192  0.98712488  0.42507717  1
  O  O30  1  0.98245437  0.28832956  0.57665813  1
  O  O31  1  0.44088750  0.28832956  0.57665813  1
  O  O32  1  0.97577950  0.79500444  0.59000887  1
  O  O33  1  0.43421163  0.79500444  0.59000887  1
  O  O34  1  0.12920508  0.09620812  0.74158983  1
  O  O35  1  0.12920508  0.64538171  0.74158983  1
  O  O36  1  0.62149985  0.10771811  0.75700031  1
  O  O37  1  0.62149985  0.64928319  0.75700031  1
  O  O38  1  0.31594919  0.95483285  0.90966569  1
  O  O39  1  0.77438411  0.95483285  0.90966569  1
  O  O40  1  0.31204771  0.46253808  0.92507717  1
  O  O41  1  0.76287512  0.46253808  0.92507717  1
