# generated using pymatgen
data_LiP3(WO6)2
_symmetry_space_group_name_H-M   'P 1'
_cell_length_a   8.67724257
_cell_length_b   8.99005464
_cell_length_c   12.31605989
_cell_angle_alpha   90.00000000
_cell_angle_beta   89.08277722
_cell_angle_gamma   90.00000000
_symmetry_Int_Tables_number   1
_chemical_formula_structural   LiP3(WO6)2
_chemical_formula_sum   'Li4 P12 W8 O48'
_cell_volume   960.63899086
_cell_formula_units_Z   4
loop_
 _symmetry_equiv_pos_site_id
 _symmetry_equiv_pos_as_xyz
  1  'x, y, z'
loop_
 _atom_site_type_symbol
 _atom_site_label
 _atom_site_symmetry_multiplicity
 _atom_site_fract_x
 _atom_site_fract_y
 _atom_site_fract_z
 _atom_site_occupancy
  Li  Li0  1  0.18848149  0.71872055  0.82384641  1
  Li  Li1  1  0.31151851  0.21872055  0.67615359  1
  Li  Li2  1  0.68848149  0.78127945  0.32384641  1
  Li  Li3  1  0.81151851  0.28127945  0.17615359  1
  P  P4  1  0.03427470  0.24893035  0.50786984  1
  P  P5  1  0.10422596  0.11793753  0.14806276  1
  P  P6  1  0.11013198  0.38960814  0.85641353  1
  P  P7  1  0.38986802  0.88960814  0.64358647  1
  P  P8  1  0.39577404  0.61793753  0.35193724  1
  P  P9  1  0.46572530  0.74893035  0.99213016  1
  P  P10  1  0.53427470  0.25106965  0.00786984  1
  P  P11  1  0.60422596  0.38206247  0.64806276  1
  P  P12  1  0.61013198  0.11039186  0.35641353  1
  P  P13  1  0.88986802  0.61039186  0.14358647  1
  P  P14  1  0.89577404  0.88206247  0.85193724  1
  P  P15  1  0.96572530  0.75106965  0.49213016  1
  W  W16  1  0.24783337  0.96803466  0.38181926  1
  W  W17  1  0.24417134  0.53757569  0.61368971  1
  W  W18  1  0.25216663  0.46803466  0.11818074  1
  W  W19  1  0.25582866  0.03757569  0.88631029  1
  W  W20  1  0.74417134  0.96242431  0.11368971  1
  W  W21  1  0.74783337  0.53196534  0.88181926  1
  W  W22  1  0.75582866  0.46242431  0.38631029  1
  W  W23  1  0.75216663  0.03196534  0.61818074  1
  O  O24  1  0.05067338  0.63159779  0.55928295  1
  O  O25  1  0.06557005  0.61492130  0.12514416  1
  O  O26  1  0.07106084  0.91593101  0.83266435  1
  O  O27  1  0.07616535  0.81514098  0.40367625  1
  O  O28  1  0.09372050  0.13192222  0.42917006  1
  O  O29  1  0.11446542  0.28608917  0.16726442  1
  O  O30  1  0.14884493  0.07476204  0.03124254  1
  O  O31  1  0.15219419  0.51135220  0.76922234  1
  O  O32  1  0.17087038  0.32192240  0.56809446  1
  O  O33  1  0.17353396  0.23822989  0.81563640  1
  O  O34  1  0.19354841  0.43629394  0.95960483  1
  O  O35  1  0.20134186  0.02333533  0.22568113  1
  O  O36  1  0.29865814  0.52333533  0.27431887  1
  O  O37  1  0.30645159  0.93629394  0.54039517  1
  O  O38  1  0.32646604  0.73822989  0.68436360  1
  O  O39  1  0.32912962  0.82192240  0.93190554  1
  O  O40  1  0.35115507  0.57476204  0.46875746  1
  O  O41  1  0.34780581  0.01135220  0.73077766  1
  O  O42  1  0.38553458  0.78608917  0.33273558  1
  O  O43  1  0.40627950  0.63192222  0.07082994  1
  O  O44  1  0.42383465  0.31514098  0.09632375  1
  O  O45  1  0.43442995  0.11492130  0.37485584  1
  O  O46  1  0.42893916  0.41593101  0.66733565  1
  O  O47  1  0.44932662  0.13159779  0.94071705  1
  O  O48  1  0.55067338  0.86840221  0.05928295  1
  O  O49  1  0.57106084  0.58406899  0.33266435  1
  O  O50  1  0.56557005  0.88507870  0.62514416  1
  O  O51  1  0.57616535  0.68485902  0.90367625  1
  O  O52  1  0.59372050  0.36807778  0.92917006  1
  O  O53  1  0.61446542  0.21391083  0.66726442  1
  O  O54  1  0.65219419  0.98864780  0.26922234  1
  O  O55  1  0.64884493  0.42523796  0.53124254  1
  O  O56  1  0.67087038  0.17807760  0.06809446  1
  O  O57  1  0.67353396  0.26177011  0.31563640  1
  O  O58  1  0.69354841  0.06370606  0.45960483  1
  O  O59  1  0.70134186  0.47666467  0.72568113  1
  O  O60  1  0.79865814  0.97666467  0.77431887  1
  O  O61  1  0.80645159  0.56370606  0.04039517  1
  O  O62  1  0.82646604  0.76177011  0.18436360  1
  O  O63  1  0.82912962  0.67807760  0.43190554  1
  O  O64  1  0.84780581  0.48864780  0.23077766  1
  O  O65  1  0.85115507  0.92523796  0.96875746  1
  O  O66  1  0.88553458  0.71391083  0.83273558  1
  O  O67  1  0.90627950  0.86807778  0.57082994  1
  O  O68  1  0.92383465  0.18485902  0.59632375  1
  O  O69  1  0.92893916  0.08406899  0.16733565  1
  O  O70  1  0.93442995  0.38507870  0.87485584  1
  O  O71  1  0.94932662  0.36840221  0.44071705  1
