# generated using pymatgen
data_Li2VCrP2(O4F)2
_symmetry_space_group_name_H-M   'P 1'
_cell_length_a   7.98553671
_cell_length_b   6.96240885
_cell_length_c   7.34338008
_cell_angle_alpha   62.41367110
_cell_angle_beta   89.32060163
_cell_angle_gamma   91.61927787
_symmetry_Int_Tables_number   1
_chemical_formula_structural   Li2VCrP2(O4F)2
_chemical_formula_sum   'Li4 V2 Cr2 P4 O16 F4'
_cell_volume   361.57770554
_cell_formula_units_Z   2
loop_
 _symmetry_equiv_pos_site_id
 _symmetry_equiv_pos_as_xyz
  1  'x, y, z'
loop_
 _atom_site_type_symbol
 _atom_site_label
 _atom_site_symmetry_multiplicity
 _atom_site_fract_x
 _atom_site_fract_y
 _atom_site_fract_z
 _atom_site_occupancy
  Li  Li0  1  0.17188610  0.55837457  0.18843087  1
  Li  Li1  1  0.67294211  0.05692117  0.18840196  1
  Li  Li2  1  0.32705789  0.94307883  0.81159804  1
  Li  Li3  1  0.82811390  0.44162543  0.81156913  1
  V  V4  1  0.00000000  0.00000000  0.50000000  1
  V  V5  1  0.50000000  0.50000000  0.00000000  1
  Cr  Cr6  1  0.00000000  0.00000000  0.00000000  1
  Cr  Cr7  1  0.50000000  0.50000000  0.50000000  1
  P  P8  1  0.15899180  0.51652965  0.76215708  1
  P  P9  1  0.65937820  0.01976455  0.76134355  1
  P  P10  1  0.34062180  0.98023545  0.23865645  1
  P  P11  1  0.84100820  0.48347035  0.23784292  1
  O  O12  1  0.23321662  0.01904982  0.39196906  1
  O  O13  1  0.43904534  0.19127185  0.08584691  1
  O  O14  1  0.06012270  0.30767155  0.91656372  1
  O  O15  1  0.01681176  0.67510962  0.65532302  1
  O  O16  1  0.26732065  0.48023063  0.60861864  1
  O  O17  1  0.51626699  0.17676847  0.65731905  1
  O  O18  1  0.22971526  0.89557856  0.11306180  1
  O  O19  1  0.73100606  0.39697613  0.11182028  1
  O  O20  1  0.26899394  0.60302387  0.88817972  1
  O  O21  1  0.77028474  0.10442144  0.88693820  1
  O  O22  1  0.48373301  0.82323153  0.34268095  1
  O  O23  1  0.73267935  0.51976937  0.39138136  1
  O  O24  1  0.98318824  0.32489038  0.34467698  1
  O  O25  1  0.93987730  0.69232845  0.08343628  1
  O  O26  1  0.56095466  0.80872815  0.91415309  1
  O  O27  1  0.76678338  0.98095018  0.60803094  1
  F  F28  1  0.10004614  0.02858637  0.74129215  1
  F  F29  1  0.40008190  0.47144241  0.26723168  1
  F  F30  1  0.59991810  0.52855759  0.73276832  1
  F  F31  1  0.89995386  0.97141363  0.25870785  1
