# generated using pymatgen
data_Li2VCr(P2O7)2
_symmetry_space_group_name_H-M   'P 1'
_cell_length_a   9.73732554
_cell_length_b   8.22076035
_cell_length_c   7.02351843
_cell_angle_alpha   90.00000000
_cell_angle_beta   108.73316832
_cell_angle_gamma   90.00000000
_symmetry_Int_Tables_number   1
_chemical_formula_structural   Li2VCr(P2O7)2
_chemical_formula_sum   'Li4 V2 Cr2 P8 O28'
_cell_volume   532.43626261
_cell_formula_units_Z   2
loop_
 _symmetry_equiv_pos_site_id
 _symmetry_equiv_pos_as_xyz
  1  'x, y, z'
loop_
 _atom_site_type_symbol
 _atom_site_label
 _atom_site_symmetry_multiplicity
 _atom_site_fract_x
 _atom_site_fract_y
 _atom_site_fract_z
 _atom_site_occupancy
  Li  Li0  1  0.08852185  0.86309864  0.67671938  1
  Li  Li1  1  0.41189525  0.36305504  0.32283954  1
  Li  Li2  1  0.58810475  0.86305504  0.67716046  1
  Li  Li3  1  0.91147815  0.36309864  0.32328062  1
  V  V4  1  0.39190468  0.99948801  0.27113778  1
  V  V5  1  0.60809532  0.49948801  0.72886222  1
  Cr  Cr6  1  0.10705856  0.49999986  0.72799410  1
  Cr  Cr7  1  0.89294144  -0.00000014  0.27200590  1
  P  P8  1  0.19956095  0.18060702  0.52293857  1
  P  P9  1  0.10546277  0.78305636  0.08559334  1
  P  P10  1  0.39315429  0.28475318  0.91414349  1
  P  P11  1  0.29950633  0.67973463  0.47873469  1
  P  P12  1  0.70049367  0.17973463  0.52126531  1
  P  P13  1  0.60684571  0.78475318  0.08585651  1
  P  P14  1  0.89453723  0.28305636  0.91440666  1
  P  P15  1  0.80043905  0.68060702  0.47706143  1
  O  O16  1  0.02697124  0.32326895  0.85437037  1
  O  O17  1  0.06543388  0.69315203  0.88395522  1
  O  O18  1  0.09289373  0.03796852  0.48156955  1
  O  O19  1  0.12385001  0.34629632  0.50925466  1
  O  O20  1  0.19853071  0.67836453  0.60666780  1
  O  O21  1  0.30016993  0.43478518  0.91618855  1
  O  O22  1  0.29732127  0.15177797  0.75345082  1
  O  O23  1  0.20271597  0.65173996  0.24645564  1
  O  O24  1  0.19791116  0.93365200  0.08048738  1
  O  O25  1  0.30052163  0.17971490  0.39429523  1
  O  O26  1  0.37600956  0.84413507  0.49493537  1
  O  O27  1  0.40669946  0.53709790  0.51768299  1
  O  O28  1  0.52530455  0.32319250  0.85126101  1
  O  O29  1  0.56491687  0.69663843  0.88462258  1
  O  O30  1  0.43508313  0.19663843  0.11537742  1
  O  O31  1  0.47469545  0.82319250  0.14873899  1
  O  O32  1  0.59330054  0.03709790  0.48231701  1
  O  O33  1  0.62399044  0.34413507  0.50506463  1
  O  O34  1  0.69947837  0.67971490  0.60570477  1
  O  O35  1  0.80208884  0.43365200  0.91951262  1
  O  O36  1  0.79728403  0.15173996  0.75354436  1
  O  O37  1  0.70267873  0.65177797  0.24654918  1
  O  O38  1  0.69983007  0.93478518  0.08381145  1
  O  O39  1  0.80146929  0.17836453  0.39333220  1
  O  O40  1  0.87614999  0.84629632  0.49074534  1
  O  O41  1  0.90710627  0.53796852  0.51843045  1
  O  O42  1  0.93456612  0.19315203  0.11604478  1
  O  O43  1  0.97302876  0.82326895  0.14562963  1
