# generated using pymatgen
data_Li2VFe(P2O7)2
_symmetry_space_group_name_H-M   'P 1'
_cell_length_a   9.76682984
_cell_length_b   8.25640981
_cell_length_c   7.15309823
_cell_angle_alpha   90.00000000
_cell_angle_beta   68.63122215
_cell_angle_gamma   90.00000000
_symmetry_Int_Tables_number   1
_chemical_formula_structural   Li2VFe(P2O7)2
_chemical_formula_sum   'Li4 V2 Fe2 P8 O28'
_cell_volume   537.16467003
_cell_formula_units_Z   2
loop_
 _symmetry_equiv_pos_site_id
 _symmetry_equiv_pos_as_xyz
  1  'x, y, z'
loop_
 _atom_site_type_symbol
 _atom_site_label
 _atom_site_symmetry_multiplicity
 _atom_site_fract_x
 _atom_site_fract_y
 _atom_site_fract_z
 _atom_site_occupancy
  Li  Li0  1  0.24999356  0.36288610  0.32366620  1
  Li  Li1  1  0.25000644  0.86288610  0.67633380  1
  Li  Li2  1  0.74942028  0.36270754  0.32493151  1
  Li  Li3  1  0.75057972  0.86270754  0.67506849  1
  V  V4  1  0.25607828  0.00030599  0.27172866  1
  V  V5  1  0.24392172  0.50030599  0.72827134  1
  Fe  Fe6  1  0.75795714  0.99906620  0.26732897  1
  Fe  Fe7  1  0.74204286  0.49906620  0.73267103  1
  P  P8  1  0.06317936  0.78351032  0.08668071  1
  P  P9  1  0.06042689  0.68050594  0.47844092  1
  P  P10  1  0.43957311  0.18050594  0.52155908  1
  P  P11  1  0.56358860  0.78393397  0.08530683  1
  P  P12  1  0.43682064  0.28351032  0.91331929  1
  P  P13  1  0.56139881  0.68011392  0.47734931  1
  P  P14  1  0.93860119  0.18011392  0.52265069  1
  P  P15  1  0.93641140  0.28393397  0.91469317  1
  O  O16  1  0.07944558  0.65261581  0.24697939  1
  O  O17  1  0.15724602  0.93312115  0.08305336  1
  O  O18  1  0.10371998  0.17809967  0.39520836  1
  O  O19  1  0.13014359  0.84362692  0.49364989  1
  O  O20  1  0.14768999  0.53845696  0.51798750  1
  O  O21  1  0.09867997  0.32332191  0.85268446  1
  O  O22  1  0.12378494  0.69604913  0.88576913  1
  O  O23  1  0.37621506  0.19604913  0.11423087  1
  O  O24  1  0.40132003  0.82332191  0.14731554  1
  O  O25  1  0.35231001  0.03845696  0.48201250  1
  O  O26  1  0.36985641  0.34362692  0.50635011  1
  O  O27  1  0.39628002  0.67809967  0.60479164  1
  O  O28  1  0.34275398  0.43312115  0.91694664  1
  O  O29  1  0.42055442  0.15261581  0.75302061  1
  O  O30  1  0.57840456  0.65367177  0.24664754  1
  O  O31  1  0.65781456  0.93316758  0.08335018  1
  O  O32  1  0.60401273  0.17833136  0.39390026  1
  O  O33  1  0.62954070  0.84516495  0.49218027  1
  O  O34  1  0.64755014  0.53772163  0.51743916  1
  O  O35  1  0.59888060  0.32526016  0.85303905  1
  O  O36  1  0.62333128  0.69394004  0.88410701  1
  O  O37  1  0.87666872  0.19394004  0.11589299  1
  O  O38  1  0.90111940  0.82526016  0.14696095  1
  O  O39  1  0.85244986  0.03772163  0.48256084  1
  O  O40  1  0.87045930  0.34516495  0.50781973  1
  O  O41  1  0.89598727  0.67833136  0.60609974  1
  O  O42  1  0.84218544  0.43316758  0.91664982  1
  O  O43  1  0.92159544  0.15367177  0.75335246  1
