# generated using pymatgen
data_Li2VFe(P2O7)2
_symmetry_space_group_name_H-M   'P 1'
_cell_length_a   9.78750025
_cell_length_b   8.23739179
_cell_length_c   7.17516857
_cell_angle_alpha   90.00000000
_cell_angle_beta   68.42341170
_cell_angle_gamma   90.00000000
_symmetry_Int_Tables_number   1
_chemical_formula_structural   Li2VFe(P2O7)2
_chemical_formula_sum   'Li4 V2 Fe2 P8 O28'
_cell_volume   537.95059764
_cell_formula_units_Z   2
loop_
 _symmetry_equiv_pos_site_id
 _symmetry_equiv_pos_as_xyz
  1  'x, y, z'
loop_
 _atom_site_type_symbol
 _atom_site_label
 _atom_site_symmetry_multiplicity
 _atom_site_fract_x
 _atom_site_fract_y
 _atom_site_fract_z
 _atom_site_occupancy
  Li  Li0  1  0.24920928  0.36272725  0.32653116  1
  Li  Li1  1  0.25101899  0.86114961  0.67549086  1
  Li  Li2  1  0.74898101  0.36114961  0.32450914  1
  Li  Li3  1  0.75079072  0.86272725  0.67346884  1
  V  V4  1  0.25716793  -0.00033477  0.27066073  1
  V  V5  1  0.74283207  0.49966523  0.72933927  1
  Fe  Fe6  1  0.24160887  0.49981241  0.73211714  1
  Fe  Fe7  1  0.75839113  -0.00018759  0.26788286  1
  P  P8  1  0.06297565  0.78247416  0.08645446  1
  P  P9  1  0.06141679  0.67987154  0.47821212  1
  P  P10  1  0.43910898  0.18080094  0.52263692  1
  P  P11  1  0.56467051  0.78465755  0.08712490  1
  P  P12  1  0.43532949  0.28465755  0.91287510  1
  P  P13  1  0.56089102  0.68080094  0.47736308  1
  P  P14  1  0.93858321  0.17987154  0.52178788  1
  P  P15  1  0.93702435  0.28247416  0.91354554  1
  O  O16  1  0.07875334  0.65165737  0.24730293  1
  O  O17  1  0.15748089  0.93260502  0.08187984  1
  O  O18  1  0.10348726  0.17817782  0.39409046  1
  O  O19  1  0.12952413  0.84396768  0.49360511  1
  O  O20  1  0.14762584  0.53778218  0.51841611  1
  O  O21  1  0.09903695  0.32319265  0.85392470  1
  O  O22  1  0.12381433  0.69307459  0.88492694  1
  O  O23  1  0.37532276  0.19819478  0.11515783  1
  O  O24  1  0.40213714  0.82530405  0.14879535  1
  O  O25  1  0.35164365  0.03873612  0.48288530  1
  O  O26  1  0.37042518  0.34612829  0.50862071  1
  O  O27  1  0.39650136  0.67904695  0.60641740  1
  O  O28  1  0.34149012  0.43419234  0.91433415  1
  O  O29  1  0.42098254  0.15236144  0.75341402  1
  O  O30  1  0.57901746  0.65236144  0.24658598  1
  O  O31  1  0.65850988  0.93419234  0.08566585  1
  O  O32  1  0.60349864  0.17904695  0.39358260  1
  O  O33  1  0.62957482  0.84612829  0.49137929  1
  O  O34  1  0.64835635  0.53873612  0.51711470  1
  O  O35  1  0.59786286  0.32530405  0.85120465  1
  O  O36  1  0.62467724  0.69819478  0.88484217  1
  O  O37  1  0.87618567  0.19307459  0.11507306  1
  O  O38  1  0.90096305  0.82319265  0.14607530  1
  O  O39  1  0.85237416  0.03778218  0.48158389  1
  O  O40  1  0.87047587  0.34396768  0.50639489  1
  O  O41  1  0.89651274  0.67817782  0.60590954  1
  O  O42  1  0.84251911  0.43260502  0.91812016  1
  O  O43  1  0.92124666  0.15165737  0.75269707  1
