# generated using pymatgen
data_Li2VCr(P2O7)2
_symmetry_space_group_name_H-M   'P 1'
_cell_length_a   12.75185779
_cell_length_b   9.54376055
_cell_length_c   7.01622488
_cell_angle_alpha   99.37664028
_cell_angle_beta   104.20500258
_cell_angle_gamma   99.52068354
_symmetry_Int_Tables_number   1
_chemical_formula_structural   Li2VCr(P2O7)2
_chemical_formula_sum   'Li6 V3 Cr3 P12 O42'
_cell_volume   797.65972675
_cell_formula_units_Z   3
loop_
 _symmetry_equiv_pos_site_id
 _symmetry_equiv_pos_as_xyz
  1  'x, y, z'
loop_
 _atom_site_type_symbol
 _atom_site_label
 _atom_site_symmetry_multiplicity
 _atom_site_fract_x
 _atom_site_fract_y
 _atom_site_fract_z
 _atom_site_occupancy
  Li  Li0  1  0.15353595  0.51626805  0.32343713  1
  Li  Li1  1  0.10443698  0.96745322  0.67677383  1
  Li  Li2  1  0.43811668  0.30124761  0.67653442  1
  Li  Li3  1  0.82023217  0.18326639  0.32305553  1
  Li  Li4  1  0.48665759  0.84957028  0.32361720  1
  Li  Li5  1  0.77100361  0.63409633  0.67658413  1
  V  V6  1  0.23909917  0.73830504  0.72896795  1
  V  V7  1  0.90548327  0.40491589  0.72925408  1
  V  V8  1  0.92814291  0.92769190  0.27119980  1
  Cr  Cr9  1  0.26244577  0.26200755  0.27247187  1
  Cr  Cr10  1  0.57141810  0.07171169  0.72806495  1
  Cr  Cr11  1  0.59501839  0.59474265  0.27211522  1
  P  P12  1  0.07362252  0.25365089  0.52117858  1
  P  P13  1  0.16836334  0.45080545  0.91533963  1
  P  P14  1  0.40672044  0.58638458  0.52088938  1
  P  P15  1  0.14301041  0.92778716  0.08575262  1
  P  P16  1  0.47612688  0.26014943  0.08541716  1
  P  P17  1  0.83360088  0.11862243  0.91406051  1
  P  P18  1  0.50193733  0.78498378  0.91435515  1
  P  P19  1  0.30687754  0.98739868  0.47709393  1
  P  P20  1  0.63953101  0.31976719  0.47704832  1
  P  P21  1  0.73929308  0.92012788  0.52291953  1
  P  P22  1  0.80839859  0.59305258  0.08602422  1
  P  P23  1  0.97328183  0.65322757  0.47806410  1
  O  O24  1  0.04977730  0.08691731  0.48243129  1
  O  O25  1  0.05698698  0.49027396  0.92033992  1
  O  O26  1  0.14758080  0.29928960  0.75367977  1
  O  O27  1  0.15522017  0.09012868  0.08416315  1
  O  O28  1  0.14156404  0.31999277  0.39333889  1
  O  O29  1  0.30208167  0.14855646  0.49076399  1
  O  O30  1  0.09192905  0.62902558  0.51767448  1
  O  O31  1  0.24311950  0.56537796  0.85309856  1
  O  O32  1  0.14457926  0.84117385  0.88450275  1
  O  O33  1  0.47922506  0.17296480  0.88375447  1
  O  O34  1  0.22551513  0.41801999  0.11682204  1
  O  O35  1  0.37440132  0.19786250  0.14528355  1
  O  O36  1  0.04213231  0.86528389  0.14879259  1
  O  O37  1  0.38333578  0.41978295  0.48184777  1
  O  O38  1  0.30115247  0.64530484  0.50486369  1
  O  O39  1  0.57308468  0.25261885  0.60647322  1
  O  O40  1  0.23977983  0.91947424  0.60574804  1
  O  O41  1  0.39024201  0.82368409  0.91953433  1
  O  O42  1  0.72168934  0.15652003  0.91585340  1
  O  O43  1  0.48070856  0.63245088  0.75328374  1
  O  O44  1  0.25116866  0.90305761  0.24643360  1
  O  O45  1  0.58431424  0.23596899  0.24577447  1
  O  O46  1  0.48839653  0.42243588  0.08261381  1
  O  O47  1  0.47467012  0.65309739  0.39300812  1
  O  O48  1  0.63513308  0.48116112  0.49051740  1
  O  O49  1  0.75834646  0.29634605  0.51696735  1
  O  O50  1  0.42541816  0.96347499  0.51840505  1
  O  O51  1  0.90894935  0.23229370  0.85104161  1
  O  O52  1  0.57684018  0.90013112  0.85405152  1
  O  O53  1  0.81130007  0.50751111  0.88491659  1
  O  O54  1  0.55873338  0.75155055  0.11609879  1
  O  O55  1  0.89098949  0.08794378  0.11561192  1
  O  O56  1  0.70729279  0.53123170  0.14737857  1
  O  O57  1  0.71584291  0.75364258  0.48171161  1
  O  O58  1  0.96798614  0.31219061  0.50572579  1
  O  O59  1  0.63371532  0.98009108  0.50959775  1
  O  O60  1  0.90601076  0.58447097  0.60591031  1
  O  O61  1  0.81415428  0.96602990  0.75359603  1
  O  O62  1  0.91736695  0.56993082  0.24655594  1
  O  O63  1  0.82066326  0.75559210  0.08204044  1
  O  O64  1  0.80698705  0.98696845  0.39435446  1
  O  O65  1  0.96968617  0.81409907  0.49522300  1
