# generated using pymatgen
data_NaLiMnPCO7
_symmetry_space_group_name_H-M   'P 1'
_cell_length_a   5.27155103
_cell_length_b   6.38583367
_cell_length_c   8.88462865
_cell_angle_alpha   89.99998825
_cell_angle_beta   92.46467396
_cell_angle_gamma   89.99992304
_symmetry_Int_Tables_number   1
_chemical_formula_structural   NaLiMnPCO7
_chemical_formula_sum   'Na2 Li2 Mn2 P2 C2 O14'
_cell_volume   298.80878172
_cell_formula_units_Z   2
loop_
 _symmetry_equiv_pos_site_id
 _symmetry_equiv_pos_as_xyz
  1  'x, y, z'
loop_
 _atom_site_type_symbol
 _atom_site_label
 _atom_site_symmetry_multiplicity
 _atom_site_fract_x
 _atom_site_fract_y
 _atom_site_fract_z
 _atom_site_occupancy
  Na  Na0  1  0.23592931  0.47660892  0.76165805  1
  Na  Na1  1  0.76408187  0.97661019  0.23833140  1
  Li  Li2  1  0.22340938  0.95335755  0.81067156  1
  Li  Li3  1  0.77659479  0.45334753  0.18932110  1
  Mn  Mn4  1  0.77558264  0.76229441  0.64463527  1
  Mn  Mn5  1  0.22435307  0.26231105  0.35539777  1
  P  P6  1  0.71034892  0.26025865  0.56729328  1
  P  P7  1  0.28966337  0.76024712  0.43272769  1
  C  C8  1  0.71904521  0.74067900  0.93008377  1
  C  C9  1  0.28092315  0.24066509  0.06985033  1
  O  O10  1  0.27038946  0.21011412  0.92944650  1
  O  O11  1  0.93150006  0.75606472  0.85493530  1
  O  O12  1  0.51294146  0.75558141  0.84652186  1
  O  O13  1  0.79917654  0.06849242  0.66226351  1
  O  O14  1  0.79441775  0.45265229  0.66353761  1
  O  O15  1  0.17697207  0.76228935  0.58931112  1
  O  O16  1  0.41166773  0.26162084  0.54928574  1
  O  O17  1  0.58833558  0.76162985  0.45071516  1
  O  O18  1  0.82303415  0.26230398  0.41065929  1
  O  O19  1  0.20557547  0.95264756  0.33644024  1
  O  O20  1  0.20084707  0.56846751  0.33771828  1
  O  O21  1  0.48709728  0.25558261  0.15349950  1
  O  O22  1  0.06849281  0.25606329  0.14507842  1
  O  O23  1  0.72961287  0.71009553  0.07061622  1
