# generated using pymatgen
data_Li2VCrP2(HO5)2
_symmetry_space_group_name_H-M   'P 1'
_cell_length_a   15.15866822
_cell_length_b   7.38838950
_cell_length_c   5.16585700
_cell_angle_alpha   108.93428858
_cell_angle_beta   87.92446027
_cell_angle_gamma   85.88516674
_symmetry_Int_Tables_number   1
_chemical_formula_structural   Li2VCrP2(HO5)2
_chemical_formula_sum   'Li6 V3 Cr3 P6 H6 O30'
_cell_volume   544.76362121
_cell_formula_units_Z   3
loop_
 _symmetry_equiv_pos_site_id
 _symmetry_equiv_pos_as_xyz
  1  'x, y, z'
loop_
 _atom_site_type_symbol
 _atom_site_label
 _atom_site_symmetry_multiplicity
 _atom_site_fract_x
 _atom_site_fract_y
 _atom_site_fract_z
 _atom_site_occupancy
  Li  Li0  1  0.13257989  0.68986042  0.61455279  1
  Li  Li1  1  0.20101511  0.97539746  0.05207281  1
  Li  Li2  1  0.46603827  0.35748186  0.28193068  1
  Li  Li3  1  0.53396173  0.64251814  0.71806932  1
  Li  Li4  1  0.79898489  0.02460254  0.94792719  1
  Li  Li5  1  0.86742011  0.31013958  0.38544721  1
  V  V6  1  0.00000000  0.00000000  0.00000000  1
  V  V7  1  0.33360259  0.16709369  0.66712782  1
  V  V8  1  0.66639741  0.83290631  0.33287218  1
  Cr  Cr9  1  0.00000000  0.50000000  0.00000000  1
  Cr  Cr10  1  0.33317052  0.66655449  0.66643538  1
  Cr  Cr11  1  0.66682948  0.33344451  0.33356462  1
  P  P12  1  0.12018595  0.11337093  0.55820760  1
  P  P13  1  0.21329236  0.55497518  0.11036181  1
  P  P14  1  0.45267088  0.77817687  0.22275964  1
  P  P15  1  0.54732912  0.22182313  0.77724036  1
  P  P16  1  0.78670764  0.44502482  0.88963819  1
  P  P17  1  0.87981405  0.88662907  0.44179240  1
  H  H18  1  0.01961526  0.32202963  0.34035524  1
  H  H19  1  0.35314268  0.98427939  0.00606106  1
  H  H20  1  0.31354194  0.34905863  0.32707557  1
  H  H21  1  0.68645806  0.65094137  0.67292443  1
  H  H22  1  0.64685732  0.01572061  0.99393894  1
  H  H23  1  0.98038474  0.67797037  0.65964476  1
  O  O24  1  0.01567404  0.70671989  0.82369651  1
  O  O25  1  0.08441546  0.98854079  0.28690746  1
  O  O26  1  0.06782765  0.31333935  0.65936695  1
  O  O27  1  0.11453775  0.54525859  0.19077700  1
  O  O28  1  0.11331509  0.00715466  0.77420943  1
  O  O29  1  0.22028679  0.65990691  0.89277748  1
  O  O30  1  0.24957717  0.67919376  0.38185454  1
  O  O31  1  0.31656484  0.95643275  0.84497532  1
  O  O32  1  0.21860659  0.12505654  0.47805347  1
  O  O33  1  0.26489862  0.35472372  0.00882002  1
  O  O34  1  0.40153070  0.97886708  0.32428721  1
  O  O35  1  0.35014054  0.37705598  0.48811525  1
  O  O36  1  0.41671209  0.65379151  0.95121260  1
  O  O37  1  0.44601494  0.67339374  0.44019969  1
  O  O38  1  0.44853013  0.20989578  0.85608193  1
  O  O39  1  0.55146987  0.79010422  0.14391807  1
  O  O40  1  0.55398506  0.32660626  0.55980031  1
  O  O41  1  0.58328791  0.34620849  0.04878740  1
  O  O42  1  0.64985946  0.62294402  0.51188475  1
  O  O43  1  0.59846930  0.02113292  0.67571279  1
  O  O44  1  0.73510138  0.64527628  0.99117998  1
  O  O45  1  0.78139341  0.87494346  0.52194653  1
  O  O46  1  0.68343516  0.04356725  0.15502468  1
  O  O47  1  0.75042283  0.32080624  0.61814546  1
  O  O48  1  0.77971321  0.34009309  0.10722252  1
  O  O49  1  0.88668491  0.99284534  0.22579057  1
  O  O50  1  0.88546225  0.45474141  0.80922300  1
  O  O51  1  0.93217235  0.68666065  0.34063305  1
  O  O52  1  0.91558454  0.01145921  0.71309254  1
  O  O53  1  0.98432596  0.29328011  0.17630349  1
