# generated using pymatgen
data_Li2VCr(P2O7)2
_symmetry_space_group_name_H-M   'P 1'
_cell_length_a   9.74233852
_cell_length_b   8.22140472
_cell_length_c   7.15127676
_cell_angle_alpha   90.00000000
_cell_angle_beta   68.53644624
_cell_angle_gamma   90.00000000
_symmetry_Int_Tables_number   1
_chemical_formula_structural   Li2VCr(P2O7)2
_chemical_formula_sum   'Li4 V2 Cr2 P8 O28'
_cell_volume   533.06411981
_cell_formula_units_Z   2
loop_
 _symmetry_equiv_pos_site_id
 _symmetry_equiv_pos_as_xyz
  1  'x, y, z'
loop_
 _atom_site_type_symbol
 _atom_site_label
 _atom_site_symmetry_multiplicity
 _atom_site_fract_x
 _atom_site_fract_y
 _atom_site_fract_z
 _atom_site_occupancy
  Li  Li0  1  0.24971422  0.36300879  0.32350251  1
  Li  Li1  1  0.24996782  0.86279863  0.67666139  1
  Li  Li2  1  0.75003218  0.36279863  0.32333861  1
  Li  Li3  1  0.75028578  0.86300879  0.67649749  1
  V  V4  1  0.25650282  0.99963476  0.27069444  1
  V  V5  1  0.74349718  0.49963476  0.72930556  1
  Cr  Cr6  1  0.24324271  0.50008267  0.72783370  1
  Cr  Cr7  1  0.75675729  0.00008267  0.27216630  1
  P  P8  1  0.06279273  0.78278701  0.08577399  1
  P  P9  1  0.06128576  0.67974944  0.47845115  1
  P  P10  1  0.43910176  0.18058675  0.52288558  1
  P  P11  1  0.56409933  0.78491259  0.08603868  1
  P  P12  1  0.43590067  0.28491259  0.91396132  1
  P  P13  1  0.56089824  0.68058675  0.47711442  1
  P  P14  1  0.93871424  0.17974944  0.52154885  1
  P  P15  1  0.93720727  0.28278701  0.91422601  1
  O  O16  1  0.07942075  0.65156504  0.24709805  1
  O  O17  1  0.15787024  0.93329307  0.08042344  1
  O  O18  1  0.10427706  0.17823985  0.39416769  1
  O  O19  1  0.12895165  0.84423944  0.49522662  1
  O  O20  1  0.14765653  0.53678754  0.51866873  1
  O  O21  1  0.09958585  0.32319099  0.85451923  1
  O  O22  1  0.12361718  0.69253531  0.88463818  1
  O  O23  1  0.37723013  0.19744432  0.11555596  1
  O  O24  1  0.40060092  0.82356259  0.14899530  1
  O  O25  1  0.35174428  0.03853262  0.48249184  1
  O  O26  1  0.36974320  0.34622451  0.50988754  1
  O  O27  1  0.39633805  0.67978121  0.60654191  1
  O  O28  1  0.34195215  0.43493788  0.91572002  1
  O  O29  1  0.42067693  0.15168397  0.75390958  1
  O  O30  1  0.57932307  0.65168397  0.24609042  1
  O  O31  1  0.65804785  0.93493788  0.08427998  1
  O  O32  1  0.60366195  0.17978121  0.39345809  1
  O  O33  1  0.63025680  0.84622451  0.49011246  1
  O  O34  1  0.64825572  0.53853262  0.51750816  1
  O  O35  1  0.59939908  0.32356259  0.85100470  1
  O  O36  1  0.62276987  0.69744432  0.88444404  1
  O  O37  1  0.87638282  0.19253531  0.11536182  1
  O  O38  1  0.90041415  0.82319099  0.14548077  1
  O  O39  1  0.85234347  0.03678754  0.48133127  1
  O  O40  1  0.87104835  0.34424044  0.50477338  1
  O  O41  1  0.89572294  0.67823985  0.60583231  1
  O  O42  1  0.84212976  0.43329307  0.91957656  1
  O  O43  1  0.92057925  0.15156504  0.75290195  1
