# generated using pymatgen
data_LiMnF4
_symmetry_space_group_name_H-M   'P 1'
_cell_length_a   6.01427897
_cell_length_b   10.18653248
_cell_length_c   10.18762613
_cell_angle_alpha   84.98254626
_cell_angle_beta   107.25115624
_cell_angle_gamma   107.17169150
_symmetry_Int_Tables_number   1
_chemical_formula_structural   LiMnF4
_chemical_formula_sum   'Li8 Mn8 F32'
_cell_volume   569.49375292
_cell_formula_units_Z   8
loop_
 _symmetry_equiv_pos_site_id
 _symmetry_equiv_pos_as_xyz
  1  'x, y, z'
loop_
 _atom_site_type_symbol
 _atom_site_label
 _atom_site_symmetry_multiplicity
 _atom_site_fract_x
 _atom_site_fract_y
 _atom_site_fract_z
 _atom_site_occupancy
  Li  Li0  1  0.87332229  0.00139442  0.74917500  1
  Li  Li1  1  0.87872797  0.50189368  0.24990756  1
  Li  Li2  1  0.87705436  0.24845150  -0.00009382  1
  Li  Li3  1  0.63147706  0.25007131  0.50307963  1
  Li  Li4  1  0.36941425  0.74841914  0.49560156  1
  Li  Li5  1  0.12531833  0.74973811  0.00282350  1
  Li  Li6  1  0.11662950  0.49605739  0.75365850  1
  Li  Li7  1  0.12531731  0.99659574  0.25051747  1
  Mn  Mn8  1  0.61752524  0.99927683  0.25519864  1
  Mn  Mn9  1  0.88230489  0.74616370  0.50124326  1
  Mn  Mn10  1  0.36623013  0.24664395  0.00098316  1
  Mn  Mn11  1  0.63228136  0.50111346  0.75459064  1
  Mn  Mn12  1  0.36533724  0.50005697  0.24478437  1
  Mn  Mn13  1  0.63782051  0.75549528  0.99898785  1
  Mn  Mn14  1  0.11938282  0.25526780  0.49970842  1
  Mn  Mn15  1  0.38187423  0.00021443  0.74492011  1
  F  F16  1  0.94656744  0.09733330  0.34246313  1
  F  F17  1  0.90399894  0.16543932  0.60042739  1
  F  F18  1  0.89673129  0.35282587  0.41123940  1
  F  F19  1  0.60897160  0.16032202  0.10007721  1
  F  F20  1  0.86357547  0.66505737  0.09903351  1
  F  F21  1  0.48436653  0.08717834  0.35325385  1
  F  F22  1  0.51186973  0.40220629  0.15930816  1
  F  F23  1  0.69294915  0.58826465  0.34422676  1
  F  F24  1  0.75958553  0.91339754  0.15498315  1
  F  F25  1  0.95141464  0.59076371  0.85259809  1
  F  F26  1  0.69989988  0.09868271  0.83505911  1
  F  F27  1  0.76043738  0.40088600  0.66573026  1
  F  F28  1  0.13673832  0.14927277  0.09051539  1
  F  F29  1  0.65279037  0.84552493  0.41496131  1
  F  F30  1  0.39773768  0.65567708  0.08664371  1
  F  F31  1  0.65096083  0.65887272  0.59860075  1
  F  F32  1  0.35008001  0.34260909  0.40203199  1
  F  F33  1  0.60715886  0.34714464  0.91443420  1
  F  F34  1  0.34972296  0.15674153  0.58727552  1
  F  F35  1  0.86883108  0.85310028  0.91053152  1
  F  F36  1  0.23862547  0.60014155  0.33429798  1
  F  F37  1  0.30099221  0.89854126  0.16524456  1
  F  F38  1  0.04588730  0.41071885  0.14752154  1
  F  F39  1  0.24532382  0.08940273  0.84526289  1
  F  F40  1  0.30501719  0.41349181  0.65487190  1
  F  F41  1  0.48627730  0.59868286  0.84069911  1
  F  F42  1  0.51071466  0.90931281  0.64734256  1
  F  F43  1  0.13875661  0.33636978  0.90120557  1
  F  F44  1  0.39578014  0.84314331  0.90238788  1
  F  F45  1  0.10276578  0.64752252  0.58844900  1
  F  F46  1  0.09787697  0.83731674  0.40120494  1
  F  F47  1  0.05057142  0.90396789  0.65885677  1
