# generated using pymatgen
data_Li2VCr(P2O7)2
_symmetry_space_group_name_H-M   'P 1'
_cell_length_a   9.73405600
_cell_length_b   8.22779095
_cell_length_c   7.02720634
_cell_angle_alpha   90.00000000
_cell_angle_beta   108.78856394
_cell_angle_gamma   90.00000000
_symmetry_Int_Tables_number   1
_chemical_formula_structural   Li2VCr(P2O7)2
_chemical_formula_sum   'Li4 V2 Cr2 P8 O28'
_cell_volume   532.81739534
_cell_formula_units_Z   2
loop_
 _symmetry_equiv_pos_site_id
 _symmetry_equiv_pos_as_xyz
  1  'x, y, z'
loop_
 _atom_site_type_symbol
 _atom_site_label
 _atom_site_symmetry_multiplicity
 _atom_site_fract_x
 _atom_site_fract_y
 _atom_site_fract_z
 _atom_site_occupancy
  Li  Li0  1  0.08847739  0.86300856  0.67681181  1
  Li  Li1  1  0.41152261  0.36300856  0.32318819  1
  Li  Li2  1  0.58827026  0.86282667  0.67635717  1
  Li  Li3  1  0.91172974  0.36282667  0.32364283  1
  V  V4  1  0.10806070  0.49945945  0.72929143  1
  V  V5  1  0.39193930  0.99946045  0.27070857  1
  Cr  Cr6  1  0.60735887  0.50020406  0.72728764  1
  Cr  Cr7  1  0.89264113  0.00020406  0.27271236  1
  P  P8  1  0.19962469  0.17979239  0.52161922  1
  P  P9  1  0.10511424  0.78463467  0.08650852  1
  P  P10  1  0.39488576  0.28463467  0.91349148  1
  P  P11  1  0.30037531  0.67979239  0.47838078  1
  P  P12  1  0.70043395  0.18057304  0.52279811  1
  P  P13  1  0.60699917  0.78313990  0.08480947  1
  P  P14  1  0.89300083  0.28313990  0.91519053  1
  P  P15  1  0.79956605  0.68057304  0.47720189  1
  O  O16  1  0.02549499  0.32228209  0.85343550  1
  O  O17  1  0.06496698  0.69691937  0.88512714  1
  O  O18  1  0.09333409  0.03654760  0.48177362  1
  O  O19  1  0.12311098  0.34404570  0.50431878  1
  O  O20  1  0.19848784  0.67826020  0.60585635  1
  O  O21  1  0.30166936  0.43494744  0.91725759  1
  O  O22  1  0.29723142  0.15240906  0.75319338  1
  O  O23  1  0.20276858  0.65240906  0.24680662  1
  O  O24  1  0.19833064  0.93494744  0.08274241  1
  O  O25  1  0.30151216  0.17826020  0.39414365  1
  O  O26  1  0.37688902  0.84404570  0.49568122  1
  O  O27  1  0.40666591  0.53654760  0.51822638  1
  O  O28  1  0.52704555  0.32417321  0.85240720  1
  O  O29  1  0.56577494  0.69334007  0.88333414  1
  O  O30  1  0.43503302  0.19691937  0.11487286  1
  O  O31  1  0.47450501  0.82228209  0.14656450  1
  O  O32  1  0.59295241  0.03830181  0.48194436  1
  O  O33  1  0.62436686  0.34601422  0.50944794  1
  O  O34  1  0.69941934  0.67971856  0.60608877  1
  O  O35  1  0.80072164  0.43362365  0.91761247  1
  O  O36  1  0.79720114  0.15135728  0.75404553  1
  O  O37  1  0.70279886  0.65135728  0.24595447  1
  O  O38  1  0.69927836  0.93362365  0.08238753  1
  O  O39  1  0.80058066  0.17971856  0.39391123  1
  O  O40  1  0.87563314  0.84601422  0.49055206  1
  O  O41  1  0.90704759  0.53830181  0.51805564  1
  O  O42  1  0.93422506  0.19334007  0.11666586  1
  O  O43  1  0.97295445  0.82417321  0.14759280  1
