# generated using pymatgen
data_Ba6Fe8S15
_symmetry_space_group_name_H-M   'P 1'
_cell_length_a   9.54266055
_cell_length_b   9.54266055
_cell_length_c   9.54266055
_cell_angle_alpha   106.39805328
_cell_angle_beta   106.39805331
_cell_angle_gamma   115.80962108
_symmetry_Int_Tables_number   1
_chemical_formula_structural   Ba6Fe8S15
_chemical_formula_sum   'Ba6 Fe8 S15'
_cell_volume   662.73248836
_cell_formula_units_Z   1
loop_
 _symmetry_equiv_pos_site_id
 _symmetry_equiv_pos_as_xyz
  1  'x, y, z'
loop_
 _atom_site_type_symbol
 _atom_site_label
 _atom_site_symmetry_multiplicity
 _atom_site_fract_x
 _atom_site_fract_y
 _atom_site_fract_z
 _atom_site_occupancy
  S  S0  1  0.00000000  0.00000000  0.00000000  1
  S  S1  1  0.50000000  0.00000000  0.50000000  1
  S  S2  1  0.00000000  0.50000000  0.50000000  1
  S  S3  1  0.59745980  0.70519052  0.30265032  1
  S  S4  1  0.70519052  0.40254020  0.10773073  1
  S  S5  1  0.29480948  0.59745980  0.89226927  1
  S  S6  1  0.40254020  0.29480948  0.69734968  1
  S  S7  1  0.04704242  0.84857000  0.35473077  1
  S  S8  1  0.84857000  0.49383923  0.80152758  1
  S  S9  1  0.69231165  0.04704242  0.19847242  1
  S  S10  1  0.49383923  0.69231165  0.64526923  1
  S  S11  1  0.95295758  0.15143000  0.64526923  1
  S  S12  1  0.15143000  0.50616077  0.19847242  1
  S  S13  1  0.30768835  0.95295758  0.80152758  1
  S  S14  1  0.50616077  0.30768835  0.35473077  1
  Fe  Fe15  1  0.30824465  0.01322210  0.58812540  1
  Fe  Fe16  1  0.01322210  0.42509670  0.70497745  1
  Fe  Fe17  1  0.72011925  0.30824465  0.29502255  1
  Fe  Fe18  1  0.42509670  0.72011925  0.41187460  1
  Fe  Fe19  1  0.69175535  0.98677790  0.41187460  1
  Fe  Fe20  1  0.98677790  0.57490330  0.29502255  1
  Fe  Fe21  1  0.27988075  0.69175535  0.70497745  1
  Fe  Fe22  1  0.57490330  0.27988075  0.58812540  1
  Ba  Ba23  1  0.86756873  0.74889348  0.61646221  1
  Ba  Ba24  1  0.74889348  0.13243127  0.88132476  1
  Ba  Ba25  1  0.25110652  0.86756873  0.11867524  1
  Ba  Ba26  1  0.13243127  0.25110652  0.38353779  1
  Ba  Ba27  1  0.69724703  0.69724703  0.00000000  1
  Ba  Ba28  1  0.30275297  0.30275297  0.00000000  1
