# generated using pymatgen
data_V2OF5
_symmetry_space_group_name_H-M   'P 1'
_cell_length_a   5.27050808
_cell_length_b   5.43760554
_cell_length_c   17.42171669
_cell_angle_alpha   91.36628353
_cell_angle_beta   98.70781391
_cell_angle_gamma   61.06315709
_symmetry_Int_Tables_number   1
_chemical_formula_structural   V2OF5
_chemical_formula_sum   'V8 O4 F20'
_cell_volume   431.21196955
_cell_formula_units_Z   4
loop_
 _symmetry_equiv_pos_site_id
 _symmetry_equiv_pos_as_xyz
  1  'x, y, z'
loop_
 _atom_site_type_symbol
 _atom_site_label
 _atom_site_symmetry_multiplicity
 _atom_site_fract_x
 _atom_site_fract_y
 _atom_site_fract_z
 _atom_site_occupancy
  V  V0  1  0.71975984  0.64041375  0.11948012  1
  V  V1  1  0.75412001  0.13150539  0.62327455  1
  V  V2  1  0.48683420  0.27481148  0.25435223  1
  V  V3  1  0.50429197  0.75899757  0.75130877  1
  V  V4  1  0.24467633  0.86327852  0.37385672  1
  V  V5  1  0.27767840  0.34707396  0.87069103  1
  V  V6  1  0.01261936  0.99020352  0.00098739  1
  V  V7  1  0.99142350  0.48371521  0.50598092  1
  O  O8  1  0.92113448  0.33885295  0.57867799  1
  O  O9  1  0.43136675  0.78645836  0.04726725  1
  O  O10  1  0.44636132  0.54514155  0.30951945  1
  O  O11  1  0.45206294  0.07653315  0.81560135  1
  F  F12  1  0.92565890  0.83342448  0.08746468  1
  F  F13  1  0.96969124  0.31335335  0.06209324  1
  F  F14  1  0.97765071  0.80837357  0.56247498  1
  F  F15  1  0.53924390  0.93659282  0.19177606  1
  F  F16  1  0.91539054  0.03871339  0.28797577  1
  F  F17  1  0.92965443  0.54901726  0.78892335  1
  F  F18  1  0.58014088  0.40545118  0.16375827  1
  F  F19  1  0.57614677  0.91645889  0.66327911  1
  F  F20  1  0.57180254  0.71509342  0.46094651  1
  F  F21  1  0.53500681  0.43758353  0.68724799  1
  F  F22  1  0.42047936  0.07478912  0.33488676  1
  F  F23  1  0.42200381  0.28666584  0.53635187  1
  F  F24  1  0.43719167  0.58291264  0.83839569  1
  F  F25  1  0.57764482  0.20856372  0.96226987  1
  F  F26  1  0.06856982  0.65974211  0.41776781  1
  F  F27  1  0.06913318  0.45394345  0.20652044  1
  F  F28  1  0.07908929  0.96133705  0.71149776  1
  F  F29  1  0.04859656  0.67800324  0.93608195  1
  F  F30  1  0.01969590  0.19481347  0.43452502  1
  F  F31  1  0.07396679  0.17040805  0.91415107  1
