# generated using pymatgen
data_Li2MnFe(PO4)2
_symmetry_space_group_name_H-M   'P 1'
_cell_length_a   10.51196652
_cell_length_b   6.13126905
_cell_length_c   4.77603172
_cell_angle_alpha   89.99982648
_cell_angle_beta   89.98993138
_cell_angle_gamma   89.99993594
_symmetry_Int_Tables_number   1
_chemical_formula_structural   Li2MnFe(PO4)2
_chemical_formula_sum   'Li4 Mn2 Fe2 P4 O16'
_cell_volume   307.82333479
_cell_formula_units_Z   2
loop_
 _symmetry_equiv_pos_site_id
 _symmetry_equiv_pos_as_xyz
  1  'x, y, z'
loop_
 _atom_site_type_symbol
 _atom_site_label
 _atom_site_symmetry_multiplicity
 _atom_site_fract_x
 _atom_site_fract_y
 _atom_site_fract_z
 _atom_site_occupancy
  Li  Li0  1  0.99916642  0.00014740  0.00016352  1
  Li  Li1  1  0.99916619  0.49985268  0.00016405  1
  Li  Li2  1  0.50082536  0.99984329  0.50015891  1
  Li  Li3  1  0.50082597  0.50015652  0.50015898  1
  Mn  Mn4  1  0.21865827  0.75000151  0.47873834  1
  Mn  Mn5  1  0.28135725  0.24999641  0.97869454  1
  Fe  Fe6  1  0.71864453  0.75000033  0.02506036  1
  Fe  Fe7  1  0.78137887  0.25000326  0.52496899  1
  P  P8  1  0.09219968  0.24999991  0.41648942  1
  P  P9  1  0.40779318  0.74999988  0.91647738  1
  P  P10  1  0.59566080  0.25000018  0.08267777  1
  P  P11  1  0.90434056  0.75000041  0.58270194  1
  O  O12  1  0.04074717  0.74999895  0.70922245  1
  O  O13  1  0.09522726  0.24999953  0.73838716  1
  O  O14  1  0.16241760  0.04896141  0.28363695  1
  O  O15  1  0.16241720  0.45103887  0.28363519  1
  O  O16  1  0.33757577  0.54897673  0.78366107  1
  O  O17  1  0.33757548  0.95102097  0.78365919  1
  O  O18  1  0.40474400  0.74999961  0.23838558  1
  O  O19  1  0.45923983  0.25000119  0.20924408  1
  O  O20  1  0.54511382  0.74999952  0.79289559  1
  O  O21  1  0.59698389  0.25000067  0.76045442  1
  O  O22  1  0.66610034  0.04757355  0.21423530  1
  O  O23  1  0.66609841  0.45243168  0.21423006  1
  O  O24  1  0.83390253  0.54755767  0.71425399  1
  O  O25  1  0.83390139  0.95243852  0.71425896  1
  O  O26  1  0.90303756  0.74999890  0.26046017  1
  O  O27  1  0.95490066  0.25000043  0.29292764  1
