# generated using pymatgen
data_Li2VCr(P2O7)2
_symmetry_space_group_name_H-M   'P 1'
_cell_length_a   9.73450806
_cell_length_b   8.22518876
_cell_length_c   7.14760281
_cell_angle_alpha   90.00000000
_cell_angle_beta   68.61791522
_cell_angle_gamma   90.00000000
_symmetry_Int_Tables_number   1
_chemical_formula_structural   Li2VCr(P2O7)2
_chemical_formula_sum   'Li4 V2 Cr2 P8 O28'
_cell_volume   532.90427453
_cell_formula_units_Z   2
loop_
 _symmetry_equiv_pos_site_id
 _symmetry_equiv_pos_as_xyz
  1  'x, y, z'
loop_
 _atom_site_type_symbol
 _atom_site_label
 _atom_site_symmetry_multiplicity
 _atom_site_fract_x
 _atom_site_fract_y
 _atom_site_fract_z
 _atom_site_occupancy
  Li  Li0  1  0.25034913  0.36266487  0.32333148  1
  Li  Li1  1  0.24965087  0.86266487  0.67666852  1
  Li  Li2  1  0.74883339  0.36267205  0.32422890  1
  Li  Li3  1  0.75116661  0.86267205  0.67577110  1
  V  V4  1  0.25667525  0.99931566  0.27081713  1
  V  V5  1  0.24332475  0.49931566  0.72918287  1
  Cr  Cr6  1  0.75645015  0.00007086  0.27238983  1
  Cr  Cr7  1  0.74354985  0.50007086  0.72761017  1
  P  P8  1  0.06209596  0.78459705  0.08656619  1
  P  P9  1  0.06028572  0.67977940  0.47859838  1
  P  P10  1  0.43971428  0.17977940  0.52140162  1
  P  P11  1  0.56478012  0.78313055  0.08506981  1
  P  P12  1  0.43790404  0.28459705  0.91343381  1
  P  P13  1  0.56201434  0.68060154  0.47689147  1
  P  P14  1  0.93798566  0.18060154  0.52310853  1
  P  P15  1  0.93521988  0.28313055  0.91493019  1
  O  O16  1  0.07913685  0.65234503  0.24684849  1
  O  O17  1  0.15704514  0.93496981  0.08320321  1
  O  O18  1  0.10312899  0.17966640  0.39453119  1
  O  O19  1  0.12865523  0.84398797  0.49496383  1
  O  O20  1  0.14774044  0.53715213  0.51820538  1
  O  O21  1  0.09846375  0.32243207  0.85348110  1
  O  O22  1  0.12267520  0.69678394  0.88536938  1
  O  O23  1  0.37732480  0.19678394  0.11463062  1
  O  O24  1  0.40153625  0.82243207  0.14651890  1
  O  O25  1  0.35225956  0.03715213  0.48179462  1
  O  O26  1  0.37134477  0.34398797  0.50503617  1
  O  O27  1  0.39687101  0.67966640  0.60546881  1
  O  O28  1  0.34295486  0.43496981  0.91679679  1
  O  O29  1  0.42086315  0.15234503  0.75315151  1
  O  O30  1  0.57988516  0.65122523  0.24632704  1
  O  O31  1  0.65838359  0.93346921  0.08271208  1
  O  O32  1  0.60462188  0.17812939  0.39323929  1
  O  O33  1  0.63089281  0.84620459  0.49041860  1
  O  O34  1  0.64820163  0.53825638  0.51839088  1
  O  O35  1  0.60055700  0.32458023  0.85258818  1
  O  O36  1  0.62431784  0.69354566  0.88350009  1
  O  O37  1  0.87568216  0.19354566  0.11649991  1
  O  O38  1  0.89944300  0.82458023  0.14741182  1
  O  O39  1  0.85179837  0.03825638  0.48160912  1
  O  O40  1  0.86910719  0.34620459  0.50958140  1
  O  O41  1  0.89537812  0.67812939  0.60676071  1
  O  O42  1  0.84161641  0.43346921  0.91728792  1
  O  O43  1  0.92011484  0.15122523  0.75367296  1
