# generated using pymatgen
data_V4OF11
_symmetry_space_group_name_H-M   'P 1'
_cell_length_a   5.25372840
_cell_length_b   5.44933593
_cell_length_c   17.49760359
_cell_angle_alpha   90.75522246
_cell_angle_beta   98.26969794
_cell_angle_gamma   61.66140394
_symmetry_Int_Tables_number   1
_chemical_formula_structural   V4OF11
_chemical_formula_sum   'V8 O2 F22'
_cell_volume   435.45203977
_cell_formula_units_Z   2
loop_
 _symmetry_equiv_pos_site_id
 _symmetry_equiv_pos_as_xyz
  1  'x, y, z'
loop_
 _atom_site_type_symbol
 _atom_site_label
 _atom_site_symmetry_multiplicity
 _atom_site_fract_x
 _atom_site_fract_y
 _atom_site_fract_z
 _atom_site_occupancy
  V  V0  1  0.75258351  0.62846265  0.12374591  1
  V  V1  1  0.75076749  0.12616501  0.62459118  1
  V  V2  1  0.49902197  0.24755381  0.25184616  1
  V  V3  1  0.49919278  0.74834850  0.75051024  1
  V  V4  1  0.26513904  0.89286288  0.37240419  1
  V  V5  1  0.24690014  0.37030762  0.87620869  1
  V  V6  1  0.99227329  0.98504531  0.00737313  1
  V  V7  1  0.00269452  0.50475381  0.49825382  1
  O  O8  1  0.92169894  0.84011575  0.08028363  1
  O  O9  1  0.40867314  0.07530839  0.33517700  1
  F  F10  1  0.97573611  0.30973341  0.06283300  1
  F  F11  1  0.97812245  0.81282537  0.56085055  1
  F  F12  1  0.53008451  0.93820434  0.18629700  1
  F  F13  1  0.92304770  0.03266602  0.28844833  1
  F  F14  1  0.92640842  0.34032388  0.58773704  1
  F  F15  1  0.92714515  0.53393255  0.78780588  1
  F  F16  1  0.42056555  0.78823888  0.03715435  1
  F  F17  1  0.57730713  0.41388563  0.16397265  1
  F  F18  1  0.57395965  0.91176524  0.66107098  1
  F  F19  1  0.57293462  0.71473382  0.46235345  1
  F  F20  1  0.47464100  0.55790388  0.31507941  1
  F  F21  1  0.52271865  0.43792472  0.68825392  1
  F  F22  1  0.42751183  0.28747924  0.53572927  1
  F  F23  1  0.42660128  0.58417265  0.83923233  1
  F  F24  1  0.57607838  0.21481702  0.96283708  1
  F  F25  1  0.08280045  0.67472286  0.41100468  1
  F  F26  1  0.07651836  0.46564045  0.21193429  1
  F  F27  1  0.07209728  0.96403284  0.71315515  1
  F  F28  1  0.47512589  0.06041129  0.81250668  1
  F  F29  1  0.01988747  0.69459151  0.93585535  1
  F  F30  1  0.02651779  0.18695982  0.43772566  1
  F  F31  1  0.07524652  0.15611186  0.91776997  1
