# generated using pymatgen
data_Li2MnFe(PO4)2
_symmetry_space_group_name_H-M   'P 1'
_cell_length_a   10.50373916
_cell_length_b   6.12919548
_cell_length_c   4.77477674
_cell_angle_alpha   90.00005478
_cell_angle_beta   90.00123303
_cell_angle_gamma   90.00132434
_symmetry_Int_Tables_number   1
_chemical_formula_structural   Li2MnFe(PO4)2
_chemical_formula_sum   'Li4 Mn2 Fe2 P4 O16'
_cell_volume   307.39759859
_cell_formula_units_Z   2
loop_
 _symmetry_equiv_pos_site_id
 _symmetry_equiv_pos_as_xyz
  1  'x, y, z'
loop_
 _atom_site_type_symbol
 _atom_site_label
 _atom_site_symmetry_multiplicity
 _atom_site_fract_x
 _atom_site_fract_y
 _atom_site_fract_z
 _atom_site_occupancy
  Li  Li0  1  0.00021151  0.00125582  0.00018723  1
  Li  Li1  1  0.00021290  0.49874448  0.00018909  1
  Li  Li2  1  0.50020027  0.00125323  0.49981166  1
  Li  Li3  1  0.50020151  0.49874715  0.49980973  1
  Mn  Mn4  1  0.21855616  0.74999968  0.47758402  1
  Mn  Mn5  1  0.71857938  0.74999481  0.02241170  1
  Fe  Fe6  1  0.28155612  0.25000644  0.97605781  1
  Fe  Fe7  1  0.78155915  0.24999798  0.52395527  1
  P  P8  1  0.09413214  0.25000064  0.41573846  1
  P  P9  1  0.40619291  0.75000009  0.91877029  1
  P  P10  1  0.59412555  0.24999995  0.08428011  1
  P  P11  1  0.90620575  0.75000131  0.58122654  1
  O  O12  1  0.04216732  0.75000056  0.71006567  1
  O  O13  1  0.09720638  0.25000066  0.73770118  1
  O  O14  1  0.16394666  0.04904247  0.28033699  1
  O  O15  1  0.16394253  0.45096789  0.28035181  1
  O  O16  1  0.33529767  0.54735201  0.78922696  1
  O  O17  1  0.33529614  0.95263527  0.78921872  1
  O  O18  1  0.40501330  0.74999958  0.24038627  1
  O  O19  1  0.45625144  0.25000228  0.20581023  1
  O  O20  1  0.54217126  0.75000062  0.78993369  1
  O  O21  1  0.59720014  0.24999935  0.76229928  1
  O  O22  1  0.66394739  0.04904259  0.21967692  1
  O  O23  1  0.66394399  0.45096510  0.21966545  1
  O  O24  1  0.83530507  0.54734828  0.71075310  1
  O  O25  1  0.83530279  0.95263988  0.71075899  1
  O  O26  1  0.90502591  0.75000029  0.25959880  1
  O  O27  1  0.95625063  0.25000163  0.29419402  1
