# generated using pymatgen
data_Li2VCr(P2O7)2
_symmetry_space_group_name_H-M   'P 1'
_cell_length_a   14.01517638
_cell_length_b   8.22183249
_cell_length_c   7.02079379
_cell_angle_alpha   89.88642049
_cell_angle_beta   80.46113511
_cell_angle_gamma   90.01238670
_symmetry_Int_Tables_number   1
_chemical_formula_structural   Li2VCr(P2O7)2
_chemical_formula_sum   'Li6 V3 Cr3 P12 O42'
_cell_volume   797.82158624
_cell_formula_units_Z   3
loop_
 _symmetry_equiv_pos_site_id
 _symmetry_equiv_pos_as_xyz
  1  'x, y, z'
loop_
 _atom_site_type_symbol
 _atom_site_label
 _atom_site_symmetry_multiplicity
 _atom_site_fract_x
 _atom_site_fract_y
 _atom_site_fract_z
 _atom_site_occupancy
  Li  Li0  1  0.05889252  0.86318243  0.61813678  1
  Li  Li1  1  0.27447574  0.36322294  0.04864055  1
  Li  Li2  1  0.39214784  0.86286516  0.28453096  1
  Li  Li3  1  0.60788377  0.36288756  0.71544675  1
  Li  Li4  1  0.72558999  0.86329467  0.95166247  1
  Li  Li5  1  0.94125148  0.36278192  0.38237689  1
  V  V6  1  0.07216023  0.49956552  0.65689879  1
  V  V7  1  0.26119501  0.99935911  0.00936710  1
  V  V8  1  0.73882949  0.49945537  0.99080474  1
  Cr  Cr9  1  0.40488201  0.49998730  0.32229496  1
  Cr  Cr10  1  0.59527639  0.99980397  0.67733836  1
  Cr  Cr11  1  0.92852677  0.99981036  0.34455782  1
  P  P12  1  0.13301994  0.17986333  0.38848097  1
  P  P13  1  0.06990515  0.78455605  0.01625029  1
  P  P14  1  0.26319766  0.28464360  0.65036193  1
  P  P15  1  0.20023556  0.67976557  0.27809680  1
  P  P16  1  0.40459741  0.78335641  0.68008913  1
  P  P17  1  0.53310227  0.68046257  0.94431687  1
  P  P18  1  0.46698104  0.18053279  0.05558851  1
  P  P19  1  0.59535446  0.28336091  0.31989820  1
  P  P20  1  0.79986903  0.17954017  0.72078344  1
  P  P21  1  0.73715175  0.78587008  0.34886674  1
  P  P22  1  0.92913617  0.28206416  0.98579313  1
  P  P23  1  0.86651810  0.68076527  0.61005310  1
  O  O24  1  0.01711215  0.32244992  0.83572736  1
  O  O25  1  0.04302171  0.69633711  0.84189934  1
  O  O26  1  0.13225033  0.93471089  0.94979675  1
  O  O27  1  0.06217676  0.03660493  0.41963341  1
  O  O28  1  0.08204359  0.34426800  0.42256098  1
  O  O29  1  0.13229309  0.67831696  0.47363774  1
  O  O30  1  0.20099069  0.43477837  0.71635998  1
  O  O31  1  0.19814509  0.15246823  0.55517220  1
  O  O32  1  0.13506735  0.65228447  0.11173705  1
  O  O33  1  0.29010086  0.19660750  0.82504398  1
  O  O34  1  0.31633762  0.82258183  0.83043083  1
  O  O35  1  0.20098970  0.17837225  0.19299467  1
  O  O36  1  0.25117180  0.84416017  0.24398529  1
  O  O37  1  0.27118103  0.53656807  0.24723164  1
  O  O38  1  0.35130316  0.32429185  0.50098244  1
  O  O39  1  0.37710085  0.69334201  0.50616448  1
  O  O40  1  0.46847405  0.65150530  0.77764354  1
  O  O41  1  0.46635623  0.93375996  0.61604246  1
  O  O42  1  0.53382495  0.17955603  0.85982390  1
  O  O43  1  0.39540619  0.03808830  0.08688133  1
  O  O44  1  0.41623794  0.34606808  0.09315821  1
  O  O45  1  0.58382551  0.84596697  0.90676420  1
  O  O46  1  0.60476080  0.53807367  0.91333976  1
  O  O47  1  0.46622592  0.67944491  0.14009151  1
  O  O48  1  0.53370218  0.43377089  0.38364601  1
  O  O49  1  0.53164269  0.15167220  0.22247959  1
  O  O50  1  0.62294857  0.19348203  0.49398501  1
  O  O51  1  0.64883865  0.82433471  0.49861156  1
  O  O52  1  0.72882028  0.03653127  0.75308384  1
  O  O53  1  0.74917633  0.34427032  0.75585894  1
  O  O54  1  0.79952117  0.67936074  0.80643324  1
  O  O55  1  0.68369317  0.32273195  0.16946967  1
  O  O56  1  0.70981603  0.69702092  0.17498942  1
  O  O57  1  0.86467347  0.15162836  0.88866960  1
  O  O58  1  0.80157926  0.65228341  0.44454890  1
  O  O59  1  0.79988978  0.93511960  0.28394476  1
  O  O60  1  0.86761639  0.17846001  0.52580797  1
  O  O61  1  0.91746271  0.84602550  0.57332351  1
  O  O62  1  0.93798251  0.53822240  0.58016845  1
  O  O63  1  0.86787045  0.43330019  0.05112170  1
  O  O64  1  0.95626149  0.19284263  0.16044815  1
  O  O65  1  0.98192872  0.82408286  0.16567034  1
