# generated using pymatgen
data_Li2VFe(P2O7)2
_symmetry_space_group_name_H-M   'P 1'
_cell_length_a   4.89307958
_cell_length_b   24.72827713
_cell_length_c   7.04944662
_cell_angle_alpha   89.90470782
_cell_angle_beta   108.83734096
_cell_angle_gamma   90.02960781
_symmetry_Int_Tables_number   1
_chemical_formula_structural   Li2VFe(P2O7)2
_chemical_formula_sum   'Li6 V3 Fe3 P12 O42'
_cell_volume   807.27816506
_cell_formula_units_Z   3
loop_
 _symmetry_equiv_pos_site_id
 _symmetry_equiv_pos_as_xyz
  1  'x, y, z'
loop_
 _atom_site_type_symbol
 _atom_site_label
 _atom_site_symmetry_multiplicity
 _atom_site_fract_x
 _atom_site_fract_y
 _atom_site_fract_z
 _atom_site_occupancy
  Li  Li0  1  0.17604862  0.62094452  0.67478454  1
  Li  Li1  1  0.17571913  0.95436363  0.67591666  1
  Li  Li2  1  0.17620112  0.28757692  0.67671009  1
  Li  Li3  1  0.82382845  0.12077858  0.32466855  1
  Li  Li4  1  0.82465703  0.45464622  0.32433020  1
  Li  Li5  1  0.82383462  0.78736542  0.32458265  1
  V  V6  1  0.21478558  0.16690628  0.72823365  1
  V  V7  1  0.21529039  0.83322270  0.72821353  1
  V  V8  1  0.78364343  0.33290845  0.27139342  1
  Fe  Fe9  1  0.21706090  0.49954325  0.73270113  1
  Fe  Fe10  1  0.78366739  0.66670501  0.26834589  1
  Fe  Fe11  1  0.78316015  0.99989290  0.26767587  1
  P  P12  1  0.40068492  0.05989834  0.52185983  1
  P  P13  1  0.39925270  0.39368095  0.52195905  1
  P  P14  1  0.40071918  0.72660953  0.52192357  1
  P  P15  1  0.21322197  0.26139441  0.08625956  1
  P  P16  1  0.21237704  0.59454411  0.08536039  1
  P  P17  1  0.21270366  0.92780121  0.08632742  1
  P  P18  1  0.78668217  0.09467009  0.91457020  1
  P  P19  1  0.78694739  0.42797320  0.91315956  1
  P  P20  1  0.78677904  0.76131847  0.91451274  1
  P  P21  1  0.59971113  0.22667679  0.47782762  1
  P  P22  1  0.60010219  0.56009964  0.47825810  1
  P  P23  1  0.60065539  0.89355791  0.47821656  1
  O  O24  1  0.04976157  0.10784632  0.85278232  1
  O  O25  1  0.04952750  0.77464817  0.85262714  1
  O  O26  1  0.05100392  0.44159183  0.85306044  1
  O  O27  1  0.13247979  0.89841696  0.88594221  1
  O  O28  1  0.13143490  0.23201828  0.88596245  1
  O  O29  1  0.13262938  0.56462949  0.88417236  1
  O  O30  1  0.18792457  0.01236519  0.48251758  1
  O  O31  1  0.18770423  0.67912116  0.48235988  1
  O  O32  1  0.18706390  0.34604657  0.48248854  1
  O  O33  1  0.24706294  0.78125504  0.50680949  1
  O  O34  1  0.24696331  0.11455160  0.50650215  1
  O  O35  1  0.24791523  0.44850339  0.50741685  1
  O  O36  1  0.39748707  0.22600432  0.60521834  1
  O  O37  1  0.39806258  0.55972622  0.60539070  1
  O  O38  1  0.39777006  0.89266608  0.60476779  1
  O  O39  1  0.60259126  0.14455142  0.91773081  1
  O  O40  1  0.60099876  0.47774242  0.91582860  1
  O  O41  1  0.60229038  0.81118755  0.91761583  1
  O  O42  1  0.59609881  0.05083955  0.75365571  1
  O  O43  1  0.59509728  0.38422085  0.75277379  1
  O  O44  1  0.59640823  0.71746079  0.75355549  1
  O  O45  1  0.40437907  0.21746472  0.24751958  1
  O  O46  1  0.40523052  0.88420107  0.24742721  1
  O  O47  1  0.40483852  0.55084642  0.24632048  1
  O  O48  1  0.39821788  0.31128600  0.08289622  1
  O  O49  1  0.39866600  0.64438883  0.08315900  1
  O  O50  1  0.39871131  0.97776704  0.08383333  1
  O  O51  1  0.60221460  0.05967295  0.39419419  1
  O  O52  1  0.60219377  0.39280023  0.39532029  1
  O  O53  1  0.60196585  0.72629132  0.39405190  1
  O  O54  1  0.75223088  0.28137036  0.49417036  1
  O  O55  1  0.75270612  0.61513727  0.49164383  1
  O  O56  1  0.75190971  0.94856030  0.49285481  1
  O  O57  1  0.81292179  0.17934088  0.51779465  1
  O  O58  1  0.81251684  0.51257074  0.51755274  1
  O  O59  1  0.81278034  0.84611071  0.51756672  1
  O  O60  1  0.86828772  0.06489846  0.11622021  1
  O  O61  1  0.86819151  0.73151723  0.11612462  1
  O  O62  1  0.86814595  0.39858810  0.11413731  1
  O  O63  1  0.95101227  0.27478727  0.14829351  1
  O  O64  1  0.94833894  0.60804763  0.14542227  1
  O  O65  1  0.94853215  0.94146073  0.14652649  1
