# generated using pymatgen
data_Li2VCrP2(O4F)2
_symmetry_space_group_name_H-M   'P 1'
_cell_length_a   14.55085558
_cell_length_b   5.37081194
_cell_length_c   7.40905324
_cell_angle_alpha   109.78129165
_cell_angle_beta   85.76550471
_cell_angle_gamma   87.29617301
_symmetry_Int_Tables_number   1
_chemical_formula_structural   Li2VCrP2(O4F)2
_chemical_formula_sum   'Li6 V3 Cr3 P6 O24 F6'
_cell_volume   541.75359123
_cell_formula_units_Z   3
loop_
 _symmetry_equiv_pos_site_id
 _symmetry_equiv_pos_as_xyz
  1  'x, y, z'
loop_
 _atom_site_type_symbol
 _atom_site_label
 _atom_site_symmetry_multiplicity
 _atom_site_fract_x
 _atom_site_fract_y
 _atom_site_fract_z
 _atom_site_occupancy
  Li  Li0  1  0.02680501  0.39949163  0.78447450  1
  Li  Li1  1  0.30674624  0.26820404  0.88226458  1
  Li  Li2  1  0.36101092  0.06590896  0.45065384  1
  Li  Li3  1  0.63919362  0.93340143  0.54967639  1
  Li  Li4  1  0.69383327  0.73320740  0.11702190  1
  Li  Li5  1  0.97246590  0.59985067  0.21613519  1
  V  V6  1  0.99932965  0.99994182  0.00052962  1
  V  V7  1  0.16690929  0.33401987  0.33345938  1
  V  V8  1  0.66644463  0.33367172  0.33323267  1
  Cr  Cr9  1  0.33400661  0.66633660  0.66623106  1
  Cr  Cr10  1  0.49993455  0.99945466  0.99979367  1
  Cr  Cr11  1  0.83327821  0.66650355  0.66670193  1
  P  P12  1  0.14708388  0.97428077  0.61644213  1
  P  P13  1  0.18725984  0.69128179  0.04942579  1
  P  P14  1  0.51997802  0.36040193  0.71937227  1
  P  P15  1  0.47928602  0.64057190  0.28132948  1
  P  P16  1  0.81288473  0.30761810  0.94707323  1
  P  P17  1  0.85343818  0.02594121  0.38652381  1
  O  O18  1  0.09416322  0.06752177  0.82059844  1
  O  O19  1  0.11889777  0.70376331  0.48993365  1
  O  O20  1  0.11655885  0.19802340  0.54002100  1
  O  O21  1  0.08024168  0.69594611  0.03181918  1
  O  O22  1  0.23886906  0.59771606  0.84496910  1
  O  O23  1  0.25385014  0.96787462  0.63448361  1
  O  O24  1  0.21454257  0.96297579  0.17648469  1
  O  O25  1  0.21773868  0.46830616  0.12699641  1
  O  O26  1  0.41303834  0.36636863  0.69990788  1
  O  O27  1  0.42778860  0.73612882  0.48686131  1
  O  O28  1  0.44958126  0.86713705  0.20692660  1
  O  O29  1  0.54803788  0.63108200  0.84368788  1
  O  O30  1  0.45186017  0.36904195  0.15618165  1
  O  O31  1  0.54982223  0.13300362  0.79245823  1
  O  O32  1  0.57247937  0.26601360  0.51376221  1
  O  O33  1  0.58643609  0.63558325  0.30146259  1
  O  O34  1  0.78254397  0.53446560  0.87401277  1
  O  O35  1  0.78547655  0.03607333  0.82287616  1
  O  O36  1  0.74670339  0.03054417  0.36479012  1
  O  O37  1  0.76084173  0.40091062  0.15292775  1
  O  O38  1  0.91973750  0.30356849  0.96743352  1
  O  O39  1  0.88382381  0.79923961  0.45970704  1
  O  O40  1  0.88119359  0.29713797  0.51073429  1
  O  O41  1  0.90580670  0.93146184  0.18090487  1
  F  F42  1  0.04414274  0.29165083  0.21892621  1
  F  F43  1  0.37890593  0.95417780  0.88407433  1
  F  F44  1  0.29001652  0.37994745  0.45156902  1
  F  F45  1  0.71308739  0.62633229  0.55447193  1
  F  F46  1  0.62003078  0.04059352  0.11188499  1
  F  F47  1  0.95389691  0.70732131  0.77879317  1
