# generated using pymatgen
data_Li2VCrP2(O4F)2
_symmetry_space_group_name_H-M   'P 1'
_cell_length_a   5.21460613
_cell_length_b   14.97889843
_cell_length_c   7.34627593
_cell_angle_alpha   93.86340529
_cell_angle_beta   71.58619247
_cell_angle_gamma   87.58116854
_symmetry_Int_Tables_number   1
_chemical_formula_structural   Li2VCrP2(O4F)2
_chemical_formula_sum   'Li6 V3 Cr3 P6 O24 F6'
_cell_volume   541.97134257
_cell_formula_units_Z   3
loop_
 _symmetry_equiv_pos_site_id
 _symmetry_equiv_pos_as_xyz
  1  'x, y, z'
loop_
 _atom_site_type_symbol
 _atom_site_label
 _atom_site_symmetry_multiplicity
 _atom_site_fract_x
 _atom_site_fract_y
 _atom_site_fract_z
 _atom_site_occupancy
  Li  Li0  1  0.06534040  0.20494391  0.01552994  1
  Li  Li1  1  0.26812901  0.46103202  0.65036187  1
  Li  Li2  1  0.60256452  0.12811674  0.31559966  1
  Li  Li3  1  0.39743548  0.87188326  0.68440034  1
  Li  Li4  1  0.73187099  0.53896798  0.34963813  1
  Li  Li5  1  0.93465960  0.79505609  0.98447006  1
  V  V6  1  0.00000000  0.00000000  0.50000000  1
  V  V7  1  0.33283301  0.66634461  0.66694293  1
  V  V8  1  0.66716699  0.33365539  0.33305707  1
  Cr  Cr9  1  0.00000000  0.00000000  0.00000000  1
  Cr  Cr10  1  0.33314747  0.66668152  0.16647661  1
  Cr  Cr11  1  0.66685253  0.33331848  0.83352339  1
  P  P12  1  0.10860795  0.21410218  0.45270026  1
  P  P13  1  0.22566232  0.45352141  0.21334473  1
  P  P14  1  0.44261375  0.88037486  0.11764299  1
  P  P15  1  0.55738625  0.11962514  0.88235701  1
  P  P16  1  0.77433768  0.54647859  0.78665527  1
  P  P17  1  0.89139205  0.78589782  0.54729974  1
  O  O18  1  0.00976292  0.73764890  0.34601147  1
  O  O19  1  0.13771378  0.55350267  0.21002614  1
  O  O20  1  0.23620722  0.88868380  0.00180120  1
  O  O21  1  0.34427866  0.40454111  0.01231368  1
  O  O22  1  0.19488071  0.11389440  0.45871700  1
  O  O23  1  0.04640839  0.58403596  0.67039421  1
  O  O24  1  0.09282517  0.77820032  0.66694657  1
  O  O25  1  0.38073941  0.25098408  0.33618535  1
  O  O26  1  0.32408032  0.92898905  0.32094857  1
  O  O27  1  0.42640343  0.44501544  0.33371660  1
  O  O28  1  0.52709355  0.78039021  0.12262194  1
  O  O29  1  0.28616828  0.08251663  0.99866473  1
  O  O30  1  0.71383172  0.91748337  0.00133527  1
  O  O31  1  0.47290645  0.21960979  0.87737806  1
  O  O32  1  0.57359657  0.55498456  0.66628340  1
  O  O33  1  0.67591968  0.07101095  0.67905143  1
  O  O34  1  0.61926059  0.74901592  0.66381465  1
  O  O35  1  0.90717483  0.22179968  0.33305343  1
  O  O36  1  0.95359161  0.41596404  0.32960579  1
  O  O37  1  0.80511929  0.88610560  0.54128300  1
  O  O38  1  0.65572134  0.59545889  0.98768632  1
  O  O39  1  0.76379278  0.11131620  0.99819880  1
  O  O40  1  0.86228622  0.44649733  0.78997386  1
  O  O41  1  0.99023708  0.26235110  0.65398853  1
  F  F42  1  0.15275330  0.97624885  0.71717489  1
  F  F43  1  0.18036812  0.69048250  0.95832724  1
  F  F44  1  0.48532348  0.64303949  0.37517668  1
  F  F45  1  0.51467652  0.35696051  0.62482332  1
  F  F46  1  0.81963188  0.30951750  0.04167276  1
  F  F47  1  0.84724670  0.02375115  0.28282511  1
