# generated using pymatgen
data_Li2VCr(P2O7)2
_symmetry_space_group_name_H-M   'P 1'
_cell_length_a   14.03942006
_cell_length_b   8.22326458
_cell_length_c   7.02177420
_cell_angle_alpha   89.92057741
_cell_angle_beta   80.43152024
_cell_angle_gamma   90.05547224
_symmetry_Int_Tables_number   1
_chemical_formula_structural   Li2VCr(P2O7)2
_chemical_formula_sum   'Li6 V3 Cr3 P12 O42'
_cell_volume   799.38329032
_cell_formula_units_Z   3
loop_
 _symmetry_equiv_pos_site_id
 _symmetry_equiv_pos_as_xyz
  1  'x, y, z'
loop_
 _atom_site_type_symbol
 _atom_site_label
 _atom_site_symmetry_multiplicity
 _atom_site_fract_x
 _atom_site_fract_y
 _atom_site_fract_z
 _atom_site_occupancy
  Li  Li0  1  0.05901756  0.86282490  0.61723551  1
  Li  Li1  1  0.27452463  0.36293659  0.04870924  1
  Li  Li2  1  0.39204151  0.86289575  0.28456783  1
  Li  Li3  1  0.60788900  0.36259295  0.71581207  1
  Li  Li4  1  0.72569897  0.86317421  0.95109721  1
  Li  Li5  1  0.94091727  0.36286829  0.38284473  1
  V  V6  1  0.26116862  0.99948170  0.00991788  1
  V  V7  1  0.40526390  0.49959097  0.32360028  1
  V  V8  1  0.73910453  0.49967422  0.99052669  1
  Cr  Cr9  1  0.07119720  0.50003937  0.65655719  1
  Cr  Cr10  1  0.59561771  -0.00004074  0.67727390  1
  Cr  Cr11  1  0.92861156  -0.00001377  0.34352971  1
  P  P12  1  0.13294011  0.18069138  0.39008038  1
  P  P13  1  0.07015581  0.78309152  0.01521250  1
  P  P14  1  0.26183470  0.28491327  0.65218629  1
  P  P15  1  0.19950480  0.67958186  0.27886565  1
  P  P16  1  0.40460260  0.78510036  0.68104046  1
  P  P17  1  0.53332066  0.68077854  0.94319923  1
  P  P18  1  0.46699344  0.17983524  0.05440249  1
  P  P19  1  0.59577716  0.28234008  0.31947357  1
  P  P20  1  0.80002186  0.17949207  0.72097114  1
  P  P21  1  0.73740108  0.78568643  0.34906959  1
  P  P22  1  0.92958592  0.28271793  0.98461697  1
  P  P23  1  0.86693338  0.68055133  0.60966317  1
  O  O24  1  0.01793383  0.32313620  0.83647035  1
  O  O25  1  0.04361937  0.69309416  0.84023110  1
  O  O26  1  0.13194834  0.93354160  0.94841619  1
  O  O27  1  0.06186621  0.03798123  0.41981816  1
  O  O28  1  0.08243536  0.34623049  0.42698323  1
  O  O29  1  0.13229742  0.67837366  0.47438895  1
  O  O30  1  0.19990543  0.43480874  0.71568803  1
  O  O31  1  0.19815339  0.15192361  0.55533431  1
  O  O32  1  0.13483458  0.65182261  0.11150540  1
  O  O33  1  0.28971974  0.19700119  0.82571205  1
  O  O34  1  0.31648470  0.82339646  0.83200797  1
  O  O35  1  0.20022992  0.17984041  0.19406718  1
  O  O36  1  0.25062218  0.84397030  0.24410629  1
  O  O37  1  0.27080302  0.53693756  0.24632842  1
  O  O38  1  0.35005762  0.32337086  0.50128308  1
  O  O39  1  0.37685337  0.69686302  0.50765751  1
  O  O40  1  0.46819289  0.65203286  0.77804062  1
  O  O41  1  0.46678349  0.93493665  0.61727203  1
  O  O42  1  0.53432365  0.17865939  0.85921324  1
  O  O43  1  0.39554280  0.03717027  0.08703224  1
  O  O44  1  0.41608707  0.34416577  0.08960585  1
  O  O45  1  0.58409194  0.84612493  0.90642916  1
  O  O46  1  0.60475140  0.53847079  0.91310676  1
  O  O47  1  0.46620295  0.67968182  0.13928047  1
  O  O48  1  0.53464372  0.43315252  0.38533167  1
  O  O49  1  0.53159357  0.15166444  0.22204122  1
  O  O50  1  0.62296255  0.19275635  0.49367625  1
  O  O51  1  0.64901377  0.82413363  0.49822012  1
  O  O52  1  0.72898221  0.03651394  0.75298502  1
  O  O53  1  0.74926183  0.34411229  0.75582665  1
  O  O54  1  0.79982378  0.67957654  0.80609656  1
  O  O55  1  0.68380841  0.32244817  0.16933222  1
  O  O56  1  0.71010565  0.69714484  0.17494714  1
  O  O57  1  0.86474668  0.15160844  0.88851083  1
  O  O58  1  0.80171032  0.65204611  0.44471046  1
  O  O59  1  0.80000998  0.93506282  0.28435884  1
  O  O60  1  0.86755649  0.17845269  0.52568750  1
  O  O61  1  0.91761506  0.84617654  0.57308996  1
  O  O62  1  0.93803241  0.53801256  0.58020944  1
  O  O63  1  0.86809754  0.43326600  0.05124625  1
  O  O64  1  0.95621670  0.19299903  0.15976455  1
  O  O65  1  0.98195366  0.82327505  0.16353001  1
