# generated using pymatgen
data_V4OF11
_symmetry_space_group_name_H-M   'P 1'
_cell_length_a   5.23444423
_cell_length_b   5.49120554
_cell_length_c   17.51903395
_cell_angle_alpha   91.41406480
_cell_angle_beta   99.02428315
_cell_angle_gamma   60.92074393
_symmetry_Int_Tables_number   1
_chemical_formula_structural   V4OF11
_chemical_formula_sum   'V8 O2 F22'
_cell_volume   433.85913615
_cell_formula_units_Z   2
loop_
 _symmetry_equiv_pos_site_id
 _symmetry_equiv_pos_as_xyz
  1  'x, y, z'
loop_
 _atom_site_type_symbol
 _atom_site_label
 _atom_site_symmetry_multiplicity
 _atom_site_fract_x
 _atom_site_fract_y
 _atom_site_fract_z
 _atom_site_occupancy
  V  V0  1  0.75000000  0.62500000  0.12500000  1
  V  V1  1  0.75000000  0.12500000  0.62500000  1
  V  V2  1  0.46199642  0.26881635  0.24702339  1
  V  V3  1  0.50250196  0.74874174  0.75042577  1
  V  V4  1  0.24018899  0.87986477  0.37308093  1
  V  V5  1  0.25981101  0.37013523  0.87691907  1
  V  V6  1  0.03800358  0.98118365  0.00297661  1
  V  V7  1  0.99749804  0.50125826  0.49957423  1
  O  O8  1  0.39790586  0.79981729  0.04079605  1
  O  O9  1  0.10209414  0.45018271  0.20920395  1
  F  F10  1  0.91442176  0.84224171  0.08608955  1
  F  F11  1  0.96559329  0.31748956  0.05996351  1
  F  F12  1  0.97750002  0.81346725  0.56320054  1
  F  F13  1  0.53440671  0.93251044  0.19003649  1
  F  F14  1  0.90645656  0.04899823  0.28671496  1
  F  F15  1  0.92746997  0.33743967  0.58825707  1
  F  F16  1  0.93061539  0.53424890  0.78775921  1
  F  F17  1  0.58557824  0.40775829  0.16391045  1
  F  F18  1  0.57253003  0.91256033  0.66174293  1
  F  F19  1  0.56938461  0.71575110  0.46224079  1
  F  F20  1  0.47400002  0.56163623  0.31255284  1
  F  F21  1  0.52249998  0.43653275  0.68679946  1
  F  F22  1  0.42292891  0.09173484  0.33717681  1
  F  F23  1  0.42464029  0.28765947  0.53546726  1
  F  F24  1  0.43032539  0.58688749  0.83877495  1
  F  F25  1  0.59354344  0.20100177  0.96328504  1
  F  F26  1  0.06967461  0.66311251  0.41122505  1
  F  F27  1  0.07535971  0.96234053  0.71453274  1
  F  F28  1  0.48093233  0.06142466  0.81305850  1
  F  F29  1  0.02599998  0.68836377  0.93744716  1
  F  F30  1  0.01906767  0.18857534  0.43694150  1
  F  F31  1  0.07707109  0.15826516  0.91282319  1
