# generated using pymatgen
data_Li2VFeP2(HO5)2
_symmetry_space_group_name_H-M   'P 1'
_cell_length_a   7.98916078
_cell_length_b   7.40938419
_cell_length_c   6.96751114
_cell_angle_alpha   117.27858980
_cell_angle_beta   87.33430307
_cell_angle_gamma   88.82181264
_symmetry_Int_Tables_number   1
_chemical_formula_structural   Li2VFeP2(HO5)2
_chemical_formula_sum   'Li4 V2 Fe2 P4 H4 O20'
_cell_volume   365.76785571
_cell_formula_units_Z   2
loop_
 _symmetry_equiv_pos_site_id
 _symmetry_equiv_pos_as_xyz
  1  'x, y, z'
loop_
 _atom_site_type_symbol
 _atom_site_label
 _atom_site_symmetry_multiplicity
 _atom_site_fract_x
 _atom_site_fract_y
 _atom_site_fract_z
 _atom_site_occupancy
  Li  Li0  1  0.32439100  0.82256442  0.07276757  1
  Li  Li1  1  0.17496256  0.17675582  0.42891349  1
  Li  Li2  1  0.82503744  0.82324418  0.57108651  1
  Li  Li3  1  0.67560900  0.17743558  0.92723243  1
  V  V4  1  0.00000000  0.00000000  0.00000000  1
  V  V5  1  0.50000000  0.50000000  0.50000000  1
  Fe  Fe6  1  0.00000000  0.50000000  0.00000000  1
  Fe  Fe7  1  0.50000000  0.00000000  0.50000000  1
  P  P8  1  0.15786455  0.76772893  0.48057126  1
  P  P9  1  0.34241215  0.23100940  0.01750485  1
  P  P10  1  0.65758785  0.76899060  0.98249515  1
  P  P11  1  0.84213545  0.23227107  0.51942874  1
  H  H12  1  0.15081329  0.65922630  0.79049778  1
  H  H13  1  0.64938280  0.66257297  0.29083012  1
  H  H14  1  0.35061720  0.33742703  0.70916988  1
  H  H15  1  0.84918671  0.34077370  0.20950222  1
  O  O16  1  0.01927714  0.65787764  0.32476518  1
  O  O17  1  0.22691453  0.11859891  0.11165694  1
  O  O18  1  0.27198286  0.88075628  0.38676671  1
  O  O19  1  0.05984152  0.92627900  0.68875510  1
  O  O20  1  0.55827909  0.92890446  0.19034435  1
  O  O21  1  0.26247657  0.61997518  0.53403387  1
  O  O22  1  0.48017794  0.34075111  0.17485189  1
  O  O23  1  0.76128318  0.62054272  0.03474818  1
  O  O24  1  0.10484987  0.72197897  0.94290416  1
  O  O25  1  0.60625147  0.72740475  0.44424127  1
  O  O26  1  0.39374853  0.27259525  0.55575873  1
  O  O27  1  0.89515013  0.27802103  0.05709584  1
  O  O28  1  0.23871682  0.37945728  0.96525182  1
  O  O29  1  0.51982206  0.65924889  0.82514811  1
  O  O30  1  0.73752343  0.38002482  0.46596613  1
  O  O31  1  0.44172091  0.07109554  0.80965565  1
  O  O32  1  0.94015848  0.07372100  0.31124490  1
  O  O33  1  0.72801714  0.11924372  0.61323329  1
  O  O34  1  0.77308547  0.88140109  0.88834306  1
  O  O35  1  0.98072286  0.34212236  0.67523482  1
