# generated using pymatgen
data_Li4MnFe3(PO4)4
_symmetry_space_group_name_H-M   'P 1'
_cell_length_a   10.46704200
_cell_length_b   6.10507960
_cell_length_c   4.76208821
_cell_angle_alpha   90.00000000
_cell_angle_beta   90.12438993
_cell_angle_gamma   90.00000000
_symmetry_Int_Tables_number   1
_chemical_formula_structural   Li4MnFe3(PO4)4
_chemical_formula_sum   'Li4 Mn1 Fe3 P4 O16'
_cell_volume   304.30683715
_cell_formula_units_Z   1
loop_
 _symmetry_equiv_pos_site_id
 _symmetry_equiv_pos_as_xyz
  1  'x, y, z'
loop_
 _atom_site_type_symbol
 _atom_site_label
 _atom_site_symmetry_multiplicity
 _atom_site_fract_x
 _atom_site_fract_y
 _atom_site_fract_z
 _atom_site_occupancy
  Li  Li0  1  0.99946710  0.99937058  -0.00001670  1
  Li  Li1  1  0.99946710  0.50062942  -0.00001670  1
  Li  Li2  1  0.50030431  0.99913185  0.50021410  1
  Li  Li3  1  0.50030431  0.50086815  0.50021410  1
  Mn  Mn4  1  0.28149165  0.25000000  0.97798277  1
  Fe  Fe5  1  0.21841632  0.75000000  0.47491172  1
  Fe  Fe6  1  0.71851723  0.75000000  0.02491533  1
  Fe  Fe7  1  0.78144372  0.25000000  0.52549083  1
  P  P8  1  0.09258417  0.25000000  0.41993430  1
  P  P9  1  0.40612391  0.75000000  0.91560823  1
  P  P10  1  0.59580834  0.25000000  0.08226191  1
  P  P11  1  0.90515305  0.75000000  0.58153389  1
  O  O12  1  0.04270110  0.75000000  0.70723496  1
  O  O13  1  0.09468788  0.25000000  0.74192675  1
  O  O14  1  0.16392536  0.04699622  0.28913236  1
  O  O15  1  0.16392536  0.45300378  0.28913236  1
  O  O16  1  0.33597696  0.54844991  0.77961686  1
  O  O17  1  0.33597696  0.95155009  0.77961686  1
  O  O18  1  0.40320576  0.75000000  0.23836531  1
  O  O19  1  0.45879584  0.25000000  0.20944288  1
  O  O20  1  0.54421754  0.75000000  0.79401177  1
  O  O21  1  0.59661696  0.25000000  0.75988307  1
  O  O22  1  0.66644193  0.04690635  0.21458600  1
  O  O23  1  0.66644193  0.45309365  0.21458600  1
  O  O24  1  0.83447897  0.54711244  0.71435259  1
  O  O25  1  0.83447897  0.95288756  0.71435259  1
  O  O26  1  0.90319455  0.75000000  0.25902157  1
  O  O27  1  0.95584971  0.25000000  0.29170429  1
