# generated using pymatgen
data_LiVCrP2(HO5)2
_symmetry_space_group_name_H-M   'P 1'
_cell_length_a   10.19724647
_cell_length_b   7.36452715
_cell_length_c   5.19899056
_cell_angle_alpha   74.50976596
_cell_angle_beta   80.26182768
_cell_angle_gamma   103.09396726
_symmetry_Int_Tables_number   1
_chemical_formula_structural   LiVCrP2(HO5)2
_chemical_formula_sum   'Li2 V2 Cr2 P4 H4 O20'
_cell_volume   355.33035660
_cell_formula_units_Z   2
loop_
 _symmetry_equiv_pos_site_id
 _symmetry_equiv_pos_as_xyz
  1  'x, y, z'
loop_
 _atom_site_type_symbol
 _atom_site_label
 _atom_site_symmetry_multiplicity
 _atom_site_fract_x
 _atom_site_fract_y
 _atom_site_fract_z
 _atom_site_occupancy
  Li  Li0  1  0.27926607  0.12890282  0.64806323  1
  Li  Li1  1  0.72073393  0.87109718  0.35193677  1
  V  V2  1  0.24884819  0.74320073  0.25542215  1
  V  V3  1  0.75115181  0.25679927  0.74457785  1
  Cr  Cr4  1  0.00000000  0.00000000  0.00000000  1
  Cr  Cr5  1  0.50000000  0.50000000  0.50000000  1
  P  P6  1  0.06302901  0.28604710  0.38623639  1
  P  P7  1  0.43738421  0.20751332  0.11114214  1
  P  P8  1  0.56261579  0.79248668  0.88885786  1
  P  P9  1  0.93697099  0.71395290  0.61376361  1
  H  H10  1  0.14230404  0.79499188  0.85124603  1
  H  H11  1  0.34550793  0.68273817  0.67000936  1
  H  H12  1  0.65449207  0.31726183  0.32999064  1
  H  H13  1  0.85769596  0.20500812  0.14875397  1
  O  O14  1  0.08801775  0.15742859  0.20933118  1
  O  O15  1  0.10840778  0.21916406  0.65522895  1
  O  O16  1  0.09343404  0.71596206  0.56053228  1
  O  O17  1  0.15298435  0.50243207  0.22263147  1
  O  O18  1  0.34205154  0.99893949  0.29046417  1
  O  O19  1  0.16252003  0.88129565  0.96515774  1
  O  O20  1  0.39692022  0.26930566  0.83616800  1
  O  O21  1  0.34377697  0.62518913  0.51898971  1
  O  O22  1  0.41172840  0.33954699  0.28800322  1
  O  O23  1  0.40614289  0.78935892  0.93694797  1
  O  O24  1  0.59385711  0.21064108  0.06305203  1
  O  O25  1  0.58827160  0.66045301  0.71199678  1
  O  O26  1  0.65622303  0.37481087  0.48101029  1
  O  O27  1  0.60307978  0.73069434  0.16383200  1
  O  O28  1  0.83747997  0.11870435  0.03484226  1
  O  O29  1  0.65794846  0.00106051  0.70953583  1
  O  O30  1  0.84701565  0.49756793  0.77736853  1
  O  O31  1  0.90656596  0.28403794  0.43946772  1
  O  O32  1  0.89159222  0.78083594  0.34477105  1
  O  O33  1  0.91198225  0.84257141  0.79066882  1
