# generated using pymatgen
data_In15SnO24
_symmetry_space_group_name_H-M   'P 1'
_cell_length_a   8.94769204
_cell_length_b   8.93057285
_cell_length_c   8.94769204
_cell_angle_alpha   109.46727232
_cell_angle_beta   109.56862039
_cell_angle_gamma   109.45527519
_symmetry_Int_Tables_number   1
_chemical_formula_structural   In15SnO24
_chemical_formula_sum   'In15 Sn1 O24'
_cell_volume   549.87374903
_cell_formula_units_Z   1
loop_
 _symmetry_equiv_pos_site_id
 _symmetry_equiv_pos_as_xyz
  1  'x, y, z'
loop_
 _atom_site_type_symbol
 _atom_site_label
 _atom_site_symmetry_multiplicity
 _atom_site_fract_x
 _atom_site_fract_y
 _atom_site_fract_z
 _atom_site_occupancy
  In  In0  1  0.49875391  0.99930474  0.99924250  1
  In  In1  1  0.78265017  0.03288244  0.74811264  1
  In  In2  1  0.71523020  0.46711756  0.24976773  1
  In  In3  1  0.75114548  0.28440467  0.53476359  1
  In  In4  1  0.74841738  0.78245027  0.03319570  1
  In  In5  1  0.46623460  0.25000000  0.71623460  1
  In  In6  1  0.99993776  0.50069526  0.99944917  1
  In  In7  1  0.99982585  0.00148534  0.50092601  1
  In  In8  1  0.49944067  0.49851466  0.49833951  1
  In  In9  1  0.53356287  0.75000000  0.28356287  1
  In  In10  1  0.25074443  0.71754973  0.46596711  1
  In  In11  1  0.25035892  0.21559533  0.96674082  1
  In  In12  1  0.21675176  0.96664818  0.24962219  1
  In  In13  1  0.28297501  0.53335182  0.75010358  1
  In  In14  1  0.03359639  0.75000000  0.78359639  1
  Sn  Sn15  1  0.96464579  0.25000000  0.21464579  1
  O  O16  1  0.76358999  0.03609302  0.49162826  1
  O  O17  1  0.74788457  0.22902145  0.27383158  1
  O  O18  1  0.96107392  0.49750644  0.23260024  1
  O  O19  1  0.27297375  0.00718999  0.04400429  1
  O  O20  1  0.46457337  0.22773800  0.45586107  1
  O  O21  1  0.77492089  0.72944242  0.26461089  1
  O  O22  1  0.45553524  0.46390698  0.22749697  1
  O  O23  1  0.04481013  0.27097855  0.01886312  1
  O  O24  1  0.72938080  0.26442481  0.77330093  1
  O  O25  1  0.00660946  0.05277715  0.27068574  1
  O  O26  1  0.77201575  0.54208825  0.53421082  1
  O  O27  1  0.49404351  0.76613727  0.03683200  1
  O  O28  1  0.21790959  0.44722285  0.45383231  1
  O  O29  1  0.50887612  0.23557519  0.96495599  1
  O  O30  1  0.27069473  0.73386273  0.22790624  1
  O  O31  1  0.99212257  0.95791175  0.72992750  1
  O  O32  1  0.95597799  0.73022146  0.99482229  1
  O  O33  1  0.54084481  0.53674485  0.76883799  1
  O  O34  1  0.22812307  0.27226200  0.73683637  1
  O  O35  1  0.53516848  0.77055758  0.54547747  1
  O  O36  1  0.73509281  0.00249356  0.96356649  1
  O  O37  1  0.03681430  0.49281001  0.76578376  1
  O  O38  1  0.23209315  0.96325515  0.50409996  1
  O  O39  1  0.26460083  0.76977854  0.72575653  1
