# generated using pymatgen
data_Li2VCrP2(HO5)2
_symmetry_space_group_name_H-M   'P 1'
_cell_length_a   5.42699041
_cell_length_b   14.45847961
_cell_length_c   7.45249164
_cell_angle_alpha   95.19234682
_cell_angle_beta   69.50997864
_cell_angle_gamma   87.42331291
_symmetry_Int_Tables_number   1
_chemical_formula_structural   Li2VCrP2(HO5)2
_chemical_formula_sum   'Li6 V3 Cr3 P6 H6 O30'
_cell_volume   543.67946032
_cell_formula_units_Z   3
loop_
 _symmetry_equiv_pos_site_id
 _symmetry_equiv_pos_as_xyz
  1  'x, y, z'
loop_
 _atom_site_type_symbol
 _atom_site_label
 _atom_site_symmetry_multiplicity
 _atom_site_fract_x
 _atom_site_fract_y
 _atom_site_fract_z
 _atom_site_occupancy
  Li  Li0  1  0.73432335  0.69220070  0.86829942  1
  Li  Li1  1  0.93257829  0.64133362  0.46462093  1
  Li  Li2  1  0.59945931  0.97396859  0.79752813  1
  Li  Li3  1  0.40046845  0.02511979  0.20252666  1
  Li  Li4  1  0.06761532  0.35904917  0.53498592  1
  Li  Li5  1  0.26568738  0.30834629  0.13211104  1
  V  V6  1  0.33431574  0.16691764  0.66648611  1
  V  V7  1  0.00012988  0.50007478  0.99994944  1
  V  V8  1  -0.00001122  0.99946083  0.99980107  1
  Cr  Cr9  1  0.66564987  0.83298820  0.33339305  1
  Cr  Cr10  1  0.66616636  0.33349564  0.33365723  1
  Cr  Cr11  1  0.33375084  0.66693819  0.66656123  1
  P  P12  1  0.97950351  0.14855207  0.38035039  1
  P  P13  1  0.68688201  0.18571652  0.95418846  1
  P  P14  1  0.64573978  0.48142139  0.71219063  1
  P  P15  1  0.35459124  0.51890642  0.28775081  1
  P  P16  1  0.31237732  0.81407507  0.04814140  1
  P  P17  1  0.02102873  0.85131247  0.61731555  1
  H  H18  1  0.95327165  0.32592817  0.98826405  1
  H  H19  1  0.71176229  0.00595260  0.34774885  1
  H  H20  1  0.61817773  0.66082171  0.32154017  1
  H  H21  1  0.38040087  0.34113666  0.67803766  1
  H  H22  1  0.29049271  0.99170267  0.65287360  1
  H  H23  1  0.04652957  0.67430732  0.01147402  1
  O  O24  1  0.91909967  0.90059850  0.82609617  1
  O  O25  1  0.95726506  0.21848127  0.83891289  1
  O  O26  1  0.86226447  0.45175182  0.79205521  1
  O  O27  1  0.80334904  0.88139629  0.53962097  1
  O  O28  1  0.70123180  0.07761794  0.95907383  1
  O  O29  1  0.96296419  0.25644868  0.37540320  1
  O  O30  1  0.62983094  0.58935794  0.70736641  1
  O  O31  1  0.74738515  0.43268330  0.50272313  1
  O  O32  1  0.95041784  0.37131525  0.09718268  1
  O  O33  1  0.70987839  0.11493583  0.49522597  1
  O  O34  1  0.71467747  0.96079167  0.23844692  1
  O  O35  1  0.41284698  0.76550965  0.83852043  1
  O  O36  1  0.47154356  0.21592394  0.87387522  1
  O  O37  1  0.61965729  0.70534629  0.43048215  1
  O  O38  1  0.37642109  0.44799887  0.82785468  1
  O  O39  1  0.62397915  0.55223026  0.17210034  1
  O  O40  1  0.38183904  0.29591319  0.56927982  1
  O  O41  1  0.53003219  0.78405104  0.12584479  1
  O  O42  1  0.58558755  0.23419887  0.16374885  1
  O  O43  1  0.28199592  0.03794098  0.76203066  1
  O  O44  1  0.29292501  0.88478261  0.50308098  1
  O  O45  1  0.05024295  0.62886073  0.90242912  1
  O  O46  1  0.25340814  0.56759069  0.49723774  1
  O  O47  1  0.37033694  0.41092856  0.29226145  1
  O  O48  1  0.03793816  0.74356801  0.62363781  1
  O  O49  1  0.29749113  0.92209285  0.04238497  1
  O  O50  1  0.19500724  0.11846846  0.46061300  1
  O  O51  1  0.13778641  0.54846715  0.20804880  1
  O  O52  1  0.03988792  0.78156488  0.16304743  1
  O  O53  1  0.08182233  0.09945494  0.17161553  1
