# generated using pymatgen
data_Li3NbS4
_symmetry_space_group_name_H-M   'P 1'
_cell_length_a   8.96631925
_cell_length_b   8.96631925
_cell_length_c   8.96631925
_cell_angle_alpha   109.47122063
_cell_angle_beta   109.47122063
_cell_angle_gamma   109.47122063
_symmetry_Int_Tables_number   1
_chemical_formula_structural   Li3NbS4
_chemical_formula_sum   'Li12 Nb4 S16'
_cell_volume   554.90763812
_cell_formula_units_Z   4
loop_
 _symmetry_equiv_pos_site_id
 _symmetry_equiv_pos_as_xyz
  1  'x, y, z'
loop_
 _atom_site_type_symbol
 _atom_site_label
 _atom_site_symmetry_multiplicity
 _atom_site_fract_x
 _atom_site_fract_y
 _atom_site_fract_z
 _atom_site_occupancy
  Li  Li0  1  0.99963980  0.49892266  0.23846700  1
  Li  Li1  1  0.49928286  0.00036020  0.23882720  1
  Li  Li2  1  0.76153300  0.26045566  0.76117280  1
  Li  Li3  1  0.73954434  0.50107734  0.50071714  1
  Li  Li4  1  0.76117280  0.76153300  0.26045566  1
  Li  Li5  1  0.23882720  0.49928286  0.00036020  1
  Li  Li6  1  0.50107734  0.50071714  0.73954434  1
  Li  Li7  1  0.49892266  0.23846700  0.99963980  1
  Li  Li8  1  0.00036020  0.23882720  0.49928286  1
  Li  Li9  1  0.50071714  0.73954434  0.50107734  1
  Li  Li10  1  0.23846700  0.99963980  0.49892266  1
  Li  Li11  1  0.26045566  0.76117280  0.76153300  1
  Nb  Nb12  1  0.71766046  0.00000000  0.00000000  1
  Nb  Nb13  1  0.28233954  0.28233954  0.28233954  1
  Nb  Nb14  1  0.00000000  0.71766046  0.00000000  1
  Nb  Nb15  1  0.00000000  0.00000000  0.71766046  1
  S  S16  1  0.75924747  0.24479469  0.24459133  1
  S  S17  1  0.75520531  0.51445278  0.99979664  1
  S  S18  1  0.22797914  0.00000000  0.00000000  1
  S  S19  1  0.00000000  0.22797914  0.00000000  1
  S  S20  1  0.00000000  0.00000000  0.22797914  1
  S  S21  1  0.48534386  0.48554722  0.24075253  1
  S  S22  1  0.48554722  0.24075253  0.48534386  1
  S  S23  1  0.51445278  0.99979664  0.75520531  1
  S  S24  1  0.00020336  0.51465614  0.75540867  1
  S  S25  1  0.24075253  0.48534386  0.48554722  1
  S  S26  1  0.24459133  0.75924747  0.24479469  1
  S  S27  1  0.75540867  0.00020336  0.51465614  1
  S  S28  1  0.24479469  0.24459133  0.75924747  1
  S  S29  1  0.77202086  0.77202086  0.77202086  1
  S  S30  1  0.51465614  0.75540867  0.00020336  1
  S  S31  1  0.99979664  0.75520531  0.51445278  1
