# generated using pymatgen
data_V4OF11
_symmetry_space_group_name_H-M   'P 1'
_cell_length_a   5.26314036
_cell_length_b   5.46167165
_cell_length_c   17.45299901
_cell_angle_alpha   91.24797744
_cell_angle_beta   98.38114715
_cell_angle_gamma   61.31017801
_symmetry_Int_Tables_number   1
_chemical_formula_structural   V4OF11
_chemical_formula_sum   'V8 O2 F22'
_cell_volume   434.73146553
_cell_formula_units_Z   2
loop_
 _symmetry_equiv_pos_site_id
 _symmetry_equiv_pos_as_xyz
  1  'x, y, z'
loop_
 _atom_site_type_symbol
 _atom_site_label
 _atom_site_symmetry_multiplicity
 _atom_site_fract_x
 _atom_site_fract_y
 _atom_site_fract_z
 _atom_site_occupancy
  V  V0  1  0.77057589  0.59943045  0.12016789  1
  V  V1  1  0.74589537  0.12153324  0.62625953  1
  V  V2  1  0.50309166  0.24301023  0.24873954  1
  V  V3  1  0.49194202  0.73853434  0.75748627  1
  V  V4  1  0.25094309  0.87115162  0.37444752  1
  V  V5  1  0.25065289  0.38654594  0.87413862  1
  V  V6  1  0.00093395  0.01273886  0.00151918  1
  V  V7  1  0.99946682  0.49777864  0.50019539  1
  O  O8  1  0.94753523  0.32987788  0.06530459  1
  O  O9  1  0.42244241  0.59333017  0.83020335  1
  F  F10  1  0.92980219  0.83803726  0.08811118  1
  F  F11  1  0.97726301  0.80924179  0.56288762  1
  F  F12  1  0.53969405  0.92509575  0.18466362  1
  F  F13  1  0.93161529  0.03360391  0.28616931  1
  F  F14  1  0.92422699  0.33442252  0.58856151  1
  F  F15  1  0.92279876  0.54160443  0.78774976  1
  F  F16  1  0.42444496  0.79917154  0.03790890  1
  F  F17  1  0.56504557  0.42208006  0.16163570  1
  F  F18  1  0.57833047  0.90693114  0.66809936  1
  F  F19  1  0.57001311  0.71385603  0.46306703  1
  F  F20  1  0.48031116  0.55659615  0.31189161  1
  F  F21  1  0.51780317  0.44872359  0.68589100  1
  F  F22  1  0.42883722  0.08592657  0.33697628  1
  F  F23  1  0.42628475  0.28089556  0.53758087  1
  F  F24  1  0.57479565  0.21388963  0.96174668  1
  F  F25  1  0.07264224  0.65707109  0.41172349  1
  F  F26  1  0.07245805  0.46196666  0.21174295  1
  F  F27  1  0.07774965  0.96856718  0.71343082  1
  F  F28  1  0.47749999  0.06431439  0.81267656  1
  F  F29  1  0.03095810  0.69097572  0.93809862  1
  F  F30  1  0.01934052  0.18547158  0.43741943  1
  F  F31  1  0.07460677  0.16762708  0.91350681  1
