# generated using pymatgen
data_HoTa3O9
_symmetry_space_group_name_H-M   'P 1'
_cell_length_a   5.28723741
_cell_length_b   7.52611316
_cell_length_c   8.32551679
_cell_angle_alpha   90.00000000
_cell_angle_beta   92.66200295
_cell_angle_gamma   90.00000000
_symmetry_Int_Tables_number   1
_chemical_formula_structural   HoTa3O9
_chemical_formula_sum   'Ho2 Ta6 O18'
_cell_volume   330.93435493
_cell_formula_units_Z   2
loop_
 _symmetry_equiv_pos_site_id
 _symmetry_equiv_pos_as_xyz
  1  'x, y, z'
loop_
 _atom_site_type_symbol
 _atom_site_label
 _atom_site_symmetry_multiplicity
 _atom_site_fract_x
 _atom_site_fract_y
 _atom_site_fract_z
 _atom_site_occupancy
  Ho  Ho0  1  0.03615526  0.75000000  0.43516104  1
  Ho  Ho1  1  0.96384474  0.25000000  0.56483896  1
  Ta  Ta2  1  0.00000000  0.00000000  0.00000000  1
  Ta  Ta3  1  0.00000000  0.50000000  0.00000000  1
  Ta  Ta4  1  0.46905367  0.50623150  0.69495004  1
  Ta  Ta5  1  0.46905367  0.99376850  0.69495004  1
  Ta  Ta6  1  0.53094633  0.00623150  0.30504996  1
  Ta  Ta7  1  0.53094633  0.49376850  0.30504996  1
  O  O8  1  0.09344756  0.75000000  0.97754581  1
  O  O9  1  0.14706261  0.06524722  0.78429660  1
  O  O10  1  0.14706261  0.43475278  0.78429660  1
  O  O11  1  0.25660081  0.04333052  0.46793161  1
  O  O12  1  0.25660081  0.45666948  0.46793161  1
  O  O13  1  0.33530642  0.75000000  0.65352804  1
  O  O14  1  0.32667610  0.05170434  0.12114398  1
  O  O15  1  0.32667610  0.44829566  0.12114398  1
  O  O16  1  0.41910668  0.75000000  0.31569572  1
  O  O17  1  0.58089332  0.25000000  0.68430428  1
  O  O18  1  0.67332390  0.94829566  0.87885602  1
  O  O19  1  0.67332390  0.55170434  0.87885602  1
  O  O20  1  0.66469358  0.25000000  0.34647196  1
  O  O21  1  0.74339919  0.95666948  0.53206839  1
  O  O22  1  0.74339919  0.54333052  0.53206839  1
  O  O23  1  0.85293739  0.93475278  0.21570340  1
  O  O24  1  0.85293739  0.56524722  0.21570340  1
  O  O25  1  0.90655244  0.25000000  0.02245419  1
