# generated using pymatgen
data_V4OF11
_symmetry_space_group_name_H-M   'P 1'
_cell_length_a   5.27334123
_cell_length_b   5.44487932
_cell_length_c   17.46869846
_cell_angle_alpha   91.97205941
_cell_angle_beta   98.80862946
_cell_angle_gamma   61.18846747
_symmetry_Int_Tables_number   1
_chemical_formula_structural   V4OF11
_chemical_formula_sum   'V8 O2 F22'
_cell_volume   433.85052133
_cell_formula_units_Z   2
loop_
 _symmetry_equiv_pos_site_id
 _symmetry_equiv_pos_as_xyz
  1  'x, y, z'
loop_
 _atom_site_type_symbol
 _atom_site_label
 _atom_site_symmetry_multiplicity
 _atom_site_fract_x
 _atom_site_fract_y
 _atom_site_fract_z
 _atom_site_occupancy
  V  V0  1  0.74404798  0.63527756  0.12706978  1
  V  V1  1  0.75595202  0.11472244  0.62293022  1
  V  V2  1  0.50012451  0.22861470  0.24573254  1
  V  V3  1  0.50187186  0.74566592  0.74950789  1
  V  V4  1  0.25000000  0.87500000  0.37500000  1
  V  V5  1  0.25000000  0.37500000  0.87500000  1
  V  V6  1  0.99812814  0.00433408  0.00049211  1
  V  V7  1  -0.00012451  0.52138530  0.50426746  1
  O  O8  1  0.95860626  0.79720442  0.55908356  1
  O  O9  1  0.54139374  0.95279558  0.19091644  1
  F  F10  1  0.92741855  0.83630722  0.08801373  1
  F  F11  1  0.97306624  0.31756667  0.06415217  1
  F  F12  1  0.92148931  0.04982226  0.28882370  1
  F  F13  1  0.93009478  0.32988074  0.58637863  1
  F  F14  1  0.92855498  0.53271278  0.78647169  1
  F  F15  1  0.42454012  0.78794863  0.03765618  1
  F  F16  1  0.56990522  0.42011926  0.16362137  1
  F  F17  1  0.57258145  0.91369278  0.66198627  1
  F  F18  1  0.57851069  0.70017774  0.46117630  1
  F  F19  1  0.46732432  0.55554820  0.30978306  1
  F  F20  1  0.52693376  0.43243333  0.68584783  1
  F  F21  1  0.42605806  0.08985924  0.33801409  1
  F  F22  1  0.42288320  0.29028296  0.53565094  1
  F  F23  1  0.42536731  0.58782672  0.83742555  1
  F  F24  1  0.57144502  0.21728722  0.96352831  1
  F  F25  1  0.07394194  0.66014076  0.41198591  1
  F  F26  1  0.07711680  0.45971704  0.21434906  1
  F  F27  1  0.07545988  0.96205137  0.71234382  1
  F  F28  1  0.48122302  0.05897953  0.81260602  1
  F  F29  1  0.01877698  0.69102047  0.93739398  1
  F  F30  1  0.03267568  0.19445180  0.44021694  1
  F  F31  1  0.07463269  0.16217328  0.91257445  1
