# generated using pymatgen
data_Li4CrFe3O8
_symmetry_space_group_name_H-M   'P 1'
_cell_length_a   5.17951989
_cell_length_b   5.95163945
_cell_length_c   5.16054434
_cell_angle_alpha   89.99997350
_cell_angle_beta   70.53890219
_cell_angle_gamma   89.99997502
_symmetry_Int_Tables_number   1
_chemical_formula_structural   Li4CrFe3O8
_chemical_formula_sum   'Li4 Cr1 Fe3 O8'
_cell_volume   149.99351853
_cell_formula_units_Z   1
loop_
 _symmetry_equiv_pos_site_id
 _symmetry_equiv_pos_as_xyz
  1  'x, y, z'
loop_
 _atom_site_type_symbol
 _atom_site_label
 _atom_site_symmetry_multiplicity
 _atom_site_fract_x
 _atom_site_fract_y
 _atom_site_fract_z
 _atom_site_occupancy
  Li  Li0  1  0.00000000  0.00078462  1.00000000  1
  Li  Li1  1  0.00000000  0.49921538  0.00000000  1
  Li  Li2  1  0.00000000  0.25000000  0.50000000  1
  Li  Li3  1  0.00000000  0.75000000  0.50000000  1
  Cr  Cr4  1  0.50000000  0.25000100  0.00000000  1
  Fe  Fe5  1  0.50000000  0.75000000  0.00000000  1
  Fe  Fe6  1  0.50000000  -0.00005072  0.50000000  1
  Fe  Fe7  1  0.50000000  0.50005072  0.50000000  1
  O  O8  1  0.27252302  0.00111671  0.24179559  1
  O  O9  1  0.27252202  0.49888429  0.24179559  1
  O  O10  1  0.72665007  0.25000000  0.25545889  1
  O  O11  1  0.27334893  0.25000000  0.74454111  1
  O  O12  1  0.72939930  0.74999900  0.25816616  1
  O  O13  1  0.72747698  0.00111571  0.75820341  1
  O  O14  1  0.27060170  0.75000000  0.74183484  1
  O  O15  1  0.72747698  0.49888429  0.75820541  1
