# generated using pymatgen
data_Rb4SnO3
_symmetry_space_group_name_H-M   'P 1'
_cell_length_a   6.86648385
_cell_length_b   11.88394795
_cell_length_c   20.14633787
_cell_angle_alpha   90.00000000
_cell_angle_beta   90.00000000
_cell_angle_gamma   90.00000000
_symmetry_Int_Tables_number   1
_chemical_formula_structural   Rb4SnO3
_chemical_formula_sum   'Rb32 Sn8 O24'
_cell_volume   1643.96004072
_cell_formula_units_Z   8
loop_
 _symmetry_equiv_pos_site_id
 _symmetry_equiv_pos_as_xyz
  1  'x, y, z'
loop_
 _atom_site_type_symbol
 _atom_site_label
 _atom_site_symmetry_multiplicity
 _atom_site_fract_x
 _atom_site_fract_y
 _atom_site_fract_z
 _atom_site_occupancy
  Rb  Rb0  1  0.03263069  0.11123744  0.20438431  1
  Rb  Rb1  1  0.03263069  0.38876256  0.70438431  1
  Rb  Rb2  1  0.12256518  0.82444925  0.15914915  1
  Rb  Rb3  1  0.12256518  0.67555075  0.65914915  1
  Rb  Rb4  1  0.22258985  0.18873232  0.44350241  1
  Rb  Rb5  1  0.22258985  0.31126768  0.94350241  1
  Rb  Rb6  1  0.23885785  0.05663954  0.03814111  1
  Rb  Rb7  1  0.23885785  0.44336046  0.53814111  1
  Rb  Rb8  1  0.26114215  0.55663954  0.03814111  1
  Rb  Rb9  1  0.26114215  0.94336046  0.53814111  1
  Rb  Rb10  1  0.27741015  0.68873232  0.44350241  1
  Rb  Rb11  1  0.27741015  0.81126768  0.94350241  1
  Rb  Rb12  1  0.37743482  0.32444925  0.15914915  1
  Rb  Rb13  1  0.37743482  0.17555075  0.65914915  1
  Rb  Rb14  1  0.46736931  0.61123744  0.20438431  1
  Rb  Rb15  1  0.46736931  0.88876256  0.70438431  1
  Rb  Rb16  1  0.53263069  0.11123744  0.29561569  1
  Rb  Rb17  1  0.53263069  0.38876256  0.79561569  1
  Rb  Rb18  1  0.62256518  0.82444925  0.34085085  1
  Rb  Rb19  1  0.62256518  0.67555075  0.84085085  1
  Rb  Rb20  1  0.72258985  0.18873232  0.05649759  1
  Rb  Rb21  1  0.72258985  0.31126768  0.55649759  1
  Rb  Rb22  1  0.73885785  0.05663954  0.46185889  1
  Rb  Rb23  1  0.73885785  0.44336046  0.96185889  1
  Rb  Rb24  1  0.76114215  0.55663954  0.46185889  1
  Rb  Rb25  1  0.76114215  0.94336046  0.96185889  1
  Rb  Rb26  1  0.77741015  0.68873232  0.05649759  1
  Rb  Rb27  1  0.77741015  0.81126768  0.55649759  1
  Rb  Rb28  1  0.87743482  0.32444925  0.34085085  1
  Rb  Rb29  1  0.87743482  0.17555075  0.84085085  1
  Rb  Rb30  1  0.96736931  0.61123744  0.29561569  1
  Rb  Rb31  1  0.96736931  0.88876256  0.79561569  1
  Sn  Sn32  1  0.10573068  0.93102941  0.35261988  1
  Sn  Sn33  1  0.10573068  0.56897059  0.85261988  1
  Sn  Sn34  1  0.39426932  0.06897059  0.85261988  1
  Sn  Sn35  1  0.39426932  0.43102941  0.35261988  1
  Sn  Sn36  1  0.60573068  0.93102941  0.14738012  1
  Sn  Sn37  1  0.60573068  0.56897059  0.64738012  1
  Sn  Sn38  1  0.89426932  0.43102941  0.14738012  1
  Sn  Sn39  1  0.89426932  0.06897059  0.64738012  1
  O  O40  1  0.03753868  0.58623193  0.15586944  1
  O  O41  1  0.03753868  0.91376807  0.65586944  1
  O  O42  1  0.04507370  0.35173002  0.07042072  1
  O  O43  1  0.04507370  0.14826998  0.57042072  1
  O  O44  1  0.13703388  0.47675751  0.40055771  1
  O  O45  1  0.13703388  0.02324249  0.90055771  1
  O  O46  1  0.36296612  0.97675751  0.40055771  1
  O  O47  1  0.36296612  0.52324249  0.90055771  1
  O  O48  1  0.45492630  0.85173002  0.07042072  1
  O  O49  1  0.45492630  0.64826998  0.57042072  1
  O  O50  1  0.46246132  0.08623193  0.15586944  1
  O  O51  1  0.46246132  0.41376807  0.65586944  1
  O  O52  1  0.53753868  0.58623193  0.34413056  1
  O  O53  1  0.53753868  0.91376807  0.84413056  1
  O  O54  1  0.54507370  0.14826998  0.92957928  1
  O  O55  1  0.54507370  0.35173002  0.42957928  1
  O  O56  1  0.63703388  0.47675751  0.09944229  1
  O  O57  1  0.63703388  0.02324249  0.59944229  1
  O  O58  1  0.86296612  0.52324249  0.59944229  1
  O  O59  1  0.86296612  0.97675751  0.09944229  1
  O  O60  1  0.95492630  0.64826998  0.92957928  1
  O  O61  1  0.95492630  0.85173002  0.42957928  1
  O  O62  1  0.96246132  0.08623193  0.34413056  1
  O  O63  1  0.96246132  0.41376807  0.84413056  1
