# generated using pymatgen
data_LiNi2O3
_symmetry_space_group_name_H-M   'P 1'
_cell_length_a   5.06852061
_cell_length_b   5.09070460
_cell_length_c   9.74501804
_cell_angle_alpha   95.22660253
_cell_angle_beta   100.54381854
_cell_angle_gamma   60.14405730
_symmetry_Int_Tables_number   1
_chemical_formula_structural   LiNi2O3
_chemical_formula_sum   'Li4 Ni8 O12'
_cell_volume   214.39044533
_cell_formula_units_Z   4
loop_
 _symmetry_equiv_pos_site_id
 _symmetry_equiv_pos_as_xyz
  1  'x, y, z'
loop_
 _atom_site_type_symbol
 _atom_site_label
 _atom_site_symmetry_multiplicity
 _atom_site_fract_x
 _atom_site_fract_y
 _atom_site_fract_z
 _atom_site_occupancy
  Li  Li0  1  0.91158586  0.67682827  0.75000000  1
  Li  Li1  1  0.25156539  0.99686921  0.75000000  1
  Li  Li2  1  0.42174714  0.65650573  0.25000000  1
  Li  Li3  1  0.08176761  0.33646379  0.25000000  1
  Ni  Ni4  1  0.58190068  0.33619864  0.75000000  1
  Ni  Ni5  1  0.83309238  0.33254632  0.49955378  1
  Ni  Ni6  1  0.50024162  0.00078768  0.50044622  1
  Ni  Ni7  1  0.16666700  0.66666700  0.50000000  1
  Ni  Ni8  1  0.75143232  0.99713436  0.25000000  1
  Ni  Ni9  1  0.66666700  0.66666700  0.00000000  1
  Ni  Ni10  1  0.33436230  0.33254632  0.00044622  1
  Ni  Ni11  1  0.99897170  0.00078768  0.99955378  1
  O  O12  1  0.93501773  0.35681406  0.88401603  1
  O  O13  1  0.62002014  0.01353676  0.87477736  1
  O  O14  1  0.31841771  0.66256978  0.88501579  1
  O  O15  1  0.51901251  0.66256978  0.61498421  1
  O  O16  1  0.86644310  0.01353676  0.62522264  1
  O  O17  1  0.20816821  0.35681406  0.61598397  1
  O  O18  1  0.81432149  0.67076322  0.38501579  1
  O  O19  1  0.46689090  0.31979724  0.37477736  1
  O  O20  1  0.12516579  0.97651894  0.38401603  1
  O  O21  1  0.71331286  0.31979724  0.12522264  1
  O  O22  1  0.39831627  0.97651894  0.11598397  1
  O  O23  1  0.01491529  0.67076322  0.11498421  1
