# generated using pymatgen
data_Na5Mn2P2(CO7)2
_symmetry_space_group_name_H-M   'P 1'
_cell_length_a   9.02573161
_cell_length_b   13.48661055
_cell_length_c   5.23740986
_cell_angle_alpha   90.05083215
_cell_angle_beta   89.27510160
_cell_angle_gamma   90.06774497
_symmetry_Int_Tables_number   1
_chemical_formula_structural   Na5Mn2P2(CO7)2
_chemical_formula_sum   'Na10 Mn4 P4 C4 O28'
_cell_volume   637.48000165
_cell_formula_units_Z   2
loop_
 _symmetry_equiv_pos_site_id
 _symmetry_equiv_pos_as_xyz
  1  'x, y, z'
loop_
 _atom_site_type_symbol
 _atom_site_label
 _atom_site_symmetry_multiplicity
 _atom_site_fract_x
 _atom_site_fract_y
 _atom_site_fract_z
 _atom_site_occupancy
  Na  Na0  1  0.08077622  0.62389963  0.75804869  1
  Na  Na1  1  0.24989398  0.00509727  0.24369484  1
  Na  Na2  1  0.23790428  0.24626282  0.24215892  1
  Na  Na3  1  0.25094316  0.49986247  0.24639044  1
  Na  Na4  1  0.25919762  0.74932269  0.24710461  1
  Na  Na5  1  0.76209572  0.25373718  0.75784108  1
  Na  Na6  1  0.75010602  0.49490273  0.75630516  1
  Na  Na7  1  0.74080238  0.75067731  0.75289539  1
  Na  Na8  1  0.74905684  0.00013753  0.75360956  1
  Na  Na9  1  0.91922378  0.87610037  0.24195131  1
  Mn  Mn10  1  0.35515683  0.37367320  0.77739198  1
  Mn  Mn11  1  0.35898113  0.87608708  0.77922685  1
  Mn  Mn12  1  0.64484317  0.12632680  0.22260802  1
  Mn  Mn13  1  0.64101887  0.62391292  0.22077315  1
  P  P14  1  0.42257853  0.12598145  0.70477598  1
  P  P15  1  0.41447830  0.62388760  0.70289901  1
  P  P16  1  0.57742147  0.37401855  0.29522402  1
  P  P17  1  0.58552170  0.87611240  0.29710099  1
  C  C18  1  0.07471306  0.37485887  0.72424407  1
  C  C19  1  0.06147751  0.87459704  0.73391922  1
  C  C20  1  0.93852249  0.62540296  0.26608078  1
  C  C21  1  0.92528694  0.12514113  0.27575593  1
  O  O22  1  0.06460594  0.12196424  0.27060874  1
  O  O23  1  0.08121749  0.62670471  0.28516478  1
  O  O24  1  0.15187220  0.37348077  0.93929198  1
  O  O25  1  0.12331927  0.87425362  0.95743496  1
  O  O26  1  0.14579381  0.87456141  0.52989646  1
  O  O27  1  0.15762723  0.37488276  0.52007986  1
  O  O28  1  0.33140181  0.03379514  0.77663606  1
  O  O29  1  0.33240986  0.22007487  0.77266718  1
  O  O30  1  0.32170949  0.53037327  0.78274369  1
  O  O31  1  0.32060617  0.71498496  0.78808246  1
  O  O32  1  0.45146919  0.12443755  0.40374253  1
  O  O33  1  0.43145793  0.62516053  0.40623993  1
  O  O34  1  0.42399166  0.37317823  0.16435895  1
  O  O35  1  0.43007802  0.87686508  0.17544286  1
  O  O36  1  0.57600834  0.12682177  0.83564105  1
  O  O37  1  0.56992198  0.62313492  0.82455714  1
  O  O38  1  0.54853081  0.37556245  0.59625747  1
  O  O39  1  0.56854207  0.87483947  0.59376007  1
  O  O40  1  0.66759014  0.27992513  0.22733282  1
  O  O41  1  0.66859819  0.46620486  0.22336394  1
  O  O42  1  0.67939383  0.78501504  0.21191754  1
  O  O43  1  0.67829051  0.96962673  0.21725631  1
  O  O44  1  0.84237277  0.12511724  0.47992014  1
  O  O45  1  0.85420619  0.62543859  0.47010354  1
  O  O46  1  0.84812780  0.12651923  0.06070802  1
  O  O47  1  0.87668073  0.62574638  0.04256504  1
  O  O48  1  0.93539406  0.37803576  0.72939126  1
  O  O49  1  0.91878251  0.87329529  0.71483522  1
