# generated using pymatgen
data_Na3ZnPCO7
_symmetry_space_group_name_H-M   'P 1'
_cell_length_a   8.97027897
_cell_length_b   6.71962292
_cell_length_c   5.18203130
_cell_angle_alpha   90.00000000
_cell_angle_beta   89.97185031
_cell_angle_gamma   90.00000000
_symmetry_Int_Tables_number   1
_chemical_formula_structural   Na3ZnPCO7
_chemical_formula_sum   'Na6 Zn2 P2 C2 O14'
_cell_volume   312.35670401
_cell_formula_units_Z   2
loop_
 _symmetry_equiv_pos_site_id
 _symmetry_equiv_pos_as_xyz
  1  'x, y, z'
loop_
 _atom_site_type_symbol
 _atom_site_label
 _atom_site_symmetry_multiplicity
 _atom_site_fract_x
 _atom_site_fract_y
 _atom_site_fract_z
 _atom_site_occupancy
  Na  Na0  1  0.08276368  0.25000000  0.76042327  1
  Na  Na1  1  0.26036931  0.00133470  0.24850147  1
  Na  Na2  1  0.26036931  0.49866530  0.24850147  1
  Na  Na3  1  0.73963069  0.50133470  0.75149853  1
  Na  Na4  1  0.73963069  0.99866530  0.75149853  1
  Na  Na5  1  0.91723632  0.75000000  0.23957673  1
  Zn  Zn6  1  0.36244576  0.75000000  0.78228993  1
  Zn  Zn7  1  0.63755424  0.25000000  0.21771007  1
  P  P8  1  0.41461788  0.25000000  0.70430698  1
  P  P9  1  0.58538212  0.75000000  0.29569302  1
  C  C10  1  0.06328047  0.75000000  0.73584118  1
  C  C11  1  0.93671953  0.25000000  0.26415882  1
  O  O12  1  0.08114472  0.25000000  0.28571943  1
  O  O13  1  0.12550400  0.75000000  0.96244242  1
  O  O14  1  0.14751496  0.75000000  0.53140860  1
  O  O15  1  0.32016390  0.06460910  0.78129430  1
  O  O16  1  0.32016390  0.43539090  0.78129430  1
  O  O17  1  0.43784637  0.25000000  0.40417970  1
  O  O18  1  0.42972527  0.75000000  0.16559570  1
  O  O19  1  0.57027473  0.25000000  0.83440430  1
  O  O20  1  0.56215363  0.75000000  0.59582030  1
  O  O21  1  0.67983610  0.56460910  0.21870570  1
  O  O22  1  0.67983610  0.93539090  0.21870570  1
  O  O23  1  0.85248504  0.25000000  0.46859140  1
  O  O24  1  0.87449600  0.25000000  0.03755758  1
  O  O25  1  0.91885528  0.75000000  0.71428057  1
