# generated using pymatgen
data_Y7TmO12
_symmetry_space_group_name_H-M   'P 1'
_cell_length_a   9.24061822
_cell_length_b   9.24061822
_cell_length_c   9.24061822
_cell_angle_alpha   109.45235084
_cell_angle_beta   109.47309007
_cell_angle_gamma   109.48822300
_symmetry_Int_Tables_number   1
_chemical_formula_structural   Y7TmO12
_chemical_formula_sum   'Y14 Tm2 O24'
_cell_volume   607.40889746
_cell_formula_units_Z   2
loop_
 _symmetry_equiv_pos_site_id
 _symmetry_equiv_pos_as_xyz
  1  'x, y, z'
loop_
 _atom_site_type_symbol
 _atom_site_label
 _atom_site_symmetry_multiplicity
 _atom_site_fract_x
 _atom_site_fract_y
 _atom_site_fract_z
 _atom_site_occupancy
  Y  Y0  1  0.96691586  0.25000000  0.21691586  1
  Y  Y1  1  0.49888321  0.99970275  0.99841076  1
  Y  Y2  1  0.78300906  0.03300906  0.75000000  1
  Y  Y3  1  0.71699094  0.46699094  0.25000000  1
  Y  Y4  1  0.75000000  0.28430470  0.53430470  1
  Y  Y5  1  0.75000000  0.78199806  0.03199806  1
  Y  Y6  1  0.50129199  0.50047245  0.50158924  1
  Y  Y7  1  0.00111679  0.99952755  0.50081954  1
  Y  Y8  1  0.53308414  0.75000000  0.28308414  1
  Y  Y9  1  0.99870801  0.50029725  0.99918046  1
  Y  Y10  1  0.25000000  0.71800194  0.46800194  1
  Y  Y11  1  0.25000000  0.21569530  0.96569530  1
  Y  Y12  1  0.21757453  0.96757453  0.25000000  1
  Y  Y13  1  0.28242547  0.53242547  0.75000000  1
  Tm  Tm14  1  0.46636182  0.25000000  0.71636182  1
  Tm  Tm15  1  0.03363818  0.75000000  0.78363818  1
  O  O16  1  0.76223128  0.03265828  0.49033216  1
  O  O17  1  0.73776872  0.22810088  0.27042700  1
  O  O18  1  0.27025140  0.00830803  0.04035453  1
  O  O19  1  0.96820968  0.51112841  0.23899658  1
  O  O20  1  0.46795249  0.22989686  0.45964547  1
  O  O21  1  0.77213182  0.72921309  0.26100342  1
  O  O22  1  0.45767388  0.46734172  0.22957300  1
  O  O23  1  0.04232612  0.27189912  0.00966784  1
  O  O24  1  0.72567784  0.26094307  0.77146119  1
  O  O25  1  0.77432216  0.54578235  0.53526523  1
  O  O26  1  0.01060361  0.04219858  0.27167873  1
  O  O27  1  0.48939639  0.76107512  0.03159597  1
  O  O28  1  0.22947915  0.45780142  0.46840403  1
  O  O29  1  0.51051811  0.23905693  0.96473477  1
  O  O30  1  0.98948189  0.95421765  0.72853881  1
  O  O31  1  0.27052085  0.73892488  0.22832127  1
  O  O32  1  0.95794523  0.72918538  0.98617305  1
  O  O33  1  0.54205477  0.52822782  0.77124015  1
  O  O34  1  0.53179032  0.77078691  0.54291873  1
  O  O35  1  0.22974860  0.27010314  0.73805663  1
  O  O36  1  0.72786818  0.98887159  0.95708127  1
  O  O37  1  0.03204751  0.49169197  0.76194337  1
  O  O38  1  0.24301233  0.97177218  0.51382695  1
  O  O39  1  0.25698767  0.77081462  0.72875985  1
