# generated using pymatgen
data_LiMnSnO4
_symmetry_space_group_name_H-M   'P 1'
_cell_length_a   5.92135543
_cell_length_b   6.27072926
_cell_length_c   6.27072902
_cell_angle_alpha   59.54523168
_cell_angle_beta   61.82653867
_cell_angle_gamma   61.82653986
_symmetry_Int_Tables_number   1
_chemical_formula_structural   LiMnSnO4
_chemical_formula_sum   'Li2 Mn2 Sn2 O8'
_cell_volume   168.42446842
_cell_formula_units_Z   2
loop_
 _symmetry_equiv_pos_site_id
 _symmetry_equiv_pos_as_xyz
  1  'x, y, z'
loop_
 _atom_site_type_symbol
 _atom_site_label
 _atom_site_symmetry_multiplicity
 _atom_site_fract_x
 _atom_site_fract_y
 _atom_site_fract_z
 _atom_site_occupancy
  Li  Li0  1  0.12994704  0.12005296  0.12005296  1
  Li  Li1  1  0.87005296  0.87994704  0.87994704  1
  Mn  Mn2  1  0.00000000  0.50000000  0.50000000  1
  Mn  Mn3  1  0.50000000  0.50000000  0.50000000  1
  Sn  Sn4  1  0.50000000  0.00000000  0.50000000  1
  Sn  Sn5  1  0.50000000  0.50000000  0.00000000  1
  O  O6  1  0.26579921  0.25032800  0.25032800  1
  O  O7  1  0.26599960  0.27091806  0.69708373  1
  O  O8  1  0.26599960  0.69708373  0.27091806  1
  O  O9  1  0.73354578  0.25032800  0.25032800  1
  O  O10  1  0.26645422  0.74967200  0.74967200  1
  O  O11  1  0.73400040  0.72908194  0.30291627  1
  O  O12  1  0.73400040  0.30291627  0.72908194  1
  O  O13  1  0.73420079  0.74967200  0.74967200  1
