# generated using pymatgen
data_S
_symmetry_space_group_name_H-M   'P 1'
_cell_length_a   9.61960280
_cell_length_b   9.61960280
_cell_length_c   14.14742304
_cell_angle_alpha   106.20316515
_cell_angle_beta   106.20316515
_cell_angle_gamma   100.32473104
_symmetry_Int_Tables_number   1
_chemical_formula_structural   S
_chemical_formula_sum   S32
_cell_volume   1159.35059575
_cell_formula_units_Z   32
loop_
 _symmetry_equiv_pos_site_id
 _symmetry_equiv_pos_as_xyz
  1  'x, y, z'
loop_
 _atom_site_type_symbol
 _atom_site_label
 _atom_site_symmetry_multiplicity
 _atom_site_fract_x
 _atom_site_fract_y
 _atom_site_fract_z
 _atom_site_occupancy
  S  S0  1  0.15305255  0.03991420  0.91047539  1
  S  S1  1  0.12943881  0.74257716  0.58952461  1
  S  S2  1  0.96008580  0.84694745  0.58952461  1
  S  S3  1  0.25742284  0.87056119  0.91047539  1
  S  S4  1  0.84694745  0.96008580  0.08952461  1
  S  S5  1  0.87056119  0.25742284  0.41047539  1
  S  S6  1  0.03991420  0.15305255  0.41047539  1
  S  S7  1  0.74257716  0.12943881  0.08952461  1
  S  S8  1  0.30484555  0.24347732  0.01146199  1
  S  S9  1  0.23201533  0.79338356  0.48853801  1
  S  S10  1  0.75652268  0.69515445  0.48853801  1
  S  S11  1  0.20661644  0.76798467  0.01146199  1
  S  S12  1  0.69515445  0.75652268  0.98853801  1
  S  S13  1  0.76798467  0.20661644  0.51146199  1
  S  S14  1  0.24347732  0.30484555  0.51146199  1
  S  S15  1  0.79338356  0.23201533  0.98853801  1
  S  S16  1  0.27401892  0.29593659  0.15451200  1
  S  S17  1  0.14142458  0.61950692  0.34548800  1
  S  S18  1  0.70406341  0.72598108  0.34548800  1
  S  S19  1  0.38049308  0.85857542  0.15451200  1
  S  S20  1  0.72598108  0.70406341  0.84548800  1
  S  S21  1  0.85857542  0.38049308  0.65451200  1
  S  S22  1  0.29593659  0.27401892  0.65451200  1
  S  S23  1  0.61950692  0.14142458  0.84548800  1
  S  S24  1  0.42786128  0.23233480  0.25593841  1
  S  S25  1  0.97639639  0.67192287  0.24406159  1
  S  S26  1  0.76766520  0.57213872  0.24406159  1
  S  S27  1  0.32807713  0.02360361  0.25593841  1
  S  S28  1  0.57213872  0.76766520  0.74406159  1
  S  S29  1  0.02360361  0.32807713  0.75593841  1
  S  S30  1  0.23233480  0.42786128  0.75593841  1
  S  S31  1  0.67192287  0.97639639  0.74406159  1
