# generated using pymatgen
data_Li4CrFe3O8
_symmetry_space_group_name_H-M   'P 1'
_cell_length_a   5.16863782
_cell_length_b   5.98940081
_cell_length_c   5.96335514
_cell_angle_alpha   60.13326607
_cell_angle_beta   90.00458877
_cell_angle_gamma   73.24530782
_symmetry_Int_Tables_number   1
_chemical_formula_structural   Li4CrFe3O8
_chemical_formula_sum   'Li4 Cr1 Fe3 O8'
_cell_volume   150.98239319
_cell_formula_units_Z   1
loop_
 _symmetry_equiv_pos_site_id
 _symmetry_equiv_pos_as_xyz
  1  'x, y, z'
loop_
 _atom_site_type_symbol
 _atom_site_label
 _atom_site_symmetry_multiplicity
 _atom_site_fract_x
 _atom_site_fract_y
 _atom_site_fract_z
 _atom_site_occupancy
  Li  Li0  1  0.00000000  0.00000000  0.00000000  1
  Li  Li1  1  0.00000000  0.00000000  0.50000000  1
  Li  Li2  1  0.49788302  0.00110448  0.24946475  1
  Li  Li3  1  0.50211698  0.99889552  0.75053525  1
  Cr  Cr4  1  0.00000000  0.49999900  0.00000100  1
  Fe  Fe5  1  0.00000000  0.50000000  0.50000000  1
  Fe  Fe6  1  0.49999451  0.49999424  0.24984758  1
  Fe  Fe7  1  0.50000549  0.50000576  0.75015142  1
  O  O8  1  0.24187308  0.27241107  0.36275818  1
  O  O9  1  0.24186690  0.27242040  0.86493647  1
  O  O10  1  0.74454993  0.27307516  0.11350067  1
  O  O11  1  0.25785269  0.72934443  0.38528402  1
  O  O12  1  0.25545107  0.72692484  0.88649933  1
  O  O13  1  0.75813310  0.72758060  0.13506353  1
  O  O14  1  0.74214631  0.27065657  0.61471498  1
  O  O15  1  0.75812692  0.72758893  0.63724182  1
