# generated using pymatgen
data_RbMn4O8
_symmetry_space_group_name_H-M   'P 1'
_cell_length_a   7.30049154
_cell_length_b   7.19340344
_cell_length_c   7.30049154
_cell_angle_alpha   91.84320198
_cell_angle_beta   156.24670121
_cell_angle_gamma   93.08448490
_symmetry_Int_Tables_number   1
_chemical_formula_structural   RbMn4O8
_chemical_formula_sum   'Rb1 Mn4 O8'
_cell_volume   151.01269483
_cell_formula_units_Z   1
loop_
 _symmetry_equiv_pos_site_id
 _symmetry_equiv_pos_as_xyz
  1  'x, y, z'
loop_
 _atom_site_type_symbol
 _atom_site_label
 _atom_site_symmetry_multiplicity
 _atom_site_fract_x
 _atom_site_fract_y
 _atom_site_fract_z
 _atom_site_occupancy
  Rb  Rb0  1  0.50000000  0.00000000  0.50000000  1
  Mn  Mn1  1  0.83341776  0.18344846  0.35003070  1
  Mn  Mn2  1  0.34725047  0.50999089  0.16274042  1
  Mn  Mn3  1  0.65274953  0.49000911  0.83725958  1
  Mn  Mn4  1  0.16658224  0.81655154  0.64996930  1
  O  O5  1  0.82352803  0.36546234  0.54193431  1
  O  O6  1  0.79929983  0.95794051  0.15863968  1
  O  O7  1  0.54159385  0.69912668  0.15753283  1
  O  O8  1  0.15099525  0.35936998  0.20837473  1
  O  O9  1  0.84900475  0.64063002  0.79162527  1
  O  O10  1  0.45840615  0.30087332  0.84246717  1
  O  O11  1  0.20070017  0.04205949  0.84136032  1
  O  O12  1  0.17647197  0.63453766  0.45806569  1
