# generated using pymatgen
data_Mn2P2O7
_symmetry_space_group_name_H-M   'P 1'
_cell_length_a   4.61775026
_cell_length_b   10.41294233
_cell_length_c   5.44603239
_cell_angle_alpha   90.00000000
_cell_angle_beta   97.15421230
_cell_angle_gamma   90.00000000
_symmetry_Int_Tables_number   1
_chemical_formula_structural   Mn2P2O7
_chemical_formula_sum   'Mn4 P4 O14'
_cell_volume   259.83025134
_cell_formula_units_Z   2
loop_
 _symmetry_equiv_pos_site_id
 _symmetry_equiv_pos_as_xyz
  1  'x, y, z'
loop_
 _atom_site_type_symbol
 _atom_site_label
 _atom_site_symmetry_multiplicity
 _atom_site_fract_x
 _atom_site_fract_y
 _atom_site_fract_z
 _atom_site_occupancy
  Mn  Mn0  1  0.10141701  0.84627176  0.90997970  1
  Mn  Mn1  1  0.10141701  0.65372824  0.40997970  1
  Mn  Mn2  1  0.89858299  0.34627176  0.59002030  1
  Mn  Mn3  1  0.89858299  0.15372824  0.09002030  1
  P  P4  1  0.35905913  0.10991632  0.65159015  1
  P  P5  1  0.35905913  0.39008368  0.15159015  1
  P  P6  1  0.64094087  0.60991632  0.84840985  1
  P  P7  1  0.64094087  0.89008368  0.34840985  1
  O  O8  1  0.12875548  0.32336166  0.96679270  1
  O  O9  1  0.12875548  0.17663834  0.46679270  1
  O  O10  1  0.21678530  0.04360250  0.85983768  1
  O  O11  1  0.21678530  0.45639750  0.35983768  1
  O  O12  1  0.38829905  0.69791412  0.74605646  1
  O  O13  1  0.38829905  0.80208588  0.24605646  1
  O  O14  1  0.50000000  0.00000000  0.50000000  1
  O  O15  1  0.50000000  0.50000000  0.00000000  1
  O  O16  1  0.61170095  0.19791412  0.75394354  1
  O  O17  1  0.61170095  0.30208588  0.25394354  1
  O  O18  1  0.78321470  0.54360250  0.64016232  1
  O  O19  1  0.78321470  0.95639750  0.14016232  1
  O  O20  1  0.87124452  0.82336166  0.53320730  1
  O  O21  1  0.87124452  0.67663834  0.03320730  1
