# generated using pymatgen
data_Li4CrFe3O8
_symmetry_space_group_name_H-M   'P 1'
_cell_length_a   5.18489179
_cell_length_b   5.96628088
_cell_length_c   5.17216022
_cell_angle_alpha   89.98289046
_cell_angle_beta   80.48924614
_cell_angle_gamma   73.24339124
_symmetry_Int_Tables_number   1
_chemical_formula_structural   Li4CrFe3O8
_chemical_formula_sum   'Li4 Cr1 Fe3 O8'
_cell_volume   150.90865623
_cell_formula_units_Z   1
loop_
 _symmetry_equiv_pos_site_id
 _symmetry_equiv_pos_as_xyz
  1  'x, y, z'
loop_
 _atom_site_type_symbol
 _atom_site_label
 _atom_site_symmetry_multiplicity
 _atom_site_fract_x
 _atom_site_fract_y
 _atom_site_fract_z
 _atom_site_occupancy
  Li  Li0  1  0.99966443  0.99977304  0.00204400  1
  Li  Li1  1  0.00133745  0.24930174  0.49932078  1
  Li  Li2  1  0.99870227  0.50059171  0.00070297  1
  Li  Li3  1  0.00029627  0.75027357  0.49794304  1
  Cr  Cr4  1  0.49998346  0.87500432  0.24998408  1
  Fe  Fe5  1  0.49958159  0.12513683  0.75023864  1
  Fe  Fe6  1  0.49999648  0.37503567  0.24999370  1
  Fe  Fe7  1  0.50042471  0.62485106  0.74977267  1
  O  O8  1  0.27153630  0.18140671  0.12221777  1
  O  O9  1  0.72737367  0.06727040  0.37833256  1
  O  O10  1  0.26949304  0.43298386  0.62285113  1
  O  O11  1  0.73050693  0.31698327  0.87715460  1
  O  O12  1  0.27267147  0.68274441  0.12167700  1
  O  O13  1  0.72843282  0.56863197  0.37778017  1
  O  O14  1  0.27262715  0.93158624  0.61889870  1
  O  O15  1  0.72737196  0.81842518  0.88108921  1
