# generated using pymatgen
data_MnP2O7
_symmetry_space_group_name_H-M   'P 1'
_cell_length_a   7.13042534
_cell_length_b   7.83844801
_cell_length_c   9.31980879
_cell_angle_alpha   90.00000000
_cell_angle_beta   111.68733239
_cell_angle_gamma   90.00000000
_symmetry_Int_Tables_number   1
_chemical_formula_structural   MnP2O7
_chemical_formula_sum   'Mn4 P8 O28'
_cell_volume   484.02568092
_cell_formula_units_Z   4
loop_
 _symmetry_equiv_pos_site_id
 _symmetry_equiv_pos_as_xyz
  1  'x, y, z'
loop_
 _atom_site_type_symbol
 _atom_site_label
 _atom_site_symmetry_multiplicity
 _atom_site_fract_x
 _atom_site_fract_y
 _atom_site_fract_z
 _atom_site_occupancy
  Mn  Mn0  1  0.00000000  0.00000000  0.50000000  1
  Mn  Mn1  1  0.00000000  0.00000000  0.00000000  1
  Mn  Mn2  1  0.50000000  0.50000000  0.50000000  1
  Mn  Mn3  1  0.50000000  0.50000000  0.00000000  1
  P  P4  1  0.13665877  0.74774423  0.79405403  1
  P  P5  1  0.36334123  0.24774423  0.70594597  1
  P  P6  1  0.25059611  0.82168314  0.31923776  1
  P  P7  1  0.24940389  0.32168314  0.18076224  1
  P  P8  1  0.75059611  0.67831686  0.81923776  1
  P  P9  1  0.74940389  0.17831686  0.68076224  1
  P  P10  1  0.63665877  0.75225577  0.29405403  1
  P  P11  1  0.86334123  0.25225577  0.20594597  1
  O  O12  1  0.16513640  0.90196571  0.90072229  1
  O  O13  1  0.07250353  0.79540436  0.62322662  1
  O  O14  1  0.17500694  0.13704112  0.66550351  1
  O  O15  1  0.32499306  0.63704112  0.83449649  1
  O  O16  1  0.03380038  0.37462887  0.18629570  1
  O  O17  1  0.42749647  0.29540436  0.87677338  1
  O  O18  1  0.21356319  0.95792258  0.42382910  1
  O  O19  1  0.09323856  0.82021049  0.15408327  1
  O  O20  1  0.33486360  0.40196571  0.59927771  1
  O  O21  1  0.27189445  0.63926453  0.38373008  1
  O  O22  1  0.22810555  0.13926453  0.11626992  1
  O  O23  1  0.53380038  0.12537113  0.68629570  1
  O  O24  1  0.40676144  0.32021049  0.34591673  1
  O  O25  1  0.28643681  0.45792258  0.07617090  1
  O  O26  1  0.71356319  0.54207742  0.92382910  1
  O  O27  1  0.59323856  0.67978951  0.65408327  1
  O  O28  1  0.46619962  0.87462887  0.31370430  1
  O  O29  1  0.77189445  0.86073547  0.88373008  1
  O  O30  1  0.72810555  0.36073547  0.61626992  1
  O  O31  1  0.66513640  0.59803429  0.40072229  1
  O  O32  1  0.90676144  0.17978951  0.84591673  1
  O  O33  1  0.78643681  0.04207742  0.57617090  1
  O  O34  1  0.57250353  0.70459564  0.12322662  1
  O  O35  1  0.96619962  0.62537113  0.81370430  1
  O  O36  1  0.67500694  0.36295888  0.16550351  1
  O  O37  1  0.82499306  0.86295888  0.33449649  1
  O  O38  1  0.92749647  0.20459564  0.37677338  1
  O  O39  1  0.83486360  0.09803429  0.09927771  1
