# generated using pymatgen
data_Li4Mn3Ni3(TeO8)2
_symmetry_space_group_name_H-M   'P 1'
_cell_length_a   5.95015767
_cell_length_b   5.95653745
_cell_length_c   9.71242737
_cell_angle_alpha   89.99922830
_cell_angle_beta   91.03037743
_cell_angle_gamma   120.03611998
_symmetry_Int_Tables_number   1
_chemical_formula_structural   Li4Mn3Ni3(TeO8)2
_chemical_formula_sum   'Li4 Mn3 Ni3 Te2 O16'
_cell_volume   297.94008536
_cell_formula_units_Z   1
loop_
 _symmetry_equiv_pos_site_id
 _symmetry_equiv_pos_as_xyz
  1  'x, y, z'
loop_
 _atom_site_type_symbol
 _atom_site_label
 _atom_site_symmetry_multiplicity
 _atom_site_fract_x
 _atom_site_fract_y
 _atom_site_fract_z
 _atom_site_occupancy
  Li  Li0  1  0.32415324  0.66208002  0.90687781  1
  Li  Li1  1  0.99835309  0.99918295  0.98228560  1
  Li  Li2  1  0.99856169  0.99928304  0.48788994  1
  Li  Li3  1  0.65996272  0.32999960  0.41478518  1
  Mn  Mn4  1  0.16840502  0.82996482  0.21155485  1
  Mn  Mn5  1  0.16839323  0.33846969  0.21155700  1
  Mn  Mn6  1  0.34677222  0.17338760  0.71347635  1
  Ni  Ni7  1  0.65550007  0.82775958  0.21424617  1
  Ni  Ni8  1  0.83176659  0.66100445  0.71175347  1
  Ni  Ni9  1  0.83178580  0.17080465  0.71175239  1
  Te  Te10  1  0.34042320  0.67022220  0.48574535  1
  Te  Te11  1  0.67397824  0.33699933  0.98182924  1
  O  O12  1  0.18405398  0.84148757  0.59523028  1
  O  O13  1  0.03069645  0.51536347  0.36370759  1
  O  O14  1  0.31027327  0.65515523  0.11325005  1
  O  O15  1  0.01547766  0.00774720  0.29707932  1
  O  O16  1  0.02027106  0.01014358  0.79720169  1
  O  O17  1  0.18405727  0.34257906  0.59523043  1
  O  O18  1  0.47537231  0.96105320  0.35104873  1
  O  O19  1  0.47535300  0.51433063  0.35104844  1
  O  O20  1  0.35433938  0.17718584  0.08675754  1
  O  O21  1  0.66646088  0.83324456  0.58573876  1
  O  O22  1  0.50665312  0.47042531  0.84686146  1
  O  O23  1  0.50665475  0.03624334  0.84686906  1
  O  O24  1  0.65002104  0.32501894  0.61147648  1
  O  O25  1  0.83084520  0.66275901  0.08875302  1
  O  O26  1  0.96056493  0.48029706  0.85508165  1
  O  O27  1  0.83085058  0.16810805  0.08875313  1
