# generated using pymatgen
data_Li4CrFe3O8
_symmetry_space_group_name_H-M   'P 1'
_cell_length_a   5.20199464
_cell_length_b   5.96954597
_cell_length_c   10.33693875
_cell_angle_alpha   89.94501977
_cell_angle_beta   80.42094472
_cell_angle_gamma   73.21562476
_symmetry_Int_Tables_number   1
_chemical_formula_structural   Li4CrFe3O8
_chemical_formula_sum   'Li8 Cr2 Fe6 O16'
_cell_volume   302.66118259
_cell_formula_units_Z   2
loop_
 _symmetry_equiv_pos_site_id
 _symmetry_equiv_pos_as_xyz
  1  'x, y, z'
loop_
 _atom_site_type_symbol
 _atom_site_label
 _atom_site_symmetry_multiplicity
 _atom_site_fract_x
 _atom_site_fract_y
 _atom_site_fract_z
 _atom_site_occupancy
  Li  Li0  1  0.99827991  0.00072883  -0.00003596  1
  Li  Li1  1  -0.00003161  0.00060316  0.49947663  1
  Li  Li2  1  0.00000000  0.25000000  0.25000000  1
  Li  Li3  1  0.00000000  0.25000000  0.75000000  1
  Li  Li4  1  0.00003261  0.49939684  0.00052337  1
  Li  Li5  1  0.00172009  0.49927117  0.50003596  1
  Li  Li6  1  0.00000000  0.75000000  0.25000000  1
  Li  Li7  1  0.00000000  0.75000000  0.75000000  1
  Cr  Cr8  1  0.50080476  0.12521315  0.37395961  1
  Cr  Cr9  1  0.49919624  0.37478685  0.12603939  1
  Fe  Fe10  1  0.50003024  0.12529781  0.87576433  1
  Fe  Fe11  1  0.49997076  0.37470119  0.62423567  1
  Fe  Fe12  1  0.50053782  0.62521725  0.37446100  1
  Fe  Fe13  1  0.49961140  0.62471276  0.87574752  1
  Fe  Fe14  1  0.49946218  0.87478275  0.12553800  1
  Fe  Fe15  1  0.50038860  0.87528724  0.62425248  1
  O  O16  1  0.27337471  0.18323604  0.06182247  1
  O  O17  1  0.27361309  0.18155148  0.55858114  1
  O  O18  1  0.72603190  0.06957789  0.18996548  1
  O  O19  1  0.72890443  0.06807868  0.68926275  1
  O  O20  1  0.27396610  0.43042311  0.31003552  1
  O  O21  1  0.72662429  0.31676596  0.43817853  1
  O  O22  1  0.27109457  0.43192032  0.81073725  1
  O  O23  1  0.72638691  0.31844852  0.94141786  1
  O  O24  1  0.27127476  0.68115837  0.06230638  1
  O  O25  1  0.72613459  0.56641573  0.18896816  1
  O  O26  1  0.27129260  0.68227071  0.56029461  1
  O  O27  1  0.72888431  0.56743809  0.68883458  1
  O  O28  1  0.27386541  0.93358427  0.31103284  1
  O  O29  1  0.72872424  0.81884263  0.43769362  1
  O  O30  1  0.27111469  0.93256191  0.81116642  1
  O  O31  1  0.72870940  0.81772729  0.93970439  1
