# generated using pymatgen
data_Li2Ge3O8
_symmetry_space_group_name_H-M   'P 1'
_cell_length_a   5.15093915
_cell_length_b   7.91216736
_cell_length_c   7.91216736
_cell_angle_alpha   98.23134385
_cell_angle_beta   103.44533912
_cell_angle_gamma   103.44533912
_symmetry_Int_Tables_number   1
_chemical_formula_structural   Li2Ge3O8
_chemical_formula_sum   'Li4 Ge6 O16'
_cell_volume   298.32315655
_cell_formula_units_Z   2
loop_
 _symmetry_equiv_pos_site_id
 _symmetry_equiv_pos_as_xyz
  1  'x, y, z'
loop_
 _atom_site_type_symbol
 _atom_site_label
 _atom_site_symmetry_multiplicity
 _atom_site_fract_x
 _atom_site_fract_y
 _atom_site_fract_z
 _atom_site_occupancy
  Li  Li0  1  0.75000000  0.44211772  0.55788228  1
  Li  Li1  1  0.25000000  0.55788228  0.44211772  1
  Li  Li2  1  0.75000000  0.16531933  0.83468067  1
  Li  Li3  1  0.25000000  0.83468067  0.16531933  1
  Ge  Ge4  1  0.88934299  0.12974294  0.27934171  1
  Ge  Ge5  1  0.61065701  0.72065829  0.87025706  1
  Ge  Ge6  1  0.11065701  0.87025706  0.72065829  1
  Ge  Ge7  1  0.38934299  0.27934171  0.12974294  1
  Ge  Ge8  1  0.75000000  0.70249200  0.29750800  1
  Ge  Ge9  1  0.25000000  0.29750800  0.70249200  1
  O  O10  1  0.49579190  0.78480535  0.39533500  1
  O  O11  1  0.00420810  0.60466500  0.21519465  1
  O  O12  1  0.50420810  0.21519465  0.60466500  1
  O  O13  1  0.99579190  0.39533500  0.78480535  1
  O  O14  1  0.47513922  0.89975326  0.80209213  1
  O  O15  1  0.02486078  0.19790787  0.10024674  1
  O  O16  1  0.52486078  0.10024674  0.19790787  1
  O  O17  1  0.97513922  0.80209213  0.89975326  1
  O  O18  1  0.03208940  0.30807295  0.46646755  1
  O  O19  1  0.46791060  0.53353245  0.69192705  1
  O  O20  1  0.96791060  0.69192705  0.53353245  1
  O  O21  1  0.53208940  0.46646755  0.30807295  1
  O  O22  1  0.02111346  0.06691521  0.69438183  1
  O  O23  1  0.47888654  0.30561817  0.93308479  1
  O  O24  1  0.97888654  0.93308479  0.30561817  1
  O  O25  1  0.52111346  0.69438183  0.06691521  1
