# generated using pymatgen
data_Li6Mn5Fe(BO3)6
_symmetry_space_group_name_H-M   'P 1'
_cell_length_a   8.26034014
_cell_length_b   8.86982808
_cell_length_c   6.37662310
_cell_angle_alpha   68.93321862
_cell_angle_beta   90.00000000
_cell_angle_gamma   62.21647318
_symmetry_Int_Tables_number   1
_chemical_formula_structural   Li6Mn5Fe(BO3)6
_chemical_formula_sum   'Li6 Mn5 Fe1 B6 O18'
_cell_volume   377.68585858
_cell_formula_units_Z   1
loop_
 _symmetry_equiv_pos_site_id
 _symmetry_equiv_pos_as_xyz
  1  'x, y, z'
loop_
 _atom_site_type_symbol
 _atom_site_label
 _atom_site_symmetry_multiplicity
 _atom_site_fract_x
 _atom_site_fract_y
 _atom_site_fract_z
 _atom_site_occupancy
  Li  Li0  1  0.71595960  0.98305831  0.75790704  1
  Li  Li1  1  0.71595960  0.98305831  0.25903465  1
  Li  Li2  1  0.98172890  0.30150170  0.59870275  1
  Li  Li3  1  0.98172890  0.30150170  0.09979655  1
  Li  Li4  1  0.30112250  0.71648033  0.89197280  1
  Li  Li5  1  0.30112250  0.71648033  0.39154687  1
  Mn  Mn6  1  0.62877548  0.35903411  0.82048244  1
  Mn  Mn7  1  0.36028573  0.01201430  0.49399285  1
  Mn  Mn8  1  0.35915638  0.01218386  0.99390757  1
  Mn  Mn9  1  0.01185806  0.62877753  0.18561173  1
  Mn  Mn10  1  0.01226354  0.62783194  0.68608353  1
  Fe  Fe11  1  0.63098384  0.36050698  0.31974651  1
  B  B12  1  0.66673408  0.66569277  0.41521527  1
  B  B13  1  0.66673408  0.66569277  0.91909197  1
  B  B14  1  0.33461520  0.33352491  0.58195712  1
  B  B15  1  0.33461520  0.33352491  0.08451697  1
  B  B16  1  0.00007926  -0.00012470  0.00006235  1
  B  B17  1  0.99783827  0.00038456  0.49980772  1
  O  O18  1  0.88425442  0.92057738  0.53971081  1
  O  O19  1  0.88416019  0.92216421  0.03891839  1
  O  O20  1  0.86033493  0.58006259  0.96000777  1
  O  O21  1  0.86033493  0.58006259  0.45992964  1
  O  O22  1  0.92260438  0.19319932  0.90340084  1
  O  O23  1  0.91596797  0.19473068  0.40263516  1
  O  O24  1  0.55918805  0.85909198  0.32023773  1
  O  O25  1  0.55918805  0.85909198  0.82067029  1
  O  O26  1  0.58077742  0.55787491  0.97501432  1
  O  O27  1  0.58077742  0.55787491  0.46711078  1
  O  O28  1  0.52831291  0.25179777  0.62179273  1
  O  O29  1  0.52831291  0.25179777  0.12640950  1
  O  O30  1  0.19171746  0.88735371  0.55632315  1
  O  O31  1  0.19375051  0.88418175  0.05790913  1
  O  O32  1  0.22274229  0.52711993  0.48610771  1
  O  O33  1  0.22274229  0.52711993  0.98677235  1
  O  O34  1  0.25163688  0.22238799  0.63862733  1
  O  O35  1  0.25163688  0.22238799  0.13898568  1
