# generated using pymatgen
data_NaTm(SO4)2
_symmetry_space_group_name_H-M   'P 1'
_cell_length_a   4.75945771
_cell_length_b   6.85033466
_cell_length_c   9.89676895
_cell_angle_alpha   90.00000000
_cell_angle_beta   97.21814840
_cell_angle_gamma   90.00000000
_symmetry_Int_Tables_number   1
_chemical_formula_structural   NaTm(SO4)2
_chemical_formula_sum   'Na2 Tm2 S4 O16'
_cell_volume   320.11584918
_cell_formula_units_Z   2
loop_
 _symmetry_equiv_pos_site_id
 _symmetry_equiv_pos_as_xyz
  1  'x, y, z'
loop_
 _atom_site_type_symbol
 _atom_site_label
 _atom_site_symmetry_multiplicity
 _atom_site_fract_x
 _atom_site_fract_y
 _atom_site_fract_z
 _atom_site_occupancy
  O  O0  1  0.66030417  0.75000000  0.45596443  1
  O  O1  1  0.33969583  0.25000000  0.54403557  1
  O  O2  1  0.36854247  0.75000000  0.63812981  1
  O  O3  1  0.63145753  0.25000000  0.36187019  1
  O  O4  1  0.76039015  0.92475401  0.14776218  1
  O  O5  1  0.23960985  0.42475401  0.85223782  1
  O  O6  1  0.23960985  0.07524599  0.85223782  1
  O  O7  1  0.76039015  0.57524599  0.14776218  1
  O  O8  1  0.66566611  0.25000000  0.94819748  1
  O  O9  1  0.33433389  0.75000000  0.05180252  1
  O  O10  1  0.26313953  0.25000000  0.06994663  1
  O  O11  1  0.73686047  0.75000000  0.93005337  1
  O  O12  1  0.17637183  0.42146938  0.32921677  1
  O  O13  1  0.82362817  0.92146938  0.67078323  1
  O  O14  1  0.82362817  0.57853062  0.67078323  1
  O  O15  1  0.17637183  0.07853062  0.32921677  1
  Na  Na16  1  0.88408714  0.25000000  0.63709997  1
  Na  Na17  1  0.11591286  0.75000000  0.36290003  1
  S  S18  1  0.35072290  0.25000000  0.92916766  1
  S  S19  1  0.64927710  0.75000000  0.07083234  1
  S  S20  1  0.66528013  0.75000000  0.60367192  1
  S  S21  1  0.33471987  0.25000000  0.39632808  1
  Tm  Tm22  1  0.14609839  0.75000000  0.82467942  1
  Tm  Tm23  1  0.85390161  0.25000000  0.17532058  1
