# generated using pymatgen
data_Li6Mn5Fe(BO3)6
_symmetry_space_group_name_H-M   'P 1'
_cell_length_a   8.27513054
_cell_length_b   8.27647025
_cell_length_c   12.73968713
_cell_angle_alpha   90.00000000
_cell_angle_beta   90.00000000
_cell_angle_gamma   120.08751619
_symmetry_Int_Tables_number   1
_chemical_formula_structural   Li6Mn5Fe(BO3)6
_chemical_formula_sum   'Li12 Mn10 Fe2 B12 O36'
_cell_volume   754.96312225
_cell_formula_units_Z   2
loop_
 _symmetry_equiv_pos_site_id
 _symmetry_equiv_pos_as_xyz
  1  'x, y, z'
loop_
 _atom_site_type_symbol
 _atom_site_label
 _atom_site_symmetry_multiplicity
 _atom_site_fract_x
 _atom_site_fract_y
 _atom_site_fract_z
 _atom_site_occupancy
  Li  Li0  1  0.28376565  0.98242693  0.12500000  1
  Li  Li1  1  0.28354414  0.98208538  0.87483006  1
  Li  Li2  1  0.28378735  0.98178267  0.62500000  1
  Li  Li3  1  0.28354414  0.98208538  0.37516994  1
  Li  Li4  1  0.01724889  0.30138593  0.12500000  1
  Li  Li5  1  0.01728117  0.30104661  0.37519325  1
  Li  Li6  1  0.01764740  0.30159426  0.62500000  1
  Li  Li7  1  0.01728117  0.30104661  0.87480675  1
  Li  Li8  1  0.69895215  0.71552429  0.37516663  1
  Li  Li9  1  0.69885606  0.71503150  0.62500000  1
  Li  Li10  1  0.69897489  0.71609674  0.12500000  1
  Li  Li11  1  0.69895215  0.71552429  0.87483337  1
  Mn  Mn12  1  0.37131286  0.35934585  0.00007126  1
  Mn  Mn13  1  0.37202351  0.36018959  0.49995310  1
  Mn  Mn14  1  0.37131286  0.35934585  0.24992874  1
  Mn  Mn15  1  0.37202351  0.36018959  0.75004690  1
  Mn  Mn16  1  0.64016506  0.01195383  0.50000013  1
  Mn  Mn17  1  0.64064200  0.01173285  0.99996146  1
  Mn  Mn18  1  0.64064200  0.01173285  0.25003854  1
  Mn  Mn19  1  0.64016506  0.01195383  0.74999987  1
  Mn  Mn20  1  0.98805505  0.62886632  0.99880501  1
  Mn  Mn21  1  0.98805505  0.62886632  0.25119499  1
  Fe  Fe22  1  0.99207389  0.63266743  0.50065245  1
  Fe  Fe23  1  0.99207389  0.63266743  0.74934755  1
  B  B24  1  0.00005919  0.00014999  0.99995581  1
  B  B25  1  0.00005919  0.00014999  0.25004419  1
  B  B26  1  0.99829380  0.99783935  0.50014663  1
  B  B27  1  0.99829380  0.99783935  0.74985337  1
  B  B28  1  0.33217771  0.66658355  0.87375533  1
  B  B29  1  0.33315121  0.66662343  0.12500000  1
  B  B30  1  0.33217771  0.66658355  0.37624467  1
  B  B31  1  0.33161988  0.66710261  0.62500000  1
  B  B32  1  0.66687938  0.33352795  0.12500000  1
  B  B33  1  0.66790386  0.33433829  0.37573352  1
  B  B34  1  0.66977714  0.33560790  0.62500000  1
  B  B35  1  0.66790386  0.33433829  0.87426648  1
  O  O36  1  0.11580640  0.92250204  0.25011737  1
  O  O37  1  0.11580640  0.92250204  0.99988263  1
  O  O38  1  0.11152498  0.91666172  0.50054066  1
  O  O39  1  0.11152498  0.91666172  0.74945934  1
  O  O40  1  0.13835985  0.58052494  0.87181946  1
  O  O41  1  0.13951584  0.58046808  0.12500000  1
  O  O42  1  0.13835985  0.58052494  0.37818054  1
  O  O43  1  0.13796165  0.58188647  0.62500000  1
  O  O44  1  0.07789640  0.19374807  0.99993763  1
  O  O45  1  0.07885545  0.19142050  0.50004149  1
  O  O46  1  0.07885545  0.19142050  0.74995851  1
  O  O47  1  0.07789640  0.19374807  0.25006237  1
  O  O48  1  0.43992677  0.86008514  0.87512675  1
  O  O49  1  0.44033621  0.86058163  0.62500000  1
  O  O50  1  0.44060469  0.86023996  0.12500000  1
  O  O51  1  0.43992677  0.86008514  0.37487325  1
  O  O52  1  0.41822031  0.55922287  0.87497662  1
  O  O53  1  0.41953456  0.55953024  0.12500000  1
  O  O54  1  0.41691148  0.55892121  0.62500000  1
  O  O55  1  0.41822031  0.55922287  0.37502338  1
  O  O56  1  0.47296127  0.25061533  0.12500000  1
  O  O57  1  0.47537275  0.25329123  0.62500000  1
  O  O58  1  0.47378495  0.25158621  0.37511109  1
  O  O59  1  0.47378495  0.25158621  0.87488891  1
  O  O60  1  0.80641017  0.88428915  0.99989615  1
  O  O61  1  0.80641017  0.88428915  0.25010385  1
  O  O62  1  0.80489332  0.88383276  0.50007527  1
  O  O63  1  0.80489332  0.88383276  0.74992473  1
  O  O64  1  0.77802655  0.52726824  0.12500000  1
  O  O65  1  0.77989115  0.52779065  0.37645740  1
  O  O66  1  0.78271207  0.52885462  0.62500000  1
  O  O67  1  0.77989115  0.52779065  0.87354260  1
  O  O68  1  0.74948227  0.22230008  0.37523476  1
  O  O69  1  0.74935337  0.22240089  0.12500000  1
  O  O70  1  0.74992290  0.22218326  0.62500000  1
  O  O71  1  0.74948227  0.22230008  0.87476524  1
