# generated using pymatgen
data_Sr24Fe16O55
_symmetry_space_group_name_H-M   'P 1'
_cell_length_a   11.06873304
_cell_length_b   11.92926294
_cell_length_c   11.92926294
_cell_angle_alpha   117.50832941
_cell_angle_beta   76.58739248
_cell_angle_gamma   76.58739248
_symmetry_Int_Tables_number   1
_chemical_formula_structural   Sr24Fe16O55
_chemical_formula_sum   'Sr24 Fe16 O55'
_cell_volume   1249.60320442
_cell_formula_units_Z   1
loop_
 _symmetry_equiv_pos_site_id
 _symmetry_equiv_pos_as_xyz
  1  'x, y, z'
loop_
 _atom_site_type_symbol
 _atom_site_label
 _atom_site_symmetry_multiplicity
 _atom_site_fract_x
 _atom_site_fract_y
 _atom_site_fract_z
 _atom_site_occupancy
  Sr  Sr0  1  0.87047512  0.25908724  0.25908724  1
  Sr  Sr1  1  0.87447074  0.43494087  0.06840086  1
  Sr  Sr2  1  0.74076786  0.00012391  0.00012391  1
  Sr  Sr3  1  0.87447074  0.06840086  0.43494087  1
  Sr  Sr4  1  0.74876549  0.18328871  0.81708866  1
  Sr  Sr5  1  0.74876549  0.81708866  0.18328871  1
  Sr  Sr6  1  0.25923214  0.99987609  0.99987609  1
  Sr  Sr7  1  0.37461988  0.06729478  0.43297658  1
  Sr  Sr8  1  0.37461988  0.43297658  0.06729478  1
  Sr  Sr9  1  0.37423522  0.25147730  0.25147730  1
  Sr  Sr10  1  0.50000000  0.31745477  0.68254523  1
  Sr  Sr11  1  0.50000000  0.68254523  0.31745477  1
  Sr  Sr12  1  0.62538012  0.56702342  0.93270522  1
  Sr  Sr13  1  0.50000000  0.50000000  0.50000000  1
  Sr  Sr14  1  0.62538012  0.93270522  0.56702342  1
  Sr  Sr15  1  0.62576478  0.74852270  0.74852270  1
  Sr  Sr16  1  0.25123451  0.18291134  0.81671129  1
  Sr  Sr17  1  0.25123451  0.81671129  0.18291134  1
  Sr  Sr18  1  0.00000000  0.31894149  0.68105851  1
  Sr  Sr19  1  0.12552926  0.56505913  0.93159914  1
  Sr  Sr20  1  0.12952488  0.74091276  0.74091276  1
  Sr  Sr21  1  0.00000000  0.68105851  0.31894149  1
  Sr  Sr22  1  0.00000000  0.50000000  0.50000000  1
  Sr  Sr23  1  0.12552926  0.93159914  0.56505913  1
  Fe  Fe24  1  0.74941185  0.40323313  0.59780770  1
  Fe  Fe25  1  0.74941185  0.59780770  0.40323313  1
  Fe  Fe26  1  0.87517012  0.65438594  0.84739241  1
  Fe  Fe27  1  0.62589038  0.15278543  0.34606947  1
  Fe  Fe28  1  0.87517012  0.84739241  0.65438594  1
  Fe  Fe29  1  0.62589038  0.34606947  0.15278543  1
  Fe  Fe30  1  0.50000000  0.09766409  0.90233591  1
  Fe  Fe31  1  0.50000000  0.90233591  0.09766409  1
  Fe  Fe32  1  0.12482988  0.15260759  0.34561406  1
  Fe  Fe33  1  0.25058815  0.40219230  0.59676687  1
  Fe  Fe34  1  0.12482988  0.34561406  0.15260759  1
  Fe  Fe35  1  0.37410962  0.84721457  0.65393053  1
  Fe  Fe36  1  0.37410962  0.65393053  0.84721457  1
  Fe  Fe37  1  0.25058815  0.59676687  0.40219230  1
  Fe  Fe38  1  0.00000000  0.10537132  0.89462868  1
  Fe  Fe39  1  0.00000000  0.89462868  0.10537132  1
  O  O40  1  0.81908932  0.21069050  0.03059532  1
  O  O41  1  0.81908932  0.03059532  0.21069050  1
  O  O42  1  0.93696104  0.46999585  0.27923594  1
  O  O43  1  0.93696104  0.27923594  0.46999585  1
  O  O44  1  0.87620949  0.56182045  0.94682533  1
  O  O45  1  0.56255899  0.02918366  0.22056638  1
  O  O46  1  0.74907396  0.30623250  0.69350517  1
  O  O47  1  0.56255899  0.22056638  0.02918366  1
  O  O48  1  0.74976708  0.50007154  0.50007154  1
  O  O49  1  0.50000000  0.00000000  0.00000000  1
  O  O50  1  0.63001211  0.43950467  0.05370124  1
  O  O51  1  0.93964702  0.78975216  0.96945961  1
  O  O52  1  0.68799514  0.47026454  0.27917949  1
  O  O53  1  0.81182108  0.72060940  0.52905784  1
  O  O54  1  0.87425161  0.74889129  0.74889129  1
  O  O55  1  0.74907396  0.69350517  0.30623250  1
  O  O56  1  0.93964702  0.96945961  0.78975216  1
  O  O57  1  0.81182108  0.52905784  0.72060940  1
  O  O58  1  0.63001211  0.05370124  0.43950467  1
  O  O59  1  0.68799514  0.27917949  0.47026454  1
  O  O60  1  0.87620949  0.94682533  0.56182045  1
  O  O61  1  0.62316371  0.25116217  0.25116217  1
  O  O62  1  0.31265991  0.02897345  0.22013583  1
  O  O63  1  0.43705903  0.27953580  0.47142269  1
  O  O64  1  0.56294097  0.72046420  0.52857731  1
  O  O65  1  0.31265991  0.22013583  0.02897345  1
  O  O66  1  0.50000000  0.80583472  0.19416528  1
  O  O67  1  0.43705903  0.47142269  0.27953580  1
  O  O68  1  0.50000000  0.19416528  0.80583472  1
  O  O69  1  0.68734009  0.97102655  0.77986417  1
  O  O70  1  0.56294097  0.52857731  0.72046420  1
  O  O71  1  0.68734009  0.77986417  0.97102655  1
  O  O72  1  0.06035298  0.21024784  0.03054039  1
  O  O73  1  0.18817892  0.27939060  0.47094216  1
  O  O74  1  0.12379051  0.43817955  0.05317467  1
  O  O75  1  0.06035298  0.03054039  0.21024784  1
  O  O76  1  0.12379051  0.05317467  0.43817955  1
  O  O77  1  0.12574839  0.25110871  0.25110871  1
  O  O78  1  0.18817892  0.47094216  0.27939060  1
  O  O79  1  0.37683629  0.74883783  0.74883783  1
  O  O80  1  0.36998789  0.56049533  0.94629876  1
  O  O81  1  0.43744101  0.97081634  0.77943362  1
  O  O82  1  0.25092604  0.69376750  0.30649483  1
  O  O83  1  0.25023292  0.49992846  0.49992846  1
  O  O84  1  0.31200486  0.72082051  0.52973546  1
  O  O85  1  0.25092604  0.30649483  0.69376750  1
  O  O86  1  0.43744101  0.77943362  0.97081634  1
  O  O87  1  0.36998789  0.94629876  0.56049533  1
  O  O88  1  0.31200486  0.52973546  0.72082051  1
  O  O89  1  0.00000000  0.19858807  0.80141193  1
  O  O90  1  0.00000000  0.80141193  0.19858807  1
  O  O91  1  0.06303896  0.72076406  0.53000415  1
  O  O92  1  0.18091068  0.96940468  0.78930950  1
  O  O93  1  0.06303896  0.53000415  0.72076406  1
  O  O94  1  0.18091068  0.78930950  0.96940468  1
