# generated using pymatgen
data_Li3Cr(FeO3)2
_symmetry_space_group_name_H-M   'P 1'
_cell_length_a   15.57067544
_cell_length_b   9.94356760
_cell_length_c   9.94356739
_cell_angle_alpha   17.25492631
_cell_angle_beta   16.69504252
_cell_angle_gamma   16.69504603
_symmetry_Int_Tables_number   1
_chemical_formula_structural   Li3Cr(FeO3)2
_chemical_formula_sum   'Li3 Cr1 Fe2 O6'
_cell_volume   113.16406095
_cell_formula_units_Z   1
loop_
 _symmetry_equiv_pos_site_id
 _symmetry_equiv_pos_as_xyz
  1  'x, y, z'
loop_
 _atom_site_type_symbol
 _atom_site_label
 _atom_site_symmetry_multiplicity
 _atom_site_fract_x
 _atom_site_fract_y
 _atom_site_fract_z
 _atom_site_occupancy
  Li  Li0  1  0.16666700  0.50000000  0.50000000  1
  Li  Li1  1  0.50130307  0.49960514  0.49960514  1
  Li  Li2  1  0.83202993  0.50039486  0.50039486  1
  Cr  Cr3  1  0.66666700  0.00000000  0.00000000  1
  Fe  Fe4  1  0.00038784  0.99959177  0.99959177  1
  Fe  Fe5  1  0.33294516  0.00040823  0.00040823  1
  O  O6  1  0.24965635  0.25605039  0.25605039  1
  O  O7  1  0.58085197  0.25703699  0.25703699  1
  O  O8  1  0.08367665  0.74394961  0.74394961  1
  O  O9  1  0.91163170  0.26010261  0.26010261  1
  O  O10  1  0.42170130  0.73989739  0.73989739  1
  O  O11  1  0.75248103  0.74296301  0.74296301  1
