# generated using pymatgen
data_W2CCl8
_symmetry_space_group_name_H-M   'P 1'
_cell_length_a   12.26985142
_cell_length_b   13.40849019
_cell_length_c   17.02186629
_cell_angle_alpha   90.00000000
_cell_angle_beta   90.00000000
_cell_angle_gamma   90.00000000
_symmetry_Int_Tables_number   1
_chemical_formula_structural   W2CCl8
_chemical_formula_sum   'W16 C8 Cl64'
_cell_volume   2800.44054678
_cell_formula_units_Z   8
loop_
 _symmetry_equiv_pos_site_id
 _symmetry_equiv_pos_as_xyz
  1  'x, y, z'
loop_
 _atom_site_type_symbol
 _atom_site_label
 _atom_site_symmetry_multiplicity
 _atom_site_fract_x
 _atom_site_fract_y
 _atom_site_fract_z
 _atom_site_occupancy
  C  C0  1  0.05187058  0.75874447  0.08327952  1
  C  C1  1  0.55187058  0.74125553  0.91672048  1
  C  C2  1  0.94812942  0.25874447  0.41672048  1
  C  C3  1  0.44812942  0.24125553  0.58327952  1
  C  C4  1  0.94812942  0.24125553  0.91672048  1
  C  C5  1  0.44812942  0.25874447  0.08327952  1
  C  C6  1  0.05187058  0.74125553  0.58327952  1
  C  C7  1  0.55187058  0.75874447  0.41672048  1
  Cl  Cl8  1  0.73758018  0.64723242  0.19954915  1
  Cl  Cl9  1  0.23758018  0.85276758  0.80045085  1
  Cl  Cl10  1  0.26241982  0.14723242  0.30045085  1
  Cl  Cl11  1  0.76241982  0.35276758  0.69954915  1
  Cl  Cl12  1  0.26241982  0.35276758  0.80045085  1
  Cl  Cl13  1  0.76241982  0.14723242  0.19954915  1
  Cl  Cl14  1  0.73758018  0.85276758  0.69954915  1
  Cl  Cl15  1  0.23758018  0.64723242  0.30045085  1
  Cl  Cl16  1  0.98155757  0.76295680  0.27178957  1
  Cl  Cl17  1  0.48155757  0.73704320  0.72821043  1
  Cl  Cl18  1  0.01844243  0.26295680  0.22821043  1
  Cl  Cl19  1  0.51844243  0.23704320  0.77178957  1
  Cl  Cl20  1  0.01844243  0.23704320  0.72821043  1
  Cl  Cl21  1  0.51844243  0.26295680  0.27178957  1
  Cl  Cl22  1  0.98155757  0.73704320  0.77178957  1
  Cl  Cl23  1  0.48155757  0.76295680  0.22821043  1
  Cl  Cl24  1  0.01626735  0.55890849  0.19654037  1
  Cl  Cl25  1  0.51626735  0.94109151  0.80345963  1
  Cl  Cl26  1  0.98373265  0.05890849  0.30345963  1
  Cl  Cl27  1  0.48373265  0.44109151  0.69654037  1
  Cl  Cl28  1  0.98373265  0.44109151  0.80345963  1
  Cl  Cl29  1  0.48373265  0.05890849  0.19654037  1
  Cl  Cl30  1  0.01626735  0.94109151  0.69654037  1
  Cl  Cl31  1  0.51626735  0.55890849  0.30345963  1
  Cl  Cl32  1  0.20914986  0.86269651  0.19351272  1
  Cl  Cl33  1  0.70914986  0.63730349  0.80648728  1
  Cl  Cl34  1  0.79085014  0.36269651  0.30648728  1
  Cl  Cl35  1  0.29085014  0.13730349  0.69351272  1
  Cl  Cl36  1  0.79085014  0.13730349  0.80648728  1
  Cl  Cl37  1  0.29085014  0.36269651  0.19351272  1
  Cl  Cl38  1  0.20914986  0.63730349  0.69351272  1
  Cl  Cl39  1  0.70914986  0.86269651  0.30648728  1
  Cl  Cl40  1  0.25016438  0.62691825  0.10322781  1
  Cl  Cl41  1  0.75016438  0.87308175  0.89677219  1
  Cl  Cl42  1  0.74983562  0.12691825  0.39677219  1
  Cl  Cl43  1  0.24983562  0.37308175  0.60322781  1
  Cl  Cl44  1  0.74983562  0.37308175  0.89677219  1
  Cl  Cl45  1  0.24983562  0.12691825  0.10322781  1
  Cl  Cl46  1  0.25016438  0.87308175  0.60322781  1
  Cl  Cl47  1  0.75016438  0.62691825  0.39677219  1
  Cl  Cl48  1  0.83651348  0.85526391  0.11673355  1
  Cl  Cl49  1  0.33651348  0.64473609  0.88326645  1
  Cl  Cl50  1  0.16348652  0.35526391  0.38326645  1
  Cl  Cl51  1  0.66348652  0.14473609  0.61673355  1
  Cl  Cl52  1  0.16348652  0.14473609  0.88326645  1
  Cl  Cl53  1  0.66348652  0.35526391  0.11673355  1
  Cl  Cl54  1  0.83651348  0.64473609  0.61673355  1
  Cl  Cl55  1  0.33651348  0.85526391  0.38326645  1
  Cl  Cl56  1  0.87340202  0.61384617  0.03433814  1
  Cl  Cl57  1  0.37340202  0.88615383  0.96566186  1
  Cl  Cl58  1  0.12659798  0.11384617  0.46566186  1
  Cl  Cl59  1  0.62659798  0.38615383  0.53433814  1
  Cl  Cl60  1  0.12659798  0.38615383  0.96566186  1
  Cl  Cl61  1  0.62659798  0.11384617  0.03433814  1
  Cl  Cl62  1  0.87340202  0.88615383  0.53433814  1
  Cl  Cl63  1  0.37340202  0.61384617  0.46566186  1
  Cl  Cl64  1  0.08075588  0.81508263  0.99873245  1
  Cl  Cl65  1  0.58075588  0.68491737  0.00126755  1
  Cl  Cl66  1  0.91924412  0.31508263  0.50126755  1
  Cl  Cl67  1  0.41924412  0.18491737  0.49873245  1
  Cl  Cl68  1  0.91924412  0.18491737  0.00126755  1
  Cl  Cl69  1  0.41924412  0.31508263  0.99873245  1
  Cl  Cl70  1  0.08075588  0.68491737  0.49873245  1
  Cl  Cl71  1  0.58075588  0.81508263  0.50126755  1
  W  W72  1  0.12762881  0.71127553  0.17866866  1
  W  W73  1  0.62762881  0.78872447  0.82133134  1
  W  W74  1  0.87237119  0.21127553  0.32133134  1
  W  W75  1  0.37237119  0.28872447  0.67866866  1
  W  W76  1  0.87237119  0.28872447  0.82133134  1
  W  W77  1  0.37237119  0.21127553  0.17866866  1
  W  W78  1  0.12762881  0.78872447  0.67866866  1
  W  W79  1  0.62762881  0.71127553  0.32133134  1
  W  W80  1  0.92299457  0.70796773  0.14000301  1
  W  W81  1  0.42299457  0.79203227  0.85999699  1
  W  W82  1  0.07700543  0.20796773  0.35999699  1
  W  W83  1  0.57700543  0.29203227  0.64000301  1
  W  W84  1  0.07700543  0.29203227  0.85999699  1
  W  W85  1  0.57700543  0.20796773  0.14000301  1
  W  W86  1  0.92299457  0.79203227  0.64000301  1
  W  W87  1  0.42299457  0.70796773  0.35999699  1
