# generated using pymatgen
data_Li4Mn3Fe(PO4)4
_symmetry_space_group_name_H-M   'P 1'
_cell_length_a   4.78016820
_cell_length_b   10.52501484
_cell_length_c   6.15019595
_cell_angle_alpha   90.00000000
_cell_angle_beta   90.00000000
_cell_angle_gamma   89.93754855
_symmetry_Int_Tables_number   1
_chemical_formula_structural   Li4Mn3Fe(PO4)4
_chemical_formula_sum   'Li4 Mn3 Fe1 P4 O16'
_cell_volume   309.42442342
_cell_formula_units_Z   1
loop_
 _symmetry_equiv_pos_site_id
 _symmetry_equiv_pos_as_xyz
  1  'x, y, z'
loop_
 _atom_site_type_symbol
 _atom_site_label
 _atom_site_symmetry_multiplicity
 _atom_site_fract_x
 _atom_site_fract_y
 _atom_site_fract_z
 _atom_site_occupancy
  Li  Li0  1  0.99997701  0.00028181  0.00036127  1
  Li  Li1  1  0.99997701  0.00028181  0.49963873  1
  Li  Li2  1  0.49984719  0.49982309  0.49940887  1
  Li  Li3  1  0.49984719  0.49982309  0.00059113  1
  Mn  Mn4  1  0.02836052  0.71872397  0.75000000  1
  Mn  Mn5  1  0.47137200  0.21839984  0.75000000  1
  Mn  Mn6  1  0.52786959  0.78138846  0.25000000  1
  Fe  Fe7  1  0.97009483  0.28160470  0.25000000  1
  P  P8  1  0.08920146  0.59136725  0.25000000  1
  P  P9  1  0.40944618  0.09363374  0.25000000  1
  P  P10  1  0.58992856  0.90798643  0.75000000  1
  P  P11  1  0.91220406  0.40723387  0.75000000  1
  O  O12  1  0.21018424  0.45389680  0.25000000  1
  O  O13  1  0.22353941  0.66106793  0.04894738  1
  O  O14  1  0.22353941  0.66106793  0.45105262  1
  O  O15  1  0.23291209  0.40403623  0.75000000  1
  O  O16  1  0.26867416  0.90401387  0.75000000  1
  O  O17  1  0.27370437  0.16254741  0.04901183  1
  O  O18  1  0.27370437  0.16254741  0.45098817  1
  O  O19  1  0.28868120  0.95577035  0.25000000  1
  O  O20  1  0.71215661  0.04495749  0.75000000  1
  O  O21  1  0.72358387  0.83842519  0.54874144  1
  O  O22  1  0.72358387  0.83842519  0.95125856  1
  O  O23  1  0.73105170  0.09726572  0.25000000  1
  O  O24  1  0.76818905  0.59617961  0.25000000  1
  O  O25  1  0.78075516  0.33756868  0.54728951  1
  O  O26  1  0.78075516  0.33756868  0.95271049  1
  O  O27  1  0.78686572  0.54411243  0.75000000  1
