# generated using pymatgen
data_LiFeSnO4
_symmetry_space_group_name_H-M   'P 1'
_cell_length_a   6.31630785
_cell_length_b   6.18966492
_cell_length_c   6.18966451
_cell_angle_alpha   58.71670493
_cell_angle_beta   59.32083923
_cell_angle_gamma   59.32084147
_symmetry_Int_Tables_number   1
_chemical_formula_structural   LiFeSnO4
_chemical_formula_sum   'Li2 Fe2 Sn2 O8'
_cell_volume   167.66562564
_cell_formula_units_Z   2
loop_
 _symmetry_equiv_pos_site_id
 _symmetry_equiv_pos_as_xyz
  1  'x, y, z'
loop_
 _atom_site_type_symbol
 _atom_site_label
 _atom_site_symmetry_multiplicity
 _atom_site_fract_x
 _atom_site_fract_y
 _atom_site_fract_z
 _atom_site_occupancy
  Li  Li0  1  0.12162807  0.12837193  0.12837193  1
  Li  Li1  1  0.87837193  0.87162807  0.87162807  1
  Fe  Fe2  1  0.50000000  0.00000000  0.50000000  1
  Fe  Fe3  1  0.50000000  0.50000000  0.00000000  1
  Sn  Sn4  1  0.00000000  0.50000000  0.50000000  1
  Sn  Sn5  1  0.50000000  0.50000000  0.50000000  1
  O  O6  1  0.26705803  0.26196056  0.26196056  1
  O  O7  1  0.26054744  0.25737094  0.72153418  1
  O  O8  1  0.26054744  0.72153418  0.25737094  1
  O  O9  1  0.70902184  0.26196056  0.26196056  1
  O  O10  1  0.29097816  0.73803944  0.73803944  1
  O  O11  1  0.73945256  0.74262906  0.27846582  1
  O  O12  1  0.73945256  0.27846582  0.74262906  1
  O  O13  1  0.73294197  0.73803944  0.73803944  1
