# generated using pymatgen
data_Li2MnFe(PO4)2
_symmetry_space_group_name_H-M   'P 1'
_cell_length_a   4.77050951
_cell_length_b   10.50313207
_cell_length_c   6.12425550
_cell_angle_alpha   90.00000000
_cell_angle_beta   90.00000000
_cell_angle_gamma   89.79592093
_symmetry_Int_Tables_number   1
_chemical_formula_structural   Li2MnFe(PO4)2
_chemical_formula_sum   'Li4 Mn2 Fe2 P4 O16'
_cell_volume   306.85566001
_cell_formula_units_Z   2
loop_
 _symmetry_equiv_pos_site_id
 _symmetry_equiv_pos_as_xyz
  1  'x, y, z'
loop_
 _atom_site_type_symbol
 _atom_site_label
 _atom_site_symmetry_multiplicity
 _atom_site_fract_x
 _atom_site_fract_y
 _atom_site_fract_z
 _atom_site_occupancy
  Li  Li0  1  0.00000000  0.00000000  0.00000000  1
  Li  Li1  1  0.50000000  0.50000000  0.50000000  1
  Li  Li2  1  0.50000000  0.50000000  0.00000000  1
  Li  Li3  1  0.00000000  0.00000000  0.50000000  1
  Mn  Mn4  1  0.47386633  0.21863137  0.75000000  1
  Mn  Mn5  1  0.52613367  0.78136863  0.25000000  1
  Fe  Fe6  1  0.02944802  0.71847997  0.75000000  1
  Fe  Fe7  1  0.97055198  0.28152003  0.25000000  1
  P  P8  1  0.08487435  0.59167746  0.25000000  1
  P  P9  1  0.40928575  0.09408001  0.25000000  1
  P  P10  1  0.59071425  0.90591999  0.75000000  1
  P  P11  1  0.91512565  0.40832254  0.75000000  1
  O  O12  1  0.21036313  0.45487549  0.25000000  1
  O  O13  1  0.21568181  0.66218666  0.04724169  1
  O  O14  1  0.21568181  0.66218666  0.45275831  1
  O  O15  1  0.23771912  0.40486310  0.75000000  1
  O  O16  1  0.26789808  0.90247479  0.75000000  1
  O  O17  1  0.27346324  0.16334374  0.04845447  1
  O  O18  1  0.27346324  0.16334374  0.45154553  1
  O  O19  1  0.28931006  0.95633672  0.25000000  1
  O  O20  1  0.71068994  0.04366328  0.75000000  1
  O  O21  1  0.72653676  0.83665626  0.54845447  1
  O  O22  1  0.72653676  0.83665626  0.95154553  1
  O  O23  1  0.73210192  0.09752521  0.25000000  1
  O  O24  1  0.76228088  0.59513690  0.25000000  1
  O  O25  1  0.78431819  0.33781334  0.54724169  1
  O  O26  1  0.78431819  0.33781334  0.95275831  1
  O  O27  1  0.78963687  0.54512451  0.75000000  1
