# generated using pymatgen
data_ThCN
_symmetry_space_group_name_H-M   'P 1'
_cell_length_a   3.97928585
_cell_length_b   4.02499388
_cell_length_c   7.36927555
_cell_angle_alpha   93.48835501
_cell_angle_beta   90.00000000
_cell_angle_gamma   119.62505067
_symmetry_Int_Tables_number   1
_chemical_formula_structural   ThCN
_chemical_formula_sum   'Th2 C2 N2'
_cell_volume   102.34998594
_cell_formula_units_Z   2
loop_
 _symmetry_equiv_pos_site_id
 _symmetry_equiv_pos_as_xyz
  1  'x, y, z'
loop_
 _atom_site_type_symbol
 _atom_site_label
 _atom_site_symmetry_multiplicity
 _atom_site_fract_x
 _atom_site_fract_y
 _atom_site_fract_z
 _atom_site_occupancy
  C  C0  1  0.52983897  0.05967794  0.42106643  1
  C  C1  1  0.47016103  0.94032206  0.57893357  1
  N  N2  1  0.15601486  0.31202973  0.87760549  1
  N  N3  1  0.84398514  0.68797027  0.12239451  1
  Th  Th4  1  0.82080336  0.64160671  0.80076056  1
  Th  Th5  1  0.17919664  0.35839329  0.19923944  1
