# generated using pymatgen
data_Li3Sc2(PO4)3
_symmetry_space_group_name_H-M   'P 1'
_cell_length_a   12.44584167
_cell_length_b   8.93730031
_cell_length_c   8.91933640
_cell_angle_alpha   90.00000000
_cell_angle_beta   90.00000000
_cell_angle_gamma   90.51887432
_symmetry_Int_Tables_number   1
_chemical_formula_structural   Li3Sc2(PO4)3
_chemical_formula_sum   'Li12 Sc8 P12 O48'
_cell_volume   992.07694732
_cell_formula_units_Z   4
loop_
 _symmetry_equiv_pos_site_id
 _symmetry_equiv_pos_as_xyz
  1  'x, y, z'
loop_
 _atom_site_type_symbol
 _atom_site_label
 _atom_site_symmetry_multiplicity
 _atom_site_fract_x
 _atom_site_fract_y
 _atom_site_fract_z
 _atom_site_occupancy
  Li  Li0  1  0.17876654  0.19162906  0.76898827  1
  Li  Li1  1  0.17740105  0.78092666  0.27374401  1
  Li  Li2  1  0.21165933  0.45063779  0.91057001  1
  Li  Li3  1  0.28834067  0.04936221  0.41057001  1
  Li  Li4  1  0.32259895  0.71907334  0.77374401  1
  Li  Li5  1  0.32123346  0.30837094  0.26898827  1
  Li  Li6  1  0.67740105  0.28092666  0.22625599  1
  Li  Li7  1  0.67876654  0.69162906  0.73101173  1
  Li  Li8  1  0.71165933  0.95063779  0.58942999  1
  Li  Li9  1  0.78834067  0.54936221  0.08942999  1
  Li  Li10  1  0.82259895  0.21907334  0.72625599  1
  Li  Li11  1  0.82123346  0.80837094  0.23101173  1
  Sc  Sc12  1  0.10630252  0.26098710  0.45633112  1
  Sc  Sc13  1  0.11071843  0.75708590  0.95461556  1
  Sc  Sc14  1  0.38928157  0.74291410  0.45461556  1
  Sc  Sc15  1  0.39369748  0.23901290  0.95633112  1
  Sc  Sc16  1  0.61071843  0.25708590  0.54538444  1
  Sc  Sc17  1  0.60630252  0.76098710  0.04366888  1
  Sc  Sc18  1  0.88928157  0.24291410  0.04538444  1
  Sc  Sc19  1  0.89369748  0.73901290  0.54366888  1
  P  P20  1  0.99786509  0.54980855  0.24568730  1
  P  P21  1  0.00213491  0.45019145  0.75431270  1
  P  P22  1  0.15108269  0.10528240  0.10626146  1
  P  P23  1  0.15083094  0.89666240  0.60047786  1
  P  P24  1  0.34891731  0.39471760  0.60626146  1
  P  P25  1  0.34916906  0.60333760  0.10047786  1
  P  P26  1  0.50213491  0.95019145  0.74568730  1
  P  P27  1  0.49786509  0.04980855  0.25431270  1
  P  P28  1  0.65083094  0.39666240  0.89952214  1
  P  P29  1  0.65108269  0.60528240  0.39373854  1
  P  P30  1  0.84916906  0.10333760  0.39952214  1
  P  P31  1  0.84891731  0.89471760  0.89373854  1
  O  O32  1  0.03397188  0.15347789  0.08088486  1
  O  O33  1  0.03460138  0.84808029  0.56726392  1
  O  O34  1  0.07410159  0.54315877  0.86206448  1
  O  O35  1  0.06212023  0.44921355  0.35167708  1
  O  O36  1  0.07837085  0.65200032  0.16023653  1
  O  O37  1  0.07981523  0.34423310  0.66864112  1
  O  O38  1  0.16436700  0.07002918  0.59570171  1
  O  O39  1  0.16168872  0.93281874  0.10143624  1
  O  O40  1  0.19043491  0.15965445  0.26462619  1
  O  O41  1  0.18608725  0.83580773  0.75506469  1
  O  O42  1  0.22071765  0.18062305  0.98112819  1
  O  O43  1  0.22715863  0.84049577  0.47294180  1
  O  O44  1  0.27284137  0.65950423  0.97294180  1
  O  O45  1  0.27928235  0.31937695  0.48112819  1
  O  O46  1  0.30956509  0.34034555  0.76462619  1
  O  O47  1  0.31391275  0.66419227  0.25506469  1
  O  O48  1  0.33563300  0.42997082  0.09570171  1
  O  O49  1  0.33831128  0.56718126  0.60143624  1
  O  O50  1  0.42162915  0.84799968  0.66023653  1
  O  O51  1  0.42018477  0.15576690  0.16864112  1
  O  O52  1  0.43787977  0.05078645  0.85167708  1
  O  O53  1  0.42589841  0.95684123  0.36206448  1
  O  O54  1  0.46539862  0.65191971  0.06726392  1
  O  O55  1  0.46602812  0.34652211  0.58088486  1
  O  O56  1  0.53397188  0.65347789  0.41911514  1
  O  O57  1  0.53460138  0.34808029  0.93273608  1
  O  O58  1  0.57410159  0.04315877  0.63793552  1
  O  O59  1  0.56212023  0.94921355  0.14832292  1
  O  O60  1  0.57837085  0.15200032  0.33976347  1
  O  O61  1  0.57981523  0.84423310  0.83135888  1
  O  O62  1  0.66168872  0.43281874  0.39856376  1
  O  O63  1  0.66436700  0.57002918  0.90429829  1
  O  O64  1  0.68608725  0.33580773  0.74493531  1
  O  O65  1  0.69043491  0.65965445  0.23537381  1
  O  O66  1  0.72715863  0.34049577  0.02705820  1
  O  O67  1  0.72071765  0.68062305  0.51887181  1
  O  O68  1  0.77284137  0.15950423  0.52705820  1
  O  O69  1  0.77928235  0.81937695  0.01887181  1
  O  O70  1  0.81391275  0.16419227  0.24493531  1
  O  O71  1  0.80956509  0.84034555  0.73537381  1
  O  O72  1  0.83831128  0.06718126  0.89856376  1
  O  O73  1  0.83563300  0.92997082  0.40429829  1
  O  O74  1  0.92162915  0.34799968  0.83976347  1
  O  O75  1  0.92018477  0.65576690  0.33135888  1
  O  O76  1  0.92589841  0.45684123  0.13793552  1
  O  O77  1  0.93787977  0.55078645  0.64832292  1
  O  O78  1  0.96539862  0.15191971  0.43273608  1
  O  O79  1  0.96602812  0.84652211  0.91911514  1
