# generated using pymatgen
data_Zr2N2O
_symmetry_space_group_name_H-M   'P 1'
_cell_length_a   8.89733256
_cell_length_b   8.88694147
_cell_length_c   8.84913782
_cell_angle_alpha   109.40436248
_cell_angle_beta   109.39305461
_cell_angle_gamma   109.61130539
_symmetry_Int_Tables_number   1
_chemical_formula_structural   Zr2N2O
_chemical_formula_sum   'Zr16 N16 O8'
_cell_volume   538.66180775
_cell_formula_units_Z   8
loop_
 _symmetry_equiv_pos_site_id
 _symmetry_equiv_pos_as_xyz
  1  'x, y, z'
loop_
 _atom_site_type_symbol
 _atom_site_label
 _atom_site_symmetry_multiplicity
 _atom_site_fract_x
 _atom_site_fract_y
 _atom_site_fract_z
 _atom_site_occupancy
  Zr  Zr0  1  0.49903371  0.99840485  0.98750378  1
  Zr  Zr1  1  0.75656607  0.29607774  0.53933134  1
  Zr  Zr2  1  0.21200022  0.95569060  0.24908618  1
  Zr  Zr3  1  0.71961667  0.47258975  0.24931765  1
  Zr  Zr4  1  0.24122675  0.21059683  0.95560386  1
  Zr  Zr5  1  0.00960205  0.50878736  0.00621895  1
  Zr  Zr6  1  0.96899148  0.25905098  0.21211510  1
  Zr  Zr7  1  0.50163669  0.50909662  0.51136447  1
  Zr  Zr8  1  0.53736542  0.75006059  0.29258408  1
  Zr  Zr9  1  0.00712767  0.99639994  0.50543215  1
  Zr  Zr10  1  0.45696039  0.24998563  0.72092188  1
  Zr  Zr11  1  0.02920512  0.74110879  0.77815508  1
  Zr  Zr12  1  0.75051342  0.78226309  0.03227672  1
  Zr  Zr13  1  0.79018791  0.03432978  0.75791812  1
  Zr  Zr14  1  0.28233754  0.53299207  0.74372572  1
  Zr  Zr15  1  0.25045284  0.71320600  0.46554967  1
  N  N16  1  0.72599039  0.99001156  0.95709312  1
  N  N17  1  0.51349060  0.23770265  0.96810412  1
  N  N18  1  0.76797757  0.72941262  0.26058267  1
  N  N19  1  0.23513842  0.96685751  0.50781053  1
  N  N20  1  0.76790248  0.53921736  0.52800727  1
  N  N21  1  0.04719648  0.27490833  0.01240952  1
  N  N22  1  0.27560892  0.73959751  0.22360575  1
  N  N23  1  0.22723365  0.44991624  0.46435851  1
  N  N24  1  0.54576950  0.53414119  0.77327975  1
  N  N25  1  0.95903287  0.73214784  0.99308117  1
  N  N26  1  0.96367755  0.50860700  0.23747846  1
  N  N27  1  0.53698833  0.77018769  0.54275503  1
  N  N28  1  0.98786194  0.95434851  0.72718201  1
  N  N29  1  0.22519606  0.27115130  0.73921318  1
  N  N30  1  0.02831591  0.48163254  0.75552168  1
  N  N31  1  0.26475067  0.77625875  0.73277992  1
  O  O32  1  0.75909705  0.03606231  0.48692135  1
  O  O33  1  0.27937228  0.01672454  0.05382371  1
  O  O34  1  0.73637723  0.22056159  0.27571756  1
  O  O35  1  0.46495266  0.22514782  0.45296646  1
  O  O36  1  0.45124836  0.46632794  0.22526721  1
  O  O37  1  0.72359730  0.25669837  0.76401861  1
  O  O38  1  0.01125445  0.04692308  0.27392763  1
  O  O39  1  0.48914740  0.76481414  0.03699203  1
