# generated using pymatgen
data_LiFeBO3
_symmetry_space_group_name_H-M   'P 1'
_cell_length_a   5.23118474
_cell_length_b   5.23118496
_cell_length_c   10.33810890
_cell_angle_alpha   89.30614626
_cell_angle_beta   90.69385786
_cell_angle_gamma   59.56321483
_symmetry_Int_Tables_number   1
_chemical_formula_structural   LiFeBO3
_chemical_formula_sum   'Li4 Fe4 B4 O12'
_cell_volume   243.84530660
_cell_formula_units_Z   4
loop_
 _symmetry_equiv_pos_site_id
 _symmetry_equiv_pos_as_xyz
  1  'x, y, z'
loop_
 _atom_site_type_symbol
 _atom_site_label
 _atom_site_symmetry_multiplicity
 _atom_site_fract_x
 _atom_site_fract_y
 _atom_site_fract_z
 _atom_site_occupancy
  Li  Li0  1  0.32979502  0.65277102  0.33353983  1
  Li  Li1  1  0.34722898  0.67020498  0.83353983  1
  Li  Li2  1  0.64255959  0.34178241  0.58354874  1
  Li  Li3  1  0.65821759  0.35744041  0.08354874  1
  Fe  Fe4  1  0.33354461  0.00546589  0.11583759  1
  Fe  Fe5  1  0.68216930  0.99604351  0.86611913  1
  Fe  Fe6  1  0.00395649  0.31783070  0.36611913  1
  Fe  Fe7  1  0.99453411  0.66645539  0.61583759  1
  B  B8  1  0.00764397  0.32751921  0.87418468  1
  B  B9  1  0.32321976  0.00891611  0.62448392  1
  B  B10  1  0.67248079  0.99235603  0.37418468  1
  B  B11  1  0.99108389  0.67678024  0.12448392  1
  O  O12  1  0.05729553  0.25916053  0.58345935  1
  O  O13  1  0.26260475  0.05828190  0.90435573  1
  O  O14  1  0.02693412  0.57402335  0.83696396  1
  O  O15  1  0.57188918  0.03367292  0.65225945  1
  O  O16  1  0.26143824  0.66127257  0.13986336  1
  O  O17  1  0.33872743  0.73856176  0.63986336  1
  O  O18  1  0.64865129  0.26943595  0.38348526  1
  O  O19  1  0.73056405  0.35134871  0.88348526  1
  O  O20  1  0.42597665  0.97306588  0.33696396  1
  O  O21  1  0.96632708  0.42811082  0.15225945  1
  O  O22  1  0.74083947  0.94270447  0.08345935  1
  O  O23  1  0.94171810  0.73739525  0.40435573  1
