# generated using pymatgen
data_Li2MnFe(PO4)2
_symmetry_space_group_name_H-M   'P 1'
_cell_length_a   14.29617698
_cell_length_b   10.50630389
_cell_length_c   6.13039805
_cell_angle_alpha   90.00000000
_cell_angle_beta   90.00000000
_cell_angle_gamma   89.92425269
_symmetry_Int_Tables_number   1
_chemical_formula_structural   Li2MnFe(PO4)2
_chemical_formula_sum   'Li12 Mn6 Fe6 P12 O48'
_cell_volume   920.78485875
_cell_formula_units_Z   6
loop_
 _symmetry_equiv_pos_site_id
 _symmetry_equiv_pos_as_xyz
  1  'x, y, z'
loop_
 _atom_site_type_symbol
 _atom_site_label
 _atom_site_symmetry_multiplicity
 _atom_site_fract_x
 _atom_site_fract_y
 _atom_site_fract_z
 _atom_site_occupancy
  Li  Li0  1  0.00005875  0.00071100  0.00125725  1
  Li  Li1  1  0.00005875  0.00071100  0.49874275  1
  Li  Li2  1  0.16660417  0.49972130  0.00097145  1
  Li  Li3  1  0.16660417  0.49972130  0.49902855  1
  Li  Li4  1  0.33339187  0.00016299  0.00086192  1
  Li  Li5  1  0.33339187  0.00016299  0.49913808  1
  Li  Li6  1  0.50014274  0.49995496  0.00107659  1
  Li  Li7  1  0.50014274  0.49995496  0.49892341  1
  Li  Li8  1  0.66672255  0.00052916  0.00087418  1
  Li  Li9  1  0.66672255  0.00052916  0.49912582  1
  Li  Li10  1  0.83324902  0.49981667  0.00127096  1
  Li  Li11  1  0.83324902  0.49981667  0.49872904  1
  Mn  Mn12  1  0.00827452  0.71839253  0.75000000  1
  Mn  Mn13  1  0.15822276  0.21867024  0.75000000  1
  Mn  Mn14  1  0.17488472  0.78124563  0.25000000  1
  Mn  Mn15  1  0.34183737  0.71872267  0.75000000  1
  Mn  Mn16  1  0.49160120  0.21847682  0.75000000  1
  Mn  Mn17  1  0.67509233  0.71830894  0.75000000  1
  Fe  Fe18  1  0.32439681  0.28150274  0.25000000  1
  Fe  Fe19  1  0.50894843  0.78158958  0.25000000  1
  Fe  Fe20  1  0.65787238  0.28149969  0.25000000  1
  Fe  Fe21  1  0.82545148  0.21833114  0.75000000  1
  Fe  Fe22  1  0.84201981  0.78177724  0.25000000  1
  Fe  Fe23  1  0.99067324  0.28135376  0.25000000  1
  P  P24  1  0.02840930  0.59216295  0.25000000  1
  P  P25  1  0.13735269  0.09441645  0.25000000  1
  P  P26  1  0.19581571  0.90766081  0.75000000  1
  P  P27  1  0.30507453  0.40684744  0.75000000  1
  P  P28  1  0.36311669  0.59265110  0.25000000  1
  P  P29  1  0.47067637  0.09347714  0.25000000  1
  P  P30  1  0.52813079  0.90685253  0.75000000  1
  P  P31  1  0.63898302  0.40570901  0.75000000  1
  P  P32  1  0.69583149  0.59348180  0.25000000  1
  P  P33  1  0.80466140  0.09396883  0.25000000  1
  P  P34  1  0.86100167  0.90783579  0.75000000  1
  P  P35  1  0.97115611  0.40601348  0.75000000  1
  O  O36  1  0.06894823  0.45457340  0.25000000  1
  O  O37  1  0.07324239  0.66159828  0.04866402  1
  O  O38  1  0.07324239  0.66159828  0.45133598  1
  O  O39  1  0.07838839  0.40423119  0.75000000  1
  O  O40  1  0.08793539  0.90464726  0.75000000  1
  O  O41  1  0.09205184  0.16381441  0.04876814  1
  O  O42  1  0.09205184  0.16381441  0.45123186  1
  O  O43  1  0.09638782  0.95684042  0.25000000  1
  O  O44  1  0.23707182  0.04430029  0.75000000  1
  O  O45  1  0.23990179  0.83758281  0.54860800  1
  O  O46  1  0.23990179  0.83758281  0.95139200  1
  O  O47  1  0.24472792  0.09705619  0.25000000  1
  O  O48  1  0.25548360  0.59611087  0.25000000  1
  O  O49  1  0.26172827  0.33660299  0.54717987  1
  O  O50  1  0.26172827  0.33660299  0.95282013  1
  O  O51  1  0.26249320  0.54326905  0.75000000  1
  O  O52  1  0.40333190  0.45492761  0.25000000  1
  O  O53  1  0.40792714  0.66284582  0.04910183  1
  O  O54  1  0.40792714  0.66284582  0.45089817  1
  O  O55  1  0.41262976  0.40488535  0.75000000  1
  O  O56  1  0.42089230  0.90495290  0.75000000  1
  O  O57  1  0.42550637  0.16289518  0.45095282  1
  O  O58  1  0.42550637  0.16289518  0.04904718  1
  O  O59  1  0.43090479  0.95537778  0.25000000  1
  O  O60  1  0.57068315  0.04302512  0.75000000  1
  O  O61  1  0.57165073  0.83629931  0.54710806  1
  O  O62  1  0.57165073  0.83629931  0.95289194  1
  O  O63  1  0.57865304  0.09729083  0.25000000  1
  O  O64  1  0.58825261  0.59754730  0.25000000  1
  O  O65  1  0.59514508  0.33618555  0.95297855  1
  O  O66  1  0.59514508  0.33618555  0.54702145  1
  O  O67  1  0.59709707  0.54236706  0.75000000  1
  O  O68  1  0.73587159  0.45536107  0.25000000  1
  O  O69  1  0.74125294  0.66304178  0.04912699  1
  O  O70  1  0.74125294  0.66304178  0.45087301  1
  O  O71  1  0.74681809  0.40234795  0.75000000  1
  O  O72  1  0.75368141  0.90448480  0.75000000  1
  O  O73  1  0.76006211  0.16368454  0.45268599  1
  O  O74  1  0.76006211  0.16368454  0.04731401  1
  O  O75  1  0.76412581  0.95635351  0.25000000  1
  O  O76  1  0.90235574  0.04492084  0.75000000  1
  O  O77  1  0.90511046  0.83760617  0.54742781  1
  O  O78  1  0.90511046  0.83760617  0.95257219  1
  O  O79  1  0.91222529  0.09723576  0.25000000  1
  O  O80  1  0.92067549  0.59692975  0.25000000  1
  O  O81  1  0.92718485  0.33558673  0.95259816  1
  O  O82  1  0.92718485  0.33558673  0.54740184  1
  O  O83  1  0.92901156  0.54273609  0.75000000  1
