# generated using pymatgen
data_Li2MnFe(PO4)2
_symmetry_space_group_name_H-M   'P 1'
_cell_length_a   9.54164462
_cell_length_b   10.50547528
_cell_length_c   6.13058716
_cell_angle_alpha   90.00000000
_cell_angle_beta   90.00000000
_cell_angle_gamma   89.93192742
_symmetry_Int_Tables_number   1
_chemical_formula_structural   Li2MnFe(PO4)2
_chemical_formula_sum   'Li8 Mn4 Fe4 P8 O32'
_cell_volume   614.52662999
_cell_formula_units_Z   4
loop_
 _symmetry_equiv_pos_site_id
 _symmetry_equiv_pos_as_xyz
  1  'x, y, z'
loop_
 _atom_site_type_symbol
 _atom_site_label
 _atom_site_symmetry_multiplicity
 _atom_site_fract_x
 _atom_site_fract_y
 _atom_site_fract_z
 _atom_site_occupancy
  Li  Li0  1  -0.00003384  0.00042103  0.00085502  1
  Li  Li1  1  -0.00003384  0.00042103  0.49914498  1
  Li  Li2  1  0.24991014  0.50008923  0.49937580  1
  Li  Li3  1  0.24991014  0.50008923  0.00062420  1
  Li  Li4  1  0.50014486  0.99978139  0.00042566  1
  Li  Li5  1  0.50014486  0.99978139  0.49957434  1
  Li  Li6  1  0.75004210  0.50007154  0.00064765  1
  Li  Li7  1  0.75004210  0.50007154  0.49935235  1
  Mn  Mn8  1  0.01260905  0.71857539  0.75000000  1
  Mn  Mn9  1  0.23763124  0.21852240  0.75000000  1
  Mn  Mn10  1  0.26246288  0.78117534  0.25000000  1
  Mn  Mn11  1  0.73731207  0.21848507  0.75000000  1
  Fe  Fe12  1  0.48649231  0.28166060  0.25000000  1
  Fe  Fe13  1  0.51395655  0.71845836  0.75000000  1
  Fe  Fe14  1  0.76313460  0.78200260  0.25000000  1
  Fe  Fe15  1  0.98641260  0.28166311  0.25000000  1
  P  P16  1  0.04208437  0.59226375  0.25000000  1
  P  P17  1  0.20582095  0.09450481  0.25000000  1
  P  P18  1  0.29520226  0.90627173  0.75000000  1
  P  P19  1  0.45832872  0.40773275  0.75000000  1
  P  P20  1  0.54345213  0.59328659  0.25000000  1
  P  P21  1  0.70600776  0.09363350  0.25000000  1
  P  P22  1  0.79148687  0.90619181  0.75000000  1
  P  P23  1  0.95771879  0.40680539  0.75000000  1
  O  O24  1  0.10329012  0.45472670  0.25000000  1
  O  O25  1  0.10979677  0.66165930  0.04860965  1
  O  O26  1  0.10979677  0.66165930  0.45139035  1
  O  O27  1  0.11896612  0.40482214  0.75000000  1
  O  O28  1  0.13345773  0.90364548  0.75000000  1
  O  O29  1  0.13796345  0.16361100  0.04867208  1
  O  O30  1  0.13796345  0.16361100  0.45132792  1
  O  O31  1  0.14510160  0.95674170  0.25000000  1
  O  O32  1  0.35561279  0.04360284  0.75000000  1
  O  O33  1  0.36195603  0.83637439  0.54890029  1
  O  O34  1  0.36195603  0.83637439  0.95109971  1
  O  O35  1  0.36698308  0.09753743  0.25000000  1
  O  O36  1  0.38195949  0.59577519  0.25000000  1
  O  O37  1  0.39283769  0.33727274  0.54738025  1
  O  O38  1  0.39283769  0.33727274  0.95261975  1
  O  O39  1  0.39569262  0.54458777  0.75000000  1
  O  O40  1  0.60488031  0.45619959  0.25000000  1
  O  O41  1  0.60913439  0.66384944  0.04765836  1
  O  O42  1  0.60913439  0.66384944  0.45234164  1
  O  O43  1  0.61929371  0.40459033  0.75000000  1
  O  O44  1  0.63066353  0.90364521  0.75000000  1
  O  O45  1  0.63798604  0.16292641  0.04900253  1
  O  O46  1  0.63798604  0.16292641  0.45099747  1
  O  O47  1  0.64652867  0.95545049  0.25000000  1
  O  O48  1  0.85503310  0.04251165  0.75000000  1
  O  O49  1  0.85745339  0.83624152  0.54699933  1
  O  O50  1  0.85745339  0.83624152  0.95300067  1
  O  O51  1  0.86744978  0.09750339  0.25000000  1
  O  O52  1  0.88115797  0.59700684  0.25000000  1
  O  O53  1  0.89274824  0.33640446  0.54729796  1
  O  O54  1  0.89274824  0.33640446  0.95270204  1
  O  O55  1  0.89393571  0.54301015  0.75000000  1
