# generated using pymatgen
data_LiMnVP2(O4F)2
_symmetry_space_group_name_H-M   'P 1'
_cell_length_a   5.19161788
_cell_length_b   5.26969552
_cell_length_c   7.38128354
_cell_angle_alpha   108.89418105
_cell_angle_beta   104.78982823
_cell_angle_gamma   96.99641889
_symmetry_Int_Tables_number   1
_chemical_formula_structural   LiMnVP2(O4F)2
_chemical_formula_sum   'Li1 Mn1 V1 P2 O8 F2'
_cell_volume   180.05436928
_cell_formula_units_Z   1
loop_
 _symmetry_equiv_pos_site_id
 _symmetry_equiv_pos_as_xyz
  1  'x, y, z'
loop_
 _atom_site_type_symbol
 _atom_site_label
 _atom_site_symmetry_multiplicity
 _atom_site_fract_x
 _atom_site_fract_y
 _atom_site_fract_z
 _atom_site_occupancy
  Li  Li0  1  0.92134475  0.56680104  0.17711528  1
  Mn  Mn1  1  0.50629163  0.50054800  0.50420215  1
  V  V2  1  0.99904136  0.99746857  0.99313658  1
  P  P3  1  0.44062871  0.11761935  0.75929158  1
  P  P4  1  0.55507885  0.88514415  0.24136263  1
  O  O5  1  0.27438266  0.13654606  0.91141849  1
  O  O6  1  0.36058079  0.82359840  0.60319480  1
  O  O7  1  0.36508546  0.32810154  0.66455869  1
  O  O8  1  0.24197699  0.80075153  0.13157671  1
  O  O9  1  0.74762681  0.20693989  0.89187736  1
  O  O10  1  0.64390071  0.67286139  0.33582313  1
  O  O11  1  0.64692918  0.18225432  0.39152740  1
  O  O12  1  0.71948485  0.84769695  0.08672825  1
  F  F13  1  0.11744795  0.31378090  0.24582055  1
  F  F14  1  0.87925429  0.69236392  0.75095040  1
