# generated using pymatgen
data_Li6Mn5Fe(BO3)6
_symmetry_space_group_name_H-M   'P 1'
_cell_length_a   8.27335513
_cell_length_b   8.86718010
_cell_length_c   6.37216084
_cell_angle_alpha   68.94207668
_cell_angle_beta   90.00000000
_cell_angle_gamma   62.07828679
_symmetry_Int_Tables_number   1
_chemical_formula_structural   Li6Mn5Fe(BO3)6
_chemical_formula_sum   'Li6 Mn5 Fe1 B6 O18'
_cell_volume   377.35686039
_cell_formula_units_Z   1
loop_
 _symmetry_equiv_pos_site_id
 _symmetry_equiv_pos_as_xyz
  1  'x, y, z'
loop_
 _atom_site_type_symbol
 _atom_site_label
 _atom_site_symmetry_multiplicity
 _atom_site_fract_x
 _atom_site_fract_y
 _atom_site_fract_z
 _atom_site_occupancy
  Li  Li0  1  0.71661439  0.98178705  0.75958512  1
  Li  Li1  1  0.71661439  0.98178705  0.25862683  1
  Li  Li2  1  0.98243600  0.30114604  0.59914926  1
  Li  Li3  1  0.98243600  0.30114604  0.09970370  1
  Li  Li4  1  0.30103016  0.71585649  0.89254693  1
  Li  Li5  1  0.30103016  0.71585649  0.39159658  1
  Mn  Mn6  1  0.62801220  0.35999442  0.82000279  1
  Mn  Mn7  1  0.62850307  0.35928749  0.32035575  1
  Mn  Mn8  1  0.35918270  0.01179113  0.49410443  1
  Mn  Mn9  1  0.35969591  0.01252144  0.99373978  1
  Mn  Mn10  1  0.01230207  0.62892692  0.68553604  1
  Fe  Fe11  1  0.00811715  0.63160762  0.18419569  1
  B  B12  1  0.66746896  0.66675927  0.41477421  1
  B  B13  1  0.66746896  0.66675927  0.91846552  1
  B  B14  1  0.33190407  0.33460087  0.58161142  1
  B  B15  1  0.33190407  0.33460087  0.08378771  1
  B  B16  1  0.00195859  0.99783305  0.00108298  1
  B  B17  1  -0.00000647  -0.00002431  0.50001265  1
  O  O18  1  0.88400848  0.92261101  0.53869499  1
  O  O19  1  0.88917303  0.91625554  0.04187223  1
  O  O20  1  0.86137484  0.58074671  0.96365524  1
  O  O21  1  0.86137484  0.58074671  0.45559905  1
  O  O22  1  0.92124795  0.19165071  0.90417414  1
  O  O23  1  0.92214930  0.19359045  0.40320478  1
  O  O24  1  0.55954847  0.86033176  0.31995976  1
  O  O25  1  0.55954847  0.86033176  0.81970848  1
  O  O26  1  0.58160840  0.55920259  0.97040728  1
  O  O27  1  0.58160840  0.55920259  0.47039013  1
  O  O28  1  0.52615350  0.25148824  0.62474963  1
  O  O29  1  0.52615350  0.25148824  0.12376213  1
  O  O30  1  0.19371396  0.88390877  0.55804561  1
  O  O31  1  0.19541091  0.88404352  0.05797774  1
  O  O32  1  0.22004061  0.52827225  0.48347797  1
  O  O33  1  0.22004061  0.52827225  0.98824878  1
  O  O34  1  0.25008767  0.22280934  0.63835241  1
  O  O35  1  0.25008767  0.22280934  0.13883826  1
