# generated using pymatgen
data_Ba4LiNb3O12
_symmetry_space_group_name_H-M   'P 1'
_cell_length_a   5.88214627
_cell_length_b   10.21268493
_cell_length_c   19.35707882
_cell_angle_alpha   90.00003102
_cell_angle_beta   90.00007165
_cell_angle_gamma   89.99977153
_symmetry_Int_Tables_number   1
_chemical_formula_structural   Ba4LiNb3O12
_chemical_formula_sum   'Ba16 Li4 Nb12 O48'
_cell_volume   1162.82824454
_cell_formula_units_Z   4
loop_
 _symmetry_equiv_pos_site_id
 _symmetry_equiv_pos_as_xyz
  1  'x, y, z'
loop_
 _atom_site_type_symbol
 _atom_site_label
 _atom_site_symmetry_multiplicity
 _atom_site_fract_x
 _atom_site_fract_y
 _atom_site_fract_z
 _atom_site_occupancy
  Ba  Ba0  1  0.00001920  0.32203822  0.13318349  1
  Ba  Ba1  1  0.99999103  0.33442484  0.75144203  1
  Ba  Ba2  1  0.99999654  0.00231713  0.00165851  1
  Ba  Ba3  1  0.00000694  0.34347639  0.36106890  1
  Ba  Ba4  1  0.00000573  0.99770463  0.50164175  1
  Ba  Ba5  1  0.00000653  0.66558088  0.25143975  1
  Ba  Ba6  1  0.99999838  0.65653465  0.86107137  1
  Ba  Ba7  1  0.99997870  0.67797264  0.63318377  1
  Ba  Ba8  1  0.50000506  0.84349500  0.13893461  1
  Ba  Ba9  1  0.49998942  0.83443101  0.74855486  1
  Ba  Ba10  1  0.50000737  0.16558447  0.24855886  1
  Ba  Ba11  1  0.49998973  0.17796444  0.86681823  1
  Ba  Ba12  1  0.49999565  0.15653857  0.63892818  1
  Ba  Ba13  1  0.49999411  0.50230627  0.49835568  1
  Ba  Ba14  1  0.50000010  0.49770302  0.99835953  1
  Ba  Ba15  1  0.50001176  0.82203836  0.36681558  1
  Li  Li16  1  0.99999789  0.00072622  0.16676145  1
  Li  Li17  1  0.99999175  0.99928394  0.66676273  1
  Li  Li18  1  0.49999864  0.49928123  0.83323839  1
  Li  Li19  1  0.49999553  0.50072023  0.33323667  1
  Nb  Nb20  1  0.99998915  0.33066267  0.56421471  1
  Nb  Nb21  1  0.00002590  0.99854181  0.30977701  1
  Nb  Nb22  1  0.99998049  0.00146949  0.80978054  1
  Nb  Nb23  1  0.00000169  0.33664305  0.93699438  1
  Nb  Nb24  1  0.00000005  0.66335979  0.43699333  1
  Nb  Nb25  1  0.00000702  0.66935246  0.06421437  1
  Nb  Nb26  1  0.49999950  0.83664783  0.56300632  1
  Nb  Nb27  1  0.50001448  0.49854185  0.19022130  1
  Nb  Nb28  1  0.50000570  0.16335675  0.06300659  1
  Nb  Nb29  1  0.50000214  0.16934414  0.43578229  1
  Nb  Nb30  1  0.49998847  0.50147469  0.69022092  1
  Nb  Nb31  1  0.49999697  0.83065862  0.93578820  1
  O  O32  1  0.00001110  0.83453401  0.38049148  1
  O  O33  1  0.00000528  0.49746581  0.99950261  1
  O  O34  1  0.00000265  0.50253726  0.49950201  1
  O  O35  1  0.99998707  0.17693537  0.62074286  1
  O  O36  1  0.99998456  0.16547094  0.88048820  1
  O  O37  1  0.00000741  0.82306462  0.12074060  1
  O  O38  1  0.00001769  0.15946029  0.25910188  1
  O  O39  1  0.00002339  0.84055022  0.75909832  1
  O  O40  1  0.23966352  0.07924117  0.75802684  1
  O  O41  1  0.23974028  0.92077784  0.25803106  1
  O  O42  1  0.24585425  0.41614994  0.61908988  1
  O  O43  1  0.23827127  0.41064684  0.87928992  1
  O  O44  1  0.24586399  0.58384718  0.11908905  1
  O  O45  1  0.23828404  0.58935393  0.37929328  1
  O  O46  1  0.24998282  0.24999096  0.99999894  1
  O  O47  1  0.24998895  0.25000232  0.49999664  1
  O  O48  1  0.25000393  0.74999679  0.99999671  1
  O  O49  1  0.25002013  0.74999807  0.49999642  1
  O  O50  1  0.25414094  0.91615417  0.88091094  1
  O  O51  1  0.26171763  0.91065052  0.62070667  1
  O  O52  1  0.26172121  0.08935913  0.12070863  1
  O  O53  1  0.25415625  0.08384906  0.38091126  1
  O  O54  1  0.26026932  0.57921465  0.74197428  1
  O  O55  1  0.26034549  0.42078045  0.24198211  1
  O  O56  1  0.50000237  0.32306846  0.37925618  1
  O  O57  1  0.50000086  0.00252941  0.00050081  1
  O  O58  1  0.50000520  0.99747461  0.50049847  1
  O  O59  1  0.50000163  0.33453118  0.11951212  1
  O  O60  1  0.50000124  0.67693214  0.87925891  1
  O  O61  1  0.49997947  0.66547301  0.61950982  1
  O  O62  1  0.50002655  0.34054988  0.74090031  1
  O  O63  1  0.50000759  0.65946522  0.24089895  1
  O  O64  1  0.73966554  0.57924266  0.74197381  1
  O  O65  1  0.73973737  0.42078739  0.24196918  1
  O  O66  1  0.74586232  0.91615331  0.88091168  1
  O  O67  1  0.73827572  0.91064737  0.62070781  1
  O  O68  1  0.74585855  0.08385361  0.38090778  1
  O  O69  1  0.73827894  0.08935454  0.12070521  1
  O  O70  1  0.75000501  0.74999976  -0.00000091  1
  O  O71  1  0.75001633  0.75000475  0.50000395  1
  O  O72  1  0.74998238  0.25000300  0.99999621  1
  O  O73  1  0.74999586  0.25000492  0.50000002  1
  O  O74  1  0.75414397  0.41615976  0.61908741  1
  O  O75  1  0.76171039  0.41065099  0.87929416  1
  O  O76  1  0.75415360  0.58384952  0.11909017  1
  O  O77  1  0.76172153  0.58936211  0.37929218  1
  O  O78  1  0.76027312  0.07921332  0.75802384  1
  O  O79  1  0.76034768  0.92077925  0.25801803  1
