# generated using pymatgen
data_Li8MnFe7(BO3)8
_symmetry_space_group_name_H-M   'P 1'
_cell_length_a   5.24527415
_cell_length_b   9.05695039
_cell_length_c   11.53061303
_cell_angle_alpha   67.40964797
_cell_angle_beta   77.54046832
_cell_angle_gamma   89.68765943
_symmetry_Int_Tables_number   1
_chemical_formula_structural   Li8MnFe7(BO3)8
_chemical_formula_sum   'Li8 Mn1 Fe7 B8 O24'
_cell_volume   492.01166434
_cell_formula_units_Z   1
loop_
 _symmetry_equiv_pos_site_id
 _symmetry_equiv_pos_as_xyz
  1  'x, y, z'
loop_
 _atom_site_type_symbol
 _atom_site_label
 _atom_site_symmetry_multiplicity
 _atom_site_fract_x
 _atom_site_fract_y
 _atom_site_fract_z
 _atom_site_occupancy
  Li  Li0  1  0.97020793  0.96027392  0.41564900  1
  Li  Li1  1  0.70594342  0.71447348  0.91584831  1
  Li  Li2  1  0.51480180  0.49355302  0.66709644  1
  Li  Li3  1  0.73072835  0.75149434  0.16853171  1
  Li  Li4  1  0.47582616  0.46251059  0.41404027  1
  Li  Li5  1  0.20490590  0.21814041  0.91537283  1
  Li  Li6  1  0.01568400  0.99354969  0.66607397  1
  Li  Li7  1  0.23440783  0.25408549  0.16483326  1
  Mn  Mn8  1  0.72357957  0.06072489  0.88459542  1
  Fe  Fe9  1  0.98756523  0.64314923  0.38120552  1
  Fe  Fe10  1  0.52427109  0.84333818  0.63147524  1
  Fe  Fe11  1  0.75460891  0.43248638  0.13251264  1
  Fe  Fe12  1  0.47585992  0.14724872  0.38314784  1
  Fe  Fe13  1  0.22012977  0.56862489  0.88023760  1
  Fe  Fe14  1  0.24960817  0.93141477  0.13516019  1
  Fe  Fe15  1  0.02472180  0.34498633  0.63212179  1
  B  B16  1  0.98098339  0.31413682  0.37564157  1
  B  B17  1  0.73368312  0.39784886  0.87530505  1
  B  B18  1  0.76239598  0.10264135  0.12893593  1
  B  B19  1  0.52521216  0.18622817  0.62506363  1
  B  B20  1  0.48115889  0.81601851  0.37659324  1
  B  B21  1  0.23113823  0.89462005  0.87719130  1
  B  B22  1  0.26479173  0.60268431  0.12685824  1
  B  B23  1  0.02276564  0.68674780  0.62471709  1
  O  O24  1  0.97718898  0.89023873  0.86257046  1
  O  O25  1  0.89934130  0.28974100  0.84422887  1
  O  O26  1  0.83300268  0.50658755  0.91692774  1
  O  O27  1  0.91155530  0.82949603  0.61459564  1
  O  O28  1  0.89734984  0.57511817  0.59460570  1
  O  O29  1  0.76152430  0.15813586  0.66340161  1
  O  O30  1  0.73487249  0.33976739  0.34737692  1
  O  O31  1  0.47799045  0.39729120  0.86299367  1
  O  O32  1  0.40043686  0.78705590  0.84703555  1
  O  O33  1  0.59743440  0.91961801  0.41664040  1
  O  O34  1  0.60910752  0.68779302  0.36175761  1
  O  O35  1  0.32102162  0.00547103  0.91892537  1
  O  O36  1  0.65493311  0.98447715  0.09952203  1
  O  O37  1  0.41403614  0.33045837  0.61283710  1
  O  O38  1  0.40101789  0.07355863  0.59639265  1
  O  O39  1  0.60394635  0.20781370  0.16613109  1
  O  O40  1  0.53402293  0.61958073  0.11548442  1
  O  O41  1  0.25851152  0.65687519  0.66315878  1
  O  O42  1  0.23301193  0.84196370  0.34829573  1
  O  O43  1  0.09891777  0.41970098  0.41459236  1
  O  O44  1  0.10784187  0.18506935  0.36322418  1
  O  O45  1  0.15957524  0.48480813  0.09717250  1
  O  O46  1  0.10307008  0.70640240  0.16521068  1
  O  O47  1  0.03211144  0.11879357  0.11631283  1
