# generated using pymatgen
data_V4(OF3)3
_symmetry_space_group_name_H-M   'P 1'
_cell_length_a   5.24173353
_cell_length_b   5.42692942
_cell_length_c   17.60335869
_cell_angle_alpha   90.96528373
_cell_angle_beta   99.32525764
_cell_angle_gamma   60.61502382
_symmetry_Int_Tables_number   1
_chemical_formula_structural   V4(OF3)3
_chemical_formula_sum   'V8 O6 F18'
_cell_volume   429.41721663
_cell_formula_units_Z   2
loop_
 _symmetry_equiv_pos_site_id
 _symmetry_equiv_pos_as_xyz
  1  'x, y, z'
loop_
 _atom_site_type_symbol
 _atom_site_label
 _atom_site_symmetry_multiplicity
 _atom_site_fract_x
 _atom_site_fract_y
 _atom_site_fract_z
 _atom_site_occupancy
  V  V0  1  0.75385034  0.62829524  0.12530213  1
  V  V1  1  0.76613034  0.10995977  0.63025562  1
  V  V2  1  0.46797071  0.27341344  0.24926458  1
  V  V3  1  0.48330229  0.74987219  0.75051440  1
  V  V4  1  0.23483738  0.89949162  0.38190502  1
  V  V5  1  0.26641763  0.38997054  0.87260790  1
  V  V6  1  0.03888666  0.98671206  0.00145462  1
  V  V7  1  0.96812826  0.50558024  0.49595463  1
  O  O8  1  0.39801695  0.80226512  0.04162293  1
  O  O9  1  0.60308952  0.68778174  0.45686234  1
  O  O10  1  0.39715117  0.57585828  0.83285750  1
  O  O11  1  0.10956266  0.44987320  0.20809314  1
  O  O12  1  0.06982662  0.95933361  0.70195466  1
  O  O13  1  0.06257016  0.16887208  0.43813572  1
  F  F14  1  0.91190587  0.84782002  0.08390250  1
  F  F15  1  0.96140585  0.32364058  0.05937383  1
  F  F16  1  0.95706664  0.81363809  0.55974687  1
  F  F17  1  0.55000303  0.93239146  0.19102161  1
  F  F18  1  0.91240489  0.04783160  0.29165559  1
  F  F19  1  0.91630216  0.33578747  0.58509556  1
  F  F20  1  0.91211908  0.52678113  0.78967952  1
  F  F21  1  0.59830353  0.40689591  0.16684713  1
  F  F22  1  0.57762830  0.91074656  0.66361960  1
  F  F23  1  0.45595619  0.57701616  0.31419582  1
  F  F24  1  0.52680209  0.43202763  0.68686956  1
  F  F25  1  0.42695902  0.08471918  0.33720611  1
  F  F26  1  0.41253147  0.29638303  0.54378903  1
  F  F27  1  0.58944528  0.20769315  0.96081056  1
  F  F28  1  0.08588281  0.65625145  0.41419608  1
  F  F29  1  0.47270402  0.05227266  0.81505879  1
  F  F30  1  0.02825508  0.68991208  0.93673185  1
  F  F31  1  0.08458700  0.17091572  0.91341582  1
