# generated using pymatgen
data_V4OF11
_symmetry_space_group_name_H-M   'P 1'
_cell_length_a   5.24560188
_cell_length_b   5.48888780
_cell_length_c   17.49090416
_cell_angle_alpha   91.23560101
_cell_angle_beta   99.08121700
_cell_angle_gamma   60.99846598
_symmetry_Int_Tables_number   1
_chemical_formula_structural   V4OF11
_chemical_formula_sum   'V8 O2 F22'
_cell_volume   434.05580700
_cell_formula_units_Z   2
loop_
 _symmetry_equiv_pos_site_id
 _symmetry_equiv_pos_as_xyz
  1  'x, y, z'
loop_
 _atom_site_type_symbol
 _atom_site_label
 _atom_site_symmetry_multiplicity
 _atom_site_fract_x
 _atom_site_fract_y
 _atom_site_fract_z
 _atom_site_occupancy
  V  V0  1  0.72764235  0.63546038  0.11834823  1
  V  V1  1  0.74416478  0.12822194  0.62427205  1
  V  V2  1  0.50000000  0.25000000  0.25000000  1
  V  V3  1  0.50000000  0.75000000  0.75000000  1
  V  V4  1  0.27235765  0.86453962  0.38165177  1
  V  V5  1  0.25583522  0.37177806  0.87572795  1
  V  V6  1  0.01298132  0.99292653  0.00170576  1
  V  V7  1  0.98701868  0.50707347  0.49829424  1
  O  O8  1  0.43247071  0.78563547  0.04636838  1
  O  O9  1  0.56752929  0.71436453  0.45363162  1
  F  F10  1  0.92572619  0.83589244  0.08849562  1
  F  F11  1  0.97776039  0.31749786  0.06275792  1
  F  F12  1  0.97240637  0.81673648  0.56284756  1
  F  F13  1  0.53538808  0.93027435  0.18997880  1
  F  F14  1  0.93108376  0.03426089  0.29289675  1
  F  F15  1  0.92172060  0.34244294  0.58694527  1
  F  F16  1  0.92926946  0.53453320  0.78632611  1
  F  F17  1  0.58636140  0.40674714  0.16319601  1
  F  F18  1  0.56899215  0.91225498  0.66115881  1
  F  F19  1  0.46461192  0.56972565  0.31002120  1
  F  F20  1  0.51874144  0.43784385  0.68672054  1
  F  F21  1  0.41363860  0.09325286  0.33680399  1
  F  F22  1  0.41689204  0.29251818  0.53562277  1
  F  F23  1  0.43100785  0.58774502  0.83884119  1
  F  F24  1  0.58310796  0.20748182  0.96437723  1
  F  F25  1  0.07427381  0.66410756  0.41150438  1
  F  F26  1  0.06891624  0.46573911  0.20710325  1
  F  F27  1  0.07073054  0.96546680  0.71367389  1
  F  F28  1  0.48125856  0.06215615  0.81327946  1
  F  F29  1  0.02759363  0.68326352  0.93715244  1
  F  F30  1  0.02223961  0.18250214  0.43724208  1
  F  F31  1  0.07827940  0.15755706  0.91305473  1
