# generated using pymatgen
data_Bi2TeSe2
_symmetry_space_group_name_H-M   'P 1'
_cell_length_a   10.85019532
_cell_length_b   10.85019532
_cell_length_c   10.85019531
_cell_angle_alpha   22.73442070
_cell_angle_beta   22.73442066
_cell_angle_gamma   22.73442068
_symmetry_Int_Tables_number   1
_chemical_formula_structural   Bi2TeSe2
_chemical_formula_sum   'Bi2 Te1 Se2'
_cell_volume   167.38293860
_cell_formula_units_Z   1
loop_
 _symmetry_equiv_pos_site_id
 _symmetry_equiv_pos_as_xyz
  1  'x, y, z'
loop_
 _atom_site_type_symbol
 _atom_site_label
 _atom_site_symmetry_multiplicity
 _atom_site_fract_x
 _atom_site_fract_y
 _atom_site_fract_z
 _atom_site_occupancy
  Se  Se0  1  0.21819836  0.21819836  0.21819836  1
  Se  Se1  1  0.78180164  0.78180164  0.78180164  1
  Te  Te2  1  0.00000000  0.00000000  0.00000000  1
  Bi  Bi3  1  0.59937365  0.59937365  0.59937365  1
  Bi  Bi4  1  0.40062635  0.40062635  0.40062635  1
