# generated using pymatgen
data_Li8MnFe7(BO3)8
_symmetry_space_group_name_H-M   'P 1'
_cell_length_a   5.22953489
_cell_length_b   9.05502399
_cell_length_c   10.39205406
_cell_angle_alpha   91.22467974
_cell_angle_beta   90.61489679
_cell_angle_gamma   89.90841638
_symmetry_Int_Tables_number   1
_chemical_formula_structural   Li8MnFe7(BO3)8
_chemical_formula_sum   'Li8 Mn1 Fe7 B8 O24'
_cell_volume   491.95959186
_cell_formula_units_Z   1
loop_
 _symmetry_equiv_pos_site_id
 _symmetry_equiv_pos_as_xyz
  1  'x, y, z'
loop_
 _atom_site_type_symbol
 _atom_site_label
 _atom_site_symmetry_multiplicity
 _atom_site_fract_x
 _atom_site_fract_y
 _atom_site_fract_z
 _atom_site_occupancy
  Li  Li0  1  0.84739124  0.82570584  0.66740159  1
  Li  Li1  1  0.81644863  0.83810885  0.16686033  1
  Li  Li2  1  0.68056673  0.66990092  0.41531592  1
  Li  Li3  1  0.66379570  0.67736689  0.91425604  1
  Li  Li4  1  0.34705297  0.32611354  0.66837828  1
  Li  Li5  1  0.31635577  0.33702174  0.16579034  1
  Li  Li6  1  0.17837083  0.16772423  0.41622904  1
  Li  Li7  1  0.16462701  0.17544677  0.91613348  1
  Mn  Mn8  1  0.67196160  0.33517379  0.38447057  1
  Fe  Fe9  1  0.81919933  0.50240484  0.13226146  1
  Fe  Fe10  1  0.84164883  0.15688483  0.63238988  1
  Fe  Fe11  1  0.66016164  0.00439784  0.88489975  1
  Fe  Fe12  1  0.33938363  0.65937493  0.63321866  1
  Fe  Fe13  1  0.31933718  0.99963364  0.13329519  1
  Fe  Fe14  1  0.17564502  0.83156707  0.38403675  1
  Fe  Fe15  1  0.16145628  0.50288171  0.88456036  1
  B  B16  1  0.83087049  0.16806065  0.12528662  1
  B  B17  1  0.83675224  0.49861581  0.62787852  1
  B  B18  1  0.66627664  0.00066437  0.37678993  1
  B  B19  1  0.67234467  0.33513649  0.87574937  1
  B  B20  1  0.32992162  0.66796851  0.12454776  1
  B  B21  1  0.33713081  0.99783478  0.62670827  1
  B  B22  1  0.16379960  0.50356117  0.37429336  1
  B  B23  1  0.17121758  0.83444395  0.87513253  1
  O  O24  1  0.90398759  0.51964867  0.34370695  1
  O  O25  1  0.91035651  0.82853384  0.86157433  1
  O  O26  1  0.82205196  0.21000801  0.84768532  1
  O  O27  1  0.80675941  0.12360440  0.41975539  1
  O  O28  1  0.78580558  0.86599960  0.36096931  1
  O  O29  1  0.78824527  0.46767179  0.91567560  1
  O  O30  1  0.72066013  0.63531045  0.61422826  1
  O  O31  1  0.70916086  0.03402652  0.09667633  1
  O  O32  1  0.69675157  0.37015700  0.59900952  1
  O  O33  1  0.68879468  0.29156353  0.16410409  1
  O  O34  1  0.59329919  0.68026109  0.11195882  1
  O  O35  1  0.59173579  0.98697162  0.66548235  1
  O  O36  1  0.40468392  0.01540989  0.34701817  1
  O  O37  1  0.40945253  0.32823464  0.86235690  1
  O  O38  1  0.32225715  0.71006685  0.84579130  1
  O  O39  1  0.30578618  0.62617796  0.41624286  1
  O  O40  1  0.27859424  0.36632773  0.36188100  1
  O  O41  1  0.28892015  0.96648035  0.91683697  1
  O  O42  1  0.21128200  0.53286723  0.09602028  1
  O  O43  1  0.22295041  0.13594079  0.61546170  1
  O  O44  1  0.19396032  0.87114095  0.59633527  1
  O  O45  1  0.18622839  0.79040877  0.16388255  1
  O  O46  1  0.09445271  0.17866000  0.11356966  1
  O  O47  1  0.09270839  0.48913520  0.66549409  1
