# generated using pymatgen
data_Rb4PbO4
_symmetry_space_group_name_H-M   'P 1'
_cell_length_a   7.01515577
_cell_length_b   19.66310935
_cell_length_c   6.99879988
_cell_angle_alpha   90.00000000
_cell_angle_beta   112.86154543
_cell_angle_gamma   90.00000000
_symmetry_Int_Tables_number   1
_chemical_formula_structural   Rb4PbO4
_chemical_formula_sum   'Rb16 Pb4 O16'
_cell_volume   889.57618679
_cell_formula_units_Z   4
loop_
 _symmetry_equiv_pos_site_id
 _symmetry_equiv_pos_as_xyz
  1  'x, y, z'
loop_
 _atom_site_type_symbol
 _atom_site_label
 _atom_site_symmetry_multiplicity
 _atom_site_fract_x
 _atom_site_fract_y
 _atom_site_fract_z
 _atom_site_occupancy
  Rb  Rb0  1  0.19320487  0.19000688  0.68115531  1
  Rb  Rb1  1  0.21944669  0.98441545  0.75491684  1
  Rb  Rb2  1  0.30173948  0.78433982  0.82175839  1
  Rb  Rb3  1  0.35915731  0.58160020  0.78752759  1
  Rb  Rb4  1  0.19320487  0.30999312  0.18115531  1
  Rb  Rb5  1  0.21944669  0.51558455  0.25491684  1
  Rb  Rb6  1  0.30173948  0.71566018  0.32175839  1
  Rb  Rb7  1  0.35915731  0.91839980  0.28752759  1
  Rb  Rb8  1  0.64084269  0.08160020  0.71247241  1
  Rb  Rb9  1  0.69826052  0.28433982  0.67824161  1
  Rb  Rb10  1  0.78055331  0.48441545  0.74508316  1
  Rb  Rb11  1  0.80679513  0.69000688  0.81884469  1
  Rb  Rb12  1  0.64084269  0.41839980  0.21247241  1
  Rb  Rb13  1  0.69826052  0.21566018  0.17824161  1
  Rb  Rb14  1  0.78055331  0.01558455  0.24508316  1
  Rb  Rb15  1  0.80679513  0.80999312  0.31884469  1
  Pb  Pb16  1  0.24745251  0.37685325  0.69044751  1
  Pb  Pb17  1  0.24745251  0.12314675  0.19044751  1
  Pb  Pb18  1  0.75254749  0.87685325  0.80955249  1
  Pb  Pb19  1  0.75254749  0.62314675  0.30955249  1
  O  O20  1  0.03039837  0.66926870  0.51375254  1
  O  O21  1  0.20718476  0.45336131  0.88402119  1
  O  O22  1  0.41753056  0.09376539  0.01027786  1
  O  O23  1  0.03039837  0.83073130  0.01375254  1
  O  O24  1  0.20718476  0.04663869  0.38402119  1
  O  O25  1  0.43926210  0.30539494  0.90806730  1
  O  O26  1  0.41753056  0.40623461  0.51027786  1
  O  O27  1  0.43926210  0.19460506  0.40806730  1
  O  O28  1  0.56073790  0.80539494  0.59193270  1
  O  O29  1  0.58246944  0.59376539  0.48972214  1
  O  O30  1  0.56073790  0.69460506  0.09193270  1
  O  O31  1  0.79281524  0.95336131  0.61597881  1
  O  O32  1  0.96960163  0.16926870  0.98624746  1
  O  O33  1  0.58246944  0.90623461  0.98972214  1
  O  O34  1  0.79281524  0.54663869  0.11597881  1
  O  O35  1  0.96960163  0.33073130  0.48624746  1
