# generated using pymatgen
data_Li6Mn5Fe(BO3)6
_symmetry_space_group_name_H-M   'P 1'
_cell_length_a   8.27779093
_cell_length_b   8.28216267
_cell_length_c   6.36525982
_cell_angle_alpha   90.00000000
_cell_angle_beta   90.00000000
_cell_angle_gamma   120.11357901
_symmetry_Int_Tables_number   1
_chemical_formula_structural   Li6Mn5Fe(BO3)6
_chemical_formula_sum   'Li6 Mn5 Fe1 B6 O18'
_cell_volume   377.49116299
_cell_formula_units_Z   1
loop_
 _symmetry_equiv_pos_site_id
 _symmetry_equiv_pos_as_xyz
  1  'x, y, z'
loop_
 _atom_site_type_symbol
 _atom_site_label
 _atom_site_symmetry_multiplicity
 _atom_site_fract_x
 _atom_site_fract_y
 _atom_site_fract_z
 _atom_site_occupancy
  Li  Li0  1  0.28391519  0.98223391  0.24982747  1
  Li  Li1  1  0.28391519  0.98223391  0.75017253  1
  Li  Li2  1  0.01734131  0.30121047  0.25040119  1
  Li  Li3  1  0.01734131  0.30121047  0.74959881  1
  Li  Li4  1  0.69886070  0.71535908  0.74964395  1
  Li  Li5  1  0.69886070  0.71535908  0.25035605  1
  Mn  Mn6  1  0.37154502  0.35949535  0.00000000  1
  Mn  Mn7  1  0.37257054  0.36062786  0.50000000  1
  Mn  Mn8  1  0.64068019  0.01191403  0.00000000  1
  Mn  Mn9  1  0.63967066  0.01210255  0.50000000  1
  Mn  Mn10  1  0.98773812  0.62857454  0.00000000  1
  Fe  Fe11  1  0.99313381  0.63350797  0.50000000  1
  B  B12  1  0.00011022  0.00030170  0.00000000  1
  B  B13  1  0.99759525  0.99753266  0.50000000  1
  B  B14  1  0.33244629  0.66657996  0.25183022  1
  B  B15  1  0.33244629  0.66657996  0.74816978  1
  B  B16  1  0.66807724  0.33451772  0.25134209  1
  B  B17  1  0.66807724  0.33451772  0.74865791  1
  O  O18  1  0.11059983  0.91596580  0.50000000  1
  O  O19  1  0.11568818  0.92256859  0.00000000  1
  O  O20  1  0.13869865  0.58054279  0.25413226  1
  O  O21  1  0.13869865  0.58054279  0.74586774  1
  O  O22  1  0.07809737  0.19385678  0.00000000  1
  O  O23  1  0.07935221  0.19110442  0.50000000  1
  O  O24  1  0.44005682  0.86000362  0.24987938  1
  O  O25  1  0.44005682  0.86000362  0.75012062  1
  O  O26  1  0.41845809  0.55930270  0.25008512  1
  O  O27  1  0.41845809  0.55930270  0.74991488  1
  O  O28  1  0.47396975  0.25184223  0.25027482  1
  O  O29  1  0.47396975  0.25184223  0.74972518  1
  O  O30  1  0.80647832  0.88452526  0.00000000  1
  O  O31  1  0.80415424  0.88414282  0.50000000  1
  O  O32  1  0.78013098  0.52792653  0.25249095  1
  O  O33  1  0.78013098  0.52792653  0.74750905  1
  O  O34  1  0.74933599  0.22237282  0.74950175  1
  O  O35  1  0.74933599  0.22237282  0.25049825  1
