# generated using pymatgen
data_Hf2N2O
_symmetry_space_group_name_H-M   'P 1'
_cell_length_a   8.70968281
_cell_length_b   8.76081295
_cell_length_c   8.72005256
_cell_angle_alpha   109.57336718
_cell_angle_beta   109.39046193
_cell_angle_gamma   109.48550353
_symmetry_Int_Tables_number   1
_chemical_formula_structural   Hf2N2O
_chemical_formula_sum   'Hf16 N16 O8'
_cell_volume   511.97858349
_cell_formula_units_Z   8
loop_
 _symmetry_equiv_pos_site_id
 _symmetry_equiv_pos_as_xyz
  1  'x, y, z'
loop_
 _atom_site_type_symbol
 _atom_site_label
 _atom_site_symmetry_multiplicity
 _atom_site_fract_x
 _atom_site_fract_y
 _atom_site_fract_z
 _atom_site_occupancy
  Hf  Hf0  1  0.49301738  0.01030819  0.00160448  1
  Hf  Hf1  1  0.97012530  0.24670706  0.22037793  1
  Hf  Hf2  1  0.78794267  0.03305048  0.74943872  1
  Hf  Hf3  1  0.71551434  0.46596947  0.25093040  1
  Hf  Hf4  1  0.74946640  0.78284413  0.04162242  1
  Hf  Hf5  1  0.75758660  0.29901442  0.53310598  1
  Hf  Hf6  1  0.01197499  0.49774546  0.99847940  1
  Hf  Hf7  1  0.50428417  0.50970345  0.51354937  1
  Hf  Hf8  1  0.53564394  0.74902036  0.29141792  1
  Hf  Hf9  1  0.01046597  0.99840638  0.49991672  1
  Hf  Hf10  1  0.45722503  0.25205435  0.72176710  1
  Hf  Hf11  1  0.25584138  0.71765098  0.46868893  1
  Hf  Hf12  1  0.23806420  0.20667597  0.95640523  1
  Hf  Hf13  1  0.21474743  0.96251815  0.24996347  1
  Hf  Hf14  1  0.28254828  0.53346500  0.74254808  1
  Hf  Hf15  1  0.04082806  0.75150477  0.78221323  1
  N  N16  1  0.00916744  0.03979081  0.26554331  1
  N  N17  1  0.74308755  0.22466983  0.27401422  1
  N  N18  1  0.76701596  0.72445032  0.25854099  1
  N  N19  1  0.76788349  0.54298148  0.53065310  1
  N  N20  1  0.22620115  0.45442929  0.46365486  1
  N  N21  1  0.27178715  0.73272776  0.21955802  1
  N  N22  1  0.51437894  0.24094378  0.96743607  1
  N  N23  1  0.53710676  0.77225929  0.54547920  1
  N  N24  1  0.22302397  0.27166786  0.73613990  1
  N  N25  1  0.27267733  0.01182110  0.04857213  1
  N  N26  1  0.54905265  0.53706099  0.77488003  1
  N  N27  1  0.24127147  0.96753564  0.51190508  1
  N  N28  1  0.04210435  0.27365449  0.01243303  1
  N  N29  1  0.26391839  0.77509188  0.72970792  1
  N  N30  1  0.03216227  0.48814152  0.76239507  1
  N  N31  1  0.98279255  0.95188297  0.72399454  1
  O  O32  1  0.96327133  0.51464235  0.23662624  1
  O  O33  1  0.95239234  0.72256888  0.99264421  1
  O  O34  1  0.75439986  0.03314468  0.48888916  1
  O  O35  1  0.45150195  0.46550249  0.22599939  1
  O  O36  1  0.72251419  0.98363453  0.94827582  1
  O  O37  1  0.46607567  0.22681834  0.45560910  1
  O  O38  1  0.72524378  0.25874475  0.76649918  1
  O  O39  1  0.49569233  0.76919635  0.03851905  1
