# generated using pymatgen
data_Li8MnFe7(BO3)8
_symmetry_space_group_name_H-M   'P 1'
_cell_length_a   5.24375627
_cell_length_b   9.04216378
_cell_length_c   10.39727226
_cell_angle_alpha   90.98763092
_cell_angle_beta   90.75127910
_cell_angle_gamma   89.65831079
_symmetry_Int_Tables_number   1
_chemical_formula_structural   Li8MnFe7(BO3)8
_chemical_formula_sum   'Li8 Mn1 Fe7 B8 O24'
_cell_volume   492.86192771
_cell_formula_units_Z   1
loop_
 _symmetry_equiv_pos_site_id
 _symmetry_equiv_pos_as_xyz
  1  'x, y, z'
loop_
 _atom_site_type_symbol
 _atom_site_label
 _atom_site_symmetry_multiplicity
 _atom_site_fract_x
 _atom_site_fract_y
 _atom_site_fract_z
 _atom_site_occupancy
  Li  Li0  1  0.85031553  0.82614694  0.66747635  1
  Li  Li1  1  0.81457722  0.83702110  0.16653256  1
  Li  Li2  1  0.67762613  0.66678142  0.41558490  1
  Li  Li3  1  0.66386631  0.67359385  0.91733915  1
  Li  Li4  1  0.35036177  0.32678029  0.66864920  1
  Li  Li5  1  0.31398663  0.34020714  0.16603730  1
  Li  Li6  1  0.17867382  0.16774470  0.41783735  1
  Li  Li7  1  0.16312196  0.17608184  0.91590533  1
  Mn  Mn8  1  0.32447397  0.00055142  0.13506699  1
  Fe  Fe9  1  0.82176328  0.49623557  0.13361774  1
  Fe  Fe10  1  0.83850959  0.15856302  0.63368477  1
  Fe  Fe11  1  0.66245767  0.33738072  0.38439134  1
  Fe  Fe12  1  0.66355326  0.00217720  0.88204175  1
  Fe  Fe13  1  0.34493287  0.65884037  0.63088896  1
  Fe  Fe14  1  0.16294785  0.83720755  0.38450961  1
  Fe  Fe15  1  0.16372464  0.50738393  0.88126007  1
  B  B16  1  0.82875828  0.17075400  0.12455623  1
  B  B17  1  0.83928504  0.49778690  0.62582330  1
  B  B18  1  0.66776929  0.00310325  0.37761805  1
  B  B19  1  0.67174754  0.33354959  0.87514853  1
  B  B20  1  0.32717939  0.66759026  0.12716260  1
  B  B21  1  0.33732085  0.99908518  0.62577511  1
  B  B22  1  0.16617204  0.50246395  0.37655403  1
  B  B23  1  0.17302224  0.83419684  0.87477977  1
  O  O24  1  0.90655339  0.51419288  0.34687516  1
  O  O25  1  0.91138661  0.82749329  0.86202006  1
  O  O26  1  0.82289123  0.20924758  0.84471672  1
  O  O27  1  0.80585989  0.12666937  0.41543789  1
  O  O28  1  0.78578736  0.86555679  0.36437247  1
  O  O29  1  0.78983031  0.46448562  0.91603755  1
  O  O30  1  0.72293817  0.63606859  0.61353566  1
  O  O31  1  0.71259621  0.03514927  0.09504687  1
  O  O32  1  0.69947525  0.37137789  0.59556181  1
  O  O33  1  0.68140928  0.29153888  0.16563366  1
  O  O34  1  0.59000968  0.67981204  0.11365211  1
  O  O35  1  0.59372348  0.98804112  0.66371288  1
  O  O36  1  0.40622717  0.01382821  0.34899315  1
  O  O37  1  0.41014887  0.32549538  0.86238051  1
  O  O38  1  0.32191015  0.70826209  0.84629325  1
  O  O39  1  0.30480586  0.62638414  0.41730901  1
  O  O40  1  0.28563059  0.36622057  0.36337422  1
  O  O41  1  0.29182881  0.96562814  0.91399753  1
  O  O42  1  0.20679932  0.53466188  0.09618355  1
  O  O43  1  0.22224917  0.13629663  0.61325535  1
  O  O44  1  0.19805474  0.87070712  0.59740827  1
  O  O45  1  0.18138021  0.78914475  0.16766600  1
  O  O46  1  0.08935682  0.18489917  0.11111596  1
  O  O47  1  0.09359924  0.48821156  0.66477636  1
