# generated using pymatgen
data_Li8MnFe7(BO3)8
_symmetry_space_group_name_H-M   'P 1'
_cell_length_a   5.22381249
_cell_length_b   9.07096539
_cell_length_c   11.47609942
_cell_angle_alpha   68.11486325
_cell_angle_beta   77.62689815
_cell_angle_gamma   90.20178377
_symmetry_Int_Tables_number   1
_chemical_formula_structural   Li8MnFe7(BO3)8
_chemical_formula_sum   'Li8 Mn1 Fe7 B8 O24'
_cell_volume   490.79442547
_cell_formula_units_Z   1
loop_
 _symmetry_equiv_pos_site_id
 _symmetry_equiv_pos_as_xyz
  1  'x, y, z'
loop_
 _atom_site_type_symbol
 _atom_site_label
 _atom_site_symmetry_multiplicity
 _atom_site_fract_x
 _atom_site_fract_y
 _atom_site_fract_z
 _atom_site_occupancy
  Li  Li0  1  0.97694852  0.96437800  0.41786406  1
  Li  Li1  1  0.70074995  0.71562855  0.91591681  1
  Li  Li2  1  0.51394191  0.49650682  0.66367698  1
  Li  Li3  1  0.73395352  0.75054080  0.16804747  1
  Li  Li4  1  0.47848183  0.46288998  0.41597144  1
  Li  Li5  1  0.20124205  0.21808663  0.91662228  1
  Li  Li6  1  0.01509201  0.99373894  0.66771157  1
  Li  Li7  1  0.23405731  0.25099305  0.16918897  1
  Mn  Mn8  1  0.01813268  0.34672153  0.63330326  1
  Fe  Fe9  1  0.99692693  0.64987229  0.37702552  1
  Fe  Fe10  1  0.72850870  0.05597172  0.88461711  1
  Fe  Fe11  1  0.51564367  0.84168713  0.63533971  1
  Fe  Fe12  1  0.75297148  0.43223310  0.13210710  1
  Fe  Fe13  1  0.49078708  0.14276497  0.38331816  1
  Fe  Fe14  1  0.22033955  0.55950160  0.88467041  1
  Fe  Fe15  1  0.25477985  0.93471592  0.13015216  1
  B  B16  1  0.98293046  0.31732338  0.37397572  1
  B  B17  1  0.72709831  0.39761194  0.87654326  1
  B  B18  1  0.76510803  0.10162626  0.12707568  1
  B  B19  1  0.52441095  0.18290245  0.62777150  1
  B  B20  1  0.48470072  0.81598603  0.37498270  1
  B  B21  1  0.23056391  0.89614184  0.87810599  1
  B  B22  1  0.26634533  0.60181842  0.12532869  1
  B  B23  1  0.01920601  0.68841889  0.62509283  1
  O  O24  1  0.97253930  0.89217117  0.86517018  1
  O  O25  1  0.88842482  0.28619222  0.84983914  1
  O  O26  1  0.82528552  0.50983902  0.91651575  1
  O  O27  1  0.91197250  0.83125839  0.61507669  1
  O  O28  1  0.89200343  0.57764115  0.59402203  1
  O  O29  1  0.75746973  0.14892945  0.66935244  1
  O  O30  1  0.73507934  0.34365943  0.34423636  1
  O  O31  1  0.47242918  0.39883234  0.85971748  1
  O  O32  1  0.39442478  0.78748791  0.84861639  1
  O  O33  1  0.60175625  0.92013424  0.41645389  1
  O  O34  1  0.60886013  0.68813624  0.35997241  1
  O  O35  1  0.32543017  0.00954078  0.91749967  1
  O  O36  1  0.66057819  0.98099791  0.09763808  1
  O  O37  1  0.42337720  0.32842315  0.61293298  1
  O  O38  1  0.39518607  0.07190256  0.59697749  1
  O  O39  1  0.60250271  0.20528083  0.16408085  1
  O  O40  1  0.53613737  0.61887841  0.11415024  1
  O  O41  1  0.25612086  0.65670779  0.66382639  1
  O  O42  1  0.23576872  0.84471186  0.34636361  1
  O  O43  1  0.09795254  0.42258964  0.41510187  1
  O  O44  1  0.11044455  0.18940593  0.36095112  1
  O  O45  1  0.16110693  0.48153281  0.09584454  1
  O  O46  1  0.10413750  0.70548620  0.16284198  1
  O  O47  1  0.03489043  0.11900235  0.11600902  1
