# generated using pymatgen
data_CdSeO4
_symmetry_space_group_name_H-M   'P 1'
_cell_length_a   5.23560863
_cell_length_b   9.64281456
_cell_length_c   7.44616895
_cell_angle_alpha   90.00000000
_cell_angle_beta   90.00000000
_cell_angle_gamma   90.00000000
_symmetry_Int_Tables_number   1
_chemical_formula_structural   CdSeO4
_chemical_formula_sum   'Cd4 Se4 O16'
_cell_volume   375.92730890
_cell_formula_units_Z   4
loop_
 _symmetry_equiv_pos_site_id
 _symmetry_equiv_pos_as_xyz
  1  'x, y, z'
loop_
 _atom_site_type_symbol
 _atom_site_label
 _atom_site_symmetry_multiplicity
 _atom_site_fract_x
 _atom_site_fract_y
 _atom_site_fract_z
 _atom_site_occupancy
  Cd  Cd0  1  0.00000000  0.00000000  0.00000000  1
  Cd  Cd1  1  0.00000000  0.00000000  0.50000000  1
  Cd  Cd2  1  0.50000000  0.50000000  0.00000000  1
  Cd  Cd3  1  0.50000000  0.50000000  0.50000000  1
  Se  Se4  1  0.02345504  0.68221804  0.25000000  1
  Se  Se5  1  0.47654496  0.18221804  0.25000000  1
  Se  Se6  1  0.52345504  0.81778196  0.75000000  1
  Se  Se7  1  0.97654496  0.31778196  0.75000000  1
  O  O8  1  0.04832323  0.85818389  0.25000000  1
  O  O9  1  0.15945002  0.63056636  0.05971673  1
  O  O10  1  0.15945002  0.63056636  0.44028327  1
  O  O11  1  0.21717106  0.87161302  0.75000000  1
  O  O12  1  0.28282894  0.37161302  0.75000000  1
  O  O13  1  0.34054998  0.13056636  0.05971673  1
  O  O14  1  0.34054998  0.13056636  0.44028327  1
  O  O15  1  0.45167677  0.35818389  0.25000000  1
  O  O16  1  0.54832323  0.64181611  0.75000000  1
  O  O17  1  0.65945002  0.86943364  0.55971673  1
  O  O18  1  0.65945002  0.86943364  0.94028327  1
  O  O19  1  0.71717106  0.62838698  0.25000000  1
  O  O20  1  0.78282894  0.12838698  0.25000000  1
  O  O21  1  0.84054998  0.36943364  0.55971673  1
  O  O22  1  0.84054998  0.36943364  0.94028327  1
  O  O23  1  0.95167677  0.14181611  0.75000000  1
