# generated using pymatgen
data_Li8MnFe7(BO3)8
_symmetry_space_group_name_H-M   'P 1'
_cell_length_a   5.23120393
_cell_length_b   5.21893106
_cell_length_c   20.80410692
_cell_angle_alpha   89.14278539
_cell_angle_beta   90.87850878
_cell_angle_gamma   60.03055070
_symmetry_Int_Tables_number   1
_chemical_formula_structural   Li8MnFe7(BO3)8
_chemical_formula_sum   'Li8 Mn1 Fe7 B8 O24'
_cell_volume   491.80999294
_cell_formula_units_Z   1
loop_
 _symmetry_equiv_pos_site_id
 _symmetry_equiv_pos_as_xyz
  1  'x, y, z'
loop_
 _atom_site_type_symbol
 _atom_site_label
 _atom_site_symmetry_multiplicity
 _atom_site_fract_x
 _atom_site_fract_y
 _atom_site_fract_z
 _atom_site_occupancy
  Li  Li0  1  0.32703714  0.65342417  0.66674170  1
  Li  Li1  1  0.34593361  0.67262841  0.91637321  1
  Li  Li2  1  0.32984287  0.65407713  0.16508000  1
  Li  Li3  1  0.34440257  0.67789544  0.41760479  1
  Li  Li4  1  0.64472716  0.34146567  0.79208840  1
  Li  Li5  1  0.65565089  0.35657227  0.54183711  1
  Li  Li6  1  0.65488071  0.33020867  0.29171376  1
  Li  Li7  1  0.66031802  0.35174554  0.04141141  1
  Mn  Mn8  1  0.67374780  0.99987600  0.43249558  1
  Fe  Fe9  1  0.32813146  0.01885840  0.56076822  1
  Fe  Fe10  1  0.32771661  0.02076050  0.05969390  1
  Fe  Fe11  1  0.68123933  0.99710478  0.93386043  1
  Fe  Fe12  1  0.99821741  0.32010066  0.68466209  1
  Fe  Fe13  1  0.99788080  0.32233901  0.18425877  1
  Fe  Fe14  1  0.98824573  0.66559895  0.80888942  1
  Fe  Fe15  1  0.00351519  0.66637745  0.30748399  1
  B  B16  1  0.00434607  0.33129878  0.93675090  1
  B  B17  1  0.00259642  0.33768426  0.43688620  1
  B  B18  1  0.32861539  0.00537900  0.81219573  1
  B  B19  1  0.33098038  0.00077603  0.31024195  1
  B  B20  1  0.66763533  0.99443581  0.68744589  1
  B  B21  1  0.66880266  0.99471869  0.18639021  1
  B  B22  1  0.99134962  0.67282998  0.56325160  1
  B  B23  1  0.99703510  0.67169850  0.06174703  1
  O  O24  1  0.06461674  0.25621916  0.79176176  1
  O  O25  1  0.06619271  0.24990218  0.29075374  1
  O  O26  1  0.25939022  0.06332442  0.95175128  1
  O  O27  1  0.02282306  0.57828964  0.91761443  1
  O  O28  1  0.25294604  0.06590610  0.45278283  1
  O  O29  1  0.03258073  0.57601041  0.41572238  1
  O  O30  1  0.57749431  0.03154454  0.82646167  1
  O  O31  1  0.26149579  0.65754634  0.57005814  1
  O  O32  1  0.58048194  0.02350758  0.32469598  1
  O  O33  1  0.26698752  0.65508426  0.06861842  1
  O  O34  1  0.34198867  0.73613560  0.81952061  1
  O  O35  1  0.34993911  0.72719450  0.31745549  1
  O  O36  1  0.64473747  0.27041928  0.69304069  1
  O  O37  1  0.64607612  0.27016130  0.19207230  1
  O  O38  1  0.72887180  0.35413677  0.94262263  1
  O  O39  1  0.42124899  0.97515045  0.66877422  1
  O  O40  1  0.72575719  0.36841267  0.44357163  1
  O  O41  1  0.42321335  0.97484341  0.16759458  1
  O  O42  1  0.96589638  0.42232184  0.57793762  1
  O  O43  1  0.97083221  0.42107655  0.07663317  1
  O  O44  1  0.74069369  0.93439850  0.54253545  1
  O  O45  1  0.74506878  0.93212180  0.04137665  1
  O  O46  1  0.93740899  0.73995167  0.70192580  1
  O  O47  1  0.93921092  0.73968691  0.20104821  1
