# generated using pymatgen
data_Li6Mn5Fe(BO3)6
_symmetry_space_group_name_H-M   'P 1'
_cell_length_a   8.27575387
_cell_length_b   8.85441184
_cell_length_c   6.36828763
_cell_angle_alpha   68.92368892
_cell_angle_beta   90.00000000
_cell_angle_gamma   62.23912496
_symmetry_Int_Tables_number   1
_chemical_formula_structural   Li6Mn5Fe(BO3)6
_chemical_formula_sum   'Li6 Mn5 Fe1 B6 O18'
_cell_volume   377.30105722
_cell_formula_units_Z   1
loop_
 _symmetry_equiv_pos_site_id
 _symmetry_equiv_pos_as_xyz
  1  'x, y, z'
loop_
 _atom_site_type_symbol
 _atom_site_label
 _atom_site_symmetry_multiplicity
 _atom_site_fract_x
 _atom_site_fract_y
 _atom_site_fract_z
 _atom_site_occupancy
  Li  Li0  1  0.71627655  0.98246445  0.75837815  1
  Li  Li1  1  0.71627655  0.98246445  0.25915739  1
  Li  Li2  1  0.98324383  0.30106875  0.59883761  1
  Li  Li3  1  0.98324383  0.30106875  0.10009364  1
  Li  Li4  1  0.30162998  0.71649798  0.89118323  1
  Li  Li5  1  0.30162998  0.71649798  0.39231879  1
  Mn  Mn6  1  0.62891028  0.35890320  0.82054840  1
  Mn  Mn7  1  0.62841350  0.35987203  0.32006449  1
  Mn  Mn8  1  0.35880419  0.01209672  0.99395114  1
  Mn  Mn9  1  0.01197815  0.62855660  0.18572170  1
  Mn  Mn10  1  0.01176616  0.62836002  0.68581949  1
  Fe  Fe11  1  0.36000444  0.00829243  0.49585328  1
  B  B12  1  0.66571186  0.66747475  0.41828460  1
  B  B13  1  0.66571186  0.66747475  0.91424065  1
  B  B14  1  0.33352574  0.33195481  0.58288393  1
  B  B15  1  0.33352574  0.33195481  0.08516126  1
  B  B16  1  0.99980717  0.99996383  0.00001758  1
  B  B17  1  0.00047417  0.00188662  0.49905669  1
  O  O18  1  0.88771062  0.92102408  0.53948796  1
  O  O19  1  0.88423201  0.92190987  0.03904506  1
  O  O20  1  0.85904322  0.58173550  0.95889961  1
  O  O21  1  0.85904322  0.58173550  0.45936389  1
  O  O22  1  0.92204587  0.19361274  0.90319363  1
  O  O23  1  0.92069397  0.19525129  0.40237486  1
  O  O24  1  0.55774920  0.86135322  0.32349563  1
  O  O25  1  0.55774920  0.86135322  0.81515015  1
  O  O26  1  0.58015818  0.55953899  0.97008697  1
  O  O27  1  0.58015818  0.55953899  0.47037504  1
  O  O28  1  0.52706075  0.25041399  0.62441092  1
  O  O29  1  0.52706075  0.25041399  0.12517409  1
  O  O30  1  0.19487885  0.88924961  0.55537569  1
  O  O31  1  0.19318621  0.88421114  0.05789443  1
  O  O32  1  0.22212220  0.52606877  0.48745830  1
  O  O33  1  0.22212220  0.52606877  0.98647292  1
  O  O34  1  0.25202521  0.21983219  0.63751610  1
  O  O35  1  0.25202521  0.21983219  0.14265171  1
