# generated using pymatgen
data_VOF2
_symmetry_space_group_name_H-M   'P 1'
_cell_length_a   5.22295602
_cell_length_b   13.37940260
_cell_length_c   5.22332345
_cell_angle_alpha   89.43109380
_cell_angle_beta   119.74674427
_cell_angle_gamma   90.65879291
_symmetry_Int_Tables_number   1
_chemical_formula_structural   VOF2
_chemical_formula_sum   'V6 O6 F12'
_cell_volume   316.88337356
_cell_formula_units_Z   6
loop_
 _symmetry_equiv_pos_site_id
 _symmetry_equiv_pos_as_xyz
  1  'x, y, z'
loop_
 _atom_site_type_symbol
 _atom_site_label
 _atom_site_symmetry_multiplicity
 _atom_site_fract_x
 _atom_site_fract_y
 _atom_site_fract_z
 _atom_site_occupancy
  V  V0  1  0.99229086  0.49257930  0.03004577  1
  V  V1  1  0.02977431  0.99349165  0.00927167  1
  V  V2  1  0.63498942  0.82628779  0.30384173  1
  V  V3  1  0.30610706  0.66048672  0.68333752  1
  V  V4  1  0.64814243  0.32548670  0.34436627  1
  V  V5  1  0.33675914  0.15932710  0.68422602  1
  O  O6  1  0.42544311  0.75295046  0.00934130  1
  O  O7  1  0.32121140  0.92084168  0.22918677  1
  O  O8  1  0.09602015  0.58580436  0.76202178  1
  O  O9  1  0.43569544  0.25000075  0.42207727  1
  O  O10  1  0.91333405  0.41831018  0.24164077  1
  O  O11  1  0.24719314  0.08589982  0.89424276  1
  F  F12  1  0.00676481  0.75438277  0.41266803  1
  F  F13  1  0.33216999  0.41571268  0.07149811  1
  F  F14  1  0.07004477  0.08780080  0.31621605  1
  F  F15  1  0.26375561  0.58493651  0.33813435  1
  F  F16  1  0.60951158  0.24844313  0.00784254  1
  F  F17  1  0.02134365  0.25788289  0.60190538  1
  F  F18  1  0.73806633  0.92007393  0.07205497  1
  F  F19  1  0.58188189  0.74967895  0.59234108  1
  F  F20  1  0.73485100  0.42363797  0.65580910  1
  F  F21  1  0.67170239  0.08037006  0.73787643  1
  F  F22  1  0.90322183  0.91591569  0.64742530  1
  F  F23  1  0.67972563  0.58969613  0.93263003  1
