# generated using pymatgen
data_Hf2N2O
_symmetry_space_group_name_H-M   'P 1'
_cell_length_a   8.72499962
_cell_length_b   8.76201269
_cell_length_c   8.70553778
_cell_angle_alpha   109.44249278
_cell_angle_beta   109.39098654
_cell_angle_gamma   109.59564956
_symmetry_Int_Tables_number   1
_chemical_formula_structural   Hf2N2O
_chemical_formula_sum   'Hf16 N16 O8'
_cell_volume   512.22285920
_cell_formula_units_Z   8
loop_
 _symmetry_equiv_pos_site_id
 _symmetry_equiv_pos_as_xyz
  1  'x, y, z'
loop_
 _atom_site_type_symbol
 _atom_site_label
 _atom_site_symmetry_multiplicity
 _atom_site_fract_x
 _atom_site_fract_y
 _atom_site_fract_z
 _atom_site_occupancy
  Hf  Hf0  1  0.49883078  0.99626107  0.98633160  1
  Hf  Hf1  1  0.75714674  0.28894822  0.54090491  1
  Hf  Hf2  1  0.71962029  0.47329064  0.24934742  1
  Hf  Hf3  1  0.21540737  0.95795343  0.25367698  1
  Hf  Hf4  1  0.24948064  0.21252006  0.95800191  1
  Hf  Hf5  1  0.96398546  0.25729225  0.21420013  1
  Hf  Hf6  1  0.50317684  0.50842511  0.51086771  1
  Hf  Hf7  1  0.99877691  0.99696309  0.50544000  1
  Hf  Hf8  1  0.02723265  0.74032267  0.77500787  1
  Hf  Hf9  1  0.45585393  0.24893392  0.72003212  1
  Hf  Hf10  1  0.00762580  0.51722745  0.00529613  1
  Hf  Hf11  1  0.54146187  0.75791031  0.29377970  1
  Hf  Hf12  1  0.75030018  0.78265181  0.03080432  1
  Hf  Hf13  1  0.78177673  0.02662586  0.74399900  1
  Hf  Hf14  1  0.28107238  0.53101085  0.74234406  1
  Hf  Hf15  1  0.24890363  0.71307982  0.46444469  1
  N  N16  1  0.72902294  0.99287261  0.95887570  1
  N  N17  1  0.75967203  0.03596183  0.48678340  1
  N  N18  1  0.51058866  0.23580562  0.96753738  1
  N  N19  1  0.76781587  0.72608515  0.25722523  1
  N  N20  1  0.76893692  0.53994986  0.52645975  1
  N  N21  1  0.23758722  0.96714708  0.50909179  1
  N  N22  1  0.96293481  0.50503335  0.23403480  1
  N  N23  1  0.22512601  0.44625584  0.46162650  1
  N  N24  1  0.53643953  0.76892691  0.54443812  1
  N  N25  1  0.54643607  0.53442222  0.77349632  1
  N  N26  1  0.22611079  0.27259666  0.74210089  1
  N  N27  1  0.95989476  0.73333769  0.99336860  1
  N  N28  1  0.27479564  0.73896519  0.22311282  1
  N  N29  1  0.99030735  0.95747182  0.73375833  1
  N  N30  1  0.03080118  0.48293694  0.75998088  1
  N  N31  1  0.26319784  0.77476917  0.73079906  1
  O  O32  1  0.74011360  0.22367085  0.27513645  1
  O  O33  1  0.28323161  0.01896939  0.05750876  1
  O  O34  1  0.46686950  0.22551222  0.45411106  1
  O  O35  1  0.44505212  0.46091471  0.22321161  1
  O  O36  1  0.04782418  0.27551697  0.01271911  1
  O  O37  1  0.48807248  0.76468698  0.03511432  1
  O  O38  1  0.01290723  0.04786820  0.27381310  1
  O  O39  1  0.72561145  0.26090618  0.77121849  1
