# generated using pymatgen
data_Li6Mn5Fe(BO3)6
_symmetry_space_group_name_H-M   'P 1'
_cell_length_a   8.28061964
_cell_length_b   8.27603271
_cell_length_c   12.72996876
_cell_angle_alpha   90.06702626
_cell_angle_beta   90.10156024
_cell_angle_gamma   120.04178820
_symmetry_Int_Tables_number   1
_chemical_formula_structural   Li6Mn5Fe(BO3)6
_chemical_formula_sum   'Li12 Mn10 Fe2 B12 O36'
_cell_volume   755.19319272
_cell_formula_units_Z   2
loop_
 _symmetry_equiv_pos_site_id
 _symmetry_equiv_pos_as_xyz
  1  'x, y, z'
loop_
 _atom_site_type_symbol
 _atom_site_label
 _atom_site_symmetry_multiplicity
 _atom_site_fract_x
 _atom_site_fract_y
 _atom_site_fract_z
 _atom_site_occupancy
  Li  Li0  1  0.28390730  0.98250351  0.12502589  1
  Li  Li1  1  0.28407839  0.98239862  0.87510791  1
  Li  Li2  1  0.28391006  0.98229458  0.62475957  1
  Li  Li3  1  0.28377103  0.98232408  0.37519480  1
  Li  Li4  1  0.01716005  0.30122280  0.12499969  1
  Li  Li5  1  0.01665832  0.30135300  0.37517071  1
  Li  Li6  1  0.01682850  0.30162214  0.62510157  1
  Li  Li7  1  0.01719404  0.30084855  0.87483930  1
  Li  Li8  1  0.69832990  0.71592130  0.37482056  1
  Li  Li9  1  0.69812632  0.71527112  0.62511868  1
  Li  Li10  1  0.69878758  0.71611868  0.12496787  1
  Li  Li11  1  0.69861625  0.71541444  0.87482350  1
  Mn  Mn12  1  0.37109865  0.35928238  0.00001993  1
  Mn  Mn13  1  0.37215425  0.36012236  0.49991148  1
  Mn  Mn14  1  0.37119830  0.35930698  0.24996293  1
  Mn  Mn15  1  0.37217444  0.36021286  0.74981943  1
  Mn  Mn16  1  0.64045080  0.01156523  0.99995764  1
  Mn  Mn17  1  0.64080666  0.01188502  0.25133559  1
  Mn  Mn18  1  0.64014747  0.01202972  0.74865923  1
  Mn  Mn19  1  0.98795062  0.62753519  0.50119644  1
  Mn  Mn20  1  0.98785510  0.62888493  0.99878015  1
  Mn  Mn21  1  0.98829321  0.62876209  0.24995279  1
  Fe  Fe22  1  0.64057566  0.00710578  0.50020221  1
  Fe  Fe23  1  0.99196861  0.63203113  0.75100565  1
  B  B24  1  0.00004706  0.00014904  0.99987515  1
  B  B25  1  0.00012025  0.99994270  0.25003402  1
  B  B26  1  -0.00009612  0.00241633  0.50007071  1
  B  B27  1  0.99818376  0.99767650  0.74991627  1
  B  B28  1  0.33238480  0.66672192  0.87373130  1
  B  B29  1  0.33326709  0.66672088  0.12496374  1
  B  B30  1  0.33406886  0.66733703  0.37617469  1
  B  B31  1  0.33341979  0.66773275  0.62493036  1
  B  B32  1  0.66681312  0.33335976  0.12498639  1
  B  B33  1  0.66650852  0.33206247  0.37584729  1
  B  B34  1  0.66806680  0.33340208  0.62518968  1
  B  B35  1  0.66793971  0.33415963  0.87419374  1
  O  O36  1  0.11528867  0.92167473  0.25001004  1
  O  O37  1  0.11526777  0.92195621  0.99977319  1
  O  O38  1  0.11145886  0.92059855  0.50003359  1
  O  O39  1  0.11163503  0.91701905  0.74914161  1
  O  O40  1  0.13850320  0.58071532  0.87213114  1
  O  O41  1  0.13981056  0.58061421  0.12451496  1
  O  O42  1  0.14066710  0.58167985  0.37554881  1
  O  O43  1  0.14024130  0.58260669  0.62735036  1
  O  O44  1  0.07838402  0.19373725  0.99990460  1
  O  O45  1  0.07992244  0.19574658  0.50008055  1
  O  O46  1  0.07952056  0.19131214  0.74990064  1
  O  O47  1  0.07839096  0.19350491  0.25007557  1
  O  O48  1  0.44006724  0.86002632  0.87444390  1
  O  O49  1  0.44164347  0.86123033  0.62234527  1
  O  O50  1  0.44077247  0.86022599  0.12534270  1
  O  O51  1  0.44200139  0.86092813  0.37743363  1
  O  O52  1  0.41787326  0.55900392  0.87503890  1
  O  O53  1  0.41930953  0.55937729  0.12500478  1
  O  O54  1  0.41858582  0.55959835  0.62522207  1
  O  O55  1  0.41964660  0.55964090  0.37500773  1
  O  O56  1  0.47318771  0.25107425  0.12501571  1
  O  O57  1  0.47424386  0.25217041  0.62479987  1
  O  O58  1  0.47291061  0.25078152  0.37531373  1
  O  O59  1  0.47420213  0.25219220  0.87489261  1
  O  O60  1  0.80656723  0.88485886  0.99994175  1
  O  O61  1  0.80663512  0.88470777  0.25015749  1
  O  O62  1  0.80536657  0.88940156  0.50012776  1
  O  O63  1  0.80478378  0.88411556  0.74998162  1
  O  O64  1  0.77815384  0.52707682  0.12476887  1
  O  O65  1  0.77818846  0.52603299  0.37518742  1
  O  O66  1  0.78037699  0.52733675  0.62673127  1
  O  O67  1  0.78019143  0.52763597  0.87353447  1
  O  O68  1  0.74757413  0.21988698  0.37669246  1
  O  O69  1  0.74886414  0.22191490  0.12519848  1
  O  O70  1  0.74797772  0.22013710  0.62404716  1
  O  O71  1  0.74902486  0.22178506  0.87465945  1
