# generated using pymatgen
data_V4OF11
_symmetry_space_group_name_H-M   'P 1'
_cell_length_a   5.29878433
_cell_length_b   5.46664776
_cell_length_c   17.47077646
_cell_angle_alpha   91.79078206
_cell_angle_beta   98.71763258
_cell_angle_gamma   61.06002502
_symmetry_Int_Tables_number   1
_chemical_formula_structural   V4OF11
_chemical_formula_sum   'V8 O2 F22'
_cell_volume   437.23955621
_cell_formula_units_Z   2
loop_
 _symmetry_equiv_pos_site_id
 _symmetry_equiv_pos_as_xyz
  1  'x, y, z'
loop_
 _atom_site_type_symbol
 _atom_site_label
 _atom_site_symmetry_multiplicity
 _atom_site_fract_x
 _atom_site_fract_y
 _atom_site_fract_z
 _atom_site_occupancy
  V  V0  1  0.75657624  0.62054357  0.12422705  1
  V  V1  1  0.75096380  0.12122939  0.62442954  1
  V  V2  1  0.50425712  0.25243351  0.25156347  1
  V  V3  1  0.49792141  0.75254066  0.75040682  1
  V  V4  1  0.27096207  0.84633517  0.37010281  1
  V  V5  1  0.24570757  0.38292743  0.87662303  1
  V  V6  1  0.99765345  0.02758940  0.00536138  1
  V  V7  1  0.00388701  0.48977513  0.49832380  1
  O  O8  1  0.95380214  0.30307465  0.05895388  1
  O  O9  1  0.44987164  0.57086760  0.31615488  1
  F  F10  1  0.93158804  0.83305065  0.08736397  1
  F  F11  1  0.98219557  0.80365523  0.56280735  1
  F  F12  1  0.53674587  0.93793010  0.18835697  1
  F  F13  1  0.93221380  0.03933675  0.28820922  1
  F  F14  1  0.92821778  0.33334491  0.58624073  1
  F  F15  1  0.92523458  0.54075613  0.78888968  1
  F  F16  1  0.42223609  0.79547833  0.03840551  1
  F  F17  1  0.57383705  0.41798810  0.16415809  1
  F  F18  1  0.57368300  0.90921649  0.66228071  1
  F  F19  1  0.57444299  0.71165906  0.46206521  1
  F  F20  1  0.52057492  0.43760217  0.68662511  1
  F  F21  1  0.43319208  0.07656053  0.33777517  1
  F  F22  1  0.42961949  0.28020492  0.53594492  1
  F  F23  1  0.42528123  0.59169371  0.83818192  1
  F  F24  1  0.57510038  0.20542374  0.96236958  1
  F  F25  1  0.07082226  0.66615309  0.41247907  1
  F  F26  1  0.07701437  0.45542875  0.21139278  1
  F  F27  1  0.07096504  0.96519514  0.71275506  1
  F  F28  1  0.47272591  0.06947161  0.81267535  1
  F  F29  1  0.02827146  0.69946366  0.94111904  1
  F  F30  1  0.03766383  0.17193625  0.43405578  1
  F  F31  1  0.07403281  0.16101417  0.91320412  1
