# generated using pymatgen
data_Li8MnFe7(BO3)8
_symmetry_space_group_name_H-M   'P 1'
_cell_length_a   5.22889336
_cell_length_b   9.05516053
_cell_length_c   11.51277215
_cell_angle_alpha   67.84653562
_cell_angle_beta   77.46394540
_cell_angle_gamma   89.78292161
_symmetry_Int_Tables_number   1
_chemical_formula_structural   Li8MnFe7(BO3)8
_chemical_formula_sum   'Li8 Mn1 Fe7 B8 O24'
_cell_volume   490.99372046
_cell_formula_units_Z   1
loop_
 _symmetry_equiv_pos_site_id
 _symmetry_equiv_pos_as_xyz
  1  'x, y, z'
loop_
 _atom_site_type_symbol
 _atom_site_label
 _atom_site_symmetry_multiplicity
 _atom_site_fract_x
 _atom_site_fract_y
 _atom_site_fract_z
 _atom_site_occupancy
  Li  Li0  1  0.97009579  0.95806317  0.41657469  1
  Li  Li1  1  0.70694578  0.71694000  0.91568906  1
  Li  Li2  1  0.51634176  0.49334126  0.66679954  1
  Li  Li3  1  0.73076140  0.75704312  0.16606675  1
  Li  Li4  1  0.47186038  0.45944330  0.41648311  1
  Li  Li5  1  0.20506742  0.21475752  0.91659525  1
  Li  Li6  1  0.01239198  0.99185720  0.66874224  1
  Li  Li7  1  0.23153701  0.25399466  0.16624850  1
  Mn  Mn8  1  0.75899655  0.43354105  0.13188225  1
  Fe  Fe9  1  0.96941453  0.64272931  0.38493146  1
  Fe  Fe10  1  0.72136000  0.06725818  0.88228822  1
  Fe  Fe11  1  0.52922437  0.84914311  0.62996105  1
  Fe  Fe12  1  0.47057348  0.14420273  0.38348024  1
  Fe  Fe13  1  0.23429198  0.56731220  0.87872096  1
  Fe  Fe14  1  0.25264461  0.92982458  0.13438441  1
  Fe  Fe15  1  0.02865761  0.34415226  0.63193312  1
  B  B16  1  0.97783107  0.31389835  0.37783134  1
  B  B17  1  0.73365594  0.39604316  0.87504070  1
  B  B18  1  0.76354542  0.10435010  0.12754078  1
  B  B19  1  0.52555522  0.18517944  0.62638644  1
  B  B20  1  0.47767644  0.81474955  0.37689822  1
  B  B21  1  0.23137141  0.89630945  0.87557746  1
  B  B22  1  0.26794585  0.60850080  0.12499431  1
  B  B23  1  0.02651955  0.68359456  0.62644909  1
  O  O24  1  0.97618271  0.89529759  0.86214496  1
  O  O25  1  0.89831745  0.28525649  0.84555995  1
  O  O26  1  0.83308672  0.50661290  0.91466040  1
  O  O27  1  0.91635786  0.82712667  0.61435149  1
  O  O28  1  0.89840493  0.57193031  0.59619951  1
  O  O29  1  0.76181524  0.15631098  0.66422043  1
  O  O30  1  0.73128026  0.33928609  0.34905432  1
  O  O31  1  0.47603685  0.39318014  0.86290159  1
  O  O32  1  0.39751556  0.78661171  0.84543202  1
  O  O33  1  0.59769468  0.91819011  0.41734394  1
  O  O34  1  0.60383880  0.68492360  0.36352778  1
  O  O35  1  0.33148428  0.00613320  0.91621526  1
  O  O36  1  0.65864777  0.98644611  0.09638715  1
  O  O37  1  0.41570673  0.32870896  0.61377488  1
  O  O38  1  0.39717606  0.07224528  0.59746024  1
  O  O39  1  0.59703284  0.20484496  0.16840970  1
  O  O40  1  0.53579719  0.62955700  0.11125459  1
  O  O41  1  0.26275077  0.65442644  0.66471484  1
  O  O42  1  0.23229033  0.84090866  0.34681565  1
  O  O43  1  0.09868782  0.41903761  0.41610714  1
  O  O44  1  0.10312480  0.18357207  0.36482468  1
  O  O45  1  0.16608235  0.48814652  0.09521125  1
  O  O46  1  0.09916658  0.70867355  0.16589862  1
  O  O47  1  0.03405390  0.12314100  0.11363045  1
