# generated using pymatgen
data_CrP2O7
_symmetry_space_group_name_H-M   'P 1'
_cell_length_a   9.09879537
_cell_length_b   8.32528798
_cell_length_c   6.79353688
_cell_angle_alpha   90.00000000
_cell_angle_beta   104.14758057
_cell_angle_gamma   90.00000000
_symmetry_Int_Tables_number   1
_chemical_formula_structural   CrP2O7
_chemical_formula_sum   'Cr4 P8 O28'
_cell_volume   499.00256713
_cell_formula_units_Z   4
loop_
 _symmetry_equiv_pos_site_id
 _symmetry_equiv_pos_as_xyz
  1  'x, y, z'
loop_
 _atom_site_type_symbol
 _atom_site_label
 _atom_site_symmetry_multiplicity
 _atom_site_fract_x
 _atom_site_fract_y
 _atom_site_fract_z
 _atom_site_occupancy
  Cr  Cr0  1  0.75000446  0.06389004  0.25040896  1
  Cr  Cr1  1  0.24999554  0.93610996  0.74959104  1
  Cr  Cr2  1  0.24999554  0.56389004  0.74959104  1
  Cr  Cr3  1  0.75000446  0.43610996  0.25040896  1
  P  P4  1  0.52567698  0.75000000  0.08488538  1
  P  P5  1  0.94453516  0.25000000  -0.00027835  1
  P  P6  1  0.97330736  0.75000000  0.41521575  1
  P  P7  1  0.47432302  0.25000000  0.91511462  1
  P  P8  1  0.44327707  0.75000000  0.49776494  1
  P  P9  1  0.55672293  0.25000000  0.50223506  1
  P  P10  1  0.05546484  0.75000000  0.00027835  1
  P  P11  1  0.02669264  0.25000000  0.58478425  1
  O  O12  1  0.89411245  0.75000000  0.87069443  1
  O  O13  1  0.05996353  0.75000000  0.23636100  1
  O  O14  1  0.61136493  0.25000000  0.10853340  1
  O  O15  1  0.35958367  0.90507219  0.53217919  1
  O  O16  1  0.86021022  0.09499958  0.03312612  1
  O  O17  1  0.35958367  0.59492781  0.53217919  1
  O  O18  1  0.64041633  0.09492781  0.46782081  1
  O  O19  1  0.88235210  0.90246648  0.40941768  1
  O  O20  1  0.60550772  0.75000000  0.62484615  1
  O  O21  1  0.13978978  0.59499958  0.96687388  1
  O  O22  1  0.39449228  0.25000000  0.37515385  1
  O  O23  1  0.88848339  0.25000000  0.39284662  1
  O  O24  1  0.56366948  0.25000000  0.73905576  1
  O  O25  1  0.11151661  0.75000000  0.60715338  1
  O  O26  1  0.38307008  0.40242127  0.90763225  1
  O  O27  1  0.38863507  0.75000000  0.89146660  1
  O  O28  1  0.94003647  0.25000000  0.76363900  1
  O  O29  1  0.10588755  0.25000000  0.12930557  1
  O  O30  1  0.43633052  0.75000000  0.26094424  1
  O  O31  1  0.61692992  0.59757873  0.09236775  1
  O  O32  1  0.38307008  0.09757873  0.90763225  1
  O  O33  1  0.61692992  0.90242127  0.09236775  1
  O  O34  1  0.64041633  0.40507219  0.46782081  1
  O  O35  1  0.11764790  0.09753352  0.59058232  1
  O  O36  1  0.86021022  0.40500042  0.03312612  1
  O  O37  1  0.13978978  0.90500042  0.96687388  1
  O  O38  1  0.11764790  0.40246648  0.59058232  1
  O  O39  1  0.88235210  0.59753352  0.40941768  1
