# generated using pymatgen
data_K2TeH6SeO10
_symmetry_space_group_name_H-M   'P 1'
_cell_length_a   6.70553097
_cell_length_b   6.70553097
_cell_length_c   13.99733206
_cell_angle_alpha   75.63564421
_cell_angle_beta   104.36435579
_cell_angle_gamma   121.76614791
_symmetry_Int_Tables_number   1
_chemical_formula_structural   K2TeH6SeO10
_chemical_formula_sum   'K4 Te2 H12 Se2 O20'
_cell_volume   513.07078402
_cell_formula_units_Z   2
loop_
 _symmetry_equiv_pos_site_id
 _symmetry_equiv_pos_as_xyz
  1  'x, y, z'
loop_
 _atom_site_type_symbol
 _atom_site_label
 _atom_site_symmetry_multiplicity
 _atom_site_fract_x
 _atom_site_fract_y
 _atom_site_fract_z
 _atom_site_occupancy
  K  K0  1  0.75662254  0.63327648  0.38344439  1
  K  K1  1  0.36672352  0.24337746  0.88344439  1
  K  K2  1  0.47577924  0.95027445  0.59803156  1
  K  K3  1  0.04972555  0.52422076  0.09803156  1
  Te  Te4  1  0.91462307  0.58800927  0.73796571  1
  Te  Te5  1  0.41199073  0.08537693  0.23796571  1
  H  H6  1  0.29572110  0.68488053  0.84367051  1
  H  H7  1  0.31511947  0.70427890  0.34367051  1
  H  H8  1  0.87647718  0.72426571  0.87607281  1
  H  H9  1  0.27573429  0.12352282  0.37607281  1
  H  H10  1  0.02681355  0.01501945  0.67183966  1
  H  H11  1  0.98498055  0.97318645  0.17183966  1
  H  H12  1  0.79782332  0.16329931  0.80721532  1
  H  H13  1  0.83670069  0.20217668  0.30721532  1
  H  H14  1  0.95733012  0.45393528  0.59895742  1
  H  H15  1  0.54606472  0.04266988  0.09895742  1
  H  H16  1  0.53462765  0.49472537  0.62954717  1
  H  H17  1  0.50527463  0.46537235  0.12954717  1
  Se  Se18  1  0.12985868  0.30456774  0.48754641  1
  Se  Se19  1  0.69543226  0.87014132  0.98754641  1
  O  O20  1  0.20897814  0.57879339  0.78970575  1
  O  O21  1  0.42120661  0.79102186  0.28970575  1
  O  O22  1  0.86920072  0.57345740  0.87353896  1
  O  O23  1  0.42654260  0.13079928  0.37353896  1
  O  O24  1  0.09527282  0.93344044  0.72831116  1
  O  O25  1  0.06655956  0.90472718  0.22831116  1
  O  O26  1  0.72701455  0.24228096  0.75059041  1
  O  O27  1  0.75771904  0.27298545  0.25059041  1
  O  O28  1  0.95898638  0.60163356  0.60261009  1
  O  O29  1  0.39836644  0.04101362  0.10261009  1
  O  O30  1  0.62287008  0.59985498  0.68380961  1
  O  O31  1  0.40014502  0.37712992  0.18380961  1
  O  O32  1  0.39806617  0.33804774  0.53569301  1
  O  O33  1  0.66195226  0.60193383  0.03569301  1
  O  O34  1  0.01411406  0.11706052  0.40301752  1
  O  O35  1  0.88293948  0.98588594  0.90301752  1
  O  O36  1  0.95604040  0.19968175  0.57760866  1
  O  O37  1  0.80031825  0.04395960  0.07760866  1
  O  O38  1  0.15325655  0.56637199  0.43472388  1
  O  O39  1  0.43362801  0.84674345  0.93472388  1
