# generated using pymatgen
data_Li4VCr3O8
_symmetry_space_group_name_H-M   'P 1'
_cell_length_a   5.94037341
_cell_length_b   5.94037341
_cell_length_c   5.95860018
_cell_angle_alpha   119.82306465
_cell_angle_beta   60.17693535
_cell_angle_gamma   120.01686919
_symmetry_Int_Tables_number   1
_chemical_formula_structural   Li4VCr3O8
_chemical_formula_sum   'Li4 V1 Cr3 O8'
_cell_volume   149.05870733
_cell_formula_units_Z   1
loop_
 _symmetry_equiv_pos_site_id
 _symmetry_equiv_pos_as_xyz
  1  'x, y, z'
loop_
 _atom_site_type_symbol
 _atom_site_label
 _atom_site_symmetry_multiplicity
 _atom_site_fract_x
 _atom_site_fract_y
 _atom_site_fract_z
 _atom_site_occupancy
  Li  Li0  1  0.99941418  0.00058582  0.49985406  1
  Li  Li1  1  0.49927088  0.00361839  0.49965597  1
  Li  Li2  1  0.99638161  0.50072912  0.49965597  1
  Li  Li3  1  0.49685294  0.50314706  0.49932130  1
  V  V4  1  0.99909627  0.00090373  0.99973603  1
  Cr  Cr5  1  0.49901681  0.50098319  0.99966625  1
  Cr  Cr6  1  0.49909940  0.00095015  0.99955448  1
  Cr  Cr7  1  0.99904985  0.50090060  0.99955448  1
  O  O8  1  0.25934859  0.24496076  0.22814210  1
  O  O9  1  0.24306605  0.26112331  0.77113536  1
  O  O10  1  0.73981815  0.26018185  0.77663852  1
  O  O11  1  0.75539751  0.24460249  0.22776795  1
  O  O12  1  0.24275787  0.75724213  0.77145865  1
  O  O13  1  0.25824897  0.74175103  0.22259742  1
  O  O14  1  0.75503924  0.74065141  0.22814210  1
  O  O15  1  0.73887669  0.75693395  0.77113536  1
