# generated using pymatgen
data_Fe3(PO4)4
_symmetry_space_group_name_H-M   'P 1'
_cell_length_a   6.39160592
_cell_length_b   10.43991414
_cell_length_c   10.99303055
_cell_angle_alpha   91.96511614
_cell_angle_beta   89.91981134
_cell_angle_gamma   72.03269058
_symmetry_Int_Tables_number   1
_chemical_formula_structural   Fe3(PO4)4
_chemical_formula_sum   'Fe6 P8 O32'
_cell_volume   697.30238830
_cell_formula_units_Z   2
loop_
 _symmetry_equiv_pos_site_id
 _symmetry_equiv_pos_as_xyz
  1  'x, y, z'
loop_
 _atom_site_type_symbol
 _atom_site_label
 _atom_site_symmetry_multiplicity
 _atom_site_fract_x
 _atom_site_fract_y
 _atom_site_fract_z
 _atom_site_occupancy
  O  O0  1  0.24331014  0.94908745  0.03205548  1
  O  O1  1  0.02185087  0.32005135  0.76618753  1
  O  O2  1  0.05155306  0.30763698  0.49236797  1
  O  O3  1  0.19594599  0.05056843  0.47186998  1
  O  O4  1  0.04415289  0.31963768  0.22177895  1
  O  O5  1  0.21422919  0.48759421  0.64338192  1
  O  O6  1  0.97814868  0.67994891  0.23381224  1
  O  O7  1  0.94844649  0.69236328  0.50763180  1
  O  O8  1  0.80405513  0.94943183  0.52812979  1
  O  O9  1  0.95584718  0.68036154  0.77822079  1
  O  O10  1  0.78577088  0.51240501  0.35661782  1
  O  O11  1  0.61775036  0.82349766  0.38936590  1
  O  O12  1  0.76875675  0.51156986  0.64018978  1
  O  O13  1  0.58630431  0.81737529  0.12090150  1
  O  O14  1  0.59484931  0.81875500  0.62095245  1
  O  O15  1  0.72051584  0.51028826  0.14011813  1
  O  O16  1  0.55362214  0.82496187  0.88969548  1
  O  O17  1  0.70089590  0.51370654  0.85674282  1
  O  O18  1  0.65999689  0.31876640  0.26615062  1
  O  O19  1  0.23124333  0.48842936  0.35980995  1
  O  O20  1  0.75668940  0.05091282  0.96794522  1
  O  O21  1  0.63706050  0.32097647  0.72197327  1
  O  O22  1  0.36293905  0.67902379  0.27802650  1
  O  O23  1  0.38225127  0.17650156  0.61063383  1
  O  O24  1  0.35766956  0.69231347  0.00842079  1
  O  O25  1  0.34000474  0.68123283  0.73385004  1
  O  O26  1  0.29910365  0.48629373  0.14325695  1
  O  O27  1  0.44637793  0.17503735  0.11030425  1
  O  O28  1  0.27948423  0.48971096  0.85988161  1
  O  O29  1  0.40515181  0.18124526  0.37904732  1
  O  O30  1  0.41369524  0.18262497  0.87909827  1
  O  O31  1  0.64233052  0.30768575  0.99157895  1
  P  P32  1  0.80720638  0.40626391  0.24548908  1
  P  P33  1  0.78660282  0.40760877  0.74556198  1
  P  P34  1  0.43727957  0.81785264  0.01033713  1
  P  P35  1  0.56272154  0.18214762  0.98966264  1
  P  P36  1  0.21339673  0.59239149  0.25443779  1
  P  P37  1  0.19279317  0.59373635  0.75451069  1
  P  P38  1  0.74230875  0.81788591  0.50937238  1
  P  P39  1  0.25769132  0.18211330  0.49062735  1
  Fe  Fe40  1  0.99999920  0.50000045  0.50000036  1
  Fe  Fe41  1  0.33451618  0.31062747  0.74602351  1
  Fe  Fe42  1  0.35716117  0.30889953  0.24587937  1
  Fe  Fe43  1  0.50000072  0.49999974  0.99999974  1
  Fe  Fe44  1  0.64283995  0.69110074  0.75412039  1
  Fe  Fe45  1  0.66548337  0.68937279  0.25397626  1
