# generated using pymatgen
data_NaPO3
_symmetry_space_group_name_H-M   'P 1'
_cell_length_a   8.02973099
_cell_length_b   7.10807121
_cell_length_c   7.16199695
_cell_angle_alpha   90.08475198
_cell_angle_beta   93.92968185
_cell_angle_gamma   103.23098086
_symmetry_Int_Tables_number   1
_chemical_formula_structural   NaPO3
_chemical_formula_sum   'Na6 P6 O18'
_cell_volume   396.92896812
_cell_formula_units_Z   6
loop_
 _symmetry_equiv_pos_site_id
 _symmetry_equiv_pos_as_xyz
  1  'x, y, z'
loop_
 _atom_site_type_symbol
 _atom_site_label
 _atom_site_symmetry_multiplicity
 _atom_site_fract_x
 _atom_site_fract_y
 _atom_site_fract_z
 _atom_site_occupancy
  Na  Na0  1  0.81189825  0.57264768  0.76418156  1
  Na  Na1  1  0.18810175  0.42735232  0.23581844  1
  Na  Na2  1  0.78275338  0.04841265  0.74650745  1
  Na  Na3  1  0.21724662  0.95158735  0.25349255  1
  Na  Na4  1  0.51490816  0.25818420  0.97778262  1
  Na  Na5  1  0.48509184  0.74181580  0.02221738  1
  P  P6  1  0.82030290  0.62870585  0.23723715  1
  P  P7  1  0.17969710  0.37129415  0.76276285  1
  P  P8  1  0.81579328  0.04583613  0.23566561  1
  P  P9  1  0.18420672  0.95416387  0.76433439  1
  P  P10  1  0.61765339  0.28804641  0.44453018  1
  P  P11  1  0.38234661  0.71195359  0.55546982  1
  O  O12  1  0.70706486  0.56289300  0.06164924  1
  O  O13  1  0.29293514  0.43710700  0.93835076  1
  O  O14  1  0.70389174  0.04808093  0.05846356  1
  O  O15  1  0.29610826  0.95191907  0.94153644  1
  O  O16  1  -0.00454390  0.86997860  0.76250773  1
  O  O17  1  0.00454390  0.13002140  0.23749227  1
  O  O18  1  -0.00923589  0.35245382  0.76406114  1
  O  O19  1  0.00923589  0.64754618  0.23593886  1
  O  O20  1  0.78248697  0.82826608  0.31491685  1
  O  O21  1  0.21751303  0.17173392  0.68508315  1
  O  O22  1  0.74820854  0.49612000  0.41217988  1
  O  O23  1  0.25179146  0.50388000  0.58782012  1
  O  O24  1  0.73953753  0.13815124  0.40894111  1
  O  O25  1  0.26046247  0.86184876  0.59105889  1
  O  O26  1  0.60118843  0.28186588  0.65194982  1
  O  O27  1  0.39881157  0.71813412  0.34805018  1
  O  O28  1  0.53527601  0.74868408  0.69370275  1
  O  O29  1  0.46472399  0.25131592  0.30629725  1
