# generated using pymatgen
data_CsB2H5O6
_symmetry_space_group_name_H-M   'P 1'
_cell_length_a   8.36241730
_cell_length_b   11.50020483
_cell_length_c   13.37209685
_cell_angle_alpha   90.00000000
_cell_angle_beta   91.33420996
_cell_angle_gamma   90.00000000
_symmetry_Int_Tables_number   1
_chemical_formula_structural   CsB2H5O6
_chemical_formula_sum   'Cs8 B16 H40 O48'
_cell_volume   1285.63937506
_cell_formula_units_Z   8
loop_
 _symmetry_equiv_pos_site_id
 _symmetry_equiv_pos_as_xyz
  1  'x, y, z'
loop_
 _atom_site_type_symbol
 _atom_site_label
 _atom_site_symmetry_multiplicity
 _atom_site_fract_x
 _atom_site_fract_y
 _atom_site_fract_z
 _atom_site_occupancy
  Cs  Cs0  1  0.26615110  0.43701463  0.97832168  1
  Cs  Cs1  1  0.73384890  0.93701463  0.52167832  1
  Cs  Cs2  1  0.73384890  0.56298537  0.02167832  1
  Cs  Cs3  1  0.26615110  0.06298537  0.47832168  1
  Cs  Cs4  1  0.45711716  0.92088789  0.85998973  1
  Cs  Cs5  1  0.54288284  0.42088789  0.64001027  1
  Cs  Cs6  1  0.54288284  0.07911211  0.14001027  1
  Cs  Cs7  1  0.45711716  0.57911211  0.35998973  1
  B  B8  1  0.87184484  0.62219159  0.57689447  1
  B  B9  1  0.12815516  0.12219159  0.92310553  1
  B  B10  1  0.12815516  0.37780841  0.42310553  1
  B  B11  1  0.87184484  0.87780841  0.07689447  1
  B  B12  1  0.10381854  0.84325438  0.69561402  1
  B  B13  1  0.89618146  0.34325438  0.80438598  1
  B  B14  1  0.89618146  0.15674562  0.30438598  1
  B  B15  1  0.10381854  0.65674562  0.19561402  1
  B  B16  1  0.10613271  0.62845674  0.69728637  1
  B  B17  1  0.89386729  0.12845674  0.80271363  1
  B  B18  1  0.89386729  0.37154326  0.30271363  1
  B  B19  1  0.10613271  0.87154326  0.19728637  1
  B  B20  1  0.85937784  0.73009643  0.73686761  1
  B  B21  1  0.14062216  0.23009643  0.76313239  1
  B  B22  1  0.14062216  0.26990357  0.26313239  1
  B  B23  1  0.85937784  0.76990357  0.23686761  1
  H  H24  1  0.16857751  0.47077235  0.74544626  1
  H  H25  1  0.83142249  0.97077235  0.75455374  1
  H  H26  1  0.83142249  0.52922765  0.25455374  1
  H  H27  1  0.16857751  0.02922765  0.24544626  1
  H  H28  1  0.86276828  0.52252166  0.45573465  1
  H  H29  1  0.13723172  0.02252166  0.04426535  1
  H  H30  1  0.13723172  0.47747834  0.54426535  1
  H  H31  1  0.86276828  0.97747834  0.95573465  1
  H  H32  1  0.77685111  0.79575656  0.86632158  1
  H  H33  1  0.22314889  0.29575656  0.63367842  1
  H  H34  1  0.22314889  0.20424344  0.13367842  1
  H  H35  1  0.77685111  0.70424344  0.36632158  1
  H  H36  1  0.11880175  0.01665465  0.70591884  1
  H  H37  1  0.88119825  0.51665465  0.79408116  1
  H  H38  1  0.88119825  0.98334535  0.29408116  1
  H  H39  1  0.11880175  0.48334535  0.20591884  1
  H  H40  1  0.60858877  0.10132489  0.69999663  1
  H  H41  1  0.39141123  0.60132489  0.80000337  1
  H  H42  1  0.39141123  0.89867511  0.30000337  1
  H  H43  1  0.60858877  0.39867511  0.19999663  1
  H  H44  1  0.43205140  0.15474902  0.67631542  1
  H  H45  1  0.56794860  0.65474902  0.82368458  1
  H  H46  1  0.56794860  0.84525098  0.32368458  1
  H  H47  1  0.43205140  0.34525098  0.17631542  1
  H  H48  1  0.56533060  0.70761588  0.60887895  1
  H  H49  1  0.43466940  0.20761588  0.89112105  1
  H  H50  1  0.43466940  0.29238412  0.39112105  1
  H  H51  1  0.56533060  0.79238412  0.10887895  1
  H  H52  1  0.37585172  0.72544807  0.61830445  1
  H  H53  1  0.62414828  0.22544807  0.88169555  1
  H  H54  1  0.62414828  0.27455193  0.38169555  1
  H  H55  1  0.37585172  0.77455193  0.11830445  1
  H  H56  1  0.84716794  0.22335779  0.51793536  1
  H  H57  1  0.15283206  0.72335779  0.98206464  1
  H  H58  1  0.15283206  0.77664221  0.48206464  1
  H  H59  1  0.84716794  0.27664221  0.01793536  1
  H  H60  1  0.94998640  0.17132590  0.60914809  1
  H  H61  1  0.05001360  0.67132590  0.89085191  1
  H  H62  1  0.05001360  0.82867410  0.39085191  1
  H  H63  1  0.94998640  0.32867410  0.10914809  1
  O  O64  1  0.79880773  0.58558413  0.48769509  1
  O  O65  1  0.20119227  0.08558413  0.01230491  1
  O  O66  1  0.20119227  0.41441587  0.51230491  1
  O  O67  1  0.79880773  0.91441587  0.98769509  1
  O  O68  1  0.02653871  0.58972917  0.59985136  1
  O  O69  1  0.97346129  0.08972917  0.90014864  1
  O  O70  1  0.97346129  0.41027083  0.40014864  1
  O  O71  1  0.02653871  0.91027083  0.09985136  1
  O  O72  1  0.78070836  0.68742886  0.64145001  1
  O  O73  1  0.21929164  0.18742886  0.85854999  1
  O  O74  1  0.21929164  0.31257114  0.35854999  1
  O  O75  1  0.78070836  0.81257114  0.14145001  1
  O  O76  1  0.18632021  0.94678907  0.69122936  1
  O  O77  1  0.81367979  0.44678907  0.80877064  1
  O  O78  1  0.81367979  0.05321093  0.30877064  1
  O  O79  1  0.18632021  0.55321093  0.19122936  1
  O  O80  1  0.18870663  0.74170311  0.68237315  1
  O  O81  1  0.81129337  0.24170311  0.81762685  1
  O  O82  1  0.81129337  0.25829689  0.31762685  1
  O  O83  1  0.18870663  0.75829689  0.18237315  1
  O  O84  1  0.73424754  0.75033193  0.80958805  1
  O  O85  1  0.26575246  0.25033193  0.69041195  1
  O  O86  1  0.26575246  0.24966807  0.19041195  1
  O  O87  1  0.73424754  0.74966807  0.30958805  1
  O  O88  1  0.94276233  0.84295172  0.71716437  1
  O  O89  1  0.05723767  0.34295172  0.78283563  1
  O  O90  1  0.05723767  0.15704828  0.28283563  1
  O  O91  1  0.94276233  0.65704828  0.21716437  1
  O  O92  1  0.97869232  0.64365948  0.77183496  1
  O  O93  1  0.02130768  0.14365948  0.72816504  1
  O  O94  1  0.02130768  0.35634052  0.22816504  1
  O  O95  1  0.97869232  0.85634052  0.27183496  1
  O  O96  1  0.22517475  0.54346320  0.72882069  1
  O  O97  1  0.77482525  0.04346320  0.77117931  1
  O  O98  1  0.77482525  0.45653680  0.27117931  1
  O  O99  1  0.22517475  0.95653680  0.22882069  1
  O  O100  1  0.52104381  0.10880862  0.64915450  1
  O  O101  1  0.47895619  0.60880862  0.85084550  1
  O  O102  1  0.47895619  0.89119138  0.35084550  1
  O  O103  1  0.52104381  0.39119138  0.14915450  1
  O  O104  1  0.46323748  0.71342622  0.57076740  1
  O  O105  1  0.53676252  0.21342622  0.92923260  1
  O  O106  1  0.53676252  0.28657378  0.42923260  1
  O  O107  1  0.46323748  0.78657378  0.07076740  1
  O  O108  1  0.93142555  0.16826646  0.53492304  1
  O  O109  1  0.06857445  0.66826646  0.96507696  1
  O  O110  1  0.06857445  0.83173354  0.46507696  1
  O  O111  1  0.93142555  0.33173354  0.03492304  1
