# generated using pymatgen
data_Cs2Sr2(CO3)3
_symmetry_space_group_name_H-M   'P 1'
_cell_length_a   8.81137001
_cell_length_b   8.81137001
_cell_length_c   8.81137001
_cell_angle_alpha   109.47122063
_cell_angle_beta   109.47122063
_cell_angle_gamma   109.47122063
_symmetry_Int_Tables_number   1
_chemical_formula_structural   Cs2Sr2(CO3)3
_chemical_formula_sum   'Cs4 Sr4 C6 O18'
_cell_volume   526.63343227
_cell_formula_units_Z   2
loop_
 _symmetry_equiv_pos_site_id
 _symmetry_equiv_pos_as_xyz
  1  'x, y, z'
loop_
 _atom_site_type_symbol
 _atom_site_label
 _atom_site_symmetry_multiplicity
 _atom_site_fract_x
 _atom_site_fract_y
 _atom_site_fract_z
 _atom_site_occupancy
  Cs  Cs0  1  0.88365720  0.88365720  0.88365720  1
  Cs  Cs1  1  0.50000100  0.00000000  0.61634380  1
  Cs  Cs2  1  0.61634380  0.50000100  0.00000000  1
  Cs  Cs3  1  0.00000000  0.61634380  0.50000100  1
  Sr  Sr4  1  0.40644622  0.40644622  0.40644622  1
  Sr  Sr5  1  0.50000000  0.00000000  0.09355378  1
  Sr  Sr6  1  0.09355378  0.50000000  0.00000000  1
  Sr  Sr7  1  0.00000000  0.09355378  0.50000000  1
  C  C8  1  0.58998221  0.75000000  0.33998221  1
  C  C9  1  0.91001679  0.25000000  0.16001679  1
  C  C10  1  0.33998221  0.58998221  0.75000000  1
  C  C11  1  0.75000000  0.33998221  0.58998221  1
  C  C12  1  0.25000000  0.16001679  0.91001679  1
  C  C13  1  0.16001679  0.91001679  0.25000000  1
  O  O14  1  0.41586701  0.64441435  0.28277433  1
  O  O15  1  0.86163902  0.13309267  0.21722467  1
  O  O16  1  0.08413299  0.36690733  0.22854735  1
  O  O17  1  0.63835998  0.85558565  0.27145265  1
  O  O18  1  0.28277433  0.41586701  0.64441435  1
  O  O19  1  0.64441435  0.28277433  0.41586701  1
  O  O20  1  0.27145265  0.63835998  0.85558565  1
  O  O21  1  0.13309267  0.21722467  0.86163902  1
  O  O22  1  0.21722467  0.86163902  0.13309267  1
  O  O23  1  0.36690733  0.22854735  0.08413299  1
  O  O24  1  0.22854735  0.08413299  0.36690733  1
  O  O25  1  0.85558565  0.27145265  0.63835998  1
  O  O26  1  0.71827909  0.75000000  0.46827909  1
  O  O27  1  0.78171991  0.25000000  0.03171991  1
  O  O28  1  0.46827909  0.71827909  0.75000000  1
  O  O29  1  0.75000000  0.46827909  0.71827909  1
  O  O30  1  0.25000000  0.03171991  0.78171991  1
  O  O31  1  0.03171991  0.78171991  0.25000000  1
