# generated using pymatgen
data_VP2O7
_symmetry_space_group_name_H-M   'P 1'
_cell_length_a   7.06432051
_cell_length_b   8.17740033
_cell_length_c   8.85692145
_cell_angle_alpha   90.00000000
_cell_angle_beta   112.01291172
_cell_angle_gamma   90.00000000
_symmetry_Int_Tables_number   1
_chemical_formula_structural   VP2O7
_chemical_formula_sum   'V4 P8 O28'
_cell_volume   474.34546567
_cell_formula_units_Z   4
loop_
 _symmetry_equiv_pos_site_id
 _symmetry_equiv_pos_as_xyz
  1  'x, y, z'
loop_
 _atom_site_type_symbol
 _atom_site_label
 _atom_site_symmetry_multiplicity
 _atom_site_fract_x
 _atom_site_fract_y
 _atom_site_fract_z
 _atom_site_occupancy
  O  O0  1  0.14136134  0.61428279  0.67500532  1
  O  O1  1  0.28950185  0.39929995  0.92244711  1
  O  O2  1  0.14384519  0.22560657  0.52036590  1
  O  O3  1  0.35615463  0.72560701  0.97963428  1
  O  O4  1  0.21049798  0.89930039  0.57755307  1
  O  O5  1  0.13090116  0.65094777  0.39589053  1
  O  O6  1  0.05717310  0.88458199  0.18131745  1
  O  O7  1  0.35863848  0.11428236  0.82499487  1
  O  O8  1  0.08729174  0.25761799  0.17946560  1
  O  O9  1  0.11423058  0.58397990  0.12266462  1
  O  O10  1  0.38576911  0.08398069  0.37733565  1
  O  O11  1  0.63090085  0.84905232  0.89588966  1
  O  O12  1  0.55717279  0.61541810  0.68131772  1
  O  O13  1  0.41270795  0.75761720  0.32053467  1
  O  O14  1  0.58729296  0.24238245  0.67946520  1
  O  O15  1  0.44282659  0.38458278  0.31868282  1
  O  O16  1  0.36909853  0.15094856  0.10410974  1
  O  O17  1  0.61423027  0.91602019  0.62266375  1
  O  O18  1  0.88577033  0.41601975  0.87733638  1
  O  O19  1  0.91270764  0.74238289  0.82053494  1
  O  O20  1  0.85863957  0.38571808  0.32499455  1
  O  O21  1  0.94282782  0.11541766  0.81868242  1
  O  O22  1  0.86909975  0.34905188  0.60411047  1
  O  O23  1  0.78950140  0.10070049  0.42244746  1
  O  O24  1  0.64384475  0.27439264  0.02036512  1
  O  O25  1  0.85615419  0.77439308  0.47963463  1
  O  O26  1  0.71049907  0.60069970  0.07755275  1
  O  O27  1  0.64136090  0.88571730  0.17500567  1
  P  P28  1  0.08652412  0.74022919  0.53942644  1
  P  P29  1  0.41347723  0.24022998  0.96057420  1
  P  P30  1  0.17343524  0.73421624  0.24554463  1
  P  P31  1  0.32656599  0.23421703  0.25445610  1
  P  P32  1  0.67343492  0.76578384  0.74554490  1
  P  P33  1  0.82656568  0.26578341  0.75445523  1
  P  P34  1  0.91347679  0.25977046  0.46057455  1
  P  P35  1  0.58652368  0.75977090  0.03942566  1
  V  V36  1  0.12216676  0.59196504  0.89039235  1
  V  V37  1  0.37783307  0.09196460  0.60960783  1
  V  V38  1  0.62216631  0.90803505  0.39039157  1
  V  V39  1  0.87783262  0.40803461  0.10960818  1
