# generated using pymatgen
data_BaTbMn2O5
_symmetry_space_group_name_H-M   'P 1'
_cell_length_a   5.63622119
_cell_length_b   5.63620696
_cell_length_c   7.82875410
_cell_angle_alpha   89.99988880
_cell_angle_beta   90.00004209
_cell_angle_gamma   89.99997164
_symmetry_Int_Tables_number   1
_chemical_formula_structural   BaTbMn2O5
_chemical_formula_sum   'Ba2 Tb2 Mn4 O10'
_cell_volume   248.69531985
_cell_formula_units_Z   2
loop_
 _symmetry_equiv_pos_site_id
 _symmetry_equiv_pos_as_xyz
  1  'x, y, z'
loop_
 _atom_site_type_symbol
 _atom_site_label
 _atom_site_symmetry_multiplicity
 _atom_site_fract_x
 _atom_site_fract_y
 _atom_site_fract_z
 _atom_site_occupancy
  Tb  Tb0  1  0.75000268  0.25000128  0.50000694  1
  Tb  Tb1  1  0.24999907  0.74999678  0.50000737  1
  Ba  Ba2  1  0.75000614  0.25000627  0.00000847  1
  Ba  Ba3  1  0.24999550  0.75000096  0.00000162  1
  Mn  Mn4  1  0.75002427  0.74999399  0.26526547  1
  Mn  Mn5  1  0.24999329  0.25000128  0.73469970  1
  Mn  Mn6  1  0.74997703  0.74996886  0.73359394  1
  Mn  Mn7  1  0.25000059  0.25000419  0.26642754  1
  O  O8  1  0.99957607  0.99957698  0.68054641  1
  O  O9  1  0.50041566  0.99957981  0.68054653  1
  O  O10  1  0.99957964  0.50041884  0.68054276  1
  O  O11  1  0.50042002  0.50042042  0.68054423  1
  O  O12  1  0.00043500  0.00043938  0.31944811  1
  O  O13  1  0.49956760  0.00043893  0.31945048  1
  O  O14  1  0.00044192  0.49957253  0.31944746  1
  O  O15  1  0.49955726  0.49956547  0.31945033  1
  O  O16  1  0.74999814  0.75000468  0.99964166  1
  O  O17  1  0.25001013  0.25000935  0.00037099  1
