# generated using pymatgen
data_Ba3Dy4O9
_symmetry_space_group_name_H-M   'P 1'
_cell_length_a   9.26097227
_cell_length_b   9.26097227
_cell_length_c   9.26097227
_cell_angle_alpha   38.79252026
_cell_angle_beta   38.79252023
_cell_angle_gamma   38.79252019
_symmetry_Int_Tables_number   1
_chemical_formula_structural   Ba3Dy4O9
_chemical_formula_sum   'Ba3 Dy4 O9'
_cell_volume   280.25791212
_cell_formula_units_Z   1
loop_
 _symmetry_equiv_pos_site_id
 _symmetry_equiv_pos_as_xyz
  1  'x, y, z'
loop_
 _atom_site_type_symbol
 _atom_site_label
 _atom_site_symmetry_multiplicity
 _atom_site_fract_x
 _atom_site_fract_y
 _atom_site_fract_z
 _atom_site_occupancy
  O  O0  1  0.45206412  0.58381388  0.04110492  1
  O  O1  1  0.58381388  0.04110492  0.45206412  1
  O  O2  1  0.04110492  0.45206412  0.58381388  1
  O  O3  1  0.58625123  0.70159514  0.12562094  1
  O  O4  1  0.70159514  0.12562094  0.58625123  1
  O  O5  1  0.12562094  0.58625123  0.70159514  1
  O  O6  1  0.01775599  0.57939290  0.14505919  1
  O  O7  1  0.14505919  0.01775599  0.57939290  1
  O  O8  1  0.57939290  0.14505919  0.01775599  1
  Ba  Ba9  1  0.99739708  0.99739708  0.99739708  1
  Ba  Ba10  1  0.16356697  0.16356697  0.16356697  1
  Ba  Ba11  1  0.57541028  0.57541028  0.57541028  1
  Dy  Dy12  1  0.42438829  0.42438829  0.42438829  1
  Dy  Dy13  1  0.86271684  0.86271684  0.86271684  1
  Dy  Dy14  1  0.73682865  0.73682865  0.73682865  1
  Dy  Dy15  1  0.29913358  0.29913358  0.29913358  1
