# generated using pymatgen
data_Ba2Cu(PO4)2
_symmetry_space_group_name_H-M   'P 1'
_cell_length_a   5.19800605
_cell_length_b   6.69040702
_cell_length_c   7.00235040
_cell_angle_alpha   104.21273171
_cell_angle_beta   90.00000000
_cell_angle_gamma   112.85915163
_symmetry_Int_Tables_number   1
_chemical_formula_structural   Ba2Cu(PO4)2
_chemical_formula_sum   'Ba2 Cu1 P2 O8'
_cell_volume   216.28175063
_cell_formula_units_Z   1
loop_
 _symmetry_equiv_pos_site_id
 _symmetry_equiv_pos_as_xyz
  1  'x, y, z'
loop_
 _atom_site_type_symbol
 _atom_site_label
 _atom_site_symmetry_multiplicity
 _atom_site_fract_x
 _atom_site_fract_y
 _atom_site_fract_z
 _atom_site_occupancy
  O  O0  1  0.36603058  0.24448291  0.56435906  1
  O  O1  1  0.12154767  0.75551709  0.43564094  1
  O  O2  1  0.63396942  0.75551709  0.43564094  1
  O  O3  1  0.87845233  0.24448291  0.56435906  1
  O  O4  1  0.74523991  0.49047982  0.15979293  1
  O  O5  1  0.04705466  0.09410931  0.82471946  1
  O  O6  1  0.95294534  0.90589069  0.17528054  1
  O  O7  1  0.25476009  0.50952018  0.84020707  1
  P  P8  1  0.86709175  0.73418351  0.29759115  1
  P  P9  1  0.13290825  0.26581649  0.70240885  1
  Cu  Cu10  1  0.50000000  0.00000000  0.50000000  1
  Ba  Ba11  1  0.82680821  0.65361642  0.78511037  1
  Ba  Ba12  1  0.17319179  0.34638358  0.21488963  1
