# generated using pymatgen
data_YbTlHg2
_symmetry_space_group_name_H-M   'P 1'
_cell_length_a   5.22902277
_cell_length_b   5.22902277
_cell_length_c   5.22902277
_cell_angle_alpha   61.09677742
_cell_angle_beta   61.09677742
_cell_angle_gamma   61.09677742
_symmetry_Int_Tables_number   1
_chemical_formula_structural   YbTlHg2
_chemical_formula_sum   'Yb1 Tl1 Hg2'
_cell_volume   103.59492497
_cell_formula_units_Z   1
loop_
 _symmetry_equiv_pos_site_id
 _symmetry_equiv_pos_as_xyz
  1  'x, y, z'
loop_
 _atom_site_type_symbol
 _atom_site_label
 _atom_site_symmetry_multiplicity
 _atom_site_fract_x
 _atom_site_fract_y
 _atom_site_fract_z
 _atom_site_occupancy
  Yb  Yb0  1  0.75000850  0.75000850  0.75000850  1
  Tl  Tl1  1  0.25000011  0.25000011  0.25000011  1
  Hg  Hg2  1  -0.00035978  -0.00035978  -0.00035978  1
  Hg  Hg3  1  0.50035117  0.50035117  0.50035117  1
