# generated using pymatgen
data_SmYZn2
_symmetry_space_group_name_H-M   'P 1'
_cell_length_a   5.11479244
_cell_length_b   5.11478920
_cell_length_c   5.11479096
_cell_angle_alpha   59.99995514
_cell_angle_beta   59.99992582
_cell_angle_gamma   59.99991947
_symmetry_Int_Tables_number   1
_chemical_formula_structural   SmYZn2
_chemical_formula_sum   'Sm1 Y1 Zn2'
_cell_volume   94.61674202
_cell_formula_units_Z   1
loop_
 _symmetry_equiv_pos_site_id
 _symmetry_equiv_pos_as_xyz
  1  'x, y, z'
loop_
 _atom_site_type_symbol
 _atom_site_label
 _atom_site_symmetry_multiplicity
 _atom_site_fract_x
 _atom_site_fract_y
 _atom_site_fract_z
 _atom_site_occupancy
  Sm  Sm0  1  0.25000010  0.25000007  0.24999998  1
  Y  Y1  1  0.75000067  0.75000078  0.75000086  1
  Zn  Zn2  1  0.00000002  0.00000005  0.00000001  1
  Zn  Zn3  1  0.49999921  0.49999910  0.49999915  1
