# generated using pymatgen
data_ZnCu2SiS4
_symmetry_space_group_name_H-M   'P 1'
_cell_length_a   7.37368799
_cell_length_b   6.45041204
_cell_length_c   6.15460583
_cell_angle_alpha   90.00000000
_cell_angle_beta   90.00000000
_cell_angle_gamma   90.00000000
_symmetry_Int_Tables_number   1
_chemical_formula_structural   ZnCu2SiS4
_chemical_formula_sum   'Zn2 Cu4 Si2 S8'
_cell_volume   292.73352220
_cell_formula_units_Z   2
loop_
 _symmetry_equiv_pos_site_id
 _symmetry_equiv_pos_as_xyz
  1  'x, y, z'
loop_
 _atom_site_type_symbol
 _atom_site_label
 _atom_site_symmetry_multiplicity
 _atom_site_fract_x
 _atom_site_fract_y
 _atom_site_fract_z
 _atom_site_occupancy
  Zn  Zn0  1  0.50000000  0.65112740  0.34336581  1
  Zn  Zn1  1  0.00000000  0.34887260  0.84336581  1
  Cu  Cu2  1  0.24774537  0.17302379  0.33505412  1
  Cu  Cu3  1  0.75225363  0.17302379  0.33505412  1
  Cu  Cu4  1  0.25225463  0.82697621  0.83505412  1
  Cu  Cu5  1  0.74774637  0.82697621  0.83505412  1
  Si  Si6  1  0.00000000  0.67092677  0.34486266  1
  Si  Si7  1  0.50000000  0.32907323  0.84486266  1
  S  S8  1  0.00000000  0.35546049  0.45935592  1
  S  S9  1  0.23669473  0.83450778  0.46323488  1
  S  S10  1  0.76330627  0.83450778  0.46323488  1
  S  S11  1  0.50000000  0.31808778  0.49373762  1
  S  S12  1  0.50000000  0.64453951  0.95935592  1
  S  S13  1  0.26330627  0.16549222  0.96323488  1
  S  S14  1  0.73669473  0.16549222  0.96323488  1
  S  S15  1  0.00000000  0.68191222  0.99373762  1
