# generated using pymatgen
data_PW4Cl11
_symmetry_space_group_name_H-M   'P 1'
_cell_length_a   8.70436497
_cell_length_b   8.70436497
_cell_length_c   11.52383867
_cell_angle_alpha   89.46636552
_cell_angle_beta   90.53363448
_cell_angle_gamma   109.53978775
_symmetry_Int_Tables_number   1
_chemical_formula_structural   PW4Cl11
_chemical_formula_sum   'P2 W8 Cl22'
_cell_volume   822.77816897
_cell_formula_units_Z   2
loop_
 _symmetry_equiv_pos_site_id
 _symmetry_equiv_pos_as_xyz
  1  'x, y, z'
loop_
 _atom_site_type_symbol
 _atom_site_label
 _atom_site_symmetry_multiplicity
 _atom_site_fract_x
 _atom_site_fract_y
 _atom_site_fract_z
 _atom_site_occupancy
  P  P0  1  0.32416321  0.67583679  0.25106489  1
  P  P1  1  0.67583579  0.32416321  0.74893511  1
  W  W2  1  0.35533828  0.90509856  0.37214818  1
  W  W3  1  0.90509856  0.35533828  0.62785282  1
  W  W4  1  0.64466072  0.09489944  0.62785282  1
  W  W5  1  0.09490044  0.64465972  0.37214818  1
  W  W6  1  0.35536657  0.90493169  0.12700042  1
  W  W7  1  0.90493069  0.35536657  0.87299858  1
  W  W8  1  0.64463443  0.09506931  0.87299858  1
  W  W9  1  0.09506931  0.64463443  0.12700042  1
  Cl  Cl10  1  0.12998782  0.87001218  0.99392019  1
  Cl  Cl11  1  0.87001218  0.12998782  0.00607881  1
  Cl  Cl12  1  0.51970786  0.82125203  0.98654275  1
  Cl  Cl13  1  0.82125203  0.51970786  0.01345625  1
  Cl  Cl14  1  0.48029314  0.17874897  0.01345625  1
  Cl  Cl15  1  0.17874797  0.48029314  0.98654275  1
  Cl  Cl16  1  0.12992597  0.87007403  0.50249551  1
  Cl  Cl17  1  0.87007403  0.12992597  0.49750449  1
  Cl  Cl18  1  0.51955106  0.82141292  0.51612317  1
  Cl  Cl19  1  0.82141392  0.51955006  0.48387683  1
  Cl  Cl20  1  0.48044994  0.17858608  0.48387683  1
  Cl  Cl21  1  0.17858708  0.48044894  0.51612317  1
  Cl  Cl22  1  0.24500949  0.06878115  0.24757456  1
  Cl  Cl23  1  0.06878215  0.24500949  0.75242444  1
  Cl  Cl24  1  0.75499051  0.93121785  0.75242444  1
  Cl  Cl25  1  0.93121785  0.75498951  0.24757456  1
  Cl  Cl26  1  0.46789610  0.53210390  0.25278183  1
  Cl  Cl27  1  0.53210290  0.46789710  0.74721717  1
  Cl  Cl28  1  0.60508862  0.01094415  0.25066507  1
  Cl  Cl29  1  0.01094315  0.60508962  0.74933493  1
  Cl  Cl30  1  0.39491038  0.98905685  0.74933493  1
  Cl  Cl31  1  0.98905585  0.39491138  0.25066507  1
