# generated using pymatgen
data_Sm3Ni7B2
_symmetry_space_group_name_H-M   'P 1'
_cell_length_a   5.15986547
_cell_length_b   5.15994286
_cell_length_c   14.41831431
_cell_angle_alpha   90.00003616
_cell_angle_beta   89.99975876
_cell_angle_gamma   120.00514277
_symmetry_Int_Tables_number   1
_chemical_formula_structural   Sm3Ni7B2
_chemical_formula_sum   'Sm6 Ni14 B4'
_cell_volume   332.43434266
_cell_formula_units_Z   2
loop_
 _symmetry_equiv_pos_site_id
 _symmetry_equiv_pos_as_xyz
  1  'x, y, z'
loop_
 _atom_site_type_symbol
 _atom_site_label
 _atom_site_symmetry_multiplicity
 _atom_site_fract_x
 _atom_site_fract_y
 _atom_site_fract_z
 _atom_site_occupancy
  Sm  Sm0  1  0.33331066  0.66666190  0.74999143  1
  Sm  Sm1  1  0.66664320  0.33335309  0.25001435  1
  Sm  Sm2  1  0.33337065  0.66666312  0.53133382  1
  Sm  Sm3  1  0.66663076  0.33334141  0.03134278  1
  Sm  Sm4  1  0.66670030  0.33334967  0.46865411  1
  Sm  Sm5  1  0.33333166  0.66665885  0.96863673  1
  Ni  Ni6  1  0.99996515  0.00000138  0.99999397  1
  Ni  Ni7  1  0.99997749  0.99999956  0.50000993  1
  Ni  Ni8  1  0.16519338  0.33041778  0.15105827  1
  Ni  Ni9  1  0.83480377  0.66959324  0.65106154  1
  Ni  Ni10  1  0.66957997  0.83478773  0.15106158  1
  Ni  Ni11  1  0.16521385  0.83479898  0.15106398  1
  Ni  Ni12  1  0.83480252  0.16520139  0.65107449  1
  Ni  Ni13  1  0.33040384  0.16519623  0.65106219  1
  Ni  Ni14  1  0.83479930  0.66958430  0.84893644  1
  Ni  Ni15  1  0.83479190  0.16519808  0.84893123  1
  Ni  Ni16  1  0.33042325  0.16518969  0.84894245  1
  Ni  Ni17  1  0.66958096  0.83481007  0.34893527  1
  Ni  Ni18  1  0.16520237  0.83478487  0.34894879  1
  Ni  Ni19  1  0.16520493  0.33042788  0.34894052  1
  B  B20  1  0.33331366  0.66666421  0.25000494  1
  B  B21  1  0.66664565  0.33333440  0.75000295  1
  B  B22  1  0.99998639  0.00001662  0.24998332  1
  B  B23  1  0.00002539  0.99996956  0.75001394  1
