# generated using pymatgen
data_YEr4Al15
_symmetry_space_group_name_H-M   'P 1'
_cell_length_a   12.48909238
_cell_length_b   12.48909238
_cell_length_c   12.48909238
_cell_angle_alpha   28.15084930
_cell_angle_beta   28.15084930
_cell_angle_gamma   28.15085340
_symmetry_Int_Tables_number   1
_chemical_formula_structural   YEr4Al15
_chemical_formula_sum   'Y1 Er4 Al15'
_cell_volume   383.06230677
_cell_formula_units_Z   1
loop_
 _symmetry_equiv_pos_site_id
 _symmetry_equiv_pos_as_xyz
  1  'x, y, z'
loop_
 _atom_site_type_symbol
 _atom_site_label
 _atom_site_symmetry_multiplicity
 _atom_site_fract_x
 _atom_site_fract_y
 _atom_site_fract_z
 _atom_site_occupancy
  Y  Y0  1  0.00000000  0.00000000  0.00000000  1
  Er  Er1  1  0.13120216  0.13120216  0.13120216  1
  Er  Er2  1  0.86879784  0.86879784  0.86879684  1
  Er  Er3  1  0.40006583  0.40006583  0.40006583  1
  Er  Er4  1  0.59993417  0.59993417  0.59993317  1
  Al  Al5  1  0.63522552  0.13064581  0.63522452  1
  Al  Al6  1  0.63522552  0.63522552  0.13064681  1
  Al  Al7  1  0.13064581  0.63522552  0.63522452  1
  Al  Al8  1  0.86935419  0.36477448  0.36477448  1
  Al  Al9  1  0.36477448  0.36477448  0.86935319  1
  Al  Al10  1  0.36477448  0.86935419  0.36477448  1
  Al  Al11  1  0.88298634  0.43364197  0.88298434  1
  Al  Al12  1  0.88298634  0.88298634  0.43363997  1
  Al  Al13  1  0.43364197  0.88298634  0.88298434  1
  Al  Al14  1  0.56635803  0.11701366  0.11701566  1
  Al  Al15  1  0.11701366  0.11701366  0.56636003  1
  Al  Al16  1  0.11701366  0.56635803  0.11701566  1
  Al  Al17  1  0.50000000  0.50000000  0.00000000  1
  Al  Al18  1  0.00000000  0.50000100  0.50000000  1
  Al  Al19  1  0.50000100  0.00000000  0.50000000  1
