# generated using pymatgen
data_SbF5
_symmetry_space_group_name_H-M   'P 1'
_cell_length_a   5.53566933
_cell_length_b   5.54903524
_cell_length_c   7.93270095
_cell_angle_alpha   97.13539803
_cell_angle_beta   109.62239349
_cell_angle_gamma   110.22637326
_symmetry_Int_Tables_number   1
_chemical_formula_structural   SbF5
_chemical_formula_sum   'Sb2 F10'
_cell_volume   207.25494823
_cell_formula_units_Z   2
loop_
 _symmetry_equiv_pos_site_id
 _symmetry_equiv_pos_as_xyz
  1  'x, y, z'
loop_
 _atom_site_type_symbol
 _atom_site_label
 _atom_site_symmetry_multiplicity
 _atom_site_fract_x
 _atom_site_fract_y
 _atom_site_fract_z
 _atom_site_occupancy
  Sb  Sb0  1  0.99502237  0.99965015  0.99936553  1
  Sb  Sb1  1  0.49972797  0.00044780  0.49844781  1
  F  F2  1  0.33298643  0.08306268  0.24792058  1
  F  F3  1  0.65975139  0.91752533  0.74983412  1
  F  F4  1  0.59561300  0.75161170  0.38209686  1
  F  F5  1  0.86882165  0.21713913  0.11719532  1
  F  F6  1  0.76750847  0.70283476  0.05018052  1
  F  F7  1  0.14922234  0.72702192  0.44939086  1
  F  F8  1  0.22476864  0.29744612  0.95056493  1
  F  F9  1  0.85149939  0.27282849  0.54712071  1
  F  F10  1  0.11704371  0.78075650  0.87880110  1
  F  F11  1  0.40628265  0.25132441  0.61495867  1
