# generated using pymatgen
data_Ca3V2(GeO4)3
_symmetry_space_group_name_H-M   'P 1'
_cell_length_a   10.82569322
_cell_length_b   10.82569265
_cell_length_c   10.82569278
_cell_angle_alpha   109.47122089
_cell_angle_beta   109.47121981
_cell_angle_gamma   109.47121988
_symmetry_Int_Tables_number   1
_chemical_formula_structural   Ca3V2(GeO4)3
_chemical_formula_sum   'Ca12 V8 Ge12 O48'
_cell_volume   976.66409718
_cell_formula_units_Z   4
loop_
 _symmetry_equiv_pos_site_id
 _symmetry_equiv_pos_as_xyz
  1  'x, y, z'
loop_
 _atom_site_type_symbol
 _atom_site_label
 _atom_site_symmetry_multiplicity
 _atom_site_fract_x
 _atom_site_fract_y
 _atom_site_fract_z
 _atom_site_occupancy
  Ca  Ca0  1  0.62500000  0.25000000  0.87500000  1
  Ca  Ca1  1  0.87500000  0.75000000  0.62500000  1
  Ca  Ca2  1  0.75000000  0.62500000  0.87500000  1
  Ca  Ca3  1  0.25000000  0.87500000  0.62500000  1
  Ca  Ca4  1  0.87500000  0.62500000  0.25000000  1
  Ca  Ca5  1  0.62500000  0.87500000  0.75000000  1
  Ca  Ca6  1  0.37500000  0.75000000  0.12500000  1
  Ca  Ca7  1  0.12500000  0.25000000  0.37500000  1
  Ca  Ca8  1  0.25000000  0.37500000  0.12500000  1
  Ca  Ca9  1  0.75000000  0.12500000  0.37500000  1
  Ca  Ca10  1  0.12500000  0.37500000  0.75000000  1
  Ca  Ca11  1  0.37500000  0.12500000  0.25000000  1
  V  V12  1  0.50000000  0.50000000  0.50000000  1
  V  V13  1  0.50000000  0.50000000  0.00000000  1
  V  V14  1  0.50000000  0.00000000  0.50000000  1
  V  V15  1  0.00000000  0.50000000  0.50000000  1
  V  V16  1  0.50000000  0.00000000  0.00000000  1
  V  V17  1  0.00000000  0.00000000  0.50000000  1
  V  V18  1  0.00000000  0.50000000  0.00000000  1
  V  V19  1  0.00000000  0.00000000  0.00000000  1
  Ge  Ge20  1  0.87500000  0.12500000  0.75000000  1
  Ge  Ge21  1  0.12500000  0.87500000  0.25000000  1
  Ge  Ge22  1  0.25000000  0.62500000  0.37500000  1
  Ge  Ge23  1  0.12500000  0.75000000  0.87500000  1
  Ge  Ge24  1  0.75000000  0.87500000  0.12500000  1
  Ge  Ge25  1  0.37500000  0.25000000  0.62500000  1
  Ge  Ge26  1  0.62500000  0.75000000  0.37500000  1
  Ge  Ge27  1  0.87500000  0.25000000  0.12500000  1
  Ge  Ge28  1  0.25000000  0.12500000  0.87500000  1
  Ge  Ge29  1  0.75000000  0.37500000  0.62500000  1
  Ge  Ge30  1  0.37500000  0.62500000  0.75000000  1
  Ge  Ge31  1  0.62500000  0.37500000  0.25000000  1
  O  O32  1  0.79659306  0.41526967  0.81364765  1
  O  O33  1  0.08473033  0.88132339  0.39837797  1
  O  O34  1  0.68635235  0.10162203  0.98294441  1
  O  O35  1  0.70340694  0.51705559  0.61867661  1
  O  O36  1  0.70340694  0.68635235  0.08473033  1
  O  O37  1  0.51705559  0.61867661  0.70340694  1
  O  O38  1  0.10162203  0.61867661  0.41526967  1
  O  O39  1  0.61867661  0.70340694  0.51705559  1
  O  O40  1  0.39837797  0.81364765  0.51705559  1
  O  O41  1  0.88132339  0.98294441  0.79659306  1
  O  O42  1  0.98294441  0.79659306  0.88132339  1
  O  O43  1  0.08473033  0.70340694  0.68635235  1
  O  O44  1  0.61867661  0.41526967  0.10162203  1
  O  O45  1  0.51705559  0.39837797  0.81364765  1
  O  O46  1  0.68635235  0.08473033  0.70340694  1
  O  O47  1  0.41526967  0.10162203  0.61867661  1
  O  O48  1  0.81364765  0.51705559  0.39837797  1
  O  O49  1  0.39837797  0.08473033  0.88132339  1
  O  O50  1  0.10162203  0.98294441  0.68635235  1
  O  O51  1  0.60162203  0.18635235  0.48294441  1
  O  O52  1  0.98294441  0.68635235  0.10162203  1
  O  O53  1  0.81364765  0.79659306  0.41526967  1
  O  O54  1  0.88132339  0.39837797  0.08473033  1
  O  O55  1  0.79659306  0.88132339  0.98294441  1
  O  O56  1  0.20340694  0.58473033  0.18635235  1
  O  O57  1  0.91526967  0.11867661  0.60162203  1
  O  O58  1  0.31364765  0.89837797  0.01705559  1
  O  O59  1  0.29659306  0.48294441  0.38132339  1
  O  O60  1  0.29659306  0.31364765  0.91526967  1
  O  O61  1  0.48294441  0.38132339  0.29659306  1
  O  O62  1  0.89837797  0.38132339  0.58473033  1
  O  O63  1  0.38132339  0.29659306  0.48294441  1
  O  O64  1  0.20340694  0.11867661  0.01705559  1
  O  O65  1  0.11867661  0.60162203  0.91526967  1
  O  O66  1  0.18635235  0.20340694  0.58473033  1
  O  O67  1  0.58473033  0.18635235  0.20340694  1
  O  O68  1  0.01705559  0.31364765  0.89837797  1
  O  O69  1  0.89837797  0.01705559  0.31364765  1
  O  O70  1  0.60162203  0.91526967  0.11867661  1
  O  O71  1  0.18635235  0.48294441  0.60162203  1
  O  O72  1  0.58473033  0.89837797  0.38132339  1
  O  O73  1  0.31364765  0.91526967  0.29659306  1
  O  O74  1  0.48294441  0.60162203  0.18635235  1
  O  O75  1  0.38132339  0.58473033  0.89837797  1
  O  O76  1  0.91526967  0.29659306  0.31364765  1
  O  O77  1  0.01705559  0.20340694  0.11867661  1
  O  O78  1  0.11867661  0.01705559  0.20340694  1
  O  O79  1  0.41526967  0.81364765  0.79659306  1
