# generated using pymatgen
data_ZrMn2
_symmetry_space_group_name_H-M   'P 1'
_cell_length_a   4.94519611
_cell_length_b   4.94519611
_cell_length_c   16.41528585
_cell_angle_alpha   90.00000000
_cell_angle_beta   90.00000000
_cell_angle_gamma   120.00000004
_symmetry_Int_Tables_number   1
_chemical_formula_structural   ZrMn2
_chemical_formula_sum   'Zr8 Mn16'
_cell_volume   347.65311062
_cell_formula_units_Z   8
loop_
 _symmetry_equiv_pos_site_id
 _symmetry_equiv_pos_as_xyz
  1  'x, y, z'
loop_
 _atom_site_type_symbol
 _atom_site_label
 _atom_site_symmetry_multiplicity
 _atom_site_fract_x
 _atom_site_fract_y
 _atom_site_fract_z
 _atom_site_occupancy
  Mn  Mn0  1  0.33333333  0.66666667  0.12505736  1
  Mn  Mn1  1  0.66666667  0.33333333  0.62505736  1
  Mn  Mn2  1  0.66666667  0.33333333  0.87494264  1
  Mn  Mn3  1  0.33333333  0.66666667  0.37494264  1
  Mn  Mn4  1  0.50000000  0.00000000  0.00000000  1
  Mn  Mn5  1  0.50000000  0.50000000  0.50000000  1
  Mn  Mn6  1  0.00000000  0.50000000  0.50000000  1
  Mn  Mn7  1  0.00000000  0.50000000  0.00000000  1
  Mn  Mn8  1  0.50000000  0.50000000  0.00000000  1
  Mn  Mn9  1  0.50000000  0.00000000  0.50000000  1
  Mn  Mn10  1  0.16394147  0.32788293  0.25000000  1
  Mn  Mn11  1  0.83605853  0.16394147  0.75000000  1
  Mn  Mn12  1  0.32788293  0.16394147  0.75000000  1
  Mn  Mn13  1  0.67211707  0.83605853  0.25000000  1
  Mn  Mn14  1  0.16394147  0.83605853  0.25000000  1
  Mn  Mn15  1  0.83605853  0.67211707  0.75000000  1
  Zr  Zr16  1  0.00000000  0.00000000  0.09302281  1
  Zr  Zr17  1  0.00000000  0.00000000  0.59302281  1
  Zr  Zr18  1  0.00000000  0.00000000  0.90697719  1
  Zr  Zr19  1  0.00000000  0.00000000  0.40697719  1
  Zr  Zr20  1  0.33333333  0.66666667  0.84334929  1
  Zr  Zr21  1  0.66666667  0.33333333  0.34334929  1
  Zr  Zr22  1  0.66666667  0.33333333  0.15665071  1
  Zr  Zr23  1  0.33333333  0.66666667  0.65665071  1
