# generated using pymatgen
data_Al4Fe13Si2(SbO14)2
_symmetry_space_group_name_H-M   'P 1'
_cell_length_a   5.55000571
_cell_length_b   9.01228912
_cell_length_c   11.93186934
_cell_angle_alpha   87.66042190
_cell_angle_beta   76.57299822
_cell_angle_gamma   79.73568966
_symmetry_Int_Tables_number   1
_chemical_formula_structural   Al4Fe13Si2(SbO14)2
_chemical_formula_sum   'Al4 Fe13 Si2 Sb2 O28'
_cell_volume   571.20812522
_cell_formula_units_Z   1
loop_
 _symmetry_equiv_pos_site_id
 _symmetry_equiv_pos_as_xyz
  1  'x, y, z'
loop_
 _atom_site_type_symbol
 _atom_site_label
 _atom_site_symmetry_multiplicity
 _atom_site_fract_x
 _atom_site_fract_y
 _atom_site_fract_z
 _atom_site_occupancy
  Al  Al0  1  0.05562716  0.67871789  0.42921713  1
  Al  Al1  1  0.51758880  0.32251830  0.42917108  1
  Al  Al2  1  0.94653781  0.32206908  0.57126700  1
  Al  Al3  1  0.48471496  0.67832399  0.57097738  1
  Fe  Fe4  1  0.92795124  0.64380158  0.70761555  1
  Fe  Fe5  1  0.64966349  0.35131865  0.13903468  1
  Fe  Fe6  1  0.36730424  0.35720358  0.70765919  1
  Fe  Fe7  1  0.07469296  0.35737611  0.29268480  1
  Fe  Fe8  1  0.35358241  0.65010623  0.86127275  1
  Fe  Fe9  1  0.28888115  0.00046389  0.42705893  1
  Fe  Fe10  1  0.21428974  0.65055468  0.13923731  1
  Fe  Fe11  1  0.00180329  0.00105721  0.00014646  1
  Fe  Fe12  1  0.43028055  0.00091979  0.14407154  1
  Fe  Fe13  1  0.78872314  0.35136125  0.86117305  1
  Fe  Fe14  1  0.63545357  0.64394329  0.29242443  1
  Fe  Fe15  1  0.57334160  0.00069086  0.85629258  1
  Fe  Fe16  1  0.71510798  0.00022915  0.57302295  1
  Si  Si17  1  0.23564760  0.31049211  0.00019271  1
  Si  Si18  1  0.76762913  0.69116991  0.00028594  1
  Sb  Sb19  1  0.86177715  0.00059154  0.28094299  1
  Sb  Sb20  1  0.14201659  0.00047352  0.71925493  1
  O  O21  1  0.67418346  0.40422513  0.30201400  1
  O  O22  1  0.18424782  0.35654381  0.45064568  1
  O  O23  1  0.93708479  0.35313257  0.00027733  1
  O  O24  1  0.30846800  0.12440591  0.99982920  1
  O  O25  1  0.81802029  0.64428768  0.55002404  1
  O  O26  1  0.32850903  0.59674090  0.69835389  1
  O  O27  1  0.01053473  0.11701073  0.58549835  1
  O  O28  1  0.98822532  0.88373210  0.41604792  1
  O  O29  1  0.69492756  0.87728516  0.00052661  1
  O  O30  1  0.12264389  0.88626470  0.15398346  1
  O  O31  1  0.28857480  0.37908774  0.11782650  1
  O  O32  1  0.02663131  0.59672991  0.30197924  1
  O  O33  1  0.40300862  0.88352536  0.58390607  1
  O  O34  1  0.72772146  0.11544929  0.15401532  1
  O  O35  1  0.59697119  0.62234058  0.11768601  1
  O  O36  1  0.06616212  0.64862301  0.00031620  1
  O  O37  1  0.27640807  0.88602331  0.84610464  1
  O  O38  1  0.88098934  0.11535721  0.84618987  1
  O  O39  1  0.59717716  0.11730021  0.41488097  1
  O  O40  1  0.12650938  0.12430752  0.28741526  1
  O  O41  1  0.87696855  0.87688074  0.71338600  1
  O  O42  1  0.40623280  0.37929433  0.88274843  1
  O  O43  1  0.41233260  0.12460358  0.71223378  1
  O  O44  1  0.63464158  0.35733057  0.54983819  1
  O  O45  1  0.71479138  0.62237243  0.88267749  1
  O  O46  1  0.59147000  0.87667227  0.28710786  1
  O  O47  1  0.97621392  0.40427279  0.69832220  1
  O  O48  1  0.36806627  0.64357884  0.45009609  1
