# generated using pymatgen
data_Fe5CuO8
_symmetry_space_group_name_H-M   'P 1'
_cell_length_a   6.01769136
_cell_length_b   6.01769151
_cell_length_c   6.01769160
_cell_angle_alpha   60.60482489
_cell_angle_beta   60.60482862
_cell_angle_gamma   60.60482812
_symmetry_Int_Tables_number   1
_chemical_formula_structural   Fe5CuO8
_chemical_formula_sum   'Fe5 Cu1 O8'
_cell_volume   156.19492283
_cell_formula_units_Z   1
loop_
 _symmetry_equiv_pos_site_id
 _symmetry_equiv_pos_as_xyz
  1  'x, y, z'
loop_
 _atom_site_type_symbol
 _atom_site_label
 _atom_site_symmetry_multiplicity
 _atom_site_fract_x
 _atom_site_fract_y
 _atom_site_fract_z
 _atom_site_occupancy
  Cu  Cu0  1  0.62500000  0.62500000  0.62500000  1
  Fe  Fe1  1  0.00483026  0.00483026  0.00483026  1
  Fe  Fe2  1  0.24516974  0.24516974  0.24516974  1
  Fe  Fe3  1  0.12500000  0.62500000  0.62500000  1
  Fe  Fe4  1  0.62500000  0.12500000  0.62500000  1
  Fe  Fe5  1  0.62500000  0.62500000  0.12500000  1
  O  O6  1  0.38211979  0.38211979  0.38211979  1
  O  O7  1  0.37528138  0.85404837  0.37528138  1
  O  O8  1  0.37528138  0.37528138  0.85404837  1
  O  O9  1  0.85404837  0.37528138  0.37528138  1
  O  O10  1  0.39595163  0.87471862  0.87471862  1
  O  O11  1  0.87471862  0.87471862  0.39595163  1
  O  O12  1  0.87471862  0.39595163  0.87471862  1
  O  O13  1  0.86788021  0.86788021  0.86788021  1
