# generated using pymatgen
data_TaSe2
_symmetry_space_group_name_H-M   'P 1'
_cell_length_a   3.47579514
_cell_length_b   3.47560883
_cell_length_c   14.11564220
_cell_angle_alpha   90.00000000
_cell_angle_beta   90.00000000
_cell_angle_gamma   120.00177322
_symmetry_Int_Tables_number   1
_chemical_formula_structural   TaSe2
_chemical_formula_sum   'Ta2 Se4'
_cell_volume   147.67554315
_cell_formula_units_Z   2
loop_
 _symmetry_equiv_pos_site_id
 _symmetry_equiv_pos_as_xyz
  1  'x, y, z'
loop_
 _atom_site_type_symbol
 _atom_site_label
 _atom_site_symmetry_multiplicity
 _atom_site_fract_x
 _atom_site_fract_y
 _atom_site_fract_z
 _atom_site_occupancy
  Ta  Ta0  1  0.33340899  0.66681797  0.25000000  1
  Ta  Ta1  1  0.66659101  0.33318203  0.75000000  1
  Se  Se2  1  0.33330697  0.66661395  0.86873855  1
  Se  Se3  1  0.66669303  0.33338605  0.13126145  1
  Se  Se4  1  0.66669303  0.33338605  0.36873855  1
  Se  Se5  1  0.33330697  0.66661395  0.63126145  1
