# generated using pymatgen
data_ThPO5
_symmetry_space_group_name_H-M   'P 1'
_cell_length_a   5.95766616
_cell_length_b   5.95766616
_cell_length_c   12.90380473
_cell_angle_alpha   90.00000000
_cell_angle_beta   90.00000000
_cell_angle_gamma   105.69928213
_symmetry_Int_Tables_number   1
_chemical_formula_structural   ThPO5
_chemical_formula_sum   'Th4 P4 O20'
_cell_volume   440.91907518
_cell_formula_units_Z   4
loop_
 _symmetry_equiv_pos_site_id
 _symmetry_equiv_pos_as_xyz
  1  'x, y, z'
loop_
 _atom_site_type_symbol
 _atom_site_label
 _atom_site_symmetry_multiplicity
 _atom_site_fract_x
 _atom_site_fract_y
 _atom_site_fract_z
 _atom_site_occupancy
  Th  Th0  1  0.78950152  0.21049848  0.07573829  1
  Th  Th1  1  0.21049848  0.78950152  0.92426171  1
  Th  Th2  1  0.71049848  0.28950152  0.57573829  1
  Th  Th3  1  0.28950152  0.71049848  0.42426171  1
  P  P4  1  0.60390912  0.39609088  0.86173838  1
  P  P5  1  0.39609088  0.60390912  0.13826162  1
  P  P6  1  0.89609088  0.10390912  0.36173838  1
  P  P7  1  0.10390912  0.89609088  0.63826162  1
  O  O8  1  0.83819893  0.49985332  0.92196650  1
  O  O9  1  0.49985332  0.83819893  0.07803350  1
  O  O10  1  0.99985332  0.33819893  0.42196650  1
  O  O11  1  0.33819893  0.99985332  0.57803350  1
  O  O12  1  0.16180107  0.50014668  0.07803350  1
  O  O13  1  0.50014668  0.16180107  0.92196650  1
  O  O14  1  0.00014668  0.66180107  0.57803350  1
  O  O15  1  0.66180107  0.00014668  0.42196650  1
  O  O16  1  0.65228863  0.34771137  0.74833121  1
  O  O17  1  0.34771137  0.65228863  0.25166879  1
  O  O18  1  0.84771137  0.15228863  0.24833121  1
  O  O19  1  0.15228863  0.84771137  0.75166879  1
  O  O20  1  0.44305519  0.55694481  0.86905951  1
  O  O21  1  0.55694481  0.44305519  0.13094049  1
  O  O22  1  0.05694481  0.94305519  0.36905951  1
  O  O23  1  0.94305519  0.05694481  0.63094049  1
  O  O24  1  0.96469479  0.03530521  0.94760103  1
  O  O25  1  0.03530521  0.96469479  0.05239897  1
  O  O26  1  0.53530521  0.46469479  0.44760103  1
  O  O27  1  0.46469479  0.53530521  0.55239897  1
