# generated using pymatgen
data_Ca8Si5O18
_symmetry_space_group_name_H-M   'P 1'
_cell_length_a   5.13455001
_cell_length_b   11.53025815
_cell_length_c   28.94152502
_cell_angle_alpha   90.00000000
_cell_angle_beta   90.00000000
_cell_angle_gamma   90.00000000
_symmetry_Int_Tables_number   1
_chemical_formula_structural   Ca8Si5O18
_chemical_formula_sum   'Ca32 Si20 O72'
_cell_volume   1713.41604994
_cell_formula_units_Z   4
loop_
 _symmetry_equiv_pos_site_id
 _symmetry_equiv_pos_as_xyz
  1  'x, y, z'
loop_
 _atom_site_type_symbol
 _atom_site_label
 _atom_site_symmetry_multiplicity
 _atom_site_fract_x
 _atom_site_fract_y
 _atom_site_fract_z
 _atom_site_occupancy
  Ca  Ca0  1  0.49758180  0.28308613  0.94222082  1
  Ca  Ca1  1  0.00241820  0.21691387  0.44222082  1
  Ca  Ca2  1  0.99758180  0.21691387  0.05777918  1
  Ca  Ca3  1  0.50241820  0.28308613  0.55777918  1
  Ca  Ca4  1  0.50241820  0.71691387  0.05777918  1
  Ca  Ca5  1  0.99758180  0.78308613  0.55777918  1
  Ca  Ca6  1  0.00241820  0.78308613  0.94222082  1
  Ca  Ca7  1  0.49758180  0.71691387  0.44222082  1
  Ca  Ca8  1  -0.00000000  0.50000000  -0.00000000  1
  Ca  Ca9  1  0.50000000  0.00000000  0.50000000  1
  Ca  Ca10  1  0.50000000  0.00000000  -0.00000000  1
  Ca  Ca11  1  -0.00000000  0.50000000  0.50000000  1
  Ca  Ca12  1  0.99401447  0.51073553  0.87773974  1
  Ca  Ca13  1  0.50598553  0.98926447  0.37773974  1
  Ca  Ca14  1  0.49401447  0.98926447  0.12226026  1
  Ca  Ca15  1  0.00598553  0.51073553  0.62226026  1
  Ca  Ca16  1  0.00598553  0.48926447  0.12226026  1
  Ca  Ca17  1  0.49401447  0.01073553  0.62226026  1
  Ca  Ca18  1  0.50598553  0.01073553  0.87773974  1
  Ca  Ca19  1  0.99401447  0.48926447  0.37773974  1
  Ca  Ca20  1  0.50555852  0.71533018  0.83046527  1
  Ca  Ca21  1  0.99444148  0.78466982  0.33046527  1
  Ca  Ca22  1  0.00555852  0.78466982  0.16953473  1
  Ca  Ca23  1  0.49444148  0.71533018  0.66953473  1
  Ca  Ca24  1  0.49444148  0.28466982  0.16953473  1
  Ca  Ca25  1  0.00555852  0.21533018  0.66953473  1
  Ca  Ca26  1  0.99444148  0.21533018  0.83046527  1
  Ca  Ca27  1  0.50555852  0.28466982  0.33046527  1
  Ca  Ca28  1  -0.00000000  0.48511332  0.75000000  1
  Ca  Ca29  1  0.50000000  0.01488668  0.25000000  1
  Ca  Ca30  1  -0.00000000  0.51488668  0.25000000  1
  Ca  Ca31  1  0.50000000  0.98511332  0.75000000  1
  Si  Si32  1  0.57199809  0.59527749  0.94233297  1
  Si  Si33  1  0.92800191  0.90472251  0.44233297  1
  Si  Si34  1  0.07199809  0.90472251  0.05766703  1
  Si  Si35  1  0.42800191  0.59527749  0.55766703  1
  Si  Si36  1  0.42800191  0.40472251  0.05766703  1
  Si  Si37  1  0.07199809  0.09527749  0.55766703  1
  Si  Si38  1  0.92800191  0.09527749  0.94233297  1
  Si  Si39  1  0.57199809  0.40472251  0.44233297  1
  Si  Si40  1  0.44123785  0.40507686  0.82696013  1
  Si  Si41  1  0.05876215  0.09492314  0.32696013  1
  Si  Si42  1  0.94123785  0.09492314  0.17303987  1
  Si  Si43  1  0.55876215  0.40507686  0.67303987  1
  Si  Si44  1  0.55876215  0.59492314  0.17303987  1
  Si  Si45  1  0.94123785  0.90507686  0.67303987  1
  Si  Si46  1  0.05876215  0.90507686  0.82696013  1
  Si  Si47  1  0.44123785  0.59492314  0.32696013  1
  Si  Si48  1  0.50000000  0.23782910  0.75000000  1
  Si  Si49  1  -0.00000000  0.26217090  0.25000000  1
  Si  Si50  1  0.50000000  0.76217090  0.25000000  1
  Si  Si51  1  -0.00000000  0.73782910  0.75000000  1
  O  O52  1  0.70531310  0.46309642  0.94025932  1
  O  O53  1  0.79468690  0.03690358  0.44025932  1
  O  O54  1  0.20531310  0.03690358  0.05974068  1
  O  O55  1  0.29468690  0.46309642  0.55974068  1
  O  O56  1  0.29468690  0.53690358  0.05974068  1
  O  O57  1  0.20531310  0.96309642  0.55974068  1
  O  O58  1  0.79468690  0.96309642  0.94025932  1
  O  O59  1  0.70531310  0.53690358  0.44025932  1
  O  O60  1  0.70336735  0.66411332  0.89765851  1
  O  O61  1  0.79663265  0.83588668  0.39765851  1
  O  O62  1  0.20336735  0.83588668  0.10234149  1
  O  O63  1  0.29663265  0.66411332  0.60234149  1
  O  O64  1  0.29663265  0.33588668  0.10234149  1
  O  O65  1  0.20336735  0.16411332  0.60234149  1
  O  O66  1  0.79663265  0.16411332  0.89765851  1
  O  O67  1  0.70336735  0.33588668  0.39765851  1
  O  O68  1  0.70183929  0.65840761  0.98853438  1
  O  O69  1  0.79816071  0.84159239  0.48853438  1
  O  O70  1  0.20183929  0.84159239  0.01146562  1
  O  O71  1  0.29816071  0.65840761  0.51146562  1
  O  O72  1  0.29816071  0.34159239  0.01146562  1
  O  O73  1  0.20183929  0.15840761  0.51146562  1
  O  O74  1  0.79816071  0.15840761  0.98853438  1
  O  O75  1  0.70183929  0.34159239  0.48853438  1
  O  O76  1  0.25199540  0.59480184  0.94080593  1
  O  O77  1  0.24800460  0.90519816  0.44080593  1
  O  O78  1  0.75199540  0.90519816  0.05919407  1
  O  O79  1  0.74800460  0.59480184  0.55919407  1
  O  O80  1  0.74800460  0.40519816  0.05919407  1
  O  O81  1  0.75199540  0.09480184  0.55919407  1
  O  O82  1  0.24800460  0.09480184  0.94080593  1
  O  O83  1  0.25199540  0.40519816  0.44080593  1
  O  O84  1  0.30073182  0.34287207  0.87165775  1
  O  O85  1  0.19926818  0.15712793  0.37165775  1
  O  O86  1  0.80073182  0.15712793  0.12834225  1
  O  O87  1  0.69926818  0.34287207  0.62834225  1
  O  O88  1  0.69926818  0.65712793  0.12834225  1
  O  O89  1  0.80073182  0.84287207  0.62834225  1
  O  O90  1  0.19926818  0.84287207  0.87165775  1
  O  O91  1  0.30073182  0.65712793  0.37165775  1
  O  O92  1  0.30832473  0.53289972  0.82025964  1
  O  O93  1  0.19167527  0.96710028  0.32025964  1
  O  O94  1  0.80832473  0.96710028  0.17974036  1
  O  O95  1  0.69167527  0.53289972  0.67974036  1
  O  O96  1  0.69167527  0.46710028  0.17974036  1
  O  O97  1  0.80832473  0.03289972  0.67974036  1
  O  O98  1  0.19167527  0.03289972  0.82025964  1
  O  O99  1  0.30832473  0.46710028  0.32025964  1
  O  O100  1  0.31091114  0.32771300  0.78129311  1
  O  O101  1  0.18908886  0.17228700  0.28129311  1
  O  O102  1  0.81091114  0.17228700  0.21870689  1
  O  O103  1  0.68908886  0.32771300  0.71870689  1
  O  O104  1  0.68908886  0.67228700  0.21870689  1
  O  O105  1  0.81091114  0.82771300  0.71870689  1
  O  O106  1  0.18908886  0.82771300  0.78129311  1
  O  O107  1  0.31091114  0.67228700  0.28129311  1
  O  O108  1  0.75744016  0.40088697  0.82347109  1
  O  O109  1  0.74255984  0.09911303  0.32347109  1
  O  O110  1  0.25744016  0.09911303  0.17652891  1
  O  O111  1  0.24255984  0.40088697  0.67652891  1
  O  O112  1  0.24255984  0.59911303  0.17652891  1
  O  O113  1  0.25744016  0.90088697  0.67652891  1
  O  O114  1  0.74255984  0.90088697  0.82347109  1
  O  O115  1  0.75744016  0.59911303  0.32347109  1
  O  O116  1  0.67620599  0.15665738  0.78275866  1
  O  O117  1  0.82379401  0.34334262  0.28275866  1
  O  O118  1  0.17620599  0.34334262  0.21724134  1
  O  O119  1  0.32379401  0.15665738  0.71724134  1
  O  O120  1  0.32379401  0.84334262  0.21724134  1
  O  O121  1  0.17620599  0.65665738  0.71724134  1
  O  O122  1  0.82379401  0.65665738  0.78275866  1
  O  O123  1  0.67620599  0.84334262  0.28275866  1
