# generated using pymatgen
data_BaAl4O7
_symmetry_space_group_name_H-M   'P 1'
_cell_length_a   12.94800649
_cell_length_b   9.28149991
_cell_length_c   5.63127333
_cell_angle_alpha   90.00000000
_cell_angle_beta   90.00000000
_cell_angle_gamma   90.00000000
_symmetry_Int_Tables_number   1
_chemical_formula_structural   BaAl4O7
_chemical_formula_sum   'Ba4 Al16 O28'
_cell_volume   676.74909051
_cell_formula_units_Z   4
loop_
 _symmetry_equiv_pos_site_id
 _symmetry_equiv_pos_as_xyz
  1  'x, y, z'
loop_
 _atom_site_type_symbol
 _atom_site_label
 _atom_site_symmetry_multiplicity
 _atom_site_fract_x
 _atom_site_fract_y
 _atom_site_fract_z
 _atom_site_occupancy
  Ba  Ba0  1  -0.00000000  0.18864971  0.87553181  1
  Ba  Ba1  1  0.50000000  0.68864971  0.12446819  1
  Ba  Ba2  1  -0.00000000  0.78680391  0.37324022  1
  Ba  Ba3  1  0.50000000  0.28680391  0.62675978  1
  Al  Al4  1  0.82437451  0.07385992  0.42847431  1
  Al  Al5  1  0.17562549  0.07385992  0.42847431  1
  Al  Al6  1  0.67562549  0.57385992  0.57152569  1
  Al  Al7  1  0.32437451  0.57385992  0.57152569  1
  Al  Al8  1  0.82456045  0.89999692  0.92801568  1
  Al  Al9  1  0.17543955  0.89999692  0.92801568  1
  Al  Al10  1  0.67543955  0.39999692  0.07198432  1
  Al  Al11  1  0.32456045  0.39999692  0.07198432  1
  Al  Al12  1  0.62304522  0.92169655  0.62064095  1
  Al  Al13  1  0.37695478  0.92169655  0.62064095  1
  Al  Al14  1  0.87695478  0.42169655  0.37935905  1
  Al  Al15  1  0.12304522  0.42169655  0.37935905  1
  Al  Al16  1  0.62311798  0.05190053  0.12071463  1
  Al  Al17  1  0.37688202  0.05190053  0.12071463  1
  Al  Al18  1  0.87688202  0.55190053  0.87928537  1
  Al  Al19  1  0.12311798  0.55190053  0.87928537  1
  O  O20  1  0.68570449  0.92902970  0.91297403  1
  O  O21  1  0.31429551  0.92902970  0.91297403  1
  O  O22  1  0.81429551  0.42902970  0.08702597  1
  O  O23  1  0.18570449  0.42902970  0.08702597  1
  O  O24  1  0.68553033  0.04475235  0.41345836  1
  O  O25  1  0.31446967  0.04475235  0.41345836  1
  O  O26  1  0.81446967  0.54475235  0.58654164  1
  O  O27  1  0.18553033  0.54475235  0.58654164  1
  O  O28  1  0.86558109  0.24842675  0.49098510  1
  O  O29  1  0.13441891  0.24842675  0.49098510  1
  O  O30  1  0.63441891  0.74842675  0.50901490  1
  O  O31  1  0.36558109  0.74842675  0.50901490  1
  O  O32  1  0.87370409  0.96382702  0.65664432  1
  O  O33  1  0.12629591  0.96382702  0.65664432  1
  O  O34  1  0.62629591  0.46382702  0.34335568  1
  O  O35  1  0.37370409  0.46382702  0.34335568  1
  O  O36  1  0.87358073  0.01041934  0.15652615  1
  O  O37  1  0.12641927  0.01041934  0.15652615  1
  O  O38  1  0.62641927  0.51041934  0.84347385  1
  O  O39  1  0.37358073  0.51041934  0.84347385  1
  O  O40  1  0.63344639  0.22561117  0.00999449  1
  O  O41  1  0.36655361  0.22561117  0.00999449  1
  O  O42  1  0.86655361  0.72561117  0.99000551  1
  O  O43  1  0.13344639  0.72561117  0.99000551  1
  O  O44  1  0.50000000  0.98628110  0.18883853  1
  O  O45  1  -0.00000000  0.48628110  0.81116147  1
  O  O46  1  0.50000000  0.98676977  0.69014204  1
  O  O47  1  -0.00000000  0.48676977  0.30985796  1
