# generated using pymatgen
data_Na2Zn2Se3
_symmetry_space_group_name_H-M   'P 1'
_cell_length_a   7.11599379
_cell_length_b   10.39774761
_cell_length_c   10.39774796
_cell_angle_alpha   82.83185977
_cell_angle_beta   70.10313006
_cell_angle_gamma   70.10312938
_symmetry_Int_Tables_number   1
_chemical_formula_structural   Na2Zn2Se3
_chemical_formula_sum   'Na8 Zn8 Se12'
_cell_volume   680.19103553
_cell_formula_units_Z   4
loop_
 _symmetry_equiv_pos_site_id
 _symmetry_equiv_pos_as_xyz
  1  'x, y, z'
loop_
 _atom_site_type_symbol
 _atom_site_label
 _atom_site_symmetry_multiplicity
 _atom_site_fract_x
 _atom_site_fract_y
 _atom_site_fract_z
 _atom_site_occupancy
  Na  Na0  1  0.75000000  0.56953975  0.43046025  1
  Na  Na1  1  0.25000000  0.43046025  0.56953975  1
  Na  Na2  1  0.75000000  0.27824276  0.72175724  1
  Na  Na3  1  0.25000000  0.72175724  0.27824276  1
  Na  Na4  1  0.63690768  0.97944620  0.80957576  1
  Na  Na5  1  0.86309232  0.19042424  0.02055380  1
  Na  Na6  1  0.36309232  0.02055380  0.19042424  1
  Na  Na7  1  0.13690768  0.80957576  0.97944620  1
  Zn  Zn8  1  0.79680072  0.21039307  0.36414794  1
  Zn  Zn9  1  0.70319928  0.63585206  0.78960693  1
  Zn  Zn10  1  0.20319928  0.78960693  0.63585206  1
  Zn  Zn11  1  0.29680072  0.36414794  0.21039307  1
  Zn  Zn12  1  0.76237238  0.54827766  0.07982111  1
  Zn  Zn13  1  0.73762762  0.92017889  0.45172234  1
  Zn  Zn14  1  0.23762762  0.45172234  0.92017889  1
  Zn  Zn15  1  0.26237238  0.07982111  0.54827766  1
  Se  Se16  1  0.56775574  0.42517354  0.27604777  1
  Se  Se17  1  0.93224426  0.72395223  0.57482646  1
  Se  Se18  1  0.43224426  0.57482646  0.72395223  1
  Se  Se19  1  0.06775574  0.27604777  0.42517354  1
  Se  Se20  1  0.55081703  0.14631605  0.58174195  1
  Se  Se21  1  0.94918297  0.41825805  0.85368395  1
  Se  Se22  1  0.44918297  0.85368395  0.41825805  1
  Se  Se23  1  0.05081703  0.58174195  0.14631605  1
  Se  Se24  1  0.55502773  0.76882465  0.00317709  1
  Se  Se25  1  0.94497227  0.99682291  0.23117535  1
  Se  Se26  1  0.44497227  0.23117535  0.99682291  1
  Se  Se27  1  0.05502773  0.00317709  0.76882465  1
