# generated using pymatgen
data_Ti2VS4
_symmetry_space_group_name_H-M   'P 1'
_cell_length_a   3.35787561
_cell_length_b   6.01060864
_cell_length_c   6.71552019
_cell_angle_alpha   115.92261814
_cell_angle_beta   104.47802117
_cell_angle_gamma   90.00000000
_symmetry_Int_Tables_number   1
_chemical_formula_structural   Ti2VS4
_chemical_formula_sum   'Ti2 V1 S4'
_cell_volume   117.09692670
_cell_formula_units_Z   1
loop_
 _symmetry_equiv_pos_site_id
 _symmetry_equiv_pos_as_xyz
  1  'x, y, z'
loop_
 _atom_site_type_symbol
 _atom_site_label
 _atom_site_symmetry_multiplicity
 _atom_site_fract_x
 _atom_site_fract_y
 _atom_site_fract_z
 _atom_site_occupancy
  Ti  Ti0  1  0.25527719  0.28059708  0.51055439  1
  Ti  Ti1  1  0.74472281  0.71940292  0.48944561  1
  V  V2  1  0.00000000  -0.00000000  0.00000000  1
  S  S3  1  0.11630567  0.44458381  0.23261133  1
  S  S4  1  0.88369433  0.55541619  0.76738867  1
  S  S5  1  0.37155640  0.03452816  0.74311280  1
  S  S6  1  0.62844360  0.96547184  0.25688720  1
