# generated using pymatgen
data_MnCu2SnTe4
_symmetry_space_group_name_H-M   'P 1'
_cell_length_a   6.19693515
_cell_length_b   6.19693515
_cell_length_c   7.58528246
_cell_angle_alpha   114.10964635
_cell_angle_beta   114.10964635
_cell_angle_gamma   90.00000000
_symmetry_Int_Tables_number   1
_chemical_formula_structural   MnCu2SnTe4
_chemical_formula_sum   'Mn1 Cu2 Sn1 Te4'
_cell_volume   237.76860497
_cell_formula_units_Z   1
loop_
 _symmetry_equiv_pos_site_id
 _symmetry_equiv_pos_as_xyz
  1  'x, y, z'
loop_
 _atom_site_type_symbol
 _atom_site_label
 _atom_site_symmetry_multiplicity
 _atom_site_fract_x
 _atom_site_fract_y
 _atom_site_fract_z
 _atom_site_occupancy
  Mn  Mn0  1  0.00000000  -0.00000000  -0.00000000  1
  Cu  Cu1  1  0.25000000  0.75000000  0.50000000  1
  Cu  Cu2  1  0.75000000  0.25000000  0.50000000  1
  Sn  Sn3  1  0.50000000  0.50000000  -0.00000000  1
  Te  Te4  1  0.37800773  0.37800773  0.27565864  1
  Te  Te5  1  0.89765091  0.89765091  0.27565864  1
  Te  Te6  1  0.10234909  0.62199227  0.72434136  1
  Te  Te7  1  0.62199227  0.10234909  0.72434136  1
