# generated using pymatgen
data_WSe2
_symmetry_space_group_name_H-M   'P 1'
_cell_length_a   3.32608285
_cell_length_b   3.32608287
_cell_length_c   32.59038531
_cell_angle_alpha   90.00000000
_cell_angle_beta   90.00000000
_cell_angle_gamma   120.00000989
_symmetry_Int_Tables_number   1
_chemical_formula_structural   WSe2
_chemical_formula_sum   'W3 Se6'
_cell_volume   312.23832712
_cell_formula_units_Z   3
loop_
 _symmetry_equiv_pos_site_id
 _symmetry_equiv_pos_as_xyz
  1  'x, y, z'
loop_
 _atom_site_type_symbol
 _atom_site_label
 _atom_site_symmetry_multiplicity
 _atom_site_fract_x
 _atom_site_fract_y
 _atom_site_fract_z
 _atom_site_occupancy
  W  W0  1  0.66666700  0.33333300  0.34664200  1
  W  W1  1  0.33333300  0.66666700  0.11554411  1
  W  W2  1  0.33333300  0.66666700  0.57773889  1
  Se  Se3  1  0.33333300  0.66666700  0.39820403  1
  Se  Se4  1  0.66666700  0.33333300  0.16711577  1
  Se  Se5  1  0.66666700  0.33333300  0.62929974  1
  Se  Se6  1  0.33333300  0.66666700  0.29507997  1
  Se  Se7  1  0.66666700  0.33333300  0.06398326  1
  Se  Se8  1  0.66666700  0.33333300  0.52616823  1
