# generated using pymatgen
data_WS2
_symmetry_space_group_name_H-M   'P 1'
_cell_length_a   3.19073100
_cell_length_b   3.19073066
_cell_length_c   38.40480400
_cell_angle_alpha   90.00000000
_cell_angle_beta   90.00000000
_cell_angle_gamma   60.00000685
_symmetry_Int_Tables_number   1
_chemical_formula_structural   WS2
_chemical_formula_sum   'W4 S8'
_cell_volume   338.60748354
_cell_formula_units_Z   4
loop_
 _symmetry_equiv_pos_site_id
 _symmetry_equiv_pos_as_xyz
  1  'x, y, z'
loop_
 _atom_site_type_symbol
 _atom_site_label
 _atom_site_symmetry_multiplicity
 _atom_site_fract_x
 _atom_site_fract_y
 _atom_site_fract_z
 _atom_site_occupancy
  W  W0  1  0.66666600  0.66666700  0.27735600  1
  W  W1  1  0.66666600  0.66666700  0.64716400  1
  W  W2  1  0.33333400  0.33333300  0.09245200  1
  W  W3  1  0.33333400  0.33333300  0.46226000  1
  S  S4  1  0.66666600  0.66666700  0.05149300  1
  S  S5  1  0.66666600  0.66666700  0.42130100  1
  S  S6  1  0.33333400  0.33333300  0.23639600  1
  S  S7  1  0.33333400  0.33333300  0.60620400  1
  S  S8  1  0.66666600  0.66666700  0.13341100  1
  S  S9  1  0.66666600  0.66666700  0.50321900  1
  S  S10  1  0.33333400  0.33333300  0.31831600  1
  S  S11  1  0.33333400  0.33333300  0.68812400  1
