# generated using pymatgen
data_MoS2
_symmetry_space_group_name_H-M   'P 1'
_cell_length_a   3.19031600
_cell_length_b   3.19031539
_cell_length_c   39.75800900
_cell_angle_alpha   90.00000000
_cell_angle_beta   90.00000000
_cell_angle_gamma   120.00000630
_symmetry_Int_Tables_number   1
_chemical_formula_structural   MoS2
_chemical_formula_sum   'Mo4 S8'
_cell_volume   350.44716652
_cell_formula_units_Z   4
loop_
 _symmetry_equiv_pos_site_id
 _symmetry_equiv_pos_as_xyz
  1  'x, y, z'
loop_
 _atom_site_type_symbol
 _atom_site_label
 _atom_site_symmetry_multiplicity
 _atom_site_fract_x
 _atom_site_fract_y
 _atom_site_fract_z
 _atom_site_occupancy
  Mo  Mo0  1  0.66666700  0.33333300  0.28067900  1
  Mo  Mo1  1  0.66666700  0.33333300  0.65491900  1
  Mo  Mo2  1  0.33333300  0.66666700  0.09356000  1
  Mo  Mo3  1  0.33333300  0.66666700  0.46779900  1
  S  S4  1  0.33333300  0.66666700  0.32004000  1
  S  S5  1  0.33333300  0.66666700  0.69427900  1
  S  S6  1  0.66666700  0.33333300  0.13292000  1
  S  S7  1  0.66666700  0.33333300  0.50715900  1
  S  S8  1  0.33333300  0.66666700  0.24131900  1
  S  S9  1  0.33333300  0.66666700  0.61555800  1
  S  S10  1  0.66666700  0.33333300  0.05419900  1
  S  S11  1  0.66666700  0.33333300  0.42843900  1
