# generated using pymatgen
data_WSe2
_symmetry_space_group_name_H-M   'P 1'
_cell_length_a   3.32706900
_cell_length_b   3.32706901
_cell_length_c   40.13790100
_cell_angle_alpha   90.00000000
_cell_angle_beta   90.00000000
_cell_angle_gamma   120.00000982
_symmetry_Int_Tables_number   1
_chemical_formula_structural   WSe2
_chemical_formula_sum   'W4 Se8'
_cell_volume   384.77678661
_cell_formula_units_Z   4
loop_
 _symmetry_equiv_pos_site_id
 _symmetry_equiv_pos_as_xyz
  1  'x, y, z'
loop_
 _atom_site_type_symbol
 _atom_site_label
 _atom_site_symmetry_multiplicity
 _atom_site_fract_x
 _atom_site_fract_y
 _atom_site_fract_z
 _atom_site_occupancy
  W  W0  1  0.66666700  0.33333300  0.28157200  1
  W  W1  1  0.66666700  0.33333300  0.65700200  1
  W  W2  1  0.33333300  0.66666700  0.09385700  1
  W  W3  1  0.33333300  0.66666700  0.46928700  1
  Se  Se4  1  0.33333300  0.66666700  0.32345800  1
  Se  Se5  1  0.33333300  0.66666700  0.69888800  1
  Se  Se6  1  0.66666700  0.33333300  0.13574400  1
  Se  Se7  1  0.66666700  0.33333300  0.51117300  1
  Se  Se8  1  0.33333300  0.66666700  0.23968600  1
  Se  Se9  1  0.33333300  0.66666700  0.61511500  1
  Se  Se10  1  0.66666700  0.33333300  0.05197100  1
  Se  Se11  1  0.66666700  0.33333300  0.42740100  1
