# generated using pymatgen
data_Ag2O
_symmetry_space_group_name_H-M   'P 1'
_cell_length_a   4.23912429
_cell_length_b   5.17353549
_cell_length_c   10.13585108
_cell_angle_alpha   59.32100961
_cell_angle_beta   63.79923091
_cell_angle_gamma   67.67003856
_symmetry_Int_Tables_number   1
_chemical_formula_structural   Ag2O
_chemical_formula_sum   'Ag6 O3'
_cell_volume   168.05583479
_cell_formula_units_Z   3
loop_
 _symmetry_equiv_pos_site_id
 _symmetry_equiv_pos_as_xyz
  1  'x, y, z'
loop_
 _atom_site_type_symbol
 _atom_site_label
 _atom_site_symmetry_multiplicity
 _atom_site_fract_x
 _atom_site_fract_y
 _atom_site_fract_z
 _atom_site_occupancy
  Ag  Ag0  1  0.24205854  0.16923342  0.12832371  1
  Ag  Ag1  1  0.47120674  0.46455978  0.27444271  1
  Ag  Ag2  1  0.22090506  0.23874423  0.64660538  1
  Ag  Ag3  1  0.47909698  0.46049594  0.77762946  1
  Ag  Ag4  1  0.67820095  0.79033210  0.43293308  1
  Ag  Ag5  1  0.65609709  0.82379449  0.90758175  1
  O  O6  1  0.71815834  0.27398743  0.10484547  1
  O  O7  1  0.20549809  0.83558303  0.85537589  1
  O  O8  1  0.22577822  0.66026957  0.44476155  1
