# generated using pymatgen
data_MoWSe4
_symmetry_space_group_name_H-M   'P 1'
_cell_length_a   3.32325594
_cell_length_b   3.32320164
_cell_length_c   37.84631358
_cell_angle_alpha   90.00014987
_cell_angle_beta   90.00000000
_cell_angle_gamma   120.00054049
_symmetry_Int_Tables_number   1
_chemical_formula_structural   MoWSe4
_chemical_formula_sum   'Mo2 W2 Se8'
_cell_volume   361.96979628
_cell_formula_units_Z   2
loop_
 _symmetry_equiv_pos_site_id
 _symmetry_equiv_pos_as_xyz
  1  'x, y, z'
loop_
 _atom_site_type_symbol
 _atom_site_label
 _atom_site_symmetry_multiplicity
 _atom_site_fract_x
 _atom_site_fract_y
 _atom_site_fract_z
 _atom_site_occupancy
  Mo  Mo0  1  0.33330774  0.66661547  0.09391833  1
  Mo  Mo1  1  0.33331275  0.66662551  0.46966026  1
  W  W2  1  0.66668930  0.33337859  0.28179835  1
  W  W3  1  0.66669140  0.33338281  0.65753880  1
  Se  Se4  1  0.33335421  0.66670942  0.32630810  1
  Se  Se5  1  0.33335487  0.66671074  0.70204343  1
  Se  Se6  1  0.66663679  0.33327258  0.04964204  1
  Se  Se7  1  0.66664994  0.33329888  0.42538071  1
  Se  Se8  1  0.66664362  0.33328623  0.13820471  1
  Se  Se9  1  0.66664888  0.33329676  0.51393497  1
  Se  Se10  1  0.33335457  0.66671014  0.23728800  1
  Se  Se11  1  0.33335593  0.66671286  0.61303030  1
