# generated using pymatgen
data_Mo3WSe8
_symmetry_space_group_name_H-M   'P 1'
_cell_length_a   3.32372080
_cell_length_b   3.32361788
_cell_length_c   37.82491404
_cell_angle_alpha   90.00061196
_cell_angle_beta   90.00000000
_cell_angle_gamma   120.00102441
_symmetry_Int_Tables_number   1
_chemical_formula_structural   Mo3WSe8
_chemical_formula_sum   'Mo3 W1 Se8'
_cell_volume   361.85928376
_cell_formula_units_Z   1
loop_
 _symmetry_equiv_pos_site_id
 _symmetry_equiv_pos_as_xyz
  1  'x, y, z'
loop_
 _atom_site_type_symbol
 _atom_site_label
 _atom_site_symmetry_multiplicity
 _atom_site_fract_x
 _atom_site_fract_y
 _atom_site_fract_z
 _atom_site_occupancy
  Mo  Mo0  1  0.33330696  0.66661392  0.09391953  1
  Mo  Mo1  1  0.33330996  0.66661991  0.46965751  1
  Mo  Mo2  1  0.66669052  0.33338104  0.28179981  1
  W  W3  1  0.66669058  0.33338117  0.65753848  1
  Se  Se4  1  0.33336726  0.66673553  0.32611508  1
  Se  Se5  1  0.33335446  0.66670992  0.70206718  1
  Se  Se6  1  0.66664694  0.33329289  0.04962702  1
  Se  Se7  1  0.66664798  0.33329496  0.42535860  1
  Se  Se8  1  0.66663334  0.33326568  0.13822839  1
  Se  Se9  1  0.66664823  0.33329545  0.51394459  1
  Se  Se10  1  0.33335070  0.66670241  0.23748636  1
  Se  Se11  1  0.33335306  0.66670712  0.61300545  1
