# generated using pymatgen
data_SnO2
_symmetry_space_group_name_H-M   'P 1'
_cell_length_a   5.81974907
_cell_length_b   5.81974957
_cell_length_c   6.49779389
_cell_angle_alpha   56.06486805
_cell_angle_beta   56.06487673
_cell_angle_gamma   71.84691108
_symmetry_Int_Tables_number   1
_chemical_formula_structural   SnO2
_chemical_formula_sum   'Sn4 O8'
_cell_volume   151.49051645
_cell_formula_units_Z   4
loop_
 _symmetry_equiv_pos_site_id
 _symmetry_equiv_pos_as_xyz
  1  'x, y, z'
loop_
 _atom_site_type_symbol
 _atom_site_label
 _atom_site_symmetry_multiplicity
 _atom_site_fract_x
 _atom_site_fract_y
 _atom_site_fract_z
 _atom_site_occupancy
  Sn  Sn0  1  0.12140139  0.12140139  0.87859861  1
  Sn  Sn1  1  0.12859861  0.12859861  0.37140139  1
  Sn  Sn2  1  0.62500000  0.62500000  0.12500000  1
  Sn  Sn3  1  0.62500000  0.62500000  0.62500000  1
  O  O4  1  0.31850431  0.31850431  0.43421819  1
  O  O5  1  0.43555513  0.82256513  0.37093937  1
  O  O6  1  0.31850431  0.31850431  0.92877518  1
  O  O7  1  0.82256513  0.43555513  0.37093937  1
  O  O8  1  0.42743487  0.81444487  0.87906063  1
  O  O9  1  0.81444487  0.42743487  0.87906063  1
  O  O10  1  0.93149569  0.93149569  0.32122482  1
  O  O11  1  0.93149569  0.93149569  0.81578181  1
