# generated using pymatgen
data_MgNiP2O7
_symmetry_space_group_name_H-M   'P 1'
_cell_length_a   7.01039834
_cell_length_b   8.38002651
_cell_length_c   9.03589014
_cell_angle_alpha   90.00000000
_cell_angle_beta   112.00510232
_cell_angle_gamma   90.00000000
_symmetry_Int_Tables_number   1
_chemical_formula_structural   MgNiP2O7
_chemical_formula_sum   'Mg4 Ni4 P8 O28'
_cell_volume   492.16334269
_cell_formula_units_Z   4
loop_
 _symmetry_equiv_pos_site_id
 _symmetry_equiv_pos_as_xyz
  1  'x, y, z'
loop_
 _atom_site_type_symbol
 _atom_site_label
 _atom_site_symmetry_multiplicity
 _atom_site_fract_x
 _atom_site_fract_y
 _atom_site_fract_z
 _atom_site_occupancy
  Mg  Mg0  1  0.12483076  0.94077255  0.81936101  1
  Mg  Mg1  1  0.37516924  0.44077255  0.68063899  1
  Mg  Mg2  1  0.62483076  0.55922745  0.31936101  1
  Mg  Mg3  1  0.87516924  0.05922745  0.18063899  1
  Ni  Ni4  1  0.38017118  0.07472916  0.61010616  1
  Ni  Ni5  1  0.61982882  0.92527084  0.38989384  1
  Ni  Ni6  1  0.11982882  0.57472916  0.88989384  1
  Ni  Ni7  1  0.88017118  0.42527084  0.11010616  1
  P  P8  1  0.18064585  0.73292915  0.24045159  1
  P  P9  1  0.43731896  0.22754944  0.96791425  1
  P  P10  1  0.68064585  0.76707085  0.74045159  1
  P  P11  1  0.93731896  0.27245056  0.46791425  1
  P  P12  1  0.31935415  0.23292915  0.25954841  1
  P  P13  1  0.06268104  0.72754944  0.53208575  1
  P  P14  1  0.56268104  0.77245056  0.03208575  1
  P  P15  1  0.81935415  0.26707085  0.75954841  1
  O  O16  1  0.35227258  0.17385858  0.10085480  1
  O  O17  1  0.57302486  0.61008986  0.68538787  1
  O  O18  1  0.07302486  0.88991014  0.18538787  1
  O  O19  1  0.34629767  0.39022112  0.89701917  1
  O  O20  1  0.64772742  0.82614142  0.89914520  1
  O  O21  1  0.40462817  0.09523752  0.37985423  1
  O  O22  1  0.65370233  0.60977888  0.10298083  1
  O  O23  1  0.36200600  0.09139353  0.84604945  1
  O  O24  1  0.17416372  0.26502949  0.54902695  1
  O  O25  1  0.59537183  0.90476248  0.62014577  1
  O  O26  1  0.90462817  0.40476248  0.87985423  1
  O  O27  1  0.91740447  0.76011657  0.79682387  1
  O  O28  1  0.58259553  0.26011657  0.70317613  1
  O  O29  1  0.85227258  0.32614142  0.60085480  1
  O  O30  1  0.09537183  0.59523752  0.12014577  1
  O  O31  1  0.92697514  0.11008986  0.81461213  1
  O  O32  1  0.08259553  0.23988343  0.20317613  1
  O  O33  1  0.63799400  0.90860647  0.15395055  1
  O  O34  1  0.67416372  0.23497051  0.04902695  1
  O  O35  1  0.32583628  0.76502949  0.95097305  1
  O  O36  1  0.15370233  0.89022112  0.60298083  1
  O  O37  1  0.86200600  0.40860647  0.34604945  1
  O  O38  1  0.13799400  0.59139353  0.65395055  1
  O  O39  1  0.42697514  0.38991014  0.31461213  1
  O  O40  1  0.41740447  0.73988343  0.29682387  1
  O  O41  1  0.84629767  0.10977888  0.39701917  1
  O  O42  1  0.82583628  0.73497051  0.45097305  1
  O  O43  1  0.14772742  0.67385858  0.39914520  1
