# generated using pymatgen
data_BaZnAgF7
_symmetry_space_group_name_H-M   'P 1'
_cell_length_a   5.78267016
_cell_length_b   9.87701767
_cell_length_c   10.26472878
_cell_angle_alpha   90.00000000
_cell_angle_beta   90.00000000
_cell_angle_gamma   92.94779499
_symmetry_Int_Tables_number   1
_chemical_formula_structural   BaZnAgF7
_chemical_formula_sum   'Ba4 Zn4 Ag4 F28'
_cell_volume   585.49972372
_cell_formula_units_Z   4
loop_
 _symmetry_equiv_pos_site_id
 _symmetry_equiv_pos_as_xyz
  1  'x, y, z'
loop_
 _atom_site_type_symbol
 _atom_site_label
 _atom_site_symmetry_multiplicity
 _atom_site_fract_x
 _atom_site_fract_y
 _atom_site_fract_z
 _atom_site_occupancy
  Ba  Ba0  1  0.26561019  0.49812712  0.32150259  1
  Ba  Ba1  1  0.73438981  0.00187288  0.82150259  1
  Ba  Ba2  1  0.73438981  0.50187288  0.67849741  1
  Ba  Ba3  1  0.26561019  0.99812712  0.17849741  1
  Zn  Zn4  1  0.69652991  0.80749507  0.39667437  1
  Zn  Zn5  1  0.30347009  0.69250493  0.89667437  1
  Zn  Zn6  1  0.69652991  0.30749507  0.10332563  1
  Zn  Zn7  1  0.30347009  0.19250493  0.60332563  1
  Ag  Ag8  1  0.19650004  0.81319917  0.61040104  1
  Ag  Ag9  1  0.80349996  0.18680083  0.38959896  1
  Ag  Ag10  1  0.19650004  0.31319917  0.88959896  1
  Ag  Ag11  1  0.80349996  0.68680083  0.11040104  1
  F  F12  1  0.13085592  0.11870251  0.44546597  1
  F  F13  1  0.37333843  0.37518627  0.06179886  1
  F  F14  1  0.49302892  0.74968273  0.71566550  1
  F  F15  1  0.50697108  0.25031727  0.28433450  1
  F  F16  1  0.89801458  0.37990351  0.46197190  1
  F  F17  1  0.26245410  0.50868074  0.80229045  1
  F  F18  1  0.01630614  0.74915850  0.78569885  1
  F  F19  1  0.10198542  0.12009649  0.96197190  1
  F  F20  1  0.37333843  0.87518627  0.43820114  1
  F  F21  1  0.50697108  0.75031727  0.21566550  1
  F  F22  1  0.13085592  0.61870251  0.05453403  1
  F  F23  1  0.86914408  0.88129749  0.55453403  1
  F  F24  1  0.98369386  0.75084150  0.28569885  1
  F  F25  1  0.39140234  0.87449047  0.95853428  1
  F  F26  1  0.10198542  0.62009649  0.53802810  1
  F  F27  1  0.89801458  0.87990351  0.03802810  1
  F  F28  1  0.98369386  0.25084150  0.21430115  1
  F  F29  1  0.86914408  0.38129749  0.94546597  1
  F  F30  1  0.60859766  0.62550953  0.45853428  1
  F  F31  1  0.62666157  0.62481373  0.93820114  1
  F  F32  1  0.60859766  0.12550953  0.04146572  1
  F  F33  1  0.01630614  0.24915850  0.71430115  1
  F  F34  1  0.39140234  0.37449047  0.54146572  1
  F  F35  1  0.73754590  0.99131926  0.30229045  1
  F  F36  1  0.73754590  0.49131926  0.19770955  1
  F  F37  1  0.26245410  0.00868074  0.69770955  1
  F  F38  1  0.62666157  0.12481373  0.56179886  1
  F  F39  1  0.49302892  0.24968273  0.78433450  1
