# generated using pymatgen
data_RbSb
_symmetry_space_group_name_H-M   'P 1'
_cell_length_a   7.32044328
_cell_length_b   7.54166175
_cell_length_c   12.94783540
_cell_angle_alpha   97.94809999
_cell_angle_beta   90.00000000
_cell_angle_gamma   90.00000000
_symmetry_Int_Tables_number   1
_chemical_formula_structural   RbSb
_chemical_formula_sum   'Rb8 Sb8'
_cell_volume   707.96124053
_cell_formula_units_Z   8
loop_
 _symmetry_equiv_pos_site_id
 _symmetry_equiv_pos_as_xyz
  1  'x, y, z'
loop_
 _atom_site_type_symbol
 _atom_site_label
 _atom_site_symmetry_multiplicity
 _atom_site_fract_x
 _atom_site_fract_y
 _atom_site_fract_z
 _atom_site_occupancy
  Rb  Rb0  1  0.16836525  0.78650889  0.53274911  1
  Rb  Rb1  1  0.66836525  0.71349111  0.96725089  1
  Rb  Rb2  1  0.83163475  0.21349111  0.46725089  1
  Rb  Rb3  1  0.33163475  0.28650889  0.03274911  1
  Rb  Rb4  1  0.40139499  0.38251189  0.66877391  1
  Rb  Rb5  1  0.90139499  0.11748811  0.83122609  1
  Rb  Rb6  1  0.59860501  0.61748811  0.33122609  1
  Rb  Rb7  1  0.09860501  0.88251189  0.16877391  1
  Sb  Sb8  1  0.16896589  0.70397094  0.87011068  1
  Sb  Sb9  1  0.66896589  0.79602906  0.62988932  1
  Sb  Sb10  1  0.83103411  0.29602906  0.12988932  1
  Sb  Sb11  1  0.33103411  0.20397094  0.37011068  1
  Sb  Sb12  1  0.90404262  0.54535884  0.71608497  1
  Sb  Sb13  1  0.40404262  0.95464116  0.78391503  1
  Sb  Sb14  1  0.09595738  0.45464116  0.28391503  1
  Sb  Sb15  1  0.59595738  0.04535884  0.21608497  1
