# generated using pymatgen
data_Zn(NiO2)2
_symmetry_space_group_name_H-M   'P 1'
_cell_length_a   5.84469052
_cell_length_b   5.93608597
_cell_length_c   5.93394214
_cell_angle_alpha   89.94489222
_cell_angle_beta   120.51337081
_cell_angle_gamma   120.56836920
_symmetry_Int_Tables_number   1
_chemical_formula_structural   Zn(NiO2)2
_chemical_formula_sum   'Zn2 Ni4 O8'
_cell_volume   143.23634565
_cell_formula_units_Z   2
loop_
 _symmetry_equiv_pos_site_id
 _symmetry_equiv_pos_as_xyz
  1  'x, y, z'
loop_
 _atom_site_type_symbol
 _atom_site_label
 _atom_site_symmetry_multiplicity
 _atom_site_fract_x
 _atom_site_fract_y
 _atom_site_fract_z
 _atom_site_occupancy
  Zn  Zn0  1  0.24939588  0.12485086  0.87562524  1
  Zn  Zn1  1  0.75059258  0.87516594  0.12436201  1
  Ni  Ni2  1  0.49999154  0.99999674  0.50000006  1
  Ni  Ni3  1  0.50001903  0.50001778  0.50000842  1
  Ni  Ni4  1  0.00001102  0.49998479  0.00001040  1
  Ni  Ni5  1  0.99998157  0.49997316  0.49999155  1
  O  O6  1  0.02905980  0.74153915  0.24391170  1
  O  O7  1  0.47123897  0.75526904  0.71204838  1
  O  O8  1  0.47186402  0.71599155  0.25828203  1
  O  O9  1  0.97145712  0.71256397  0.71620134  1
  O  O10  1  0.52815071  0.28401895  0.74172822  1
  O  O11  1  0.52875068  0.24473019  0.28794077  1
  O  O12  1  0.02857355  0.28744556  0.28381419  1
  O  O13  1  0.97091454  0.25845132  0.75607469  1
