# generated using pymatgen
data_MgFeP2O7
_symmetry_space_group_name_H-M   'P 1'
_cell_length_a   5.64952220
_cell_length_b   6.44656158
_cell_length_c   7.39491516
_cell_angle_alpha   83.14116031
_cell_angle_beta   87.44284624
_cell_angle_gamma   71.49712913
_symmetry_Int_Tables_number   1
_chemical_formula_structural   MgFeP2O7
_chemical_formula_sum   'Mg2 Fe2 P4 O14'
_cell_volume   253.56660218
_cell_formula_units_Z   2
loop_
 _symmetry_equiv_pos_site_id
 _symmetry_equiv_pos_as_xyz
  1  'x, y, z'
loop_
 _atom_site_type_symbol
 _atom_site_label
 _atom_site_symmetry_multiplicity
 _atom_site_fract_x
 _atom_site_fract_y
 _atom_site_fract_z
 _atom_site_occupancy
  Mg  Mg0  1  0.33224603  0.66213157  0.65491339  1
  Mg  Mg1  1  0.66774846  0.33787092  0.34508574  1
  Fe  Fe2  1  0.25238207  0.15247427  0.20538826  1
  Fe  Fe3  1  0.74762903  0.84753804  0.79462034  1
  P  P4  1  0.18643712  0.67381481  0.10114296  1
  P  P5  1  0.81356065  0.32618588  0.89885525  1
  P  P6  1  0.22234669  0.20767180  0.61034022  1
  P  P7  1  0.77765696  0.79232228  0.38966047  1
  O  O8  1  0.11194158  0.69586031  0.90106518  1
  O  O9  1  0.88805701  0.30414627  0.09893385  1
  O  O10  1  0.29122513  0.85054649  0.14568603  1
  O  O11  1  0.70877176  0.14945349  0.85432044  1
  O  O12  1  0.35638566  0.43902839  0.16611134  1
  O  O13  1  0.64361126  0.56096984  0.83387946  1
  O  O14  1  0.61813853  0.64079731  0.43884100  1
  O  O15  1  0.38186236  0.35919889  0.56115849  1
  O  O16  1  0.04020014  0.22084237  0.45662630  1
  O  O17  1  0.95979928  0.77914679  0.54337430  1
  O  O18  1  0.07188914  0.30215968  0.78775339  1
  O  O19  1  0.62515095  0.03224608  0.32808767  1
  O  O20  1  0.37485433  0.96775149  0.67191388  1
  O  O21  1  0.92810886  0.69783801  0.21224302  1
