# generated using pymatgen
data_MgVO3
_symmetry_space_group_name_H-M   'P 1'
_cell_length_a   5.33645630
_cell_length_b   5.31109899
_cell_length_c   5.78558076
_cell_angle_alpha   90.00000000
_cell_angle_beta   117.46365336
_cell_angle_gamma   90.00000000
_symmetry_Int_Tables_number   1
_chemical_formula_structural   MgVO3
_chemical_formula_sum   'Mg2 V2 O6'
_cell_volume   145.49783944
_cell_formula_units_Z   2
loop_
 _symmetry_equiv_pos_site_id
 _symmetry_equiv_pos_as_xyz
  1  'x, y, z'
loop_
 _atom_site_type_symbol
 _atom_site_label
 _atom_site_symmetry_multiplicity
 _atom_site_fract_x
 _atom_site_fract_y
 _atom_site_fract_z
 _atom_site_occupancy
  Mg  Mg0  1  0.42503069  0.49161290  0.85006138  1
  Mg  Mg1  1  0.57496931  0.99161290  0.14993862  1
  V  V2  1  0.06977546  0.48712369  0.13955092  1
  V  V3  1  0.93022454  0.98712369  0.86044908  1
  O  O4  1  0.75902503  0.23908459  0.99579620  1
  O  O5  1  0.23677116  0.23908459  0.99579620  1
  O  O6  1  0.24097497  0.73908459  0.00420380  1
  O  O7  1  0.76322884  0.73908459  0.00420380  1
  O  O8  1  0.23434148  0.47909423  0.46868295  1
  O  O9  1  0.76565852  0.97909423  0.53131705  1
