# generated using pymatgen
data_Ge3N4
_symmetry_space_group_name_H-M   'P 1'
_cell_length_a   5.87722316
_cell_length_b   5.87722316
_cell_length_c   5.87722316
_cell_angle_alpha   60.00000003
_cell_angle_beta   60.00000000
_cell_angle_gamma   59.99999999
_symmetry_Int_Tables_number   1
_chemical_formula_structural   Ge3N4
_chemical_formula_sum   'Ge6 N8'
_cell_volume   143.54945452
_cell_formula_units_Z   2
loop_
 _symmetry_equiv_pos_site_id
 _symmetry_equiv_pos_as_xyz
  1  'x, y, z'
loop_
 _atom_site_type_symbol
 _atom_site_label
 _atom_site_symmetry_multiplicity
 _atom_site_fract_x
 _atom_site_fract_y
 _atom_site_fract_z
 _atom_site_occupancy
  N  N0  1  0.74183952  0.74183952  0.74183952  1
  N  N1  1  0.25816048  0.25816048  0.72551856  1
  N  N2  1  0.25816048  0.72551856  0.25816048  1
  N  N3  1  0.72551856  0.25816048  0.25816048  1
  N  N4  1  0.74183952  0.27448144  0.74183952  1
  N  N5  1  0.27448144  0.74183952  0.74183952  1
  N  N6  1  0.25816048  0.25816048  0.25816048  1
  N  N7  1  0.74183952  0.74183952  0.27448144  1
  Ge  Ge8  1  0.50000000  0.00000000  0.50000000  1
  Ge  Ge9  1  0.00000000  0.50000000  0.50000000  1
  Ge  Ge10  1  0.50000000  0.50000000  0.00000000  1
  Ge  Ge11  1  0.50000000  0.50000000  0.50000000  1
  Ge  Ge12  1  0.12500000  0.12500000  0.12500000  1
  Ge  Ge13  1  0.87500000  0.87500000  0.87500000  1
