# generated using pymatgen
data_La2Al2Ge
_symmetry_space_group_name_H-M   'P 1'
_cell_length_a   4.13395131
_cell_length_b   4.59587508
_cell_length_c   13.73876135
_cell_angle_alpha   90.00000000
_cell_angle_beta   98.65291704
_cell_angle_gamma   90.00000000
_symmetry_Int_Tables_number   1
_chemical_formula_structural   La2Al2Ge
_chemical_formula_sum   'La4 Al4 Ge2'
_cell_volume   258.05340928
_cell_formula_units_Z   2
loop_
 _symmetry_equiv_pos_site_id
 _symmetry_equiv_pos_as_xyz
  1  'x, y, z'
loop_
 _atom_site_type_symbol
 _atom_site_label
 _atom_site_symmetry_multiplicity
 _atom_site_fract_x
 _atom_site_fract_y
 _atom_site_fract_z
 _atom_site_occupancy
  La  La0  1  0.20355664  0.75000000  0.40711329  1
  La  La1  1  0.79644336  0.25000000  0.59288671  1
  La  La2  1  0.57549406  0.75000000  0.15098812  1
  La  La3  1  0.42450594  0.25000000  0.84901188  1
  Al  Al4  1  0.88141812  0.75000000  0.76283624  1
  Al  Al5  1  0.11858188  0.25000000  0.23716376  1
  Al  Al6  1  0.97640080  0.75000000  0.95280161  1
  Al  Al7  1  0.02359920  0.25000000  0.04719839  1
  Ge  Ge8  1  0.32591238  0.75000000  0.65182476  1
  Ge  Ge9  1  0.67408762  0.25000000  0.34817524  1
