# generated using pymatgen
data_Li5In4
_symmetry_space_group_name_H-M   'P 1'
_cell_length_a   4.77328681
_cell_length_b   4.77640203
_cell_length_c   8.97549745
_cell_angle_alpha   90.00000002
_cell_angle_beta   89.98934709
_cell_angle_gamma   120.02158637
_symmetry_Int_Tables_number   1
_chemical_formula_structural   Li5In4
_chemical_formula_sum   'Li5 In4'
_cell_volume   177.17932615
_cell_formula_units_Z   1
loop_
 _symmetry_equiv_pos_site_id
 _symmetry_equiv_pos_as_xyz
  1  'x, y, z'
loop_
 _atom_site_type_symbol
 _atom_site_label
 _atom_site_symmetry_multiplicity
 _atom_site_fract_x
 _atom_site_fract_y
 _atom_site_fract_z
 _atom_site_occupancy
  Li  Li0  1  0.33364001  0.66682001  0.61741107  1
  Li  Li1  1  0.66635999  0.33317999  0.38258893  1
  Li  Li2  1  -0.00000000  -0.00000000  0.50000000  1
  Li  Li3  1  0.33262444  0.66631222  0.95166997  1
  Li  Li4  1  0.66737556  0.33368778  0.04833003  1
  In  In5  1  0.00045603  0.00022801  0.16500589  1
  In  In6  1  0.99954397  0.99977199  0.83499411  1
  In  In7  1  0.33208538  0.66604269  0.29713432  1
  In  In8  1  0.66791462  0.33395731  0.70286568  1
