# generated using pymatgen
data_NaMn8O16
_symmetry_space_group_name_H-M   'P 1'
_cell_length_a   5.89134077
_cell_length_b   9.92410010
_cell_length_c   10.01858916
_cell_angle_alpha   89.33548456
_cell_angle_beta   90.10847035
_cell_angle_gamma   90.10252071
_symmetry_Int_Tables_number   1
_chemical_formula_structural   NaMn8O16
_chemical_formula_sum   'Na2 Mn16 O32'
_cell_volume   585.70803442
_cell_formula_units_Z   2
loop_
 _symmetry_equiv_pos_site_id
 _symmetry_equiv_pos_as_xyz
  1  'x, y, z'
loop_
 _atom_site_type_symbol
 _atom_site_label
 _atom_site_symmetry_multiplicity
 _atom_site_fract_x
 _atom_site_fract_y
 _atom_site_fract_z
 _atom_site_occupancy
  Na  Na0  1  0.25041379  0.49292380  0.50087205  1
  Na  Na1  1  0.50026969  0.99381456  0.00119865  1
  Mn  Mn2  1  0.49937379  0.34137343  0.83550810  1
  Mn  Mn3  1  0.99690664  0.34101451  0.83513761  1
  Mn  Mn4  1  0.50070364  0.82362800  0.64869078  1
  Mn  Mn5  1  0.99944832  0.82385928  0.65103201  1
  Mn  Mn6  1  0.00264397  0.15907141  0.35055717  1
  Mn  Mn7  1  0.50241122  0.15999837  0.35164843  1
  Mn  Mn8  1  0.99872287  0.64537961  0.16500791  1
  Mn  Mn9  1  0.50005842  0.64401419  0.16660839  1
  Mn  Mn10  1  0.75106699  0.84192464  0.33510274  1
  Mn  Mn11  1  0.24870005  0.84257816  0.33492347  1
  Mn  Mn12  1  0.75120091  0.32260768  0.15062335  1
  Mn  Mn13  1  0.24930126  0.32292428  0.14869409  1
  Mn  Mn14  1  0.74948062  0.65946520  0.85079112  1
  Mn  Mn15  1  0.25018152  0.65902066  0.85148379  1
  Mn  Mn16  1  0.75123346  0.14535868  0.66535141  1
  Mn  Mn17  1  0.25012435  0.14443991  0.66682019  1
  O  O18  1  0.74667115  0.66407581  0.04288990  1
  O  O19  1  0.25185190  0.66456489  0.04340042  1
  O  O20  1  0.75035395  0.03625470  0.34494621  1
  O  O21  1  0.25303883  0.03627340  0.34178741  1
  O  O22  1  0.75053762  0.94778171  0.65973395  1
  O  O23  1  0.25044986  0.94952273  0.66213749  1
  O  O24  1  0.74832972  0.31947503  0.95776014  1
  O  O25  1  0.24881847  0.32359094  0.95714622  1
  O  O26  1  0.00567047  0.16474004  0.54201892  1
  O  O27  1  0.49971928  0.16480402  0.54453982  1
  O  O28  1  0.99940633  0.53555819  0.84286413  1
  O  O29  1  0.49961700  0.53568964  0.84154645  1
  O  O30  1  0.50057490  0.44923004  0.16119905  1
  O  O31  1  0.00012848  0.44618937  0.15943381  1
  O  O32  1  0.49937117  0.82191717  0.45719151  1
  O  O33  1  0.00076281  0.82184234  0.45811834  1
  O  O34  1  0.49958074  0.84109070  0.20390914  1
  O  O35  1  0.99949061  0.85017522  0.21071257  1
  O  O36  1  0.99953904  0.19257788  0.15685334  1
  O  O37  1  0.50129516  0.18844146  0.15807179  1
  O  O38  1  0.99900392  0.14803494  0.79444529  1
  O  O39  1  0.49304236  0.14768978  0.80063098  1
  O  O40  1  0.50052793  0.79140293  0.84355999  1
  O  O41  1  0.00058043  0.78864126  0.84375068  1
  O  O42  1  0.74792976  0.34548399  0.70971982  1
  O  O43  1  0.24916163  0.34098053  0.70417908  1
  O  O44  1  0.75045487  0.69357875  0.65811969  1
  O  O45  1  0.24841703  0.68928022  0.65762606  1
  O  O46  1  0.74856063  0.64941557  0.29578333  1
  O  O47  1  0.25089968  0.64811027  0.29792263  1
  O  O48  1  0.75229611  0.28905316  0.34328241  1
  O  O49  1  0.25167263  0.29134393  0.34335115  1
