# generated using pymatgen
data_YMg
_symmetry_space_group_name_H-M   'P 1'
_cell_length_a   5.39130010
_cell_length_b   3.76364322
_cell_length_c   5.41197385
_cell_angle_alpha   90.00000000
_cell_angle_beta   90.00000000
_cell_angle_gamma   90.00000000
_symmetry_Int_Tables_number   1
_chemical_formula_structural   YMg
_chemical_formula_sum   'Y2 Mg2'
_cell_volume   109.81398292
_cell_formula_units_Z   2
loop_
 _symmetry_equiv_pos_site_id
 _symmetry_equiv_pos_as_xyz
  1  'x, y, z'
loop_
 _atom_site_type_symbol
 _atom_site_label
 _atom_site_symmetry_multiplicity
 _atom_site_fract_x
 _atom_site_fract_y
 _atom_site_fract_z
 _atom_site_occupancy
  Y  Y0  1  0.25000000  0.50000000  0.25812192  1
  Y  Y1  1  0.75000000  0.50000000  0.74187808  1
  Mg  Mg2  1  0.75000000  -0.00000000  0.23867803  1
  Mg  Mg3  1  0.25000000  0.00000000  0.76132197  1
