# generated using pymatgen
data_Fe3(P2O7)2
_symmetry_space_group_name_H-M   'P 1'
_cell_length_a   5.61278209
_cell_length_b   6.88985448
_cell_length_c   7.46598479
_cell_angle_alpha   76.95127269
_cell_angle_beta   77.82088145
_cell_angle_gamma   70.38146942
_symmetry_Int_Tables_number   1
_chemical_formula_structural   Fe3(P2O7)2
_chemical_formula_sum   'Fe3 P4 O14'
_cell_volume   262.04636603
_cell_formula_units_Z   1
loop_
 _symmetry_equiv_pos_site_id
 _symmetry_equiv_pos_as_xyz
  1  'x, y, z'
loop_
 _atom_site_type_symbol
 _atom_site_label
 _atom_site_symmetry_multiplicity
 _atom_site_fract_x
 _atom_site_fract_y
 _atom_site_fract_z
 _atom_site_occupancy
  O  O0  1  0.46923253  0.69774277  0.55162904  1
  O  O1  1  0.74700378  0.84527253  0.10892645  1
  O  O2  1  0.95158742  0.34501808  0.45299719  1
  O  O3  1  0.25299522  0.15472747  0.89107355  1
  O  O4  1  0.04841358  0.65498192  0.54700281  1
  O  O5  1  0.33322796  0.30603659  0.14410198  1
  O  O6  1  0.07022652  0.90669043  0.75194571  1
  O  O7  1  0.23514768  0.52823664  0.84481281  1
  O  O8  1  0.92977248  0.09330957  0.24805429  1
  O  O9  1  0.53076847  0.30225723  0.44837096  1
  O  O10  1  0.66677304  0.69396341  0.85589802  1
  O  O11  1  0.67106199  0.25686680  0.85876215  1
  O  O12  1  0.76485232  0.47176536  0.15518719  1
  O  O13  1  0.32893901  0.74313220  0.14123785  1
  P  P14  1  0.20749971  0.71198726  0.66600210  1
  P  P15  1  0.38109172  0.29654524  0.93934964  1
  P  P16  1  0.61890728  0.70345476  0.06065036  1
  P  P17  1  0.79249929  0.28801174  0.33399790  1
  Fe  Fe18  1  0.76953122  0.51023616  0.66944881  1
  Fe  Fe19  1  0.23046978  0.48976484  0.33055119  1
  Fe  Fe20  1  0.00000000  0.00000000  0.00000000  1
