# generated using pymatgen
data_LuH2ClO2
_symmetry_space_group_name_H-M   'P 1'
_cell_length_a   3.51154860
_cell_length_b   6.18832771
_cell_length_c   6.61618226
_cell_angle_alpha   104.58363739
_cell_angle_beta   90.00000000
_cell_angle_gamma   90.00000000
_symmetry_Int_Tables_number   1
_chemical_formula_structural   LuH2ClO2
_chemical_formula_sum   'Lu2 H4 Cl2 O4'
_cell_volume   139.14147147
_cell_formula_units_Z   2
loop_
 _symmetry_equiv_pos_site_id
 _symmetry_equiv_pos_as_xyz
  1  'x, y, z'
loop_
 _atom_site_type_symbol
 _atom_site_label
 _atom_site_symmetry_multiplicity
 _atom_site_fract_x
 _atom_site_fract_y
 _atom_site_fract_z
 _atom_site_occupancy
  Lu  Lu0  1  0.75000000  0.72118544  0.89499657  1
  Lu  Lu1  1  0.25000000  0.27881456  0.10500343  1
  H  H2  1  0.25000000  0.87181421  0.23285836  1
  H  H3  1  0.75000000  0.12818579  0.76714164  1
  H  H4  1  0.25000000  0.36277480  0.69837892  1
  H  H5  1  0.75000000  0.63722520  0.30162108  1
  Cl  Cl6  1  0.25000000  0.77274561  0.58069057  1
  Cl  Cl7  1  0.75000000  0.22725439  0.41930943  1
  O  O8  1  0.25000000  0.89361118  0.09116777  1
  O  O9  1  0.75000000  0.10638882  0.90883223  1
  O  O10  1  0.25000000  0.45650486  0.84238103  1
  O  O11  1  0.75000000  0.54349514  0.15761897  1
