# generated using pymatgen
data_ThVB4
_symmetry_space_group_name_H-M   'P 1'
_cell_length_a   3.66969214
_cell_length_b   6.08782730
_cell_length_c   6.08782730
_cell_angle_alpha   104.35384537
_cell_angle_beta   90.00000000
_cell_angle_gamma   90.00000000
_symmetry_Int_Tables_number   1
_chemical_formula_structural   ThVB4
_chemical_formula_sum   'Th2 V2 B8'
_cell_volume   131.75917554
_cell_formula_units_Z   2
loop_
 _symmetry_equiv_pos_site_id
 _symmetry_equiv_pos_as_xyz
  1  'x, y, z'
loop_
 _atom_site_type_symbol
 _atom_site_label
 _atom_site_symmetry_multiplicity
 _atom_site_fract_x
 _atom_site_fract_y
 _atom_site_fract_z
 _atom_site_occupancy
  Th  Th0  1  0.00000000  0.30179615  0.69820385  1
  Th  Th1  1  -0.00000000  0.69820385  0.30179615  1
  V  V2  1  0.00000000  0.83762941  0.83762941  1
  V  V3  1  -0.00000000  0.16237059  0.16237059  1
  B  B4  1  0.50000000  0.93257499  0.62437465  1
  B  B5  1  0.50000000  0.06742501  0.37562535  1
  B  B6  1  0.50000000  0.62437465  0.93257499  1
  B  B7  1  0.50000000  0.37562535  0.06742501  1
  B  B8  1  0.50000000  0.63270609  0.63270609  1
  B  B9  1  0.50000000  0.36729391  0.36729391  1
  B  B10  1  0.50000000  0.08917355  0.91082645  1
  B  B11  1  0.50000000  0.91082645  0.08917355  1
