# generated using pymatgen
data_YbCoGe2
_symmetry_space_group_name_H-M   'P 1'
_cell_length_a   4.11568654
_cell_length_b   4.20670275
_cell_length_c   8.64700413
_cell_angle_alpha   104.07821861
_cell_angle_beta   90.00000000
_cell_angle_gamma   90.00000000
_symmetry_Int_Tables_number   1
_chemical_formula_structural   YbCoGe2
_chemical_formula_sum   'Yb2 Co2 Ge4'
_cell_volume   145.21305016
_cell_formula_units_Z   2
loop_
 _symmetry_equiv_pos_site_id
 _symmetry_equiv_pos_as_xyz
  1  'x, y, z'
loop_
 _atom_site_type_symbol
 _atom_site_label
 _atom_site_symmetry_multiplicity
 _atom_site_fract_x
 _atom_site_fract_y
 _atom_site_fract_z
 _atom_site_occupancy
  Yb  Yb0  1  0.75000000  0.10836826  0.21673651  1
  Yb  Yb1  1  0.25000000  0.89163174  0.78326349  1
  Co  Co2  1  0.75000000  0.31939222  0.63878445  1
  Co  Co3  1  0.25000000  0.68060778  0.36121555  1
  Ge  Ge4  1  0.75000000  0.45535977  0.91071954  1
  Ge  Ge5  1  0.25000000  0.54464023  0.08928046  1
  Ge  Ge6  1  0.75000000  0.75079650  0.50159300  1
  Ge  Ge7  1  0.25000000  0.24920350  0.49840700  1
