# generated using pymatgen
data_Sn(HgSe2)2
_symmetry_space_group_name_H-M   'P 1'
_cell_length_a   5.93651946
_cell_length_b   5.93651945
_cell_length_c   7.32020593
_cell_angle_alpha   113.92174621
_cell_angle_beta   113.92174621
_cell_angle_gamma   90.00000006
_symmetry_Int_Tables_number   1
_chemical_formula_structural   Sn(HgSe2)2
_chemical_formula_sum   'Sn1 Hg2 Se4'
_cell_volume   211.34865810
_cell_formula_units_Z   1
loop_
 _symmetry_equiv_pos_site_id
 _symmetry_equiv_pos_as_xyz
  1  'x, y, z'
loop_
 _atom_site_type_symbol
 _atom_site_label
 _atom_site_symmetry_multiplicity
 _atom_site_fract_x
 _atom_site_fract_y
 _atom_site_fract_z
 _atom_site_occupancy
  Se  Se0  1  0.90576616  0.34573396  0.23064791  1
  Se  Se1  1  0.11508605  0.09423384  0.76935209  1
  Se  Se2  1  0.65426604  0.67511825  0.76935209  1
  Se  Se3  1  0.32488175  0.88491395  0.23064791  1
  Sn  Sn4  1  0.25000000  0.75000000  0.50000000  1
  Hg  Hg5  1  0.50000000  0.50000000  0.00000000  1
  Hg  Hg6  1  0.75000000  0.25000000  0.50000000  1
