# generated using pymatgen
data_Rb2ZrO3
_symmetry_space_group_name_H-M   'P 1'
_cell_length_a   5.98984260
_cell_length_b   11.04659114
_cell_length_c   7.41289073
_cell_angle_alpha   90.00000000
_cell_angle_beta   90.00000000
_cell_angle_gamma   90.00000000
_symmetry_Int_Tables_number   1
_chemical_formula_structural   Rb2ZrO3
_chemical_formula_sum   'Rb8 Zr4 O12'
_cell_volume   490.49127759
_cell_formula_units_Z   4
loop_
 _symmetry_equiv_pos_site_id
 _symmetry_equiv_pos_as_xyz
  1  'x, y, z'
loop_
 _atom_site_type_symbol
 _atom_site_label
 _atom_site_symmetry_multiplicity
 _atom_site_fract_x
 _atom_site_fract_y
 _atom_site_fract_z
 _atom_site_occupancy
  Rb  Rb0  1  0.23751042  0.08632470  0.61041116  1
  Rb  Rb1  1  0.23751042  0.41367530  0.61041116  1
  Rb  Rb2  1  0.26248958  0.58632470  0.11041116  1
  Rb  Rb3  1  0.26248958  0.91367530  0.11041116  1
  Rb  Rb4  1  0.73751042  0.08632470  0.88958884  1
  Rb  Rb5  1  0.73751042  0.41367530  0.88958884  1
  Rb  Rb6  1  0.76248958  0.58632470  0.38958884  1
  Rb  Rb7  1  0.76248958  0.91367530  0.38958884  1
  Zr  Zr8  1  0.22551285  0.75000000  0.66331251  1
  Zr  Zr9  1  0.27448715  0.25000000  0.16331251  1
  Zr  Zr10  1  0.72551285  0.75000000  0.83668749  1
  Zr  Zr11  1  0.77448715  0.25000000  0.33668749  1
  O  O12  1  0.01518034  0.12707304  0.23531193  1
  O  O13  1  0.01518034  0.37292696  0.23531193  1
  O  O14  1  0.17997431  0.75000000  0.40463184  1
  O  O15  1  0.32002569  0.25000000  0.90463184  1
  O  O16  1  0.48481966  0.87292696  0.73531193  1
  O  O17  1  0.48481966  0.62707304  0.73531193  1
  O  O18  1  0.51518034  0.12707304  0.26468807  1
  O  O19  1  0.51518034  0.37292696  0.26468807  1
  O  O20  1  0.67997431  0.75000000  0.09536816  1
  O  O21  1  0.82002569  0.25000000  0.59536816  1
  O  O22  1  0.98481966  0.62707304  0.76468807  1
  O  O23  1  0.98481966  0.87292696  0.76468807  1
