# generated using pymatgen
data_Ba2In
_symmetry_space_group_name_H-M   'P 1'
_cell_length_a   6.00528728
_cell_length_b   8.22091752
_cell_length_c   11.11425902
_cell_angle_alpha   90.00000000
_cell_angle_beta   90.00000000
_cell_angle_gamma   90.00000000
_symmetry_Int_Tables_number   1
_chemical_formula_structural   Ba2In
_chemical_formula_sum   'Ba8 In4'
_cell_volume   548.69953583
_cell_formula_units_Z   4
loop_
 _symmetry_equiv_pos_site_id
 _symmetry_equiv_pos_as_xyz
  1  'x, y, z'
loop_
 _atom_site_type_symbol
 _atom_site_label
 _atom_site_symmetry_multiplicity
 _atom_site_fract_x
 _atom_site_fract_y
 _atom_site_fract_z
 _atom_site_occupancy
  Ba  Ba0  1  0.75000000  0.47691201  0.80613341  1
  Ba  Ba1  1  0.75000000  0.97691201  0.69386659  1
  Ba  Ba2  1  0.25000000  0.52308799  0.19386659  1
  Ba  Ba3  1  0.25000000  0.02308799  0.30613341  1
  Ba  Ba4  1  0.75000000  0.82715746  0.07379624  1
  Ba  Ba5  1  0.75000000  0.32715746  0.42620376  1
  Ba  Ba6  1  0.25000000  0.17284254  0.92620376  1
  Ba  Ba7  1  0.25000000  0.67284254  0.57379624  1
  In  In8  1  0.75000000  0.26894127  0.10453242  1
  In  In9  1  0.75000000  0.76894127  0.39546758  1
  In  In10  1  0.25000000  0.73105873  0.89546758  1
  In  In11  1  0.25000000  0.23105873  0.60453242  1
