# generated using pymatgen
data_LiCdBO3
_symmetry_space_group_name_H-M   'P 1'
_cell_length_a   5.27411033
_cell_length_b   5.30721368
_cell_length_c   6.25962377
_cell_angle_alpha   90.08675071
_cell_angle_beta   68.21192321
_cell_angle_gamma   61.04342649
_symmetry_Int_Tables_number   1
_chemical_formula_structural   LiCdBO3
_chemical_formula_sum   'Li2 Cd2 B2 O6'
_cell_volume   138.77028506
_cell_formula_units_Z   2
loop_
 _symmetry_equiv_pos_site_id
 _symmetry_equiv_pos_as_xyz
  1  'x, y, z'
loop_
 _atom_site_type_symbol
 _atom_site_label
 _atom_site_symmetry_multiplicity
 _atom_site_fract_x
 _atom_site_fract_y
 _atom_site_fract_z
 _atom_site_occupancy
  Li  Li0  1  0.56809579  0.36353379  0.66398625  1
  Li  Li1  1  0.43190421  0.63646621  0.33601375  1
  Cd  Cd2  1  0.84207425  0.74319324  0.76980056  1
  Cd  Cd3  1  0.15792575  0.25680676  0.23019944  1
  B  B4  1  0.80213097  0.93208209  0.26823477  1
  B  B5  1  0.19786903  0.06791791  0.73176523  1
  O  O6  1  0.62778201  0.85951253  0.18394557  1
  O  O7  1  0.37221799  0.14048747  0.81605443  1
  O  O8  1  0.95862058  0.28705598  0.68039413  1
  O  O9  1  0.04137942  0.71294402  0.31960587  1
  O  O10  1  0.72787945  0.22133116  0.30634772  1
  O  O11  1  0.27212055  0.77866884  0.69365228  1
