# generated using pymatgen
data_V4OF11
_symmetry_space_group_name_H-M   'P 1'
_cell_length_a   5.23004094
_cell_length_b   5.46060779
_cell_length_c   17.55084992
_cell_angle_alpha   91.12158278
_cell_angle_beta   98.56879412
_cell_angle_gamma   61.38718821
_symmetry_Int_Tables_number   1
_chemical_formula_structural   V4OF11
_chemical_formula_sum   'V8 O2 F22'
_cell_volume   434.33858436
_cell_formula_units_Z   2
loop_
 _symmetry_equiv_pos_site_id
 _symmetry_equiv_pos_as_xyz
  1  'x, y, z'
loop_
 _atom_site_type_symbol
 _atom_site_label
 _atom_site_symmetry_multiplicity
 _atom_site_fract_x
 _atom_site_fract_y
 _atom_site_fract_z
 _atom_site_occupancy
  V  V0  1  0.74024102  0.62774745  0.12310962  1
  V  V1  1  0.75078524  0.12590939  0.62471985  1
  V  V2  1  0.49487885  0.24725255  0.25189038  1
  V  V3  1  0.50197478  0.74909061  0.75028015  1
  V  V4  1  0.26403321  0.89306436  0.37230060  1
  V  V5  1  0.25722413  0.37137025  0.87668944  1
  V  V6  1  0.03479697  0.98193564  0.00269940  1
  V  V7  1  0.00190494  0.50362975  0.49831056  1
  O  O8  1  0.39514616  0.80053126  0.03899089  1
  O  O9  1  0.40668653  0.07446874  0.33600911  1
  F  F10  1  0.91608287  0.84170549  0.08699169  1
  F  F11  1  0.96810477  0.31641454  0.06095444  1
  F  F12  1  0.97867558  0.81232572  0.56221285  1
  F  F13  1  0.52414625  0.93750000  0.18750000  1
  F  F14  1  0.92079767  0.03329451  0.28800831  1
  F  F15  1  0.92694720  0.33948938  0.58760504  1
  F  F16  1  0.92883054  0.53551062  0.78739496  1
  F  F17  1  0.57544705  0.41236177  0.16249625  1
  F  F18  1  0.57301639  0.91253593  0.66091157  1
  F  F19  1  0.57086938  0.71384371  0.46280700  1
  F  F20  1  0.47356487  0.55858546  0.31404556  1
  F  F21  1  0.52193882  0.43750000  0.68750000  1
  F  F22  1  0.42727700  0.28633209  0.53547520  1
  F  F23  1  0.42813489  0.58866791  0.83952480  1
  F  F24  1  0.59174393  0.20172644  0.96340549  1
  F  F25  1  0.08006388  0.67327356  0.41159451  1
  F  F26  1  0.07531358  0.46263823  0.21250375  1
  F  F27  1  0.07464076  0.96246407  0.71408843  1
  F  F28  1  0.47878845  0.06267428  0.81278715  1
  F  F29  1  0.02216898  0.68915160  0.93745037  1
  F  F30  1  0.02386920  0.18584840  0.43754963  1
  F  F31  1  0.07190509  0.16115629  0.91219300  1
