# generated using pymatgen
data_CaWO4
_symmetry_space_group_name_H-M   'P 1'
_cell_length_a   5.33628693
_cell_length_b   5.35257579
_cell_length_c   6.87646048
_cell_angle_alpha   113.03653957
_cell_angle_beta   112.96322482
_cell_angle_gamma   89.68656749
_symmetry_Int_Tables_number   1
_chemical_formula_structural   CaWO4
_chemical_formula_sum   'Ca2 W2 O8'
_cell_volume   163.89492574
_cell_formula_units_Z   2
loop_
 _symmetry_equiv_pos_site_id
 _symmetry_equiv_pos_as_xyz
  1  'x, y, z'
loop_
 _atom_site_type_symbol
 _atom_site_label
 _atom_site_symmetry_multiplicity
 _atom_site_fract_x
 _atom_site_fract_y
 _atom_site_fract_z
 _atom_site_occupancy
  Ca  Ca0  1  0.87634039  0.62634039  0.25268078  1
  Ca  Ca1  1  0.12365961  0.37365961  0.74731922  1
  W  W2  1  0.37397242  0.12397242  0.24794484  1
  W  W3  1  0.62602758  0.87602758  0.75205516  1
  O  O4  1  0.55994188  0.72119478  0.92559057  1
  O  O5  1  0.86564869  0.20439579  0.92559057  1
  O  O6  1  0.44005812  0.27880522  0.07440943  1
  O  O7  1  0.13435131  0.79560421  0.07440943  1
  O  O8  1  0.22005864  0.36505996  0.42405143  1
  O  O9  1  0.70399279  0.05899147  0.42405143  1
  O  O10  1  0.77994136  0.63494004  0.57594857  1
  O  O11  1  0.29600721  0.94100853  0.57594857  1
