# generated using pymatgen
data_PrSb2
_symmetry_space_group_name_H-M   'P 1'
_cell_length_a   4.44865873
_cell_length_b   4.44865873
_cell_length_c   18.30311654
_cell_angle_alpha   90.00000000
_cell_angle_beta   90.00000000
_cell_angle_gamma   91.13899102
_symmetry_Int_Tables_number   1
_chemical_formula_structural   PrSb2
_chemical_formula_sum   'Pr4 Sb8'
_cell_volume   362.15743720
_cell_formula_units_Z   4
loop_
 _symmetry_equiv_pos_site_id
 _symmetry_equiv_pos_as_xyz
  1  'x, y, z'
loop_
 _atom_site_type_symbol
 _atom_site_label
 _atom_site_symmetry_multiplicity
 _atom_site_fract_x
 _atom_site_fract_y
 _atom_site_fract_z
 _atom_site_occupancy
  Pr  Pr0  1  0.36443270  0.36443270  0.88973185  1
  Pr  Pr1  1  0.63556730  0.63556730  0.11026815  1
  Pr  Pr2  1  0.13556730  0.13556730  0.38973185  1
  Pr  Pr3  1  0.86443270  0.86443270  0.61026815  1
  Sb  Sb4  1  0.36807894  0.36807894  0.56374882  1
  Sb  Sb5  1  0.63192106  0.63192106  0.43625118  1
  Sb  Sb6  1  0.13192106  0.13192106  0.06374882  1
  Sb  Sb7  1  0.86807894  0.86807894  0.93625118  1
  Sb  Sb8  1  0.87315125  0.37315125  0.75000000  1
  Sb  Sb9  1  0.62684875  0.12684875  0.25000000  1
  Sb  Sb10  1  0.12684875  0.62684875  0.25000000  1
  Sb  Sb11  1  0.37315125  0.87315125  0.75000000  1
