# generated using pymatgen
data_Ho3(CuSn)4
_symmetry_space_group_name_H-M   'P 1'
_cell_length_a   4.46170153
_cell_length_b   6.93955506
_cell_length_c   8.40399152
_cell_angle_alpha   114.23823967
_cell_angle_beta   105.39377293
_cell_angle_gamma   90.00000000
_symmetry_Int_Tables_number   1
_chemical_formula_structural   Ho3(CuSn)4
_chemical_formula_sum   'Ho3 Cu4 Sn4'
_cell_volume   226.99164806
_cell_formula_units_Z   1
loop_
 _symmetry_equiv_pos_site_id
 _symmetry_equiv_pos_as_xyz
  1  'x, y, z'
loop_
 _atom_site_type_symbol
 _atom_site_label
 _atom_site_symmetry_multiplicity
 _atom_site_fract_x
 _atom_site_fract_y
 _atom_site_fract_z
 _atom_site_occupancy
  Ho  Ho0  1  0.00000000  0.00000000  0.00000000  1
  Ho  Ho1  1  0.86929897  0.36505241  0.73859794  1
  Ho  Ho2  1  0.13070103  0.63494759  0.26140206  1
  Cu  Cu3  1  0.66744723  0.98023950  0.33489446  1
  Cu  Cu4  1  0.33255277  0.01976050  0.66510554  1
  Cu  Cu5  1  0.67650421  0.36826550  0.35300842  1
  Cu  Cu6  1  0.32349579  0.63173450  0.64699158  1
  Sn  Sn7  1  0.78455239  0.79231521  0.56910479  1
  Sn  Sn8  1  0.21544761  0.20768479  0.43089521  1
  Sn  Sn9  1  0.49657763  0.69978933  0.99315525  1
  Sn  Sn10  1  0.50342237  0.30021067  0.00684475  1
