# generated using pymatgen
data_Rb4TiO4
_symmetry_space_group_name_H-M   'P 1'
_cell_length_a   6.75831994
_cell_length_b   6.76564118
_cell_length_c   10.11139625
_cell_angle_alpha   71.85113664
_cell_angle_beta   79.51267075
_cell_angle_gamma   66.43316618
_symmetry_Int_Tables_number   1
_chemical_formula_structural   Rb4TiO4
_chemical_formula_sum   'Rb8 Ti2 O8'
_cell_volume   401.81515161
_cell_formula_units_Z   2
loop_
 _symmetry_equiv_pos_site_id
 _symmetry_equiv_pos_as_xyz
  1  'x, y, z'
loop_
 _atom_site_type_symbol
 _atom_site_label
 _atom_site_symmetry_multiplicity
 _atom_site_fract_x
 _atom_site_fract_y
 _atom_site_fract_z
 _atom_site_occupancy
  Rb  Rb0  1  0.23980751  0.76320707  0.03033170  1
  Rb  Rb1  1  0.27518486  0.51005607  0.43895367  1
  Rb  Rb2  1  0.25651602  0.40440488  0.83932032  1
  Rb  Rb3  1  0.21748646  0.96635789  0.61976836  1
  Rb  Rb4  1  0.78251354  0.03364211  0.38023164  1
  Rb  Rb5  1  0.74348398  0.59559512  0.16067968  1
  Rb  Rb6  1  0.72481514  0.48994393  0.56104633  1
  Rb  Rb7  1  0.76019249  0.23679293  0.96966830  1
  Ti  Ti8  1  0.27204966  0.15795949  0.24777349  1
  Ti  Ti9  1  0.72795034  0.84204051  0.75222651  1
  O  O10  1  0.13840007  0.16045065  0.10291607  1
  O  O11  1  0.05296369  0.29389769  0.36723321  1
  O  O12  1  0.44813357  0.32532826  0.19069676  1
  O  O13  1  0.56493446  0.12893500  0.65468679  1
  O  O14  1  0.43506554  0.87106500  0.34531321  1
  O  O15  1  0.55186643  0.67467174  0.80930324  1
  O  O16  1  0.94703631  0.70610231  0.63276679  1
  O  O17  1  0.86159993  0.83954935  0.89708393  1
