# generated using pymatgen
data_NaAgO
_symmetry_space_group_name_H-M   'P 1'
_cell_length_a   4.68606294
_cell_length_b   7.20421496
_cell_length_c   7.20421496
_cell_angle_alpha   83.92818016
_cell_angle_beta   71.02044759
_cell_angle_gamma   71.02044759
_symmetry_Int_Tables_number   1
_chemical_formula_structural   NaAgO
_chemical_formula_sum   'Na4 Ag4 O4'
_cell_volume   217.48446820
_cell_formula_units_Z   4
loop_
 _symmetry_equiv_pos_site_id
 _symmetry_equiv_pos_as_xyz
  1  'x, y, z'
loop_
 _atom_site_type_symbol
 _atom_site_label
 _atom_site_symmetry_multiplicity
 _atom_site_fract_x
 _atom_site_fract_y
 _atom_site_fract_z
 _atom_site_occupancy
  Na  Na0  1  0.24693164  0.16026603  0.83973397  1
  Na  Na1  1  0.24693164  0.83973397  0.16026603  1
  Na  Na2  1  0.91333439  0.83973397  0.83973397  1
  Na  Na3  1  0.59280233  0.16026603  0.16026603  1
  Ag  Ag4  1  0.59389256  0.50000000  0.81221488  1
  Ag  Ag5  1  0.90610744  0.50000000  0.18778512  1
  Ag  Ag6  1  0.59389256  0.81221488  0.50000000  1
  Ag  Ag7  1  0.90610744  0.18778512  0.50000000  1
  O  O8  1  0.74585435  0.80876594  0.19123406  1
  O  O9  1  0.74585435  0.19123406  0.80876594  1
  O  O10  1  0.06291160  0.19123406  0.19123406  1
  O  O11  1  0.44537971  0.80876594  0.80876594  1
