# generated using pymatgen
data_Ba2YGaSe5
_symmetry_space_group_name_H-M   'P 1'
_cell_length_a   7.40300491
_cell_length_b   8.78670277
_cell_length_c   9.54020492
_cell_angle_alpha   103.52325201
_cell_angle_beta   103.07384820
_cell_angle_gamma   107.39854976
_symmetry_Int_Tables_number   1
_chemical_formula_structural   Ba2YGaSe5
_chemical_formula_sum   'Ba4 Y2 Ga2 Se10'
_cell_volume   545.64584586
_cell_formula_units_Z   2
loop_
 _symmetry_equiv_pos_site_id
 _symmetry_equiv_pos_as_xyz
  1  'x, y, z'
loop_
 _atom_site_type_symbol
 _atom_site_label
 _atom_site_symmetry_multiplicity
 _atom_site_fract_x
 _atom_site_fract_y
 _atom_site_fract_z
 _atom_site_occupancy
  Ba  Ba0  1  0.63353014  0.97796738  0.28912830  1
  Ba  Ba1  1  0.36646986  0.02203262  0.71087170  1
  Ba  Ba2  1  0.34330638  0.51094323  0.70731764  1
  Ba  Ba3  1  0.65669362  0.48905677  0.29268236  1
  Y  Y4  1  0.99792650  0.72996692  0.99833753  1
  Y  Y5  1  0.00207350  0.27003308  0.00166247  1
  Ga  Ga6  1  0.80572616  0.87179236  0.68764008  1
  Ga  Ga7  1  0.19427384  0.12820764  0.31235992  1
  Se  Se8  1  0.98783703  0.68256335  0.68505703  1
  Se  Se9  1  0.01216297  0.31743665  0.31494297  1
  Se  Se10  1  0.98392917  0.15365948  0.68747478  1
  Se  Se11  1  0.01607083  0.84634052  0.31252522  1
  Se  Se12  1  0.71296934  0.90875585  0.92735029  1
  Se  Se13  1  0.28703066  0.09124415  0.07264971  1
  Se  Se14  1  0.70543137  0.41111253  0.94493985  1
  Se  Se15  1  0.29456863  0.58888747  0.05506015  1
  Se  Se16  1  0.48864539  0.74162570  0.49250263  1
  Se  Se17  1  0.51135461  0.25837430  0.50749737  1
