# generated using pymatgen
data_Ba2DyGaSe5
_symmetry_space_group_name_H-M   'P 1'
_cell_length_a   7.40440775
_cell_length_b   8.78616532
_cell_length_c   9.54309762
_cell_angle_alpha   103.52041998
_cell_angle_beta   103.10161313
_cell_angle_gamma   107.39066747
_symmetry_Int_Tables_number   1
_chemical_formula_structural   Ba2DyGaSe5
_chemical_formula_sum   'Ba4 Dy2 Ga2 Se10'
_cell_volume   545.82541279
_cell_formula_units_Z   2
loop_
 _symmetry_equiv_pos_site_id
 _symmetry_equiv_pos_as_xyz
  1  'x, y, z'
loop_
 _atom_site_type_symbol
 _atom_site_label
 _atom_site_symmetry_multiplicity
 _atom_site_fract_x
 _atom_site_fract_y
 _atom_site_fract_z
 _atom_site_occupancy
  Ba  Ba0  1  0.63358102  0.97801235  0.28935081  1
  Ba  Ba1  1  0.36641898  0.02198765  0.71064919  1
  Ba  Ba2  1  0.34350397  0.51096342  0.70731950  1
  Ba  Ba3  1  0.65649603  0.48903658  0.29268050  1
  Dy  Dy4  1  0.99784421  0.72997238  0.99832275  1
  Dy  Dy5  1  0.00215579  0.27002762  0.00167725  1
  Ga  Ga6  1  0.80536563  0.87176401  0.68764158  1
  Ga  Ga7  1  0.19463437  0.12823599  0.31235842  1
  Se  Se8  1  0.98755349  0.68263067  0.68523428  1
  Se  Se9  1  0.01244651  0.31736933  0.31476572  1
  Se  Se10  1  0.98353049  0.15365338  0.68768243  1
  Se  Se11  1  0.01646951  0.84634662  0.31231757  1
  Se  Se12  1  0.71293486  0.90884322  0.92749551  1
  Se  Se13  1  0.28706514  0.09115678  0.07250449  1
  Se  Se14  1  0.70648164  0.41141832  0.94506455  1
  Se  Se15  1  0.29351836  0.58858168  0.05493545  1
  Se  Se16  1  0.48836171  0.74149421  0.49247729  1
  Se  Se17  1  0.51163829  0.25850579  0.50752271  1
