# generated using pymatgen
data_Dy3Pt
_symmetry_space_group_name_H-M   'P 1'
_cell_length_a   6.52939380
_cell_length_b   7.02794757
_cell_length_c   9.59495401
_cell_angle_alpha   90.00000000
_cell_angle_beta   90.00000000
_cell_angle_gamma   90.00000000
_symmetry_Int_Tables_number   1
_chemical_formula_structural   Dy3Pt
_chemical_formula_sum   'Dy12 Pt4'
_cell_volume   440.29552640
_cell_formula_units_Z   4
loop_
 _symmetry_equiv_pos_site_id
 _symmetry_equiv_pos_as_xyz
  1  'x, y, z'
loop_
 _atom_site_type_symbol
 _atom_site_label
 _atom_site_symmetry_multiplicity
 _atom_site_fract_x
 _atom_site_fract_y
 _atom_site_fract_z
 _atom_site_occupancy
  Dy  Dy0  1  0.32133083  0.68003231  0.06125048  1
  Dy  Dy1  1  0.17866917  0.18003231  0.43874952  1
  Dy  Dy2  1  0.67866917  0.31996769  0.56125048  1
  Dy  Dy3  1  0.82133083  0.81996769  0.93874952  1
  Dy  Dy4  1  0.67866917  0.31996769  0.93874952  1
  Dy  Dy5  1  0.82133083  0.81996769  0.56125048  1
  Dy  Dy6  1  0.32133083  0.68003231  0.43874952  1
  Dy  Dy7  1  0.17866917  0.18003231  0.06125048  1
  Dy  Dy8  1  0.86700726  0.52808637  0.25000000  1
  Dy  Dy9  1  0.63299274  0.02808637  0.25000000  1
  Dy  Dy10  1  0.13299274  0.47191363  0.75000000  1
  Dy  Dy11  1  0.36700726  0.97191363  0.75000000  1
  Pt  Pt12  1  0.05108370  0.88943157  0.25000000  1
  Pt  Pt13  1  0.44891630  0.38943157  0.25000000  1
  Pt  Pt14  1  0.94891630  0.11056843  0.75000000  1
  Pt  Pt15  1  0.55108370  0.61056843  0.75000000  1
