# generated using pymatgen
data_Cu2AgPS4
_symmetry_space_group_name_H-M   'P 1'
_cell_length_a   6.20504703
_cell_length_b   6.32174773
_cell_length_c   7.66154275
_cell_angle_alpha   90.00000000
_cell_angle_beta   90.00000000
_cell_angle_gamma   90.00000000
_symmetry_Int_Tables_number   1
_chemical_formula_structural   Cu2AgPS4
_chemical_formula_sum   'Cu4 Ag2 P2 S8'
_cell_volume   300.53736060
_cell_formula_units_Z   2
loop_
 _symmetry_equiv_pos_site_id
 _symmetry_equiv_pos_as_xyz
  1  'x, y, z'
loop_
 _atom_site_type_symbol
 _atom_site_label
 _atom_site_symmetry_multiplicity
 _atom_site_fract_x
 _atom_site_fract_y
 _atom_site_fract_z
 _atom_site_occupancy
  Cu  Cu0  1  0.00974059  0.18523731  0.24742526  1
  Cu  Cu1  1  0.00974059  0.18523731  0.75257474  1
  Cu  Cu2  1  0.50974059  0.81476269  0.25257474  1
  Cu  Cu3  1  0.50974059  0.81476269  0.74742526  1
  Ag  Ag4  1  0.00461854  0.64720274  0.50000000  1
  Ag  Ag5  1  0.50461854  0.35279726  0.00000000  1
  P  P6  1  0.50059740  0.31254433  0.50000000  1
  P  P7  1  0.00059740  0.68745567  0.00000000  1
  S  S8  1  0.37808242  0.16004042  0.27873866  1
  S  S9  1  0.37808242  0.16004042  0.72126134  1
  S  S10  1  0.87808242  0.83995958  0.22126134  1
  S  S11  1  0.87808242  0.83995958  0.77873866  1
  S  S12  1  0.83654166  0.28028891  0.50000000  1
  S  S13  1  0.33654166  0.71971109  -0.00000000  1
  S  S14  1  0.41116638  0.63183392  0.50000000  1
  S  S15  1  0.91116638  0.36816608  -0.00000000  1
