# generated using pymatgen
data_La2H5
_symmetry_space_group_name_H-M   'P 1'
_cell_length_a   5.57482025
_cell_length_b   5.57482025
_cell_length_c   6.90826931
_cell_angle_alpha   113.79646967
_cell_angle_beta   113.79646967
_cell_angle_gamma   90.00000000
_symmetry_Int_Tables_number   1
_chemical_formula_structural   La2H5
_chemical_formula_sum   'La4 H10'
_cell_volume   176.31434496
_cell_formula_units_Z   2
loop_
 _symmetry_equiv_pos_site_id
 _symmetry_equiv_pos_as_xyz
  1  'x, y, z'
loop_
 _atom_site_type_symbol
 _atom_site_label
 _atom_site_symmetry_multiplicity
 _atom_site_fract_x
 _atom_site_fract_y
 _atom_site_fract_z
 _atom_site_occupancy
  La  La0  1  0.24850151  0.74850151  0.49700303  1
  La  La1  1  0.99850151  0.99850151  0.99700303  1
  La  La2  1  0.74051359  0.24051359  0.48102718  1
  La  La3  1  0.49051359  0.49051359  0.98102718  1
  H  H4  1  0.63827547  0.61843923  0.73898725  1
  H  H5  1  0.10071178  0.12054802  0.73898725  1
  H  H6  1  0.37054802  0.85071178  0.23898725  1
  H  H7  1  0.86843923  0.38827547  0.23898725  1
  H  H8  1  0.10071178  0.61843923  0.73898725  1
  H  H9  1  0.63827547  0.12054802  0.73898725  1
  H  H10  1  0.86843923  0.85071178  0.23898725  1
  H  H11  1  0.37054802  0.38827547  0.23898725  1
  H  H12  1  0.48901041  0.98901041  0.97802081  1
  H  H13  1  0.23901041  0.23901041  0.47802081  1
