# generated using pymatgen
data_Ti4CoS8
_symmetry_space_group_name_H-M   'P 1'
_cell_length_a   6.58370604
_cell_length_b   6.58370604
_cell_length_c   6.78084506
_cell_angle_alpha   105.02865964
_cell_angle_beta   105.14960939
_cell_angle_gamma   117.63049355
_symmetry_Int_Tables_number   1
_chemical_formula_structural   Ti4CoS8
_chemical_formula_sum   'Ti4 Co1 S8'
_cell_volume   225.09661135
_cell_formula_units_Z   1
loop_
 _symmetry_equiv_pos_site_id
 _symmetry_equiv_pos_as_xyz
  1  'x, y, z'
loop_
 _atom_site_type_symbol
 _atom_site_label
 _atom_site_symmetry_multiplicity
 _atom_site_fract_x
 _atom_site_fract_y
 _atom_site_fract_z
 _atom_site_occupancy
  Ti  Ti0  1  0.25267352  0.74117152  0.99384503  1
  Ti  Ti1  1  0.74732648  0.25882848  0.00615497  1
  Ti  Ti2  1  0.75744154  0.25744154  0.50000000  1
  Ti  Ti3  1  0.24255846  0.74255846  0.50000000  1
  Co  Co4  1  -0.00000000  0.00000000  0.00000000  1
  S  S5  1  0.28848489  0.03947888  0.32796376  1
  S  S6  1  0.71151511  0.96052112  0.67203624  1
  S  S7  1  0.78839672  0.54737592  0.33577264  1
  S  S8  1  0.21160328  0.45262408  0.66422736  1
  S  S9  1  0.20774956  0.44752429  0.16471874  1
  S  S10  1  0.71719445  0.95696918  0.16471874  1
  S  S11  1  0.79225044  0.55247571  0.83528126  1
  S  S12  1  0.28280555  0.04303082  0.83528126  1
