# generated using pymatgen
data_CrH9(CN2)3
_symmetry_space_group_name_H-M   'P 1'
_cell_length_a   7.52408732
_cell_length_b   7.52408704
_cell_length_c   7.52408742
_cell_angle_alpha   97.56832280
_cell_angle_beta   97.56832251
_cell_angle_gamma   97.56831704
_symmetry_Int_Tables_number   1
_chemical_formula_structural   CrH9(CN2)3
_chemical_formula_sum   'Cr2 H18 C6 N12'
_cell_volume   413.72039580
_cell_formula_units_Z   2
loop_
 _symmetry_equiv_pos_site_id
 _symmetry_equiv_pos_as_xyz
  1  'x, y, z'
loop_
 _atom_site_type_symbol
 _atom_site_label
 _atom_site_symmetry_multiplicity
 _atom_site_fract_x
 _atom_site_fract_y
 _atom_site_fract_z
 _atom_site_occupancy
  Cr  Cr0  1  0.00000000  0.00000000  0.00000000  1
  Cr  Cr1  1  0.50000000  0.50000000  0.50000000  1
  C  C2  1  0.23974537  0.13051833  0.94941646  1
  C  C3  1  0.94941646  0.23974537  0.13051833  1
  C  C4  1  0.13051833  0.94941646  0.23974537  1
  C  C5  1  0.76025463  0.86948167  0.05058354  1
  C  C6  1  0.05058354  0.76025463  0.86948167  1
  C  C7  1  0.86948167  0.05058354  0.76025463  1
  N  N8  1  0.37649308  0.21142448  0.92378563  1
  N  N9  1  0.92378563  0.37649308  0.21142448  1
  N  N10  1  0.21142448  0.92378563  0.37649308  1
  N  N11  1  0.62350692  0.78857552  0.07621437  1
  N  N12  1  0.07621437  0.62350692  0.78857552  1
  N  N13  1  0.78857552  0.07621437  0.62350692  1
  N  N14  1  0.55395163  0.25403428  0.36503543  1
  N  N15  1  0.36503543  0.55395163  0.25403428  1
  N  N16  1  0.25403428  0.36503543  0.55395163  1
  N  N17  1  0.44604837  0.74596572  0.63496457  1
  N  N18  1  0.63496457  0.44604837  0.74596572  1
  N  N19  1  0.74596572  0.63496457  0.44604837  1
  H  H20  1  0.26817212  0.24568391  0.60246851  1
  H  H21  1  0.60246851  0.26817212  0.24568391  1
  H  H22  1  0.24568391  0.60246851  0.26817212  1
  H  H23  1  0.73182788  0.75431609  0.39753149  1
  H  H24  1  0.39753149  0.73182788  0.75431609  1
  H  H25  1  0.75431609  0.39753149  0.73182788  1
  H  H26  1  0.44044451  0.15696524  0.33254877  1
  H  H27  1  0.33254877  0.44044451  0.15696524  1
  H  H28  1  0.15696524  0.33254877  0.44044451  1
  H  H29  1  0.55955549  0.84303476  0.66745123  1
  H  H30  1  0.66745123  0.55955549  0.84303476  1
  H  H31  1  0.84303476  0.66745123  0.55955549  1
  H  H32  1  0.64867173  0.19632015  0.44257576  1
  H  H33  1  0.44257576  0.64867173  0.19632014  1
  H  H34  1  0.19632014  0.44257575  0.64867173  1
  H  H35  1  0.35132827  0.80367985  0.55742424  1
  H  H36  1  0.55742424  0.35132827  0.80367986  1
  H  H37  1  0.80367986  0.55742425  0.35132827  1
