# generated using pymatgen
data_Sr2ZnWO6
_symmetry_space_group_name_H-M   'P 1'
_cell_length_a   5.71676833
_cell_length_b   5.69112294
_cell_length_c   8.05716961
_cell_angle_alpha   90.00000000
_cell_angle_beta   89.95032164
_cell_angle_gamma   90.00000000
_symmetry_Int_Tables_number   1
_chemical_formula_structural   Sr2ZnWO6
_chemical_formula_sum   'Sr4 Zn2 W2 O12'
_cell_volume   262.13855617
_cell_formula_units_Z   2
loop_
 _symmetry_equiv_pos_site_id
 _symmetry_equiv_pos_as_xyz
  1  'x, y, z'
loop_
 _atom_site_type_symbol
 _atom_site_label
 _atom_site_symmetry_multiplicity
 _atom_site_fract_x
 _atom_site_fract_y
 _atom_site_fract_z
 _atom_site_occupancy
  Sr  Sr0  1  0.00358290  0.01370791  0.24946900  1
  Sr  Sr1  1  0.50358290  0.48629209  0.74946900  1
  Sr  Sr2  1  0.99641710  0.98629209  0.75053100  1
  Sr  Sr3  1  0.49641710  0.51370791  0.25053100  1
  Zn  Zn4  1  0.50000000  -0.00000000  0.50000000  1
  Zn  Zn5  1  -0.00000000  0.50000000  -0.00000000  1
  W  W6  1  -0.00000000  0.50000000  0.50000000  1
  W  W7  1  0.50000000  -0.00000000  -0.00000000  1
  O  O8  1  0.21873614  0.76020997  0.46857770  1
  O  O9  1  0.71873614  0.73979003  0.96857770  1
  O  O10  1  0.78126386  0.23979003  0.53142230  1
  O  O11  1  0.28126386  0.26020997  0.03142230  1
  O  O12  1  0.25707386  0.27817685  0.46918678  1
  O  O13  1  0.75707386  0.22182315  0.96918678  1
  O  O14  1  0.74292614  0.72182315  0.53081322  1
  O  O15  1  0.24292614  0.77817685  0.03081322  1
  O  O16  1  0.94019485  0.49276157  0.26050061  1
  O  O17  1  0.44019485  0.00723843  0.76050061  1
  O  O18  1  0.05980515  0.50723843  0.73949939  1
  O  O19  1  0.55980515  0.99276157  0.23949939  1
