# generated using pymatgen
data_La2Au
_symmetry_space_group_name_H-M   'P 1'
_cell_length_a   5.13857586
_cell_length_b   7.46427547
_cell_length_c   9.64124563
_cell_angle_alpha   90.00000000
_cell_angle_beta   90.00000000
_cell_angle_gamma   90.00000000
_symmetry_Int_Tables_number   1
_chemical_formula_structural   La2Au
_chemical_formula_sum   'La8 Au4'
_cell_volume   369.79716603
_cell_formula_units_Z   4
loop_
 _symmetry_equiv_pos_site_id
 _symmetry_equiv_pos_as_xyz
  1  'x, y, z'
loop_
 _atom_site_type_symbol
 _atom_site_label
 _atom_site_symmetry_multiplicity
 _atom_site_fract_x
 _atom_site_fract_y
 _atom_site_fract_z
 _atom_site_occupancy
  La  La0  1  0.75000000  0.65674902  0.57922319  1
  La  La1  1  0.75000000  0.15674902  0.92077681  1
  La  La2  1  0.25000000  0.34325098  0.42077681  1
  La  La3  1  0.25000000  0.84325098  0.07922319  1
  La  La4  1  0.75000000  0.00949923  0.32384168  1
  La  La5  1  0.75000000  0.50949923  0.17615832  1
  La  La6  1  0.25000000  0.99050077  0.67615832  1
  La  La7  1  0.25000000  0.49050077  0.82384168  1
  Au  Au8  1  0.75000000  0.24565002  0.60645775  1
  Au  Au9  1  0.75000000  0.74565002  0.89354225  1
  Au  Au10  1  0.25000000  0.75434998  0.39354225  1
  Au  Au11  1  0.25000000  0.25434998  0.10645775  1
