# generated using pymatgen
data_Mn2O3
_symmetry_space_group_name_H-M   'P 1'
_cell_length_a   9.58026880
_cell_length_b   9.60874197
_cell_length_c   9.65843398
_cell_angle_alpha   90.00000000
_cell_angle_beta   90.00000000
_cell_angle_gamma   90.00000000
_symmetry_Int_Tables_number   1
_chemical_formula_structural   Mn2O3
_chemical_formula_sum   'Mn32 O48'
_cell_volume   889.10067759
_cell_formula_units_Z   16
loop_
 _symmetry_equiv_pos_site_id
 _symmetry_equiv_pos_as_xyz
  1  'x, y, z'
loop_
 _atom_site_type_symbol
 _atom_site_label
 _atom_site_symmetry_multiplicity
 _atom_site_fract_x
 _atom_site_fract_y
 _atom_site_fract_z
 _atom_site_occupancy
  Mn  Mn0  1  0.50000000  0.50000000  0.00000000  1
  Mn  Mn1  1  0.50000000  0.00000000  0.50000000  1
  Mn  Mn2  1  -0.00000000  0.50000000  0.50000000  1
  Mn  Mn3  1  0.00000000  0.00000000  0.00000000  1
  Mn  Mn4  1  -0.00000000  0.00000000  0.50000000  1
  Mn  Mn5  1  0.00000000  0.50000000  0.00000000  1
  Mn  Mn6  1  0.50000000  0.00000000  0.00000000  1
  Mn  Mn7  1  0.50000000  0.50000000  0.50000000  1
  Mn  Mn8  1  0.50913591  0.75883948  0.28594077  1
  Mn  Mn9  1  0.49086409  0.25883948  0.21405923  1
  Mn  Mn10  1  0.99086409  0.24116052  0.78594077  1
  Mn  Mn11  1  0.00913591  0.74116052  0.71405923  1
  Mn  Mn12  1  0.49086409  0.24116052  0.71405923  1
  Mn  Mn13  1  0.50913591  0.74116052  0.78594077  1
  Mn  Mn14  1  0.00913591  0.75883948  0.21405923  1
  Mn  Mn15  1  0.99086409  0.25883948  0.28594077  1
  Mn  Mn16  1  0.25641385  0.78794331  -0.00012416  1
  Mn  Mn17  1  0.74358615  0.28794331  0.50012416  1
  Mn  Mn18  1  0.24358615  0.21205669  0.49987584  1
  Mn  Mn19  1  0.75641385  0.71205669  0.00012416  1
  Mn  Mn20  1  0.74358615  0.21205669  0.00012416  1
  Mn  Mn21  1  0.25641385  0.71205669  0.49987584  1
  Mn  Mn22  1  0.75641385  0.78794331  0.50012416  1
  Mn  Mn23  1  0.24358615  0.28794331  -0.00012416  1
  Mn  Mn24  1  0.21575082  0.51179641  0.24663891  1
  Mn  Mn25  1  0.78424918  0.01179641  0.25336109  1
  Mn  Mn26  1  0.28424918  0.48820359  0.74663891  1
  Mn  Mn27  1  0.71575082  0.98820359  0.75336109  1
  Mn  Mn28  1  0.78424918  0.48820359  0.75336109  1
  Mn  Mn29  1  0.21575082  0.98820359  0.74663891  1
  Mn  Mn30  1  0.71575082  0.51179641  0.25336109  1
  Mn  Mn31  1  0.28424918  0.01179641  0.24663891  1
  O  O32  1  0.14865293  0.92324989  0.12533570  1
  O  O33  1  0.85134707  0.42324989  0.37466430  1
  O  O34  1  0.35134707  0.07675011  0.62533570  1
  O  O35  1  0.64865293  0.57675011  0.87466430  1
  O  O36  1  0.85134707  0.07675011  0.87466430  1
  O  O37  1  0.14865293  0.57675011  0.62533570  1
  O  O38  1  0.64865293  0.92324989  0.37466430  1
  O  O39  1  0.35134707  0.42324989  0.12533570  1
  O  O40  1  0.09336205  0.63976745  0.35272546  1
  O  O41  1  0.90663795  0.13976745  0.14727454  1
  O  O42  1  0.40663795  0.36023255  0.85272546  1
  O  O43  1  0.59336205  0.86023255  0.64727454  1
  O  O44  1  0.90663795  0.36023255  0.64727454  1
  O  O45  1  0.09336205  0.86023255  0.85272546  1
  O  O46  1  0.59336205  0.63976745  0.14727454  1
  O  O47  1  0.40663795  0.13976745  0.35272546  1
  O  O48  1  0.37727759  0.85789993  0.41665435  1
  O  O49  1  0.62272241  0.35789993  0.08334565  1
  O  O50  1  0.12272241  0.14210007  0.91665435  1
  O  O51  1  0.87727759  0.64210007  0.58334565  1
  O  O52  1  0.62272241  0.14210007  0.58334565  1
  O  O53  1  0.37727759  0.64210007  0.91665435  1
  O  O54  1  0.87727759  0.85789993  0.08334565  1
  O  O55  1  0.12272241  0.35789993  0.41665435  1
  O  O56  1  0.36121175  0.58584986  0.37229593  1
  O  O57  1  0.63878825  0.08584986  0.12770407  1
  O  O58  1  0.13878825  0.41415014  0.87229593  1
  O  O59  1  0.86121175  0.91415014  0.62770407  1
  O  O60  1  0.63878825  0.41415014  0.62770407  1
  O  O61  1  0.36121175  0.91415014  0.87229593  1
  O  O62  1  0.86121175  0.58584986  0.12770407  1
  O  O63  1  0.13878825  0.08584986  0.37229593  1
  O  O64  1  0.41962988  0.87881219  0.14619159  1
  O  O65  1  0.58037012  0.37881219  0.35380841  1
  O  O66  1  0.08037012  0.12118781  0.64619159  1
  O  O67  1  0.91962988  0.62118781  0.85380841  1
  O  O68  1  0.58037012  0.12118781  0.85380841  1
  O  O69  1  0.41962988  0.62118781  0.64619159  1
  O  O70  1  0.91962988  0.87881219  0.35380841  1
  O  O71  1  0.08037012  0.37881219  0.14619159  1
  O  O72  1  0.13849782  0.65363401  0.08819613  1
  O  O73  1  0.86150218  0.15363401  0.41180387  1
  O  O74  1  0.36150218  0.34636599  0.58819613  1
  O  O75  1  0.63849782  0.84636599  0.91180387  1
  O  O76  1  0.86150218  0.34636599  0.91180387  1
  O  O77  1  0.13849782  0.84636599  0.58819613  1
  O  O78  1  0.63849782  0.65363401  0.41180387  1
  O  O79  1  0.36150218  0.15363401  0.08819613  1
