# generated using pymatgen
data_Na3Mg4ScSi8(O11F)2
_symmetry_space_group_name_H-M   'P 1'
_cell_length_a   5.36100622
_cell_length_b   9.94353214
_cell_length_c   10.38776963
_cell_angle_alpha   61.42854738
_cell_angle_beta   83.75380223
_cell_angle_gamma   76.85355041
_symmetry_Int_Tables_number   1
_chemical_formula_structural   Na3Mg4ScSi8(O11F)2
_chemical_formula_sum   'Na3 Mg4 Sc1 Si8 O22 F2'
_cell_volume   473.56485335
_cell_formula_units_Z   1
loop_
 _symmetry_equiv_pos_site_id
 _symmetry_equiv_pos_as_xyz
  1  'x, y, z'
loop_
 _atom_site_type_symbol
 _atom_site_label
 _atom_site_symmetry_multiplicity
 _atom_site_fract_x
 _atom_site_fract_y
 _atom_site_fract_z
 _atom_site_occupancy
  Na  Na0  1  0.49981893  0.27811704  0.44384018  1
  Na  Na1  1  0.49981945  0.72696786  0.54530640  1
  Na  Na2  1  0.92761554  0.52869645  0.00032057  1
  Mg  Mg3  1  0.00040400  0.99789767  0.00436361  1
  Mg  Mg4  1  0.49993426  0.08686166  0.82685728  1
  Mg  Mg5  1  0.49982291  0.91039641  0.18017167  1
  Mg  Mg6  1  0.00004671  0.81813518  0.36414451  1
  Sc  Sc7  1  0.99992467  0.18312763  0.63463130  1
  Si  Si8  1  0.20792596  0.11807624  0.33588488  1
  Si  Si9  1  0.20688928  0.45995441  0.66066372  1
  Si  Si10  1  0.28562634  0.63415247  0.16892026  1
  Si  Si11  1  0.28680589  0.80115098  0.83291150  1
  Si  Si12  1  0.71411311  0.19639679  0.16954894  1
  Si  Si13  1  0.71254693  0.36565389  0.83326003  1
  Si  Si14  1  0.79146837  0.54668771  0.33669633  1
  Si  Si15  1  0.79200309  0.88140029  0.65927343  1
  O  O16  1  0.06833845  0.52646376  0.24951612  1
  O  O17  1  0.19774941  0.11564774  0.49375970  1
  O  O18  1  0.06816385  0.77839904  0.75049361  1
  O  O19  1  0.20087370  0.60773084  0.50373622  1
  O  O20  1  0.27380098  0.28555393  0.66850877  1
  O  O21  1  0.21609275  0.80216675  0.16719072  1
  O  O22  1  0.29122770  0.65461017  0.00059182  1
  O  O23  1  0.43217613  0.22285721  0.24242328  1
  O  O24  1  0.21431876  0.97050029  0.83199816  1
  O  O25  1  0.27184568  0.95328553  0.33179745  1
  O  O26  1  0.43048765  0.46179676  0.76122576  1
  O  O27  1  0.57166803  0.53649307  0.23828624  1
  O  O28  1  0.70544035  0.34421512  0.00116944  1
  O  O29  1  0.72405663  0.04723564  0.66760349  1
  O  O30  1  0.78450608  0.03034602  0.16689441  1
  O  O31  1  0.57327365  0.77519171  0.76461218  1
  O  O32  1  0.78588327  0.19678180  0.83275018  1
  O  O33  1  0.72612967  0.71551640  0.33213519  1
  O  O34  1  0.79969344  0.39133301  0.49356279  1
  O  O35  1  0.93019203  0.22468372  0.24995645  1
  O  O36  1  0.79581384  0.88905446  0.50321420  1
  O  O37  1  0.93044249  0.47156120  0.75144948  1
  F  F38  1  0.29373179  0.09965565  0.00033874  1
  F  F39  1  0.70932824  0.89724749  -0.00000900  1
