# generated using pymatgen
data_Na2TiF5
_symmetry_space_group_name_H-M   'P 1'
_cell_length_a   5.42957915
_cell_length_b   7.56017727
_cell_length_c   11.27849989
_cell_angle_alpha   107.31091513
_cell_angle_beta   90.00000000
_cell_angle_gamma   90.00000000
_symmetry_Int_Tables_number   1
_chemical_formula_structural   Na2TiF5
_chemical_formula_sum   'Na8 Ti4 F20'
_cell_volume   441.99594860
_cell_formula_units_Z   4
loop_
 _symmetry_equiv_pos_site_id
 _symmetry_equiv_pos_as_xyz
  1  'x, y, z'
loop_
 _atom_site_type_symbol
 _atom_site_label
 _atom_site_symmetry_multiplicity
 _atom_site_fract_x
 _atom_site_fract_y
 _atom_site_fract_z
 _atom_site_occupancy
  Na  Na0  1  0.94428800  0.65184322  0.31626334  1
  Na  Na1  1  0.44428800  0.34815678  0.18373666  1
  Na  Na2  1  0.05571200  0.34815678  0.68373566  1
  Na  Na3  1  0.55571200  0.65184322  0.81626434  1
  Na  Na4  1  0.48907213  0.85303666  0.13745978  1
  Na  Na5  1  0.98907213  0.14696334  0.36254022  1
  Na  Na6  1  0.51092787  0.14696334  0.86254022  1
  Na  Na7  1  0.01092787  0.85303666  0.63745978  1
  Ti  Ti8  1  0.50000000  0.50000000  0.50000000  1
  Ti  Ti9  1  -0.00000000  0.50000000  -0.00000000  1
  Ti  Ti10  1  0.50000000  -0.00000000  0.50000000  1
  Ti  Ti11  1  -0.00000000  -0.00000000  -0.00000000  1
  F  F12  1  0.74157962  0.51293508  0.62896117  1
  F  F13  1  0.24157962  0.48706492  0.87103883  1
  F  F14  1  0.25842038  0.48706492  0.37103883  1
  F  F15  1  0.75842038  0.51293508  0.12896117  1
  F  F16  1  0.72337696  0.38155875  0.35986493  1
  F  F17  1  0.22337696  0.61844125  0.14013507  1
  F  F18  1  0.27662304  0.61844125  0.64013507  1
  F  F19  1  0.77662304  0.38155875  0.85986493  1
  F  F20  1  0.65506013  0.74849987  0.49583111  1
  F  F21  1  0.15506013  0.25150013  0.00416889  1
  F  F22  1  0.34493987  0.25150013  0.50416889  1
  F  F23  1  0.84493987  0.74849987  0.99583111  1
  F  F24  1  0.84377643  0.94673229  0.83032948  1
  F  F25  1  0.34377643  0.05326771  0.66967052  1
  F  F26  1  0.15622357  0.05326771  0.16967052  1
  F  F27  1  0.65622357  0.94673229  0.33032948  1
  F  F28  1  0.69489262  0.10722737  0.07186881  1
  F  F29  1  0.19489262  0.89277263  0.42813119  1
  F  F30  1  0.30510738  0.89277263  0.92813119  1
  F  F31  1  0.80510738  0.10722737  0.57186881  1
