# generated using pymatgen
data_ScPaO4
_symmetry_space_group_name_H-M   'P 1'
_cell_length_a   7.41543312
_cell_length_b   9.82927128
_cell_length_c   6.45181409
_cell_angle_alpha   29.17166072
_cell_angle_beta   54.92290705
_cell_angle_gamma   41.02497603
_symmetry_Int_Tables_number   1
_chemical_formula_structural   ScPaO4
_chemical_formula_sum   'Sc2 Pa2 O8'
_cell_volume   145.17095217
_cell_formula_units_Z   2
loop_
 _symmetry_equiv_pos_site_id
 _symmetry_equiv_pos_as_xyz
  1  'x, y, z'
loop_
 _atom_site_type_symbol
 _atom_site_label
 _atom_site_symmetry_multiplicity
 _atom_site_fract_x
 _atom_site_fract_y
 _atom_site_fract_z
 _atom_site_occupancy
  Sc  Sc0  1  0.00000000  -0.00000000  -0.00000000  1
  Sc  Sc1  1  0.75000000  0.50000000  -0.00000000  1
  Pa  Pa2  1  0.50000000  -0.00000000  -0.00000000  1
  Pa  Pa3  1  0.25000000  0.50000000  -0.00000000  1
  O  O4  1  0.12318545  0.00181455  0.24818545  1
  O  O5  1  0.62681455  0.99818545  0.25181455  1
  O  O6  1  0.37500000  0.99818545  0.75181455  1
  O  O7  1  0.37500000  0.50181455  0.24818545  1
  O  O8  1  0.12318545  0.50181455  0.74818545  1
  O  O9  1  0.87500000  0.00181455  0.74818545  1
  O  O10  1  0.87500000  0.49818545  0.25181455  1
  O  O11  1  0.62681455  0.49818545  0.75181455  1
