# generated using pymatgen
data_CoCl2
_symmetry_space_group_name_H-M   'P 1'
_cell_length_a   3.52750323
_cell_length_b   3.52785081
_cell_length_c   16.59289255
_cell_angle_alpha   90.02982225
_cell_angle_beta   89.96274623
_cell_angle_gamma   119.98550483
_symmetry_Int_Tables_number   1
_chemical_formula_structural   CoCl2
_chemical_formula_sum   'Co1 Cl2'
_cell_volume   178.85194849
_cell_formula_units_Z   1
loop_
 _symmetry_equiv_pos_site_id
 _symmetry_equiv_pos_as_xyz
  1  'x, y, z'
loop_
 _atom_site_type_symbol
 _atom_site_label
 _atom_site_symmetry_multiplicity
 _atom_site_fract_x
 _atom_site_fract_y
 _atom_site_fract_z
 _atom_site_occupancy
  Co  Co0  1  -0.00000056  0.00000048  0.07485112  1
  Cl  Cl1  1  0.66658526  0.33338951  0.99431813  1
  Cl  Cl2  1  0.33341529  0.66661001  0.15538075  1
