# generated using pymatgen
data_SmAgAs2
_symmetry_space_group_name_H-M   'P 1'
_cell_length_a   4.01730507
_cell_length_b   4.03918634
_cell_length_c   21.22891862
_cell_angle_alpha   90.00000000
_cell_angle_beta   90.00000000
_cell_angle_gamma   90.00000000
_symmetry_Int_Tables_number   1
_chemical_formula_structural   SmAgAs2
_chemical_formula_sum   'Sm4 Ag4 As8'
_cell_volume   344.47409991
_cell_formula_units_Z   4
loop_
 _symmetry_equiv_pos_site_id
 _symmetry_equiv_pos_as_xyz
  1  'x, y, z'
loop_
 _atom_site_type_symbol
 _atom_site_label
 _atom_site_symmetry_multiplicity
 _atom_site_fract_x
 _atom_site_fract_y
 _atom_site_fract_z
 _atom_site_occupancy
  Sm  Sm0  1  0.25000000  0.26192031  0.61511606  1
  Sm  Sm1  1  0.25000000  0.23807969  0.11511606  1
  Sm  Sm2  1  0.75000000  0.73807969  0.38488394  1
  Sm  Sm3  1  0.75000000  0.76192031  0.88488394  1
  Ag  Ag4  1  0.25000000  0.76151417  0.75001761  1
  Ag  Ag5  1  0.25000000  0.73848583  0.25001761  1
  Ag  Ag6  1  0.75000000  0.23848583  0.24998239  1
  Ag  Ag7  1  0.75000000  0.26151417  0.74998239  1
  As  As8  1  0.25000000  0.26178822  0.84140460  1
  As  As9  1  0.25000000  0.23821178  0.34140460  1
  As  As10  1  0.75000000  0.73821178  0.15859540  1
  As  As11  1  0.75000000  0.76178822  0.65859540  1
  As  As12  1  0.25000000  0.78019715  0.50084053  1
  As  As13  1  0.25000000  0.71980285  0.00084053  1
  As  As14  1  0.75000000  0.21980285  0.49915947  1
  As  As15  1  0.75000000  0.28019715  0.99915947  1
