# generated using pymatgen
data_Rb2UH4(SeO6)2
_symmetry_space_group_name_H-M   'P 1'
_cell_length_a   13.97296326
_cell_length_b   12.09916937
_cell_length_c   7.70505599
_cell_angle_alpha   90.00000000
_cell_angle_beta   90.00000000
_cell_angle_gamma   90.00000000
_symmetry_Int_Tables_number   1
_chemical_formula_structural   Rb2UH4(SeO6)2
_chemical_formula_sum   'Rb8 U4 H16 Se8 O48'
_cell_volume   1302.62638993
_cell_formula_units_Z   4
loop_
 _symmetry_equiv_pos_site_id
 _symmetry_equiv_pos_as_xyz
  1  'x, y, z'
loop_
 _atom_site_type_symbol
 _atom_site_label
 _atom_site_symmetry_multiplicity
 _atom_site_fract_x
 _atom_site_fract_y
 _atom_site_fract_z
 _atom_site_occupancy
  Rb  Rb0  1  0.97225325  0.61417601  0.74026169  1
  Rb  Rb1  1  0.02774675  0.38582399  0.24026169  1
  Rb  Rb2  1  0.52774675  0.11417601  0.24026169  1
  Rb  Rb3  1  0.47225325  0.88582399  0.74026169  1
  Rb  Rb4  1  0.55016837  0.64457361  0.20754192  1
  Rb  Rb5  1  0.44983163  0.35542639  0.70754192  1
  Rb  Rb6  1  0.94983163  0.14457361  0.70754192  1
  Rb  Rb7  1  0.05016837  0.85542639  0.20754192  1
  U  U8  1  0.74851385  0.40250165  0.89998290  1
  U  U9  1  0.25148615  0.59749835  0.39998290  1
  U  U10  1  0.75148615  0.90250165  0.39998290  1
  U  U11  1  0.24851385  0.09749835  0.89998290  1
  H  H12  1  0.78554690  0.47080358  0.52287181  1
  H  H13  1  0.21445310  0.52919642  0.02287181  1
  H  H14  1  0.71445310  0.97080358  0.02287181  1
  H  H15  1  0.28554690  0.02919642  0.52287181  1
  H  H16  1  0.79148359  0.34082994  0.51691561  1
  H  H17  1  0.20851641  0.65917006  0.01691561  1
  H  H18  1  0.70851641  0.84082994  0.01691561  1
  H  H19  1  0.29148359  0.15917006  0.51691561  1
  H  H20  1  0.62292707  0.38374595  0.35058870  1
  H  H21  1  0.37707293  0.61625405  0.85058870  1
  H  H22  1  0.87707293  0.88374595  0.85058870  1
  H  H23  1  0.12292707  0.11625405  0.35058870  1
  H  H24  1  0.52388105  0.38809305  0.25355734  1
  H  H25  1  0.47611895  0.61190695  0.75355734  1
  H  H26  1  0.97611895  0.88809305  0.75355734  1
  H  H27  1  0.02388105  0.11190695  0.25355734  1
  Se  Se28  1  0.83041558  0.61531691  0.23375356  1
  Se  Se29  1  0.16958442  0.38468309  0.73375356  1
  Se  Se30  1  0.66958442  0.11531691  0.73375356  1
  Se  Se31  1  0.33041558  0.88468309  0.23375356  1
  Se  Se32  1  0.68708894  0.69075591  0.73130360  1
  Se  Se33  1  0.31291106  0.30924409  0.23130360  1
  Se  Se34  1  0.81291106  0.19075591  0.23130360  1
  Se  Se35  1  0.18708894  0.80924409  0.73130360  1
  O  O36  1  0.87885894  0.39396793  0.90365155  1
  O  O37  1  0.12114106  0.60603207  0.40365155  1
  O  O38  1  0.62114106  0.89396793  0.40365155  1
  O  O39  1  0.37885894  0.10603207  0.90365155  1
  O  O40  1  0.61910448  0.41291237  0.90283306  1
  O  O41  1  0.38089552  0.58708763  0.40283306  1
  O  O42  1  0.88089552  0.91291237  0.40283306  1
  O  O43  1  0.11910448  0.08708763  0.90283306  1
  O  O44  1  0.63995209  0.75034941  0.90672690  1
  O  O45  1  0.36004791  0.24965059  0.40672690  1
  O  O46  1  0.86004791  0.25034941  0.40672690  1
  O  O47  1  0.13995209  0.74965059  0.90672690  1
  O  O48  1  0.87139499  0.55726176  0.41487886  1
  O  O49  1  0.12860501  0.44273824  0.91487886  1
  O  O50  1  0.62860501  0.05726176  0.91487886  1
  O  O51  1  0.37139499  0.94273824  0.41487886  1
  O  O52  1  0.75682155  0.72258594  0.28251830  1
  O  O53  1  0.24317845  0.27741406  0.78251830  1
  O  O54  1  0.74317845  0.22258594  0.78251830  1
  O  O55  1  0.25682155  0.77741406  0.28251830  1
  O  O56  1  0.75403790  0.52354423  0.14070707  1
  O  O57  1  0.24596210  0.47645577  0.64070707  1
  O  O58  1  0.74596210  0.02354423  0.64070707  1
  O  O59  1  0.25403790  0.97645577  0.14070707  1
  O  O60  1  0.76093659  0.58514772  0.78719693  1
  O  O61  1  0.23906341  0.41485228  0.28719693  1
  O  O62  1  0.73906341  0.08514772  0.28719693  1
  O  O63  1  0.26093659  0.91485228  0.78719693  1
  O  O64  1  0.75677305  0.40335440  0.57481730  1
  O  O65  1  0.24322695  0.59664560  0.07481730  1
  O  O66  1  0.74322695  0.90335440  0.07481730  1
  O  O67  1  0.25677305  0.09664560  0.57481730  1
  O  O68  1  0.76523335  0.78278844  0.64321796  1
  O  O69  1  0.23476665  0.21721156  0.14321796  1
  O  O70  1  0.73476665  0.28278844  0.14321796  1
  O  O71  1  0.26523335  0.71721156  0.64321796  1
  O  O72  1  0.91783817  0.65350687  0.10293928  1
  O  O73  1  0.08216183  0.34649313  0.60293928  1
  O  O74  1  0.58216183  0.15350687  0.60293928  1
  O  O75  1  0.41783817  0.84649313  0.10293928  1
  O  O76  1  0.60191507  0.65092728  0.59672794  1
  O  O77  1  0.39808493  0.34907272  0.09672794  1
  O  O78  1  0.89808493  0.15092728  0.09672794  1
  O  O79  1  0.10191507  0.84907272  0.59672794  1
  O  O80  1  0.55694457  0.41025676  0.35984772  1
  O  O81  1  0.44305543  0.58974324  0.85984772  1
  O  O82  1  0.94305543  0.91025676  0.85984772  1
  O  O83  1  0.05694457  0.08974324  0.35984772  1
