# generated using pymatgen
data_LiCoPO4
_symmetry_space_group_name_H-M   'P 1'
_cell_length_a   9.86375541
_cell_length_b   10.04051063
_cell_length_c   17.16301589
_cell_angle_alpha   105.72939406
_cell_angle_beta   106.69966729
_cell_angle_gamma   60.58065365
_symmetry_Int_Tables_number   1
_chemical_formula_structural   LiCoPO4
_chemical_formula_sum   'Li16 Co16 P16 O64'
_cell_volume   1400.83465998
_cell_formula_units_Z   16
loop_
 _symmetry_equiv_pos_site_id
 _symmetry_equiv_pos_as_xyz
  1  'x, y, z'
loop_
 _atom_site_type_symbol
 _atom_site_label
 _atom_site_symmetry_multiplicity
 _atom_site_fract_x
 _atom_site_fract_y
 _atom_site_fract_z
 _atom_site_occupancy
  Li  Li0  1  0.49514862  0.93960606  0.31155857  1
  Li  Li1  1  0.37410685  0.99740552  0.81247269  1
  Li  Li2  1  0.87173724  0.94487151  0.81121909  1
  Li  Li3  1  0.76184831  0.67788742  0.06054982  1
  Li  Li4  1  0.25973496  0.61777904  0.06136978  1
  Li  Li5  1  0.12198183  0.68042260  0.56096739  1
  Li  Li6  1  0.68483748  0.61644249  0.56080231  1
  Li  Li7  1  0.44096032  0.49740552  0.31247269  1
  Li  Li8  1  0.99460934  0.44487151  0.31121909  1
  Li  Li9  1  0.36834858  0.50390866  0.81065720  1
  Li  Li10  1  0.87680390  0.43960606  0.81155857  1
  Li  Li11  1  0.75856196  0.18042260  0.06096739  1
  Li  Li12  1  0.25952234  0.11644249  0.06080231  1
  Li  Li13  1  0.62081409  0.17788742  0.56054982  1
  Li  Li14  1  0.18385478  0.11777904  0.56136978  1
  Li  Li15  1  0.93839996  0.00390866  0.31065720  1
  Co  Co16  1  0.62482515  0.99903420  0.18451876  1
  Co  Co17  1  0.06081723  0.99436226  0.68527820  1
  Co  Co18  1  0.81472919  0.87827375  0.43524557  1
  Co  Co19  1  0.37711631  0.81904614  0.43593838  1
  Co  Co20  1  0.74139452  0.88006718  0.93492276  1
  Co  Co21  1  0.24094367  0.81890176  0.93627918  1
  Co  Co22  1  0.12293437  0.56207099  0.18728971  1
  Co  Co23  1  0.63009771  0.49436226  0.18527820  1
  Co  Co24  1  0.00248358  0.55493227  0.68628278  1
  Co  Co25  1  0.56066041  0.49903420  0.68451876  1
  Co  Co26  1  0.31346005  0.38006718  0.43492276  1
  Co  Co27  1  0.87643275  0.31890176  0.43627918  1
  Co  Co28  1  0.74224163  0.37827375  0.93524557  1
  Co  Co29  1  0.23977594  0.31904614  0.93593838  1
  Co  Co30  1  0.12886693  0.05493227  0.18628278  1
  Co  Co31  1  0.50228435  0.06207099  0.68728971  1
  P  P32  1  0.93690819  0.87190960  0.12254249  1
  P  P33  1  0.43908504  0.81222143  0.12466589  1
  P  P34  1  0.81551320  0.86930642  0.62357155  1
  P  P35  1  0.37447700  0.81598605  0.62482357  1
  P  P36  1  0.12684265  0.68659982  0.37400888  1
  P  P37  1  0.68662325  0.62629530  0.37513723  1
  P  P38  1  0.56329827  0.68204247  0.87387462  1
  P  P39  1  0.06024063  0.62883391  0.87539428  1
  P  P40  1  0.93875193  0.36930642  0.12357155  1
  P  P41  1  0.43436052  0.31598605  0.12482357  1
  P  P42  1  0.31372470  0.37190960  0.62254249  1
  P  P43  1  0.87335842  0.31222143  0.62466589  1
  P  P44  1  0.62853489  0.18204247  0.37387462  1
  P  P45  1  0.18631974  0.12883391  0.37539428  1
  P  P46  1  0.56056640  0.18659982  0.87400888  1
  P  P47  1  0.06221868  0.12629530  0.87513723  1
  O  O48  1  0.35619502  0.99511896  0.39217314  1
  O  O49  1  0.32757276  0.89113635  0.04864695  1
  O  O50  1  0.85759719  0.92293168  0.19915990  1
  O  O51  1  0.36338169  0.91796966  0.20112350  1
  O  O52  1  0.82559483  0.82783746  0.04739608  1
  O  O53  1  0.60672209  0.80136481  0.13728430  1
  O  O54  1  0.98971637  0.85269179  0.38678708  1
  O  O55  1  0.04168068  0.99304650  0.89155537  1
  O  O56  1  0.32842123  0.89304513  0.54780673  1
  O  O57  1  0.41977592  0.92392887  0.69996160  1
  O  O58  1  0.92082447  0.91657006  0.70167984  1
  O  O59  1  0.10212841  0.73120724  0.13792719  1
  O  O60  1  0.89597445  0.83023014  0.54906045  1
  O  O61  1  0.69397547  0.76796458  0.35964869  1
  O  O62  1  0.23292306  0.80155823  0.63829731  1
  O  O63  1  0.45630224  0.64610948  0.11338829  1
  O  O64  1  0.54978548  0.84646322  0.88495292  1
  O  O65  1  0.27151112  0.69511154  0.36044151  1
  O  O66  1  0.80666757  0.72678831  0.63684817  1
  O  O67  1  0.60678630  0.66988433  0.45040259  1
  O  O68  1  0.89594533  0.77056147  0.85986649  1
  O  O69  1  0.07824320  0.58329343  0.29725330  1
  O  O70  1  0.58352491  0.57335150  0.29876222  1
  O  O71  1  0.17050190  0.60805405  0.45035710  1
  O  O72  1  0.95911219  0.50400509  0.10918268  1
  O  O73  1  0.51320492  0.65026002  0.61359447  1
  O  O74  1  0.39458535  0.69570603  0.86074455  1
  O  O75  1  0.17328403  0.67084504  0.95026195  1
  O  O76  1  0.85682819  0.49304650  0.39155537  1
  O  O77  1  0.32634037  0.39304513  0.04780673  1
  O  O78  1  0.35625681  0.42392887  0.19996160  1
  O  O79  1  0.86428631  0.41657006  0.20167984  1
  O  O80  1  0.13473715  0.57824778  0.79709477  1
  O  O81  1  0.64165627  0.57262922  0.79906260  1
  O  O82  1  0.14364849  0.50608064  0.60782585  1
  O  O83  1  0.67205627  0.60603453  0.95139372  1
  O  O84  1  0.82285586  0.33023014  0.04906045  1
  O  O85  1  0.60381502  0.30155823  0.13829731  1
  O  O86  1  0.04085915  0.49511896  0.89217314  1
  O  O87  1  0.48870321  0.34646322  0.38495292  1
  O  O88  1  0.82993784  0.39113635  0.54864695  1
  O  O89  1  0.41863104  0.42293168  0.69915990  1
  O  O90  1  0.91977214  0.41796966  0.70112350  1
  O  O91  1  0.10339229  0.22678831  0.13684817  1
  O  O92  1  0.19335970  0.27056147  0.35986649  1
  O  O93  1  0.39396479  0.32783746  0.54739608  1
  O  O94  1  0.45012953  0.15026002  0.11359447  1
  O  O95  1  0.72919839  0.30136481  0.63728430  1
  O  O96  1  0.54437892  0.35269179  0.88678608  1
  O  O97  1  0.77045316  0.19570603  0.36074455  1
  O  O98  1  0.30459154  0.23120724  0.63792719  1
  O  O99  1  0.10613287  0.17084504  0.45026195  1
  O  O100  1  0.89770864  0.26796458  0.85964869  1
  O  O101  1  0.08410984  0.07824778  0.29709477  1
  O  O102  1  0.58477711  0.07262922  0.29906260  1
  O  O103  1  0.95809771  0.00608064  0.10782585  1
  O  O104  1  0.67330292  0.10603453  0.45139372  1
  O  O105  1  0.01097657  0.14610948  0.61338829  1
  O  O106  1  0.39381885  0.19511154  0.86044151  1
  O  O107  1  0.17373196  0.16988433  0.95040259  1
  O  O108  1  0.63571667  0.08329343  0.79725330  1
  O  O109  1  0.14188681  0.07335150  0.79876222  1
  O  O110  1  0.67180115  0.10805405  0.95035710  1
  O  O111  1  0.64606439  0.00400509  0.60918268  1
