# generated using pymatgen
data_Cs3GaO3
_symmetry_space_group_name_H-M   'P 1'
_cell_length_a   7.35643262
_cell_length_b   7.35643262
_cell_length_c   7.35649297
_cell_angle_alpha   81.48865260
_cell_angle_beta   98.51134740
_cell_angle_gamma   64.62870666
_symmetry_Int_Tables_number   1
_chemical_formula_structural   Cs3GaO3
_chemical_formula_sum   'Cs6 Ga2 O6'
_cell_volume   345.65192720
_cell_formula_units_Z   2
loop_
 _symmetry_equiv_pos_site_id
 _symmetry_equiv_pos_as_xyz
  1  'x, y, z'
loop_
 _atom_site_type_symbol
 _atom_site_label
 _atom_site_symmetry_multiplicity
 _atom_site_fract_x
 _atom_site_fract_y
 _atom_site_fract_z
 _atom_site_occupancy
  Cs  Cs0  1  0.37444154  0.62555846  0.66446037  1
  Cs  Cs1  1  0.20275219  0.20275219  0.50000000  1
  Cs  Cs2  1  0.79724781  0.79724781  0.50000000  1
  Cs  Cs3  1  0.25332772  0.25332772  0.00000000  1
  Cs  Cs4  1  0.74667228  0.74667228  0.00000000  1
  Cs  Cs5  1  0.62555846  0.37444154  0.33553963  1
  Ga  Ga6  1  0.15935820  0.84064180  0.14840667  1
  Ga  Ga7  1  0.84064180  0.15935820  0.85159333  1
  O  O8  1  0.09422947  0.90577053  0.86964278  1
  O  O9  1  0.40041757  0.84774435  0.26249714  1
  O  O10  1  0.15225565  0.59958243  0.26249714  1
  O  O11  1  0.84774435  0.40041757  0.73750286  1
  O  O12  1  0.59958243  0.15225565  0.73750286  1
  O  O13  1  0.90577053  0.09422947  0.13035722  1
