# generated using pymatgen
data_Li2VFeP2(O4F)2
_symmetry_space_group_name_H-M   'P 1'
_cell_length_a   7.98712328
_cell_length_b   6.97643463
_cell_length_c   7.42031151
_cell_angle_alpha   62.35855225
_cell_angle_beta   89.14504909
_cell_angle_gamma   91.61388425
_symmetry_Int_Tables_number   1
_chemical_formula_structural   Li2VFeP2(O4F)2
_chemical_formula_sum   'Li4 V2 Fe2 P4 O16 F4'
_cell_volume   365.95344009
_cell_formula_units_Z   2
loop_
 _symmetry_equiv_pos_site_id
 _symmetry_equiv_pos_as_xyz
  1  'x, y, z'
loop_
 _atom_site_type_symbol
 _atom_site_label
 _atom_site_symmetry_multiplicity
 _atom_site_fract_x
 _atom_site_fract_y
 _atom_site_fract_z
 _atom_site_occupancy
  Li  Li0  1  0.17259783  0.55767139  0.18861409  1
  Li  Li1  1  0.67290006  0.05578736  0.18832379  1
  Li  Li2  1  0.32709994  0.94421264  0.81167621  1
  Li  Li3  1  0.82740217  0.44232861  0.81138591  1
  V  V4  1  0.00000000  0.00000000  0.50000000  1
  V  V5  1  0.50000000  0.50000000  0.00000000  1
  Fe  Fe6  1  0.00000000  0.00000000  0.00000000  1
  Fe  Fe7  1  0.50000000  0.50000000  0.50000000  1
  P  P8  1  0.15925802  0.51658919  0.76301752  1
  P  P9  1  0.65912228  0.01904859  0.76205518  1
  P  P10  1  0.34087772  0.98095141  0.23794482  1
  P  P11  1  0.84074198  0.48341081  0.23698248  1
  O  O12  1  0.23255669  0.01803973  0.39043409  1
  O  O13  1  0.43958469  0.19187054  0.08723381  1
  O  O14  1  0.06081526  0.30550653  0.91322483  1
  O  O15  1  0.01700356  0.67429313  0.65652532  1
  O  O16  1  0.26999889  0.48081544  0.61194025  1
  O  O17  1  0.51667243  0.17674835  0.65829733  1
  O  O18  1  0.23080275  0.89730196  0.11309550  1
  O  O19  1  0.73262239  0.39963071  0.11030657  1
  O  O20  1  0.26737761  0.60036929  0.88969343  1
  O  O21  1  0.76919725  0.10269804  0.88690450  1
  O  O22  1  0.48332757  0.82325165  0.34170267  1
  O  O23  1  0.73000111  0.51918456  0.38805975  1
  O  O24  1  0.98299644  0.32570687  0.34347468  1
  O  O25  1  0.93918474  0.69449347  0.08677517  1
  O  O26  1  0.56041531  0.80812946  0.91276619  1
  O  O27  1  0.76744331  0.98196027  0.60956591  1
  F  F28  1  0.10057931  0.02646801  0.73966563  1
  F  F29  1  0.39828424  0.47252326  0.26530010  1
  F  F30  1  0.60171576  0.52747674  0.73469990  1
  F  F31  1  0.89942069  0.97353199  0.26033437  1
