# generated using pymatgen
data_Dy2TiO5
_symmetry_space_group_name_H-M   'P 1'
_cell_length_a   7.25505298
_cell_length_b   7.49984663
_cell_length_c   21.60493053
_cell_angle_alpha   61.03608766
_cell_angle_beta   59.97166122
_cell_angle_gamma   61.14256550
_symmetry_Int_Tables_number   1
_chemical_formula_structural   Dy2TiO5
_chemical_formula_sum   'Dy16 Ti8 O40'
_cell_volume   844.48495763
_cell_formula_units_Z   8
loop_
 _symmetry_equiv_pos_site_id
 _symmetry_equiv_pos_as_xyz
  1  'x, y, z'
loop_
 _atom_site_type_symbol
 _atom_site_label
 _atom_site_symmetry_multiplicity
 _atom_site_fract_x
 _atom_site_fract_y
 _atom_site_fract_z
 _atom_site_occupancy
  Dy  Dy0  1  0.98573801  0.53326595  0.99897082  1
  Dy  Dy1  1  0.99375984  0.96207667  0.34370150  1
  Dy  Dy2  1  0.98105047  0.00867794  0.17265438  1
  Dy  Dy3  1  0.53867274  0.45113113  -0.00000473  1
  Dy  Dy4  1  0.97476126  0.50638664  0.33077363  1
  Dy  Dy5  1  0.45612250  0.55572587  0.15521734  1
  Dy  Dy6  1  0.97971497  0.48616848  0.50513199  1
  Dy  Dy7  1  0.51655497  0.99800205  0.15842297  1
  Dy  Dy8  1  0.96521012  0.98819400  0.52056687  1
  Dy  Dy9  1  0.52262586  0.47707828  0.31793037  1
  Dy  Dy10  1  0.50039619  0.47479663  0.50458883  1
  Dy  Dy11  1  0.98220858  0.55190633  0.82797401  1
  Dy  Dy12  1  0.50507770  0.96708419  0.50162972  1
  Dy  Dy13  1  0.46598286  0.00604727  0.85057817  1
  Dy  Dy14  1  0.47266189  0.52000317  0.67264310  1
  Dy  Dy15  1  0.47916061  0.55117052  0.82538068  1
  O  O16  1  0.33546986  0.35850786  0.12811891  1
  O  O17  1  0.04956509  0.70977351  0.04952758  1
  O  O18  1  0.07801493  0.65540347  0.19633309  1
  O  O19  1  0.66665139  0.07868845  0.02382835  1
  O  O20  1  0.33714042  0.92576294  0.11852419  1
  O  O21  1  0.14125646  0.11567900  0.54969795  1
  O  O22  1  0.39036573  0.31059636  0.28222455  1
  O  O23  1  0.14756354  0.60501669  0.36815032  1
  O  O24  1  0.81577372  0.88632006  0.29755901  1
  O  O25  1  0.61371452  0.65727927  0.03300380  1
  O  O26  1  0.38026974  0.94774462  0.28664426  1
  O  O27  1  0.10701752  0.59187623  0.56537943  1
  O  O28  1  0.93601961  0.35376225  0.12597243  1
  O  O29  1  0.65028203  0.64311948  0.19422248  1
  O  O30  1  0.60268375  0.13189620  0.38116477  1
  O  O31  1  0.33614716  0.90385900  0.43811865  1
  O  O32  1  0.07304698  0.00788924  0.90354809  1
  O  O33  1  0.33808497  0.30162048  0.65802773  1
  O  O34  1  0.07654819  0.64976053  0.69615005  1
  O  O35  1  0.82737183  0.07420163  0.10202272  1
  O  O36  1  0.94354430  0.31453521  0.26631373  1
  O  O37  1  0.57521751  0.11906460  0.54970095  1
  O  O38  1  0.60948525  0.54627650  0.38335684  1
  O  O39  1  0.10202281  0.68035794  0.87110710  1
  O  O40  1  0.36627236  0.36433121  0.79712069  1
  O  O41  1  0.30903022  0.88530657  0.66081194  1
  O  O42  1  0.89261847  0.33676430  0.45731505  1
  O  O43  1  0.77151137  0.00851620  0.64397869  1
  O  O44  1  0.60721754  0.61024753  0.54702102  1
  O  O45  1  0.34871823  0.93550944  0.77596872  1
  O  O46  1  0.35583054  0.33906615  0.96645175  1
  O  O47  1  0.89459042  0.85961083  0.46200960  1
  O  O48  1  0.86905827  0.31105288  0.65277951  1
  O  O49  1  0.69193215  0.01812036  0.90132554  1
  O  O50  1  0.67121065  0.64791335  0.69689068  1
  O  O51  1  0.28558136  0.99633644  0.97419495  1
  O  O52  1  0.91497285  0.30967242  0.78367043  1
  O  O53  1  0.60230570  0.64685007  0.87744879  1
  O  O54  1  0.91111520  0.35021615  0.95574281  1
  O  O55  1  0.87623450  0.93773147  0.77497918  1
  Ti  Ti56  1  0.98557484  0.01422323  1.00262192  1
  Ti  Ti57  1  0.48729227  0.03026558  0.99598966  1
  Ti  Ti58  1  0.00467838  0.49212083  0.16368836  1
  Ti  Ti59  1  0.48930949  0.01102138  0.33736122  1
  Ti  Ti60  1  0.99096363  0.02145879  0.66422127  1
  Ti  Ti61  1  1.00364389  0.00405039  0.83120013  1
  Ti  Ti62  1  0.98753165  0.49579569  0.67442695  1
  Ti  Ti63  1  0.47985018  0.01711208  0.66459150  1
