# generated using pymatgen
data_ReH12N3Cl4O3
_symmetry_space_group_name_H-M   'P 1'
_cell_length_a   9.33158010
_cell_length_b   9.33049617
_cell_length_c   7.88252781
_cell_angle_alpha   90.00000000
_cell_angle_beta   90.00000000
_cell_angle_gamma   120.00090473
_symmetry_Int_Tables_number   1
_chemical_formula_structural   ReH12N3Cl4O3
_chemical_formula_sum   'Re2 H24 N6 Cl8 O6'
_cell_volume   594.36347221
_cell_formula_units_Z   2
loop_
 _symmetry_equiv_pos_site_id
 _symmetry_equiv_pos_as_xyz
  1  'x, y, z'
loop_
 _atom_site_type_symbol
 _atom_site_label
 _atom_site_symmetry_multiplicity
 _atom_site_fract_x
 _atom_site_fract_y
 _atom_site_fract_z
 _atom_site_occupancy
  Re  Re0  1  0.66679174  0.33308350  -0.00005332  1
  Re  Re1  1  0.33320826  0.66691650  0.49994668  1
  H  H2  1  0.21461887  0.10731701  0.52434378  1
  H  H3  1  0.89264150  0.10728130  0.52432877  1
  H  H4  1  0.89273930  0.78539838  0.52436046  1
  H  H5  1  0.78538113  0.89268299  0.02434378  1
  H  H6  1  0.10735850  0.89271870  0.02432877  1
  H  H7  1  0.10726070  0.21460162  0.02436046  1
  H  H8  1  0.41964376  0.20981006  0.56134231  1
  H  H9  1  0.79021170  0.20984150  0.56133006  1
  H  H10  1  0.79015478  0.58035216  0.56135889  1
  H  H11  1  0.58035624  0.79018994  0.06134231  1
  H  H12  1  0.20978830  0.79015850  0.06133006  1
  H  H13  1  0.20984522  0.41964784  0.06135889  1
  H  H14  1  0.34654043  0.26365503  0.39184172  1
  H  H15  1  0.73632000  0.08284225  0.39181965  1
  H  H16  1  0.91713972  0.65348149  0.39184721  1
  H  H17  1  0.73640802  0.65352550  0.39184003  1
  H  H18  1  0.91713854  0.26362214  0.39180879  1
  H  H19  1  0.34646377  0.08284781  0.39181929  1
  H  H20  1  0.65345957  0.73634497  0.89184172  1
  H  H21  1  0.26368000  0.91715775  0.89181965  1
  H  H22  1  0.08286028  0.34651851  0.89184721  1
  H  H23  1  0.26359198  0.34647450  0.89184003  1
  H  H24  1  0.08286146  0.73637786  0.89180879  1
  H  H25  1  0.65353623  0.91715219  0.89181929  1
  N  N26  1  0.33192423  0.16597150  0.46590854  1
  N  N27  1  0.83404397  0.16595419  0.46593784  1
  N  N28  1  0.83403958  0.66808987  0.46593207  1
  N  N29  1  0.66807577  0.83402850  0.96590854  1
  N  N30  1  0.16595603  0.83404581  0.96593784  1
  N  N31  1  0.16596042  0.33191013  0.96593207  1
  Cl  Cl32  1  0.54953148  0.45043497  0.77849711  1
  Cl  Cl33  1  0.54950138  0.09898864  0.77849543  1
  Cl  Cl34  1  0.90094122  0.45042592  0.77848892  1
  Cl  Cl35  1  0.45046852  0.54956503  0.27849711  1
  Cl  Cl36  1  0.45049862  0.90101136  0.27849543  1
  Cl  Cl37  1  0.09905878  0.54957408  0.27848892  1
  Cl  Cl38  1  0.99999134  0.99999555  0.18018482  1
  Cl  Cl39  1  0.00000866  0.00000445  0.68018482  1
  O  O40  1  0.47115764  0.23546533  0.09248498  1
  O  O41  1  0.76430142  0.23553584  0.09242388  1
  O  O42  1  0.76439993  0.52869439  0.09240876  1
  O  O43  1  0.52884236  0.76453467  0.59248498  1
  O  O44  1  0.23569858  0.76446416  0.59242388  1
  O  O45  1  0.23560007  0.47130561  0.59240876  1
