# generated using pymatgen
data_Li8MnFe7(BO3)8
_symmetry_space_group_name_H-M   'P 1'
_cell_length_a   5.21371702
_cell_length_b   9.06145745
_cell_length_c   11.46525370
_cell_angle_alpha   68.14948068
_cell_angle_beta   77.48893990
_cell_angle_gamma   89.87352301
_symmetry_Int_Tables_number   1
_chemical_formula_structural   Li8MnFe7(BO3)8
_chemical_formula_sum   'Li8 Mn1 Fe7 B8 O24'
_cell_volume   488.96921591
_cell_formula_units_Z   1
loop_
 _symmetry_equiv_pos_site_id
 _symmetry_equiv_pos_as_xyz
  1  'x, y, z'
loop_
 _atom_site_type_symbol
 _atom_site_label
 _atom_site_symmetry_multiplicity
 _atom_site_fract_x
 _atom_site_fract_y
 _atom_site_fract_z
 _atom_site_occupancy
  Li  Li0  1  0.96961076  0.96098448  0.41647133  1
  Li  Li1  1  0.70451458  0.71475538  0.91664768  1
  Li  Li2  1  0.51725493  0.49255341  0.66799671  1
  Li  Li3  1  0.72859174  0.75625291  0.16741695  1
  Li  Li4  1  0.47091120  0.45942237  0.41695101  1
  Li  Li5  1  0.20340070  0.21535148  0.91659087  1
  Li  Li6  1  0.01863797  0.99364674  0.66704827  1
  Li  Li7  1  0.23098083  0.25586244  0.16686369  1
  Mn  Mn8  1  0.97826746  0.64473099  0.38348517  1
  Fe  Fe9  1  0.73166814  0.05723048  0.88373411  1
  Fe  Fe10  1  0.53013152  0.84407305  0.63131068  1
  Fe  Fe11  1  0.75076552  0.43594047  0.13185518  1
  Fe  Fe12  1  0.46993643  0.14443616  0.38356156  1
  Fe  Fe13  1  0.23325936  0.55889997  0.88280942  1
  Fe  Fe14  1  0.25047333  0.93626486  0.13195648  1
  Fe  Fe15  1  0.02997252  0.34363236  0.63266532  1
  B  B16  1  0.97571461  0.31309003  0.37651678  1
  B  B17  1  0.73401147  0.39575846  0.87600374  1
  B  B18  1  0.76439405  0.10651495  0.12587250  1
  B  B19  1  0.52793207  0.18429256  0.62644422  1
  B  B20  1  0.47565984  0.81699688  0.37505804  1
  B  B21  1  0.23478180  0.89600544  0.87588039  1
  B  B22  1  0.26475574  0.60629390  0.12534982  1
  B  B23  1  0.02732295  0.68476085  0.62768684  1
  O  O24  1  0.97601539  0.89257870  0.86292865  1
  O  O25  1  0.89775660  0.28690708  0.84517167  1
  O  O26  1  0.82876053  0.50735946  0.91677725  1
  O  O27  1  0.92113533  0.82986259  0.61333513  1
  O  O28  1  0.89686211  0.57235034  0.59906385  1
  O  O29  1  0.76309238  0.15365164  0.66606740  1
  O  O30  1  0.73075474  0.34232487  0.34568061  1
  O  O31  1  0.47470111  0.39241734  0.86340943  1
  O  O32  1  0.39840201  0.78659248  0.84595866  1
  O  O33  1  0.59873911  0.91790326  0.41700486  1
  O  O34  1  0.59313818  0.68485497  0.36198370  1
  O  O35  1  0.32924428  0.00825722  0.91607852  1
  O  O36  1  0.66088007  0.98670221  0.09565579  1
  O  O37  1  0.42093085  0.32925563  0.61312266  1
  O  O38  1  0.39858828  0.07267773  0.59666059  1
  O  O39  1  0.60057653  0.20845817  0.16609491  1
  O  O40  1  0.53565652  0.62522563  0.11234722  1
  O  O41  1  0.26356775  0.65443532  0.66627358  1
  O  O42  1  0.23048865  0.84923208  0.34403054  1
  O  O43  1  0.09808871  0.41418325  0.41824208  1
  O  O44  1  0.09969928  0.18287352  0.36251228  1
  O  O45  1  0.16062346  0.48589793  0.09635340  1
  O  O46  1  0.10052445  0.70919843  0.16449722  1
  O  O47  1  0.03562115  0.12584854  0.11217619  1
