# generated using pymatgen
data_Cs5YO4
_symmetry_space_group_name_H-M   'P 1'
_cell_length_a   11.91726027
_cell_length_b   13.43543567
_cell_length_c   7.57457430
_cell_angle_alpha   90.00000000
_cell_angle_beta   98.40584839
_cell_angle_gamma   90.00000000
_symmetry_Int_Tables_number   1
_chemical_formula_structural   Cs5YO4
_chemical_formula_sum   'Cs20 Y4 O16'
_cell_volume   1199.76371441
_cell_formula_units_Z   4
loop_
 _symmetry_equiv_pos_site_id
 _symmetry_equiv_pos_as_xyz
  1  'x, y, z'
loop_
 _atom_site_type_symbol
 _atom_site_label
 _atom_site_symmetry_multiplicity
 _atom_site_fract_x
 _atom_site_fract_y
 _atom_site_fract_z
 _atom_site_occupancy
  Cs  Cs0  1  0.00872436  0.07556089  0.76254260  1
  Cs  Cs1  1  0.00872436  0.42443911  0.26254260  1
  Cs  Cs2  1  0.14806382  0.81856453  0.83247179  1
  Cs  Cs3  1  0.14806382  0.68143547  0.33247179  1
  Cs  Cs4  1  0.23110891  0.30309947  0.99877705  1
  Cs  Cs5  1  0.23110891  0.19690053  0.49877705  1
  Cs  Cs6  1  0.37121491  0.92760469  0.56148168  1
  Cs  Cs7  1  0.37121491  0.57239531  0.06148168  1
  Cs  Cs8  1  0.50076993  0.14382008  0.92125844  1
  Cs  Cs9  1  0.49923007  0.64382008  0.57874156  1
  Cs  Cs10  1  0.50076993  0.35617992  0.42125844  1
  Cs  Cs11  1  0.49923007  0.85617992  0.07874156  1
  Cs  Cs12  1  0.62878509  0.42760469  0.93851832  1
  Cs  Cs13  1  0.62878509  0.07239531  0.43851832  1
  Cs  Cs14  1  0.76889109  0.80309947  0.50122295  1
  Cs  Cs15  1  0.76889109  0.69690053  0.00122295  1
  Cs  Cs16  1  0.85193618  0.31856453  0.66752821  1
  Cs  Cs17  1  0.85193618  0.18143547  0.16752821  1
  Cs  Cs18  1  0.99127564  0.57556089  0.73745740  1
  Cs  Cs19  1  0.99127564  0.92443911  0.23745740  1
  Y  Y20  1  0.25487446  0.46689160  0.61217455  1
  Y  Y21  1  0.25487446  0.03310840  0.11217455  1
  Y  Y22  1  0.74512554  0.96689160  0.88782545  1
  Y  Y23  1  0.74512554  0.53310840  0.38782545  1
  O  O24  1  0.09951073  0.38857987  0.65007601  1
  O  O25  1  0.09951073  0.11142013  0.15007601  1
  O  O26  1  0.23901078  0.62272398  0.68720428  1
  O  O27  1  0.27378059  0.03887045  0.83265449  1
  O  O28  1  0.23901078  0.87727602  0.18720428  1
  O  O29  1  0.27378059  0.46112955  0.33265449  1
  O  O30  1  0.39892659  0.39352610  0.76513861  1
  O  O31  1  0.39892659  0.10647390  0.26513861  1
  O  O32  1  0.60107341  0.89352610  0.73486139  1
  O  O33  1  0.60107341  0.60647390  0.23486139  1
  O  O34  1  0.72621941  0.53887045  0.66734551  1
  O  O35  1  0.76098922  0.12272398  0.81279572  1
  O  O36  1  0.72621941  0.96112955  0.16734551  1
  O  O37  1  0.76098922  0.37727602  0.31279572  1
  O  O38  1  0.90048927  0.88857987  0.84992399  1
  O  O39  1  0.90048927  0.61142013  0.34992399  1
