# generated using pymatgen
data_BaSnHgS4
_symmetry_space_group_name_H-M   'P 1'
_cell_length_a   11.02901597
_cell_length_b   11.13522044
_cell_length_c   6.73526533
_cell_angle_alpha   90.00000000
_cell_angle_beta   90.00000000
_cell_angle_gamma   90.00000000
_symmetry_Int_Tables_number   1
_chemical_formula_structural   BaSnHgS4
_chemical_formula_sum   'Ba4 Sn4 Hg4 S16'
_cell_volume   827.16146488
_cell_formula_units_Z   4
loop_
 _symmetry_equiv_pos_site_id
 _symmetry_equiv_pos_as_xyz
  1  'x, y, z'
loop_
 _atom_site_type_symbol
 _atom_site_label
 _atom_site_symmetry_multiplicity
 _atom_site_fract_x
 _atom_site_fract_y
 _atom_site_fract_z
 _atom_site_occupancy
  Ba  Ba0  1  0.00000000  0.50000000  0.04809252  1
  Ba  Ba1  1  0.50000000  -0.00000000  0.54809452  1
  Ba  Ba2  1  0.00000000  -0.00000000  0.05504867  1
  Ba  Ba3  1  0.50000000  0.50000000  0.55504867  1
  Sn  Sn4  1  0.28900076  0.24818451  0.03535022  1
  Sn  Sn5  1  0.71099924  0.75181549  0.03535022  1
  Sn  Sn6  1  0.21099824  0.74818351  0.53535122  1
  Sn  Sn7  1  0.78900176  0.25181549  0.53535122  1
  Hg  Hg8  1  0.17510942  0.25605373  0.49995268  1
  Hg  Hg9  1  0.82489058  0.74394627  0.49995268  1
  Hg  Hg10  1  0.32489158  0.75605373  -0.00004932  1
  Hg  Hg11  1  0.67510842  0.24394627  -0.00004932  1
  S  S12  1  0.26583716  0.08184597  0.26674653  1
  S  S13  1  0.73416384  0.91815403  0.26674653  1
  S  S14  1  0.23416484  0.58184597  0.76674553  1
  S  S15  1  0.76583616  0.41815403  0.76674553  1
  S  S16  1  0.26738059  0.41750261  0.26355200  1
  S  S17  1  0.73261841  0.58249739  0.26355200  1
  S  S18  1  0.23261941  0.91750161  0.76355100  1
  S  S19  1  0.76738059  0.08249839  0.76355100  1
  S  S20  1  0.09885545  0.24821516  0.84442502  1
  S  S21  1  0.90114555  0.75178484  0.84442502  1
  S  S22  1  0.40114455  0.74821616  0.34442602  1
  S  S23  1  0.59885545  0.25178484  0.34442602  1
  S  S24  1  0.44812461  0.24834937  0.79800347  1
  S  S25  1  0.55187639  0.75165163  0.79800347  1
  S  S26  1  0.05187539  0.74834837  0.29800347  1
  S  S27  1  0.94812361  0.25165163  0.29800347  1
