# generated using pymatgen
data_FeCl3
_symmetry_space_group_name_H-M   'P 1'
_cell_length_a   6.18182220
_cell_length_b   6.18182291
_cell_length_c   73.85290298
_cell_angle_alpha   90.00000000
_cell_angle_beta   90.00000000
_cell_angle_gamma   120.00000256
_symmetry_Int_Tables_number   1
_chemical_formula_structural   FeCl3
_chemical_formula_sum   'Fe24 Cl72'
_cell_volume   2444.16916476
_cell_formula_units_Z   24
loop_
 _symmetry_equiv_pos_site_id
 _symmetry_equiv_pos_as_xyz
  1  'x, y, z'
loop_
 _atom_site_type_symbol
 _atom_site_label
 _atom_site_symmetry_multiplicity
 _atom_site_fract_x
 _atom_site_fract_y
 _atom_site_fract_z
 _atom_site_occupancy
  Fe  Fe0  1  0.33333300  0.66666700  0.70831304  1
  Fe  Fe1  1  -0.00000000  0.00000000  0.54144191  1
  Fe  Fe2  1  0.66666700  0.33333300  0.54202882  1
  Fe  Fe3  1  0.33333300  0.66666700  0.04181092  1
  Fe  Fe4  1  0.66666700  0.33333300  0.12457436  1
  Fe  Fe5  1  -0.00000000  0.00000000  0.70850173  1
  Fe  Fe6  1  0.33333300  0.66666700  0.87542564  1
  Fe  Fe7  1  0.33333300  0.66666700  0.62490350  1
  Fe  Fe8  1  0.33333300  0.66666700  0.45797118  1
  Fe  Fe9  1  -0.00000000  -0.00000000  0.04151313  1
  Fe  Fe10  1  0.66666700  0.33333300  0.62556990  1
  Fe  Fe11  1  0.66666700  0.33333300  0.79198590  1
  Fe  Fe12  1  0.33333300  0.66666700  0.12400179  1
  Fe  Fe13  1  -0.00000000  -0.00000000  0.20855640  1
  Fe  Fe14  1  -0.00000000  -0.00000000  0.45855809  1
  Fe  Fe15  1  0.33333300  0.66666700  0.20801410  1
  Fe  Fe16  1  -0.00000000  -0.00000000  0.79144360  1
  Fe  Fe17  1  -0.00000000  -0.00000000  0.29149827  1
  Fe  Fe18  1  -0.00000000  0.00000000  0.95848687  1
  Fe  Fe19  1  0.33333300  0.66666700  0.37443010  1
  Fe  Fe20  1  0.66666700  0.33333300  0.87599821  1
  Fe  Fe21  1  0.66666700  0.33333300  0.95818908  1
  Fe  Fe22  1  0.66666700  0.33333300  0.37509650  1
  Fe  Fe23  1  0.66666700  0.33333300  0.29168696  1
  Cl  Cl24  1  0.03252948  0.69845811  0.47689090  1
  Cl  Cl25  1  0.63263388  0.99956723  0.64392460  1
  Cl  Cl26  1  0.30004664  0.33283709  0.06024567  1
  Cl  Cl27  1  0.69952347  0.66601961  0.27281689  1
  Cl  Cl28  1  0.66592864  0.96747052  0.47689090  1
  Cl  Cl29  1  0.30041406  0.96781163  0.43960816  1
  Cl  Cl30  1  0.00057729  0.63369081  0.39344671  1
  Cl  Cl31  1  0.63173697  0.99931309  0.89447226  1
  Cl  Cl32  1  0.69751744  0.66593298  0.77319987  1
  Cl  Cl33  1  0.36736612  0.00043277  0.35607540  1
  Cl  Cl34  1  0.03188434  0.33291724  0.68988682  1
  Cl  Cl35  1  0.00043277  0.63306665  0.64392460  1
  Cl  Cl36  1  0.36826303  0.00068691  0.10552774  1
  Cl  Cl37  1  0.30103289  0.96811566  0.68988682  1
  Cl  Cl38  1  0.36687305  0.36743221  0.14292521  1
  Cl  Cl39  1  0.96747052  0.30154189  0.52310910  1
  Cl  Cl40  1  0.03279045  0.69995336  0.06024567  1
  Cl  Cl41  1  0.03218837  0.33260243  0.43960816  1
  Cl  Cl42  1  0.33406702  0.03158446  0.77319987  1
  Cl  Cl43  1  0.30248256  0.33406702  0.22680013  1
  Cl  Cl44  1  0.03204018  0.33253372  0.18955514  1
  Cl  Cl45  1  0.66739757  0.69958594  0.43960816  1
  Cl  Cl46  1  0.66746628  0.69950646  0.18955514  1
  Cl  Cl47  1  0.66708276  0.69896711  0.68988682  1
  Cl  Cl48  1  0.33260243  0.30041406  0.56039184  1
  Cl  Cl49  1  0.96649615  0.30047653  0.27281689  1
  Cl  Cl50  1  0.69958594  0.03218837  0.56039184  1
  Cl  Cl51  1  0.99942271  0.36630919  0.60655329  1
  Cl  Cl52  1  0.96720955  0.30004664  0.93975433  1
  Cl  Cl53  1  0.66617864  0.69919143  0.02295748  1
  Cl  Cl54  1  0.69950646  0.03204018  0.81044486  1
  Cl  Cl55  1  0.33382136  0.30080857  0.97704252  1
  Cl  Cl56  1  0.03301279  0.33382136  0.02295748  1
  Cl  Cl57  1  0.33398039  0.03350385  0.27281689  1
  Cl  Cl58  1  0.63369081  0.63311353  0.60655329  1
  Cl  Cl59  1  0.96841554  0.30248256  0.77319987  1
  Cl  Cl60  1  0.96781163  0.66739757  0.56039184  1
  Cl  Cl61  1  0.66601961  0.96649615  0.72718311  1
  Cl  Cl62  1  0.00055916  0.63312695  0.14292521  1
  Cl  Cl63  1  0.69896711  0.03188434  0.31011318  1
  Cl  Cl64  1  0.36688647  0.00057729  0.60655329  1
  Cl  Cl65  1  0.69919143  0.03301279  0.97704252  1
  Cl  Cl66  1  0.66593298  0.96841554  0.22680013  1
  Cl  Cl67  1  0.63306665  0.63263388  0.35607540  1
  Cl  Cl68  1  0.30154189  0.33407136  0.47689090  1
  Cl  Cl69  1  0.69995336  0.66716291  0.93975433  1
  Cl  Cl70  1  0.63242388  0.63173697  0.10552774  1
  Cl  Cl71  1  0.36630919  0.36688647  0.39344671  1
  Cl  Cl72  1  0.63312695  0.63256779  0.85707479  1
  Cl  Cl73  1  0.03350385  0.69952347  0.72718311  1
  Cl  Cl74  1  0.33291724  0.30103289  0.31011318  1
  Cl  Cl75  1  0.36757612  0.36826303  0.89447226  1
  Cl  Cl76  1  0.69845811  0.66592864  0.52310910  1
  Cl  Cl77  1  0.99931309  0.36757612  0.10552774  1
  Cl  Cl78  1  0.66716291  0.96720955  0.06024567  1
  Cl  Cl79  1  0.63256779  0.99944084  0.14292521  1
  Cl  Cl80  1  0.63311353  0.99942271  0.39344671  1
  Cl  Cl81  1  0.03158446  0.69751744  0.22680013  1
  Cl  Cl82  1  0.99944084  0.36687305  0.85707479  1
  Cl  Cl83  1  0.33283709  0.03279045  0.93975433  1
  Cl  Cl84  1  0.00068691  0.63242388  0.89447226  1
  Cl  Cl85  1  0.36693335  0.36736612  0.64392460  1
  Cl  Cl86  1  0.96811566  0.66708276  0.31011318  1
  Cl  Cl87  1  0.99956723  0.36693335  0.35607540  1
  Cl  Cl88  1  0.30049354  0.96795982  0.18955514  1
  Cl  Cl89  1  0.30047653  0.33398039  0.72718311  1
  Cl  Cl90  1  0.30080857  0.96698721  0.02295748  1
  Cl  Cl91  1  0.33407136  0.03252948  0.52310910  1
  Cl  Cl92  1  0.96795982  0.66746628  0.81044486  1
  Cl  Cl93  1  0.36743221  0.00055916  0.85707479  1
  Cl  Cl94  1  0.96698721  0.66617864  0.97704252  1
  Cl  Cl95  1  0.33253372  0.30049354  0.81044486  1
