# generated using pymatgen
data_MoP2O7
_symmetry_space_group_name_H-M   'P 1'
_cell_length_a   6.50665283
_cell_length_b   6.48119700
_cell_length_c   7.13733999
_cell_angle_alpha   114.12074663
_cell_angle_beta   92.50289082
_cell_angle_gamma   84.00373438
_symmetry_Int_Tables_number   1
_chemical_formula_structural   MoP2O7
_chemical_formula_sum   'Mo2 P4 O14'
_cell_volume   273.20448602
_cell_formula_units_Z   2
loop_
 _symmetry_equiv_pos_site_id
 _symmetry_equiv_pos_as_xyz
  1  'x, y, z'
loop_
 _atom_site_type_symbol
 _atom_site_label
 _atom_site_symmetry_multiplicity
 _atom_site_fract_x
 _atom_site_fract_y
 _atom_site_fract_z
 _atom_site_occupancy
  O  O0  1  0.61259733  0.40841875  0.21314007  1
  O  O1  1  0.95733047  0.09540367  0.22369188  1
  O  O2  1  0.04266853  0.90459633  0.77630712  1
  O  O3  1  0.09702542  0.43976312  0.19697031  1
  O  O4  1  0.20073565  0.30704391  0.48812240  1
  O  O5  1  0.34834110  0.21362475  0.78062433  1
  O  O6  1  0.33214609  0.06997609  0.12860050  1
  O  O7  1  0.38740267  0.59158125  0.78685893  1
  O  O8  1  0.79926435  0.69295609  0.51187760  1
  O  O9  1  0.58684316  0.23865581  0.52167832  1
  O  O10  1  0.90297458  0.56023688  0.80302969  1
  O  O11  1  0.66785391  0.93002391  0.87139950  1
  O  O12  1  0.65165890  0.78637525  0.21937667  1
  O  O13  1  0.41315684  0.76134419  0.47832268  1
  P  P14  1  0.38730975  0.33853082  0.64598276  1
  P  P15  1  0.61269025  0.66146918  0.35401624  1
  P  P16  1  0.13854389  0.24430387  0.25072361  1
  P  P17  1  0.86145611  0.75569613  0.74927739  1
  Mo  Mo18  1  0.65203371  0.09241820  0.21128161  1
  Mo  Mo19  1  0.34796629  0.90758180  0.78871939  1
