# generated using pymatgen
data_BaEu2Mn2O7
_symmetry_space_group_name_H-M   'P 1'
_cell_length_a   10.49977106
_cell_length_b   10.49977106
_cell_length_c   5.61189690
_cell_angle_alpha   90.00000000
_cell_angle_beta   90.00000000
_cell_angle_gamma   30.99637675
_symmetry_Int_Tables_number   1
_chemical_formula_structural   BaEu2Mn2O7
_chemical_formula_sum   'Ba2 Eu4 Mn4 O14'
_cell_volume   318.61261606
_cell_formula_units_Z   2
loop_
 _symmetry_equiv_pos_site_id
 _symmetry_equiv_pos_as_xyz
  1  'x, y, z'
loop_
 _atom_site_type_symbol
 _atom_site_label
 _atom_site_symmetry_multiplicity
 _atom_site_fract_x
 _atom_site_fract_y
 _atom_site_fract_z
 _atom_site_occupancy
  Ba  Ba0  1  0.25005532  0.74994468  0.25000100  1
  Ba  Ba1  1  0.74994468  0.25005532  0.75000000  1
  Eu  Eu2  1  0.43355478  0.93329686  0.25000100  1
  Eu  Eu3  1  0.56644522  0.06670314  0.75000000  1
  Eu  Eu4  1  0.06670314  0.56644522  0.25000100  1
  Eu  Eu5  1  0.93329686  0.43355478  0.75000000  1
  Mn  Mn6  1  0.64913288  0.14928398  0.25000100  1
  Mn  Mn7  1  0.35086612  0.85071502  0.75000000  1
  Mn  Mn8  1  0.85071502  0.35086612  0.25000100  1
  Mn  Mn9  1  0.14928398  0.64913288  0.75000000  1
  O  O10  1  0.75014260  0.24985740  0.25000100  1
  O  O11  1  0.24985740  0.75014260  0.75000000  1
  O  O12  1  0.95142256  0.45193167  0.25000100  1
  O  O13  1  0.04857944  0.54806733  0.75000000  1
  O  O14  1  0.54806733  0.04857944  0.25000100  1
  O  O15  1  0.45193167  0.95142256  0.75000000  1
  O  O16  1  0.39363123  0.39363123  0.50000000  1
  O  O17  1  0.60636877  0.60636877  -0.00000000  1
  O  O18  1  0.60636877  0.60636877  0.50000000  1
  O  O19  1  0.39363123  0.39363123  -0.00000000  1
  O  O20  1  0.10644014  0.10644014  0.50000000  1
  O  O21  1  0.89355886  0.89355886  -0.00000000  1
  O  O22  1  0.89355886  0.89355886  0.50000000  1
  O  O23  1  0.10644014  0.10644014  -0.00000000  1
