# generated using pymatgen
data_CuReO4
_symmetry_space_group_name_H-M   'P 1'
_cell_length_a   10.54359372
_cell_length_b   10.54359372
_cell_length_c   10.54359372
_cell_angle_alpha   97.92206060
_cell_angle_beta   97.92206060
_cell_angle_gamma   136.41465078
_symmetry_Int_Tables_number   1
_chemical_formula_structural   CuReO4
_chemical_formula_sum   'Cu8 Re8 O32'
_cell_volume   750.33704407
_cell_formula_units_Z   8
loop_
 _symmetry_equiv_pos_site_id
 _symmetry_equiv_pos_as_xyz
  1  'x, y, z'
loop_
 _atom_site_type_symbol
 _atom_site_label
 _atom_site_symmetry_multiplicity
 _atom_site_fract_x
 _atom_site_fract_y
 _atom_site_fract_z
 _atom_site_occupancy
  Cu  Cu0  1  0.40334090  0.68173996  0.95261021  1
  Cu  Cu1  1  0.22912975  0.18173996  0.27839907  1
  Cu  Cu2  1  0.43173996  0.97912975  0.77839907  1
  Cu  Cu3  1  0.93173996  0.15334090  0.45261021  1
  Cu  Cu4  1  0.72912975  0.45073069  0.04738979  1
  Cu  Cu5  1  0.90334090  0.95073069  0.72160093  1
  Cu  Cu6  1  0.20073069  0.65334090  0.22160093  1
  Cu  Cu7  1  0.70073069  0.47912975  0.54738979  1
  Re  Re8  1  0.59946985  0.64538626  0.24159406  1
  Re  Re9  1  0.90379220  0.14538626  0.04591641  1
  Re  Re10  1  0.39538626  0.65379220  0.54591641  1
  Re  Re11  1  0.89538626  0.34946985  0.74159406  1
  Re  Re12  1  0.40379220  0.35787579  0.75840594  1
  Re  Re13  1  0.09946985  0.85787579  0.95408359  1
  Re  Re14  1  0.10787579  0.84946985  0.45408359  1
  Re  Re15  1  0.60787579  0.15379220  0.25840594  1
  O  O16  1  0.76563164  0.88143917  0.36443254  1
  O  O17  1  0.01700663  0.38143917  0.11580754  1
  O  O18  1  0.63143917  0.76700663  0.61580754  1
  O  O19  1  0.13143917  0.51563164  0.86443254  1
  O  O20  1  0.51700663  0.40119909  0.63556746  1
  O  O21  1  0.26563164  0.90119909  0.88419246  1
  O  O22  1  0.15119909  0.01563164  0.38419246  1
  O  O23  1  0.65119909  0.26700663  0.13556746  1
  O  O24  1  0.44142665  0.60681381  0.10873177  1
  O  O25  1  0.99808204  0.10681381  0.16538716  1
  O  O26  1  0.35681381  0.74808204  0.66538716  1
  O  O27  1  0.85681381  0.19142665  0.60873177  1
  O  O28  1  0.49808204  0.33269488  0.89126823  1
  O  O29  1  0.94142665  0.83269488  0.83461284  1
  O  O30  1  0.08269488  0.69142665  0.33461284  1
  O  O31  1  0.58269488  0.24808204  0.39126823  1
  O  O32  1  0.45690751  0.46297450  0.31706320  1
  O  O33  1  0.64591130  0.96297450  0.00606699  1
  O  O34  1  0.21297450  0.39591130  0.50606699  1
  O  O35  1  0.71297450  0.20690751  0.81706320  1
  O  O36  1  0.14591130  0.13984431  0.68293680  1
  O  O37  1  0.95690751  0.63984431  0.99393301  1
  O  O38  1  0.88984431  0.70690751  0.49393301  1
  O  O39  1  0.38984431  0.89591130  0.18293680  1
  O  O40  1  0.73044386  0.62602178  0.17314409  1
  O  O41  1  0.95287769  0.12602178  0.89557793  1
  O  O42  1  0.37602178  0.70287769  0.39557793  1
  O  O43  1  0.87602178  0.48044386  0.67314409  1
  O  O44  1  0.45287769  0.55729976  0.82685591  1
  O  O45  1  0.23044386  0.05729976  0.10442207  1
  O  O46  1  0.30729976  0.98044386  0.60442207  1
  O  O47  1  0.80729976  0.20287769  0.32685591  1
