# generated using pymatgen
data_Mg7Si2(H3O7)2
_symmetry_space_group_name_H-M   'P 1'
_cell_length_a   7.96817370
_cell_length_b   7.96811631
_cell_length_c   9.66595929
_cell_angle_alpha   90.00000000
_cell_angle_beta   90.00000000
_cell_angle_gamma   120.00044866
_symmetry_Int_Tables_number   1
_chemical_formula_structural   Mg7Si2(H3O7)2
_chemical_formula_sum   'Mg14 Si4 H12 O28'
_cell_volume   531.48142092
_cell_formula_units_Z   2
loop_
 _symmetry_equiv_pos_site_id
 _symmetry_equiv_pos_as_xyz
  1  'x, y, z'
loop_
 _atom_site_type_symbol
 _atom_site_label
 _atom_site_symmetry_multiplicity
 _atom_site_fract_x
 _atom_site_fract_y
 _atom_site_fract_z
 _atom_site_occupancy
  Mg  Mg0  1  0.91655417  0.36934851  0.88764154  1
  Mg  Mg1  1  0.45278683  0.08343633  0.88764129  1
  Mg  Mg2  1  0.63064879  0.54721081  0.88764233  1
  Mg  Mg3  1  0.08344583  0.63065149  0.38764154  1
  Mg  Mg4  1  0.54721317  0.91656367  0.38764129  1
  Mg  Mg5  1  0.36935121  0.45278919  0.38764233  1
  Mg  Mg6  1  0.98164685  0.22566179  0.61292595  1
  Mg  Mg7  1  0.24401081  0.01835259  0.61292885  1
  Mg  Mg8  1  0.77434470  0.75598857  0.61292737  1
  Mg  Mg9  1  0.01835315  0.77433821  0.11292595  1
  Mg  Mg10  1  0.75598919  0.98164741  0.11292885  1
  Mg  Mg11  1  0.22565530  0.24401143  0.11292737  1
  Mg  Mg12  1  0.66666458  0.33333246  0.60202119  1
  Mg  Mg13  1  0.33333542  0.66666754  0.10202119  1
  Si  Si14  1  0.33334535  0.66667233  0.67394405  1
  Si  Si15  1  0.66665465  0.33332767  0.17394405  1
  Si  Si16  1  0.99999868  -0.00000041  0.90160695  1
  Si  Si17  1  0.00000132  0.00000041  0.40160695  1
  H  H18  1  0.29269071  0.45671539  0.90487122  1
  H  H19  1  0.16402282  0.70730719  0.90487113  1
  H  H20  1  0.54329063  0.83597805  0.90486946  1
  H  H21  1  0.70730929  0.54328461  0.40487122  1
  H  H22  1  0.83597718  0.29269281  0.40487113  1
  H  H23  1  0.45670937  0.16402195  0.40486946  1
  H  H24  1  0.67796730  0.03423601  0.73891408  1
  H  H25  1  0.35626326  0.32203507  0.73891189  1
  H  H26  1  0.96576726  0.64373029  0.73891125  1
  H  H27  1  0.32203270  0.96576399  0.23891408  1
  H  H28  1  0.64373674  0.67796493  0.23891189  1
  H  H29  1  0.03423274  0.35626971  0.23891125  1
  O  O30  1  0.17237446  0.19999669  0.47685010  1
  O  O31  1  0.02762036  0.82762508  0.47684822  1
  O  O32  1  0.80000780  0.97238224  0.47684992  1
  O  O33  1  0.82762554  0.80000331  0.97685010  1
  O  O34  1  0.97237964  0.17237492  0.97684822  1
  O  O35  1  0.19999220  0.02761776  0.97684992  1
  O  O36  1  0.37890233  0.47585614  0.98368848  1
  O  O37  1  0.09695134  0.62109156  0.98368625  1
  O  O38  1  0.52414693  0.90305000  0.98368719  1
  O  O39  1  0.62109767  0.52414386  0.48368848  1
  O  O40  1  0.90304866  0.37890844  0.48368625  1
  O  O41  1  0.47585307  0.09695000  0.48368719  1
  O  O42  1  0.15963270  0.45404912  0.73245654  1
  O  O43  1  0.29443195  0.84038148  0.73246128  1
  O  O44  1  0.54596433  0.70558390  0.73246727  1
  O  O45  1  0.84036730  0.54595088  0.23245654  1
  O  O46  1  0.70556805  0.15961852  0.23246128  1
  O  O47  1  0.45403567  0.29441610  0.23246727  1
  O  O48  1  0.73800533  0.17511125  0.73865226  1
  O  O49  1  0.43710256  0.26199188  0.73865243  1
  O  O50  1  0.82488712  0.56288841  0.73865462  1
  O  O51  1  0.26199467  0.82488875  0.23865226  1
  O  O52  1  0.56289744  0.73800812  0.23865243  1
  O  O53  1  0.17511288  0.43711159  0.23865462  1
  O  O54  1  0.33335030  0.66667544  0.49984830  1
  O  O55  1  0.66664970  0.33332456  -0.00015170  1
  O  O56  1  0.99999963  0.99999881  0.73246857  1
  O  O57  1  0.00000037  0.00000119  0.23246857  1
