# generated using pymatgen
data_LaB4ClO8
_symmetry_space_group_name_H-M   'P 1'
_cell_length_a   6.58644168
_cell_length_b   6.58644168
_cell_length_c   9.87817148
_cell_angle_alpha   97.94163587
_cell_angle_beta   97.94163587
_cell_angle_gamma   119.71470905
_symmetry_Int_Tables_number   1
_chemical_formula_structural   LaB4ClO8
_chemical_formula_sum   'La2 B8 Cl2 O16'
_cell_volume   357.81277875
_cell_formula_units_Z   2
loop_
 _symmetry_equiv_pos_site_id
 _symmetry_equiv_pos_as_xyz
  1  'x, y, z'
loop_
 _atom_site_type_symbol
 _atom_site_label
 _atom_site_symmetry_multiplicity
 _atom_site_fract_x
 _atom_site_fract_y
 _atom_site_fract_z
 _atom_site_occupancy
  La  La0  1  0.84306623  0.43151484  0.90750347  1
  La  La1  1  0.43151484  0.84306623  0.40750347  1
  B  B2  1  0.68752808  0.87063478  0.77910037  1
  B  B3  1  0.87063478  0.68752808  0.27910037  1
  B  B4  1  0.38841941  0.49598336  0.82865042  1
  B  B5  1  0.49598336  0.38841941  0.32865042  1
  B  B6  1  0.26745967  0.77692290  0.75557691  1
  B  B7  1  0.77692290  0.26745967  0.25557691  1
  B  B8  1  0.13407407  0.06441883  0.84234689  1
  B  B9  1  0.06441883  0.13407407  0.34234689  1
  Cl  Cl10  1  0.67514122  0.32053384  0.60211176  1
  Cl  Cl11  1  0.32053384  0.67514122  0.10211176  1
  O  O12  1  0.35024581  0.27837903  0.85640690  1
  O  O13  1  0.27837903  0.35024581  0.35640690  1
  O  O14  1  0.81597360  0.63411671  0.12639281  1
  O  O15  1  0.63411671  0.81597360  0.62639281  1
  O  O16  1  0.62775906  0.65815525  0.83724531  1
  O  O17  1  0.65815525  0.62775906  0.33724531  1
  O  O18  1  0.52810298  0.96086645  0.80799484  1
  O  O19  1  0.96086645  0.52810298  0.30799484  1
  O  O20  1  0.93192597  0.07409833  0.84766719  1
  O  O21  1  0.07409833  0.93192597  0.34766719  1
  O  O22  1  0.12028634  0.84712220  0.82459478  1
  O  O23  1  0.84712220  0.12028634  0.32459478  1
  O  O24  1  0.76670709  0.23286470  0.10641280  1
  O  O25  1  0.23286470  0.76670709  0.60641280  1
  O  O26  1  0.21034663  0.54081263  0.78825554  1
  O  O27  1  0.54081263  0.21034663  0.28825554  1
