# generated using pymatgen
data_Ni(PO3)4
_symmetry_space_group_name_H-M   'P 1'
_cell_length_a   9.52138283
_cell_length_b   10.71790322
_cell_length_c   9.18334061
_cell_angle_alpha   90.00000000
_cell_angle_beta   90.00000000
_cell_angle_gamma   90.00000000
_symmetry_Int_Tables_number   1
_chemical_formula_structural   Ni(PO3)4
_chemical_formula_sum   'Ni4 P16 O48'
_cell_volume   937.15311075
_cell_formula_units_Z   4
loop_
 _symmetry_equiv_pos_site_id
 _symmetry_equiv_pos_as_xyz
  1  'x, y, z'
loop_
 _atom_site_type_symbol
 _atom_site_label
 _atom_site_symmetry_multiplicity
 _atom_site_fract_x
 _atom_site_fract_y
 _atom_site_fract_z
 _atom_site_occupancy
  Ni  Ni0  1  0.01080562  0.21600075  0.25000000  1
  Ni  Ni1  1  0.48919438  0.71600075  0.75000000  1
  Ni  Ni2  1  0.51080562  0.28399925  0.25000000  1
  Ni  Ni3  1  0.98919438  0.78399925  0.75000000  1
  O  O4  1  0.10804065  0.70871080  0.58334912  1
  O  O5  1  0.10804065  0.70871080  0.91665088  1
  O  O6  1  0.11767636  0.27672167  0.75000000  1
  O  O7  1  0.11616478  0.94135253  0.75000000  1
  O  O8  1  0.12318998  0.38384129  0.25000000  1
  O  O9  1  0.13739525  0.13757948  0.09231236  1
  O  O10  1  0.13739525  0.13757948  0.40768764  1
  O  O11  1  0.16234160  0.47739915  0.61257029  1
  O  O12  1  0.16234160  0.47739915  0.88742971  1
  O  O13  1  0.14327985  0.85512977  0.25000000  1
  O  O14  1  0.20327633  0.58106380  0.12123022  1
  O  O15  1  0.20327633  0.58106380  0.37876978  1
  O  O16  1  0.29672367  0.08106380  0.62123022  1
  O  O17  1  0.29672367  0.08106380  0.87876978  1
  O  O18  1  0.35672015  0.35512977  0.75000000  1
  O  O19  1  0.33765840  0.97739915  0.11257029  1
  O  O20  1  0.33765840  0.97739915  0.38742971  1
  O  O21  1  0.36260475  0.63757948  0.59231236  1
  O  O22  1  0.36260475  0.63757948  0.90768764  1
  O  O23  1  0.37681002  0.88384129  0.75000000  1
  O  O24  1  0.38383522  0.44135253  0.25000000  1
  O  O25  1  0.38232364  0.77672167  0.25000000  1
  O  O26  1  0.39195935  0.20871080  0.08334912  1
  O  O27  1  0.39195935  0.20871080  0.41665088  1
  O  O28  1  0.60804065  0.79128920  0.58334912  1
  O  O29  1  0.60804065  0.79128920  0.91665088  1
  O  O30  1  0.61767636  0.22327833  0.75000000  1
  O  O31  1  0.61616478  0.55864747  0.75000000  1
  O  O32  1  0.62318998  0.11615871  0.25000000  1
  O  O33  1  0.63739525  0.36242052  0.09231236  1
  O  O34  1  0.63739525  0.36242052  0.40768764  1
  O  O35  1  0.66234160  0.02260085  0.61257029  1
  O  O36  1  0.66234160  0.02260085  0.88742971  1
  O  O37  1  0.64327985  0.64487023  0.25000000  1
  O  O38  1  0.70327633  0.91893620  0.12123022  1
  O  O39  1  0.70327633  0.91893620  0.37876978  1
  O  O40  1  0.79672367  0.41893620  0.62123022  1
  O  O41  1  0.79672367  0.41893620  0.87876978  1
  O  O42  1  0.85672015  0.14487023  0.75000000  1
  O  O43  1  0.83765840  0.52260085  0.11257029  1
  O  O44  1  0.83765840  0.52260085  0.38742971  1
  O  O45  1  0.86260475  0.86242052  0.59231236  1
  O  O46  1  0.86260475  0.86242052  0.90768764  1
  O  O47  1  0.87681002  0.61615871  0.75000000  1
  O  O48  1  0.88383522  0.05864747  0.25000000  1
  O  O49  1  0.88232364  0.72327833  0.25000000  1
  O  O50  1  0.89195935  0.29128920  0.08334912  1
  O  O51  1  0.89195935  0.29128920  0.41665088  1
  P  P52  1  0.20429808  0.39443345  0.75000000  1
  P  P53  1  0.21474808  0.61027147  0.54713976  1
  P  P54  1  0.21474808  0.61027147  0.95286024  1
  P  P55  1  0.23381173  0.48283383  0.25000000  1
  P  P56  1  0.26618827  0.98283383  0.75000000  1
  P  P57  1  0.28525192  0.11027147  0.04713976  1
  P  P58  1  0.28525192  0.11027147  0.45286024  1
  P  P59  1  0.29570192  0.89443345  0.25000000  1
  P  P60  1  0.70429808  0.10556655  0.75000000  1
  P  P61  1  0.71474808  0.88972853  0.54713976  1
  P  P62  1  0.71474808  0.88972853  0.95286024  1
  P  P63  1  0.73381173  0.01716617  0.25000000  1
  P  P64  1  0.76618827  0.51716617  0.75000000  1
  P  P65  1  0.78525192  0.38972853  0.04713976  1
  P  P66  1  0.78525192  0.38972853  0.45286024  1
  P  P67  1  0.79570192  0.60556655  0.25000000  1
