# generated using pymatgen
data_CuCl
_symmetry_space_group_name_H-M   'P 1'
_cell_length_a   3.82796505
_cell_length_b   3.82796505
_cell_length_c   6.28564249
_cell_angle_alpha   90.00000000
_cell_angle_beta   90.00000000
_cell_angle_gamma   119.99995965
_symmetry_Int_Tables_number   1
_chemical_formula_structural   CuCl
_chemical_formula_sum   'Cu2 Cl2'
_cell_volume   79.76574228
_cell_formula_units_Z   2
loop_
 _symmetry_equiv_pos_site_id
 _symmetry_equiv_pos_as_xyz
  1  'x, y, z'
loop_
 _atom_site_type_symbol
 _atom_site_label
 _atom_site_symmetry_multiplicity
 _atom_site_fract_x
 _atom_site_fract_y
 _atom_site_fract_z
 _atom_site_occupancy
  Cu  Cu0  1  0.00000000  -0.00000000  0.37416341  1
  Cu  Cu1  1  0.33333400  0.66666500  0.87416341  1
  Cl  Cl2  1  0.00000000  0.00000000  0.00083659  1
  Cl  Cl3  1  0.33333400  0.66666500  0.50083559  1
