# generated using pymatgen
data_Tb5Ir3
_symmetry_space_group_name_H-M   'P 1'
_cell_length_a   6.28125036
_cell_length_b   8.34949792
_cell_length_c   8.34690001
_cell_angle_alpha   120.01029874
_cell_angle_beta   90.00000000
_cell_angle_gamma   90.00000000
_symmetry_Int_Tables_number   1
_chemical_formula_structural   Tb5Ir3
_chemical_formula_sum   'Tb10 Ir6'
_cell_volume   379.06809088
_cell_formula_units_Z   2
loop_
 _symmetry_equiv_pos_site_id
 _symmetry_equiv_pos_as_xyz
  1  'x, y, z'
loop_
 _atom_site_type_symbol
 _atom_site_label
 _atom_site_symmetry_multiplicity
 _atom_site_fract_x
 _atom_site_fract_y
 _atom_site_fract_z
 _atom_site_occupancy
  Tb  Tb0  1  0.50000024  0.33335048  0.66672210  1
  Tb  Tb1  1  0.50000024  0.66662838  0.33327790  1
  Tb  Tb2  1  0.00000024  0.66664952  0.33327790  1
  Tb  Tb3  1  0.00000024  0.33337162  0.66672210  1
  Tb  Tb4  1  0.75001382  0.26066227  0.00000000  1
  Tb  Tb5  1  0.74999284  0.73931134  0.73930581  1
  Tb  Tb6  1  0.74999284  0.00000553  0.26069419  1
  Tb  Tb7  1  0.25001382  0.73933773  1.00000000  1
  Tb  Tb8  1  0.24999284  0.26068866  0.26069419  1
  Tb  Tb9  1  0.24999284  0.99999447  0.73930581  1
  Ir  Ir10  1  0.74999514  0.61061518  1.00000000  1
  Ir  Ir11  1  0.75000244  0.38939457  0.38939289  1
  Ir  Ir12  1  0.75000244  0.00000167  0.61060711  1
  Ir  Ir13  1  0.24999514  0.38938482  0.00000000  1
  Ir  Ir14  1  0.25000244  0.61060543  0.61060711  1
  Ir  Ir15  1  0.25000244  0.99999833  0.38939289  1
