# generated using pymatgen
data_Tl5Te2Br
_symmetry_space_group_name_H-M   'P 1'
_cell_length_a   9.20843801
_cell_length_b   9.20843801
_cell_length_c   9.31332937
_cell_angle_alpha   119.62813368
_cell_angle_beta   119.62813368
_cell_angle_gamma   90.00000000
_symmetry_Int_Tables_number   1
_chemical_formula_structural   Tl5Te2Br
_chemical_formula_sum   'Tl10 Te4 Br2'
_cell_volume   564.64037577
_cell_formula_units_Z   2
loop_
 _symmetry_equiv_pos_site_id
 _symmetry_equiv_pos_as_xyz
  1  'x, y, z'
loop_
 _atom_site_type_symbol
 _atom_site_label
 _atom_site_symmetry_multiplicity
 _atom_site_fract_x
 _atom_site_fract_y
 _atom_site_fract_z
 _atom_site_occupancy
  Tl  Tl0  1  0.50000000  0.50000000  0.00000000  1
  Tl  Tl1  1  0.00000000  0.00000000  -0.00000000  1
  Tl  Tl2  1  0.00364144  0.79776020  0.30140164  1
  Tl  Tl3  1  0.29776020  0.50364144  0.30140164  1
  Tl  Tl4  1  0.79776020  0.29776020  0.30140164  1
  Tl  Tl5  1  0.50364144  0.00364144  0.30140164  1
  Tl  Tl6  1  0.99635856  0.20223980  0.69859836  1
  Tl  Tl7  1  0.70223980  0.49635856  0.69859836  1
  Tl  Tl8  1  0.20223980  0.70223980  0.69859836  1
  Tl  Tl9  1  0.49635856  0.99635856  0.69859836  1
  Te  Te10  1  0.65609248  0.84390752  0.00000000  1
  Te  Te11  1  0.34390752  0.15609248  -0.00000000  1
  Te  Te12  1  0.84390752  0.34390752  -0.00000000  1
  Te  Te13  1  0.15609248  0.65609248  0.00000000  1
  Br  Br14  1  0.75000000  0.75000000  0.50000000  1
  Br  Br15  1  0.25000000  0.25000000  0.50000000  1
