# generated using pymatgen
data_CeZn3
_symmetry_space_group_name_H-M   'P 1'
_cell_length_a   4.53656940
_cell_length_b   6.72615981
_cell_length_c   10.12228723
_cell_angle_alpha   90.00000000
_cell_angle_beta   90.00000000
_cell_angle_gamma   90.00000000
_symmetry_Int_Tables_number   1
_chemical_formula_structural   CeZn3
_chemical_formula_sum   'Ce4 Zn12'
_cell_volume   308.86834246
_cell_formula_units_Z   4
loop_
 _symmetry_equiv_pos_site_id
 _symmetry_equiv_pos_as_xyz
  1  'x, y, z'
loop_
 _atom_site_type_symbol
 _atom_site_label
 _atom_site_symmetry_multiplicity
 _atom_site_fract_x
 _atom_site_fract_y
 _atom_site_fract_z
 _atom_site_occupancy
  Ce  Ce0  1  0.75000000  0.22031382  0.84455290  1
  Ce  Ce1  1  0.75000000  0.72031382  0.65544710  1
  Ce  Ce2  1  0.25000000  0.77968618  0.15544710  1
  Ce  Ce3  1  0.25000000  0.27968618  0.34455290  1
  Zn  Zn4  1  0.75000000  0.96274186  0.38954320  1
  Zn  Zn5  1  0.75000000  0.46274186  0.11045680  1
  Zn  Zn6  1  0.25000000  0.03725814  0.61045680  1
  Zn  Zn7  1  0.25000000  0.53725814  0.88954320  1
  Zn  Zn8  1  0.75000000  0.58151667  0.35442086  1
  Zn  Zn9  1  0.75000000  0.08151667  0.14557914  1
  Zn  Zn10  1  0.25000000  0.41848333  0.64557914  1
  Zn  Zn11  1  0.25000000  0.91848333  0.85442086  1
  Zn  Zn12  1  0.75000000  0.28029569  0.54411480  1
  Zn  Zn13  1  0.75000000  0.78029569  0.95588520  1
  Zn  Zn14  1  0.25000000  0.71970431  0.45588520  1
  Zn  Zn15  1  0.25000000  0.21970431  0.04411480  1
