# generated using pymatgen
data_BH6N
_symmetry_space_group_name_H-M   'P 1'
_cell_length_a   4.76156951
_cell_length_b   4.76156951
_cell_length_c   6.37013752
_cell_angle_alpha   90.00000000
_cell_angle_beta   90.00000000
_cell_angle_gamma   100.88859528
_symmetry_Int_Tables_number   1
_chemical_formula_structural   BH6N
_chemical_formula_sum   'B2 H12 N2'
_cell_volume   141.82700454
_cell_formula_units_Z   2
loop_
 _symmetry_equiv_pos_site_id
 _symmetry_equiv_pos_as_xyz
  1  'x, y, z'
loop_
 _atom_site_type_symbol
 _atom_site_label
 _atom_site_symmetry_multiplicity
 _atom_site_fract_x
 _atom_site_fract_y
 _atom_site_fract_z
 _atom_site_occupancy
  B  B0  1  0.16664489  0.83335511  0.80865319  1
  B  B1  1  0.83335511  0.16664489  0.30865319  1
  H  H2  1  0.17130824  0.55503920  0.53070678  1
  H  H3  1  0.44496080  0.82869176  0.53070678  1
  H  H4  1  0.82869176  0.44496080  0.03070678  1
  H  H5  1  0.55503920  0.17130824  0.03070678  1
  H  H6  1  0.12214300  0.87785700  0.46971840  1
  H  H7  1  0.87785700  0.12214300  0.96971840  1
  H  H8  1  0.29901196  0.70098804  0.92422192  1
  H  H9  1  0.70098804  0.29901196  0.42422192  1
  H  H10  1  0.90763717  0.76237169  0.83487690  1
  H  H11  1  0.23762831  0.09236283  0.83487690  1
  H  H12  1  0.09236283  0.23762831  0.33487690  1
  H  H13  1  0.76237169  0.90763717  0.33487690  1
  N  N14  1  0.23266104  0.76733896  0.57023915  1
  N  N15  1  0.76733896  0.23266104  0.07023915  1
