# generated using pymatgen
data_Mg2Ni
_symmetry_space_group_name_H-M   'P 1'
_cell_length_a   5.13349761
_cell_length_b   6.22194813
_cell_length_c   5.13404681
_cell_angle_alpha   127.30959688
_cell_angle_beta   62.06285466
_cell_angle_gamma   127.31346334
_symmetry_Int_Tables_number   1
_chemical_formula_structural   Mg2Ni
_chemical_formula_sum   'Mg4 Ni2'
_cell_volume   102.40017932
_cell_formula_units_Z   2
loop_
 _symmetry_equiv_pos_site_id
 _symmetry_equiv_pos_as_xyz
  1  'x, y, z'
loop_
 _atom_site_type_symbol
 _atom_site_label
 _atom_site_symmetry_multiplicity
 _atom_site_fract_x
 _atom_site_fract_y
 _atom_site_fract_z
 _atom_site_occupancy
  Mg  Mg0  1  0.90572511  0.08107152  0.07219925  1
  Mg  Mg1  1  0.26095450  0.08555258  0.42777606  1
  Mg  Mg2  1  0.40613201  0.73034373  0.57255230  1
  Mg  Mg3  1  0.76053340  0.43633652  0.92740943  1
  Ni  Ni4  1  0.33264359  0.58343178  0.00070607  1
  Ni  Ni5  1  0.83400939  0.58326387  0.49935390  1
