# generated using pymatgen
data_K3ReC4(N2O)2
_symmetry_space_group_name_H-M   'P 1'
_cell_length_a   6.47069773
_cell_length_b   7.03899958
_cell_length_c   7.57400352
_cell_angle_alpha   106.80702350
_cell_angle_beta   110.86498270
_cell_angle_gamma   105.24529978
_symmetry_Int_Tables_number   1
_chemical_formula_structural   K3ReC4(N2O)2
_chemical_formula_sum   'K3 Re1 C4 N4 O2'
_cell_volume   281.57936831
_cell_formula_units_Z   1
loop_
 _symmetry_equiv_pos_site_id
 _symmetry_equiv_pos_as_xyz
  1  'x, y, z'
loop_
 _atom_site_type_symbol
 _atom_site_label
 _atom_site_symmetry_multiplicity
 _atom_site_fract_x
 _atom_site_fract_y
 _atom_site_fract_z
 _atom_site_occupancy
  Re  Re0  1  0.00000000  0.00000000  0.00000000  1
  K  K1  1  0.00000000  0.50000000  0.50000000  1
  K  K2  1  0.45794879  0.16529296  0.80033216  1
  K  K3  1  0.54205121  0.83470704  0.19966784  1
  O  O4  1  0.15628538  0.86381373  0.89045109  1
  O  O5  1  0.84371462  0.13618627  0.10954891  1
  C  C6  1  0.67608138  0.70966887  0.83158357  1
  C  C7  1  0.32391862  0.29033113  0.16841643  1
  C  C8  1  0.10070700  0.90172096  0.24692352  1
  C  C9  1  0.89929300  0.09827904  0.75307648  1
  N  N10  1  0.49350856  0.55508846  0.75423256  1
  N  N11  1  0.50649144  0.44491154  0.24576744  1
  N  N12  1  0.15439767  0.84300980  0.38072181  1
  N  N13  1  0.84560233  0.15699020  0.61927819  1
