# generated using pymatgen
data_Nd2Co3Ge5
_symmetry_space_group_name_H-M   'P 1'
_cell_length_a   8.21454452
_cell_length_b   8.21477578
_cell_length_c   5.85010499
_cell_angle_alpha   69.86022396
_cell_angle_beta   110.14289035
_cell_angle_gamma   86.92195326
_symmetry_Int_Tables_number   1
_chemical_formula_structural   Nd2Co3Ge5
_chemical_formula_sum   'Nd4 Co6 Ge10'
_cell_volume   341.25188672
_cell_formula_units_Z   2
loop_
 _symmetry_equiv_pos_site_id
 _symmetry_equiv_pos_as_xyz
  1  'x, y, z'
loop_
 _atom_site_type_symbol
 _atom_site_label
 _atom_site_symmetry_multiplicity
 _atom_site_fract_x
 _atom_site_fract_y
 _atom_site_fract_z
 _atom_site_occupancy
  Nd  Nd0  1  0.40230675  0.87086781  0.26593904  1
  Nd  Nd1  1  0.87083357  0.40235241  0.23400779  1
  Nd  Nd2  1  0.59764477  0.12919231  0.73409288  1
  Nd  Nd3  1  0.12922813  0.59759777  0.76596509  1
  Co  Co4  1  0.46318915  0.26005352  0.11623096  1
  Co  Co5  1  0.00346244  0.00345782  0.24998664  1
  Co  Co6  1  0.99656655  0.99657043  0.75001360  1
  Co  Co7  1  0.26005665  0.46318946  0.38379356  1
  Co  Co8  1  0.53684302  0.73990052  0.88359088  1
  Co  Co9  1  0.73989309  0.53684307  0.61637922  1
  Ge  Ge10  1  0.23055035  0.23055891  0.75002406  1
  Ge  Ge11  1  0.76941639  0.76940749  0.24997500  1
  Ge  Ge12  1  0.77901678  0.77901233  0.75002953  1
  Ge  Ge13  1  0.22099047  0.22099225  0.24997003  1
  Ge  Ge14  1  0.93127384  0.25841813  0.83294328  1
  Ge  Ge15  1  0.50612656  0.50612042  0.24996361  1
  Ge  Ge16  1  0.49384928  0.49385193  0.75003701  1
  Ge  Ge17  1  0.74156867  0.06873542  0.33284156  1
  Ge  Ge18  1  0.06873327  0.74160155  0.16714805  1
  Ge  Ge19  1  0.25845129  0.93127246  0.66706720  1
