# generated using pymatgen
data_As2Se3(NF6)2
_symmetry_space_group_name_H-M   'P 1'
_cell_length_a   7.90493202
_cell_length_b   7.90493150
_cell_length_c   11.18002983
_cell_angle_alpha   88.86405486
_cell_angle_beta   88.86405495
_cell_angle_gamma   68.17115810
_symmetry_Int_Tables_number   1
_chemical_formula_structural   As2Se3(NF6)2
_chemical_formula_sum   'As4 Se6 N4 F24'
_cell_volume   648.33957245
_cell_formula_units_Z   2
loop_
 _symmetry_equiv_pos_site_id
 _symmetry_equiv_pos_as_xyz
  1  'x, y, z'
loop_
 _atom_site_type_symbol
 _atom_site_label
 _atom_site_symmetry_multiplicity
 _atom_site_fract_x
 _atom_site_fract_y
 _atom_site_fract_z
 _atom_site_occupancy
  Se  Se0  1  0.05783356  0.52067416  0.64335097  1
  Se  Se1  1  0.47932584  0.94216644  0.35664903  1
  Se  Se2  1  0.05125700  0.52105398  0.85843733  1
  Se  Se3  1  0.47894602  0.94874300  0.14156267  1
  Se  Se4  1  0.42752872  0.29274243  0.75335156  1
  Se  Se5  1  0.70725757  0.57247128  0.24664844  1
  N  N6  1  0.27612407  0.38018496  0.87549047  1
  N  N7  1  0.61981504  0.72387593  0.12450953  1
  N  N8  1  0.28371956  0.38036370  0.62913666  1
  N  N9  1  0.61963630  0.71628044  0.37086334  1
  As  As10  1  0.90661226  0.09338774  0.50000000  1
  F  F11  1  0.69444045  0.16402023  0.57880001  1
  F  F12  1  0.83597977  0.30555955  0.42119999  1
  F  F13  1  0.11770756  0.02065747  0.42068794  1
  F  F14  1  0.97934253  0.88229244  0.57931206  1
  F  F15  1  0.81153335  1.00137574  0.38777385  1
  F  F16  1  -0.00137574  0.18846665  0.61222615  1
  As  As17  1  0.90156793  0.09843207  1.00000000  1
  F  F18  1  0.81753605  0.01991403  0.12910198  1
  F  F19  1  0.98008597  0.18246395  0.87089802  1
  F  F20  1  0.11970168  0.03407072  0.06508340  1
  F  F21  1  0.96592928  0.88029832  0.93491660  1
  F  F22  1  0.68140154  0.16181703  0.93563069  1
  F  F23  1  0.83818297  0.31859845  0.06436931  1
  As  As24  1  0.51803879  0.75169008  0.75100483  1
  As  As25  1  0.24830992  0.48196121  0.24899517  1
  F  F26  1  0.59060504  0.58388193  0.63897754  1
  F  F27  1  0.41611807  0.40939496  0.36102246  1
  F  F28  1  0.45423908  0.92190978  0.86244289  1
  F  F29  1  0.07809022  0.54576092  0.13755711  1
  F  F30  1  0.58546392  0.57907696  0.86281607  1
  F  F31  1  0.42092304  0.41453608  0.13718393  1
  F  F32  1  0.74632590  0.75379235  0.75115535  1
  F  F33  1  0.24620765  0.25367410  0.24884465  1
  F  F34  1  0.45898464  0.92622463  0.63938891  1
  F  F35  1  0.07377537  0.54101536  0.36061109  1
  F  F36  1  0.29718384  0.74627475  0.75098095  1
  F  F37  1  0.25372525  0.70281616  0.24901905  1
