# generated using pymatgen
data_Sb2S3
_symmetry_space_group_name_H-M   'P 1'
_cell_length_a   3.87740166
_cell_length_b   11.21426513
_cell_length_c   12.20111383
_cell_angle_alpha   90.00000000
_cell_angle_beta   90.00000000
_cell_angle_gamma   90.00000000
_symmetry_Int_Tables_number   1
_chemical_formula_structural   Sb2S3
_chemical_formula_sum   'Sb8 S12'
_cell_volume   530.53139661
_cell_formula_units_Z   4
loop_
 _symmetry_equiv_pos_site_id
 _symmetry_equiv_pos_as_xyz
  1  'x, y, z'
loop_
 _atom_site_type_symbol
 _atom_site_label
 _atom_site_symmetry_multiplicity
 _atom_site_fract_x
 _atom_site_fract_y
 _atom_site_fract_z
 _atom_site_occupancy
  Sb  Sb0  1  0.00000000  0.67430109  0.28522335  1
  Sb  Sb1  1  0.50000000  0.17430109  0.71477665  1
  Sb  Sb2  1  0.50000000  0.96633442  0.39557713  1
  Sb  Sb3  1  -0.00000000  0.46633442  0.60442287  1
  Sb  Sb4  1  0.50000000  0.33063896  0.21932539  1
  Sb  Sb5  1  0.00000000  0.83063896  0.78067461  1
  Sb  Sb6  1  0.00000000  0.03230663  0.11487932  1
  Sb  Sb7  1  0.50000000  0.53230663  0.88512068  1
  S  S8  1  0.50000000  0.55583488  0.37211284  1
  S  S9  1  0.00000000  0.05583488  0.62788716  1
  S  S10  1  -0.00000000  0.80983368  0.45253222  1
  S  S11  1  0.50000000  0.30983368  0.54746778  1
  S  S12  1  0.50000000  0.87267116  0.21041871  1
  S  S13  1  0.00000000  0.37267116  0.78958129  1
  S  S14  1  -0.00000000  0.44082698  0.12601307  1
  S  S15  1  0.50000000  0.94082698  0.87398693  1
  S  S16  1  0.50000000  0.18535184  0.05674760  1
  S  S17  1  -0.00000000  0.68535184  0.94325240  1
  S  S18  1  -0.00000000  0.12294037  0.30071613  1
  S  S19  1  0.50000000  0.62294037  0.69928387  1
