# generated using pymatgen
data_Nd2Ge5Rh3
_symmetry_space_group_name_H-M   'P 1'
_cell_length_a   6.04838126
_cell_length_b   8.45333250
_cell_length_c   8.45333250
_cell_angle_alpha   92.03292667
_cell_angle_beta   110.31377543
_cell_angle_gamma   110.31377543
_symmetry_Int_Tables_number   1
_chemical_formula_structural   Nd2Ge5Rh3
_chemical_formula_sum   'Nd4 Ge10 Rh6'
_cell_volume   374.09269809
_cell_formula_units_Z   2
loop_
 _symmetry_equiv_pos_site_id
 _symmetry_equiv_pos_as_xyz
  1  'x, y, z'
loop_
 _atom_site_type_symbol
 _atom_site_label
 _atom_site_symmetry_multiplicity
 _atom_site_fract_x
 _atom_site_fract_y
 _atom_site_fract_z
 _atom_site_occupancy
  Nd  Nd0  1  0.23208977  0.86489500  0.59527998  1
  Nd  Nd1  1  0.26791023  0.40472002  0.13510500  1
  Nd  Nd2  1  0.76791023  0.13510500  0.40472002  1
  Nd  Nd3  1  0.73208977  0.59527998  0.86489500  1
  Ge  Ge4  1  0.16381579  0.06517639  0.26065304  1
  Ge  Ge5  1  0.33618421  0.73934696  0.93482361  1
  Ge  Ge6  1  0.83618421  0.93482361  0.73934696  1
  Ge  Ge7  1  0.66381579  0.26065304  0.06517639  1
  Ge  Ge8  1  0.25000000  0.21671070  0.78328930  1
  Ge  Ge9  1  0.75000000  0.78328930  0.21671070  1
  Ge  Ge10  1  0.25000000  0.50493027  0.49506973  1
  Ge  Ge11  1  0.75000000  0.49506973  0.50493027  1
  Ge  Ge12  1  0.25000000  0.77669007  0.22330993  1
  Ge  Ge13  1  0.75000000  0.22330993  0.77669007  1
  Rh  Rh14  1  0.38581515  0.25444666  0.53704696  1
  Rh  Rh15  1  0.11418485  0.46295304  0.74555334  1
  Rh  Rh16  1  0.61418485  0.74555334  0.46295304  1
  Rh  Rh17  1  0.88581515  0.53704696  0.25444666  1
  Rh  Rh18  1  0.25000000  0.00130746  0.99869254  1
  Rh  Rh19  1  0.75000000  0.99869254  0.00130746  1
