# generated using pymatgen
data_PrCO4
_symmetry_space_group_name_H-M   'P 1'
_cell_length_a   4.99511835
_cell_length_b   7.44957584
_cell_length_c   8.44800148
_cell_angle_alpha   90.00000000
_cell_angle_beta   90.00000000
_cell_angle_gamma   90.00000000
_symmetry_Int_Tables_number   1
_chemical_formula_structural   PrCO4
_chemical_formula_sum   'Pr4 C4 O16'
_cell_volume   314.36291671
_cell_formula_units_Z   4
loop_
 _symmetry_equiv_pos_site_id
 _symmetry_equiv_pos_as_xyz
  1  'x, y, z'
loop_
 _atom_site_type_symbol
 _atom_site_label
 _atom_site_symmetry_multiplicity
 _atom_site_fract_x
 _atom_site_fract_y
 _atom_site_fract_z
 _atom_site_occupancy
  Pr  Pr0  1  0.75000000  0.14753647  0.16827995  1
  Pr  Pr1  1  0.75000000  0.64753647  0.33172005  1
  Pr  Pr2  1  0.25000000  0.85246353  0.83172005  1
  Pr  Pr3  1  0.25000000  0.35246353  0.66827995  1
  C  C4  1  0.75000000  0.19575092  0.82008046  1
  C  C5  1  0.75000000  0.69575092  0.67991954  1
  C  C6  1  0.25000000  0.80424908  0.17991954  1
  C  C7  1  0.25000000  0.30424908  0.32008046  1
  O  O8  1  0.75000000  0.46278842  0.09902837  1
  O  O9  1  0.75000000  0.96278842  0.40097163  1
  O  O10  1  0.25000000  0.53721158  0.90097163  1
  O  O11  1  0.25000000  0.03721158  0.59902837  1
  O  O12  1  0.25000000  0.20557963  0.19546504  1
  O  O13  1  0.25000000  0.70557963  0.30453496  1
  O  O14  1  0.75000000  0.79442037  0.80453496  1
  O  O15  1  0.75000000  0.29442037  0.69546504  1
  O  O16  1  0.02523623  0.85019204  0.11447910  1
  O  O17  1  0.47476377  0.35019204  0.38552090  1
  O  O18  1  0.52523623  0.14980796  0.88552090  1
  O  O19  1  0.97476377  0.64980796  0.61447910  1
  O  O20  1  0.97476377  0.14980796  0.88552090  1
  O  O21  1  0.52523623  0.64980796  0.61447910  1
  O  O22  1  0.47476377  0.85019204  0.11447910  1
  O  O23  1  0.02523623  0.35019204  0.38552090  1
