# generated using pymatgen
data_Na3Ag3W2(OF)6
_symmetry_space_group_name_H-M   'P 1'
_cell_length_a   5.83787388
_cell_length_b   5.83787388
_cell_length_c   10.30518378
_cell_angle_alpha   73.54576432
_cell_angle_beta   73.54576432
_cell_angle_gamma   60.00000496
_symmetry_Int_Tables_number   1
_chemical_formula_structural   Na3Ag3W2(OF)6
_chemical_formula_sum   'Na3 Ag3 W2 O6 F6'
_cell_volume   287.42725722
_cell_formula_units_Z   1
loop_
 _symmetry_equiv_pos_site_id
 _symmetry_equiv_pos_as_xyz
  1  'x, y, z'
loop_
 _atom_site_type_symbol
 _atom_site_label
 _atom_site_symmetry_multiplicity
 _atom_site_fract_x
 _atom_site_fract_y
 _atom_site_fract_z
 _atom_site_occupancy
  Na  Na0  1  0.13366848  0.13366848  0.59899457  1
  Na  Na1  1  0.86633152  0.86633152  0.40100543  1
  Na  Na2  1  0.50000000  0.50000000  0.50000000  1
  Ag  Ag3  1  -0.00000000  -0.00000000  0.00000000  1
  Ag  Ag4  1  0.37018671  0.37018671  0.88943988  1
  Ag  Ag5  1  0.62981329  0.62981329  0.11056012  1
  W  W6  1  0.25415387  0.25415387  0.23753838  1
  W  W7  1  0.74584613  0.74584613  0.76246162  1
  O  O8  1  0.24915086  0.02068626  0.15356745  1
  O  O9  1  0.02068626  0.57659543  0.15356745  1
  O  O10  1  0.57659543  0.24915086  0.15356745  1
  O  O11  1  0.75084914  0.97931374  0.84643255  1
  O  O12  1  0.97931374  0.42340457  0.84643255  1
  O  O13  1  0.42340457  0.75084914  0.84643255  1
  F  F14  1  0.76166268  0.55444032  0.61311015  1
  F  F15  1  0.55444032  0.07078685  0.61311015  1
  F  F16  1  0.07078685  0.76166268  0.61311015  1
  F  F17  1  0.23833732  0.44555968  0.38688985  1
  F  F18  1  0.44555968  0.92921315  0.38688985  1
  F  F19  1  0.92921315  0.23833732  0.38688985  1
