# generated using pymatgen
data_Eu3(GaP2)2
_symmetry_space_group_name_H-M   'P 1'
_cell_length_a   6.56583166
_cell_length_b   8.21003911
_cell_length_c   8.21003911
_cell_angle_alpha   76.05965104
_cell_angle_beta   90.58695511
_cell_angle_gamma   90.58695511
_symmetry_Int_Tables_number   1
_chemical_formula_structural   Eu3(GaP2)2
_chemical_formula_sum   'Eu6 Ga4 P8'
_cell_volume   429.49693282
_cell_formula_units_Z   2
loop_
 _symmetry_equiv_pos_site_id
 _symmetry_equiv_pos_as_xyz
  1  'x, y, z'
loop_
 _atom_site_type_symbol
 _atom_site_label
 _atom_site_symmetry_multiplicity
 _atom_site_fract_x
 _atom_site_fract_y
 _atom_site_fract_z
 _atom_site_occupancy
  Eu  Eu0  1  0.46484775  0.74885463  0.49478517  1
  Eu  Eu1  1  0.03515225  0.50521483  0.25114537  1
  Eu  Eu2  1  0.53515225  0.25114537  0.50521483  1
  Eu  Eu3  1  0.96484775  0.49478517  0.74885463  1
  Eu  Eu4  1  0.25000000  0.10040803  0.89959197  1
  Eu  Eu5  1  0.75000000  0.89959197  0.10040803  1
  Ga  Ga6  1  0.08450785  0.08169369  0.32519737  1
  Ga  Ga7  1  0.41549215  0.67480263  0.91830631  1
  Ga  Ga8  1  0.91549215  0.91830631  0.67480263  1
  Ga  Ga9  1  0.58450785  0.32519737  0.08169369  1
  P  P10  1  0.02509561  0.21152562  0.55931666  1
  P  P11  1  0.47490439  0.44068334  0.78847438  1
  P  P12  1  0.97490439  0.78847438  0.44068334  1
  P  P13  1  0.52509561  0.55931666  0.21152562  1
  P  P14  1  0.43261049  0.06898503  0.24194214  1
  P  P15  1  0.06738951  0.75805786  0.93101497  1
  P  P16  1  0.56738951  0.93101497  0.75805786  1
  P  P17  1  0.93261049  0.24194214  0.06898503  1
