# generated using pymatgen
data_Tb6RhBr10
_symmetry_space_group_name_H-M   'P 1'
_cell_length_a   7.41962338
_cell_length_b   9.26469210
_cell_length_c   9.29469233
_cell_angle_alpha   108.32308043
_cell_angle_beta   97.16192669
_cell_angle_gamma   105.42795813
_symmetry_Int_Tables_number   1
_chemical_formula_structural   Tb6RhBr10
_chemical_formula_sum   'Tb6 Rh1 Br10'
_cell_volume   569.32265084
_cell_formula_units_Z   1
loop_
 _symmetry_equiv_pos_site_id
 _symmetry_equiv_pos_as_xyz
  1  'x, y, z'
loop_
 _atom_site_type_symbol
 _atom_site_label
 _atom_site_symmetry_multiplicity
 _atom_site_fract_x
 _atom_site_fract_y
 _atom_site_fract_z
 _atom_site_occupancy
  Tb  Tb0  1  0.63427345  0.86064563  0.81887984  1
  Tb  Tb1  1  0.36572655  0.13935437  0.18112016  1
  Tb  Tb2  1  0.97411091  0.29996247  0.09519324  1
  Tb  Tb3  1  0.02588909  0.70003753  0.90480676  1
  Tb  Tb4  1  0.12430604  0.04501728  0.75380272  1
  Tb  Tb5  1  0.87569396  0.95498272  0.24619728  1
  Rh  Rh6  1  -0.00000000  -0.00000000  0.00000000  1
  Br  Br7  1  0.64073747  0.54179524  0.72608185  1
  Br  Br8  1  0.35926253  0.45820476  0.27391815  1
  Br  Br9  1  0.54841862  0.17506630  0.91535621  1
  Br  Br10  1  0.45158138  0.82493370  0.08464379  1
  Br  Br11  1  0.20773141  0.73993383  0.65008417  1
  Br  Br12  1  0.79226859  0.26006617  0.34991583  1
  Br  Br13  1  0.08595753  0.37007676  0.82895986  1
  Br  Br14  1  0.91404247  0.62992324  0.17104014  1
  Br  Br15  1  0.74819093  0.91633687  0.54189239  1
  Br  Br16  1  0.25180907  0.08366313  0.45810761  1
