# generated using pymatgen
data_TmAl3Ni2
_symmetry_space_group_name_H-M   'P 1'
_cell_length_a   4.00315783
_cell_length_b   8.93750543
_cell_length_c   8.93496313
_cell_angle_alpha   120.00941487
_cell_angle_beta   90.00000000
_cell_angle_gamma   90.00000000
_symmetry_Int_Tables_number   1
_chemical_formula_structural   TmAl3Ni2
_chemical_formula_sum   'Tm3 Al9 Ni6'
_cell_volume   276.82239283
_cell_formula_units_Z   3
loop_
 _symmetry_equiv_pos_site_id
 _symmetry_equiv_pos_as_xyz
  1  'x, y, z'
loop_
 _atom_site_type_symbol
 _atom_site_label
 _atom_site_symmetry_multiplicity
 _atom_site_fract_x
 _atom_site_fract_y
 _atom_site_fract_z
 _atom_site_occupancy
  Tm  Tm0  1  0.00000000  0.00003236  1.00000000  1
  Tm  Tm1  1  0.50000000  0.33331832  0.66663443  1
  Tm  Tm2  1  0.50000000  0.66668389  0.33336557  1
  Al  Al3  1  0.00000000  0.49999523  -0.00000000  1
  Al  Al4  1  0.00000000  0.49998900  0.50000770  1
  Al  Al5  1  0.00000000  0.99998130  0.49999230  1
  Al  Al6  1  0.50000000  0.29579630  1.00000000  1
  Al  Al7  1  0.50000000  0.70419158  0.70415586  1
  Al  Al8  1  0.50000000  0.00003572  0.29584414  1
  Al  Al9  1  0.50000000  0.70417043  0.00000000  1
  Al  Al10  1  0.50000000  0.29578154  0.29586173  1
  Al  Al11  1  0.50000000  0.99991981  0.70413827  1
  Ni  Ni12  1  -0.00000000  0.18139273  0.36278446  1
  Ni  Ni13  1  0.00000000  0.18146265  0.81855474  1
  Ni  Ni14  1  -0.00000000  0.63709781  0.81856265  1
  Ni  Ni15  1  -0.00000000  0.81860827  0.63721554  1
  Ni  Ni16  1  0.00000000  0.36290791  0.18144526  1
  Ni  Ni17  1  -0.00000000  0.81853516  0.18143735  1
