# generated using pymatgen
data_MnMoH2SeO7
_symmetry_space_group_name_H-M   'P 1'
_cell_length_a   5.11319569
_cell_length_b   6.88806095
_cell_length_c   9.15551241
_cell_angle_alpha   92.18843281
_cell_angle_beta   96.47426608
_cell_angle_gamma   109.75825632
_symmetry_Int_Tables_number   1
_chemical_formula_structural   MnMoH2SeO7
_chemical_formula_sum   'Mn2 Mo2 H4 Se2 O14'
_cell_volume   300.53237070
_cell_formula_units_Z   2
loop_
 _symmetry_equiv_pos_site_id
 _symmetry_equiv_pos_as_xyz
  1  'x, y, z'
loop_
 _atom_site_type_symbol
 _atom_site_label
 _atom_site_symmetry_multiplicity
 _atom_site_fract_x
 _atom_site_fract_y
 _atom_site_fract_z
 _atom_site_occupancy
  Mn  Mn0  1  0.00000000  0.00000000  -0.00000000  1
  Mn  Mn1  1  0.50000000  0.50000000  0.50000000  1
  Mo  Mo2  1  0.20548404  0.90747809  0.60085637  1
  Mo  Mo3  1  0.79451596  0.09252191  0.39914363  1
  H  H4  1  0.59224216  0.62928750  0.86578981  1
  H  H5  1  0.40775784  0.37071250  0.13421019  1
  H  H6  1  0.45134769  0.73817554  0.98238728  1
  H  H7  1  0.54865231  0.26182446  0.01761272  1
  Se  Se8  1  0.15182155  0.69021742  0.24545637  1
  Se  Se9  1  0.84817845  0.30978258  0.75454363  1
  O  O10  1  0.62639461  0.74099060  0.94421313  1
  O  O11  1  0.37360539  0.25900940  0.05578687  1
  O  O12  1  0.21342305  0.78248448  0.07940623  1
  O  O13  1  0.78657695  0.21751552  0.92059377  1
  O  O14  1  0.34335935  0.53260580  0.27453296  1
  O  O15  1  0.65664065  0.46739420  0.72546704  1
  O  O16  1  0.37580899  0.91236042  0.37693111  1
  O  O17  1  0.62419101  0.08763958  0.62306889  1
  O  O18  1  0.26166094  0.66700422  0.60712593  1
  O  O19  1  0.73833906  0.33299578  0.39287407  1
  O  O20  1  0.84306176  0.81187105  0.49133174  1
  O  O21  1  0.15693824  0.18812895  0.50866826  1
  O  O22  1  0.14732256  0.96736448  0.78025894  1
  O  O23  1  0.85267744  0.03263552  0.21974106  1
