# generated using pymatgen
data_TiCo2
_symmetry_space_group_name_H-M   'P 1'
_cell_length_a   4.70535773
_cell_length_b   4.70535773
_cell_length_c   15.35790304
_cell_angle_alpha   90.00000000
_cell_angle_beta   90.00000000
_cell_angle_gamma   120.00927896
_symmetry_Int_Tables_number   1
_chemical_formula_structural   TiCo2
_chemical_formula_sum   'Ti8 Co16'
_cell_volume   294.44706641
_cell_formula_units_Z   8
loop_
 _symmetry_equiv_pos_site_id
 _symmetry_equiv_pos_as_xyz
  1  'x, y, z'
loop_
 _atom_site_type_symbol
 _atom_site_label
 _atom_site_symmetry_multiplicity
 _atom_site_fract_x
 _atom_site_fract_y
 _atom_site_fract_z
 _atom_site_occupancy
  Ti  Ti0  1  -0.00001639  0.00001639  0.59218697  1
  Ti  Ti1  1  0.00001639  -0.00001639  0.40781303  1
  Ti  Ti2  1  0.00001639  -0.00001639  0.09218697  1
  Ti  Ti3  1  -0.00001639  0.00001639  0.90781303  1
  Ti  Ti4  1  0.66667340  0.33332660  0.34415818  1
  Ti  Ti5  1  0.33332660  0.66667340  0.65584182  1
  Ti  Ti6  1  0.33332660  0.66667340  0.84415818  1
  Ti  Ti7  1  0.66667340  0.33332660  0.15584182  1
  Co  Co8  1  0.66668626  0.33331374  0.62619925  1
  Co  Co9  1  0.33331374  0.66668626  0.37380075  1
  Co  Co10  1  0.33331374  0.66668626  0.12619925  1
  Co  Co11  1  0.66668626  0.33331374  0.87380075  1
  Co  Co12  1  0.50000000  0.00000000  0.50000000  1
  Co  Co13  1  0.50000000  0.50000000  0.50000000  1
  Co  Co14  1  0.00000000  0.50000000  0.50000000  1
  Co  Co15  1  0.50000000  0.00000000  -0.00000000  1
  Co  Co16  1  0.50000000  0.50000000  -0.00000000  1
  Co  Co17  1  0.00000000  0.50000000  -0.00000000  1
  Co  Co18  1  0.83748550  0.67497782  0.75000000  1
  Co  Co19  1  0.83751552  0.16248448  0.75000000  1
  Co  Co20  1  0.32502218  0.16251450  0.75000000  1
  Co  Co21  1  0.16251450  0.32502218  0.25000000  1
  Co  Co22  1  0.16248448  0.83751552  0.25000000  1
  Co  Co23  1  0.67497782  0.83748550  0.25000000  1
