# generated using pymatgen
data_Cs2WO4
_symmetry_space_group_name_H-M   'P 1'
_cell_length_a   6.78284341
_cell_length_b   8.73642057
_cell_length_c   11.95500224
_cell_angle_alpha   90.00000000
_cell_angle_beta   90.00000000
_cell_angle_gamma   90.00000000
_symmetry_Int_Tables_number   1
_chemical_formula_structural   Cs2WO4
_chemical_formula_sum   'Cs8 W4 O16'
_cell_volume   708.42680525
_cell_formula_units_Z   4
loop_
 _symmetry_equiv_pos_site_id
 _symmetry_equiv_pos_as_xyz
  1  'x, y, z'
loop_
 _atom_site_type_symbol
 _atom_site_label
 _atom_site_symmetry_multiplicity
 _atom_site_fract_x
 _atom_site_fract_y
 _atom_site_fract_z
 _atom_site_occupancy
  Cs  Cs0  1  0.75000000  0.50982969  0.20896325  1
  Cs  Cs1  1  0.75000000  0.00982969  0.29103675  1
  Cs  Cs2  1  0.25000000  0.49017031  0.79103675  1
  Cs  Cs3  1  0.25000000  0.99017031  0.70896325  1
  Cs  Cs4  1  0.75000000  0.82852989  0.92008416  1
  Cs  Cs5  1  0.75000000  0.32852989  0.57991584  1
  Cs  Cs6  1  0.25000000  0.17147011  0.07991584  1
  Cs  Cs7  1  0.25000000  0.67147011  0.42008416  1
  W  W8  1  0.75000000  0.27378902  0.91937519  1
  W  W9  1  0.75000000  0.77378902  0.58062481  1
  W  W10  1  0.25000000  0.72621098  0.08062481  1
  W  W11  1  0.25000000  0.22621098  0.41937519  1
  O  O12  1  0.75000000  0.48129016  0.91787037  1
  O  O13  1  0.75000000  0.98129016  0.58212963  1
  O  O14  1  0.25000000  0.51870984  0.08212963  1
  O  O15  1  0.25000000  0.01870984  0.41787037  1
  O  O16  1  0.75000000  0.20559921  0.06371667  1
  O  O17  1  0.75000000  0.70559921  0.43628333  1
  O  O18  1  0.25000000  0.79440079  0.93628333  1
  O  O19  1  0.25000000  0.29440079  0.56371667  1
  O  O20  1  0.97017701  0.20147472  0.85018754  1
  O  O21  1  0.52982299  0.70147472  0.64981246  1
  O  O22  1  0.47017701  0.79852528  0.14981246  1
  O  O23  1  0.02982299  0.29852528  0.35018754  1
  O  O24  1  0.02982299  0.79852528  0.14981246  1
  O  O25  1  0.47017701  0.29852528  0.35018754  1
  O  O26  1  0.52982299  0.20147472  0.85018754  1
  O  O27  1  0.97017701  0.70147472  0.64981246  1
