# generated using pymatgen
data_B2Pb2O5
_symmetry_space_group_name_H-M   'P 1'
_cell_length_a   7.10015470
_cell_length_b   7.32573401
_cell_length_c   7.93344324
_cell_angle_alpha   76.19829222
_cell_angle_beta   76.63808625
_cell_angle_gamma   73.78141829
_symmetry_Int_Tables_number   1
_chemical_formula_structural   B2Pb2O5
_chemical_formula_sum   'B6 Pb6 O15'
_cell_volume   378.75398950
_cell_formula_units_Z   3
loop_
 _symmetry_equiv_pos_site_id
 _symmetry_equiv_pos_as_xyz
  1  'x, y, z'
loop_
 _atom_site_type_symbol
 _atom_site_label
 _atom_site_symmetry_multiplicity
 _atom_site_fract_x
 _atom_site_fract_y
 _atom_site_fract_z
 _atom_site_occupancy
  B  B0  1  0.21567395  0.09515480  0.49352737  1
  B  B1  1  0.20915066  0.10076172  0.16970865  1
  B  B2  1  0.88969582  0.28485715  0.01648771  1
  B  B3  1  0.73034464  0.57748080  0.80742113  1
  B  B4  1  0.87760816  0.24844411  0.70925259  1
  B  B5  1  0.17448305  0.79797520  0.40749743  1
  Pb  Pb6  1  0.68554242  0.94004126  0.01079746  1
  Pb  Pb7  1  0.25295448  0.89133180  0.86653882  1
  Pb  Pb8  1  0.43740624  0.42676376  0.18352900  1
  Pb  Pb9  1  0.88106025  0.49561706  0.33871979  1
  Pb  Pb10  1  0.70321838  0.02484034  0.49623063  1
  Pb  Pb11  1  0.35242264  0.40630546  0.67483974  1
  O  O12  1  0.34911530  0.10793928  0.60627660  1
  O  O13  1  0.73480883  0.12703695  0.74016865  1
  O  O14  1  0.71954815  0.19988853  0.10735247  1
  O  O15  1  0.61717306  0.76233035  0.77902163  1
  O  O16  1  0.80675637  0.50139478  0.96342152  1
  O  O17  1  0.99166584  0.20536235  0.85313453  1
  O  O18  1  0.19736536  0.88957789  0.53482800  1
  O  O19  1  0.35600426  0.08370616  0.00598315  1
  O  O20  1  0.01346485  0.22700188  0.53453684  1
  O  O21  1  0.29947054  0.14670404  0.30434129  1
  O  O22  1  0.15555325  0.90726668  0.24003098  1
  O  O23  1  0.17055862  0.60674591  0.44729819  1
  O  O24  1  0.03139231  0.26112602  0.13624760  1
  O  O25  1  0.58875981  0.37369138  0.41747480  1
  O  O26  1  0.76620277  0.45935433  0.68343346  1
