# generated using pymatgen
data_SmRh3
_symmetry_space_group_name_H-M   'P 1'
_cell_length_a   5.31777592
_cell_length_b   5.31777592
_cell_length_c   17.64035138
_cell_angle_alpha   90.00000000
_cell_angle_beta   90.00000000
_cell_angle_gamma   120.00008806
_symmetry_Int_Tables_number   1
_chemical_formula_structural   SmRh3
_chemical_formula_sum   'Sm6 Rh18'
_cell_volume   432.01372440
_cell_formula_units_Z   6
loop_
 _symmetry_equiv_pos_site_id
 _symmetry_equiv_pos_as_xyz
  1  'x, y, z'
loop_
 _atom_site_type_symbol
 _atom_site_label
 _atom_site_symmetry_multiplicity
 _atom_site_fract_x
 _atom_site_fract_y
 _atom_site_fract_z
 _atom_site_occupancy
  Sm  Sm0  1  0.66669441  0.33330559  0.04209804  1
  Sm  Sm1  1  0.33330559  0.66669441  0.95790196  1
  Sm  Sm2  1  0.33330559  0.66669441  0.54209804  1
  Sm  Sm3  1  0.66669441  0.33330559  0.45790196  1
  Sm  Sm4  1  0.66669659  0.33330341  0.25000000  1
  Sm  Sm5  1  0.33330341  0.66669659  0.75000000  1
  Rh  Rh6  1  0.83302435  0.66605518  0.62699747  1
  Rh  Rh7  1  0.83303191  0.16696809  0.62699660  1
  Rh  Rh8  1  0.33394482  0.16697565  0.62699747  1
  Rh  Rh9  1  0.16697565  0.33394482  0.37300253  1
  Rh  Rh10  1  0.16696809  0.83303191  0.37300340  1
  Rh  Rh11  1  0.66605518  0.83302435  0.37300253  1
  Rh  Rh12  1  0.16697565  0.33394482  0.12699747  1
  Rh  Rh13  1  0.16696809  0.83303191  0.12699660  1
  Rh  Rh14  1  0.66605518  0.83302435  0.12699747  1
  Rh  Rh15  1  0.83302435  0.66605518  0.87300253  1
  Rh  Rh16  1  0.83303191  0.16696809  0.87300340  1
  Rh  Rh17  1  0.33394482  0.16697565  0.87300253  1
  Rh  Rh18  1  0.66670328  0.33329672  0.75000000  1
  Rh  Rh19  1  0.33329672  0.66670328  0.25000000  1
  Rh  Rh20  1  0.99999329  0.00000671  0.75000000  1
  Rh  Rh21  1  0.00000671  0.99999329  0.25000000  1
  Rh  Rh22  1  0.00000000  0.00000000  0.50000000  1
  Rh  Rh23  1  0.00000000  0.00000000  0.00000000  1
