# generated using pymatgen
data_AlTlSiO4
_symmetry_space_group_name_H-M   'P 1'
_cell_length_a   5.46397795
_cell_length_b   8.35242060
_cell_length_c   9.60303473
_cell_angle_alpha   90.00000000
_cell_angle_beta   90.00000000
_cell_angle_gamma   90.00000000
_symmetry_Int_Tables_number   1
_chemical_formula_structural   AlTlSiO4
_chemical_formula_sum   'Al4 Tl4 Si4 O16'
_cell_volume   438.25794039
_cell_formula_units_Z   4
loop_
 _symmetry_equiv_pos_site_id
 _symmetry_equiv_pos_as_xyz
  1  'x, y, z'
loop_
 _atom_site_type_symbol
 _atom_site_label
 _atom_site_symmetry_multiplicity
 _atom_site_fract_x
 _atom_site_fract_y
 _atom_site_fract_z
 _atom_site_occupancy
  Al  Al0  1  0.24781865  0.69320994  0.41585473  1
  Al  Al1  1  0.74781865  0.30679006  0.58414527  1
  Al  Al2  1  0.74781865  0.80679006  0.91585473  1
  Al  Al3  1  0.24781865  0.19320994  0.08414527  1
  Tl  Tl4  1  0.25245697  0.49772223  0.81691309  1
  Tl  Tl5  1  0.75245697  0.50227777  0.18308691  1
  Tl  Tl6  1  0.75245697  0.00227777  0.31691309  1
  Tl  Tl7  1  0.25245697  0.99772223  0.68308691  1
  Si  Si8  1  0.24774533  0.79554119  0.07719877  1
  Si  Si9  1  0.74774533  0.20445881  0.92280123  1
  Si  Si10  1  0.74774533  0.70445881  0.57719877  1
  Si  Si11  1  0.24774533  0.29554119  0.42280123  1
  O  O12  1  0.24791670  0.48743646  0.43652372  1
  O  O13  1  0.74791670  0.51256354  0.56347628  1
  O  O14  1  0.74791670  0.01256354  0.93652372  1
  O  O15  1  0.24791670  0.98743646  0.06347628  1
  O  O16  1  0.24411211  0.74094806  0.23954539  1
  O  O17  1  0.74411211  0.25905194  0.76045461  1
  O  O18  1  0.74411211  0.75905194  0.73954539  1
  O  O19  1  0.24411211  0.24094806  0.26045461  1
  O  O20  1  0.50687176  0.78264685  0.49727497  1
  O  O21  1  0.00687176  0.21735315  0.50272503  1
  O  O22  1  0.00687176  0.71735315  0.99727497  1
  O  O23  1  0.50687176  0.28264685  0.00272503  1
  O  O24  1  0.99107848  0.78263013  0.49978112  1
  O  O25  1  0.49107848  0.21736987  0.50021888  1
  O  O26  1  0.49107848  0.71736987  0.99978112  1
  O  O27  1  0.99107848  0.28263013  0.00021888  1
