# generated using pymatgen
data_LiBH4
_symmetry_space_group_name_H-M   'P 1'
_cell_length_a   4.40234738
_cell_length_b   5.83729766
_cell_length_c   8.61366440
_cell_angle_alpha   90.00000000
_cell_angle_beta   90.00000000
_cell_angle_gamma   90.00000000
_symmetry_Int_Tables_number   1
_chemical_formula_structural   LiBH4
_chemical_formula_sum   'Li4 B4 H16'
_cell_volume   221.35232890
_cell_formula_units_Z   4
loop_
 _symmetry_equiv_pos_site_id
 _symmetry_equiv_pos_as_xyz
  1  'x, y, z'
loop_
 _atom_site_type_symbol
 _atom_site_label
 _atom_site_symmetry_multiplicity
 _atom_site_fract_x
 _atom_site_fract_y
 _atom_site_fract_z
 _atom_site_occupancy
  Li  Li0  1  0.75000000  0.91925994  0.85589084  1
  Li  Li1  1  0.75000000  0.58074006  0.35589084  1
  Li  Li2  1  0.25000000  0.08074006  0.14410916  1
  Li  Li3  1  0.25000000  0.41925994  0.64410916  1
  B  B4  1  0.25000000  0.34857294  0.36374281  1
  B  B5  1  0.25000000  0.15142706  0.86374281  1
  B  B6  1  0.75000000  0.65142706  0.63625719  1
  B  B7  1  0.75000000  0.84857294  0.13625719  1
  H  H8  1  0.47669101  0.31849746  0.28321580  1
  H  H9  1  0.02330899  0.18150254  0.78321580  1
  H  H10  1  0.97669101  0.68150254  0.71678420  1
  H  H11  1  0.52330899  0.81849746  0.21678420  1
  H  H12  1  0.52330899  0.68150254  0.71678420  1
  H  H13  1  0.97669101  0.81849746  0.21678420  1
  H  H14  1  0.02330899  0.31849746  0.28321580  1
  H  H15  1  0.47669101  0.18150254  0.78321580  1
  H  H16  1  0.25000000  0.20871740  0.46945180  1
  H  H17  1  0.25000000  0.29128260  0.96945180  1
  H  H18  1  0.75000000  0.79128260  0.53054820  1
  H  H19  1  0.75000000  0.70871740  0.03054820  1
  H  H20  1  0.25000000  0.54744807  0.41095914  1
  H  H21  1  0.25000000  0.95255193  0.91095914  1
  H  H22  1  0.75000000  0.45255193  0.58904086  1
  H  H23  1  0.75000000  0.04744807  0.08904086  1
