# generated using pymatgen
data_NbTe4Os
_symmetry_space_group_name_H-M   'P 1'
_cell_length_a   3.77892676
_cell_length_b   12.61730260
_cell_length_c   13.65790459
_cell_angle_alpha   90.00000000
_cell_angle_beta   90.00000000
_cell_angle_gamma   90.00000000
_symmetry_Int_Tables_number   1
_chemical_formula_structural   NbTe4Os
_chemical_formula_sum   'Nb4 Te16 Os4'
_cell_volume   651.20701199
_cell_formula_units_Z   4
loop_
 _symmetry_equiv_pos_site_id
 _symmetry_equiv_pos_as_xyz
  1  'x, y, z'
loop_
 _atom_site_type_symbol
 _atom_site_label
 _atom_site_symmetry_multiplicity
 _atom_site_fract_x
 _atom_site_fract_y
 _atom_site_fract_z
 _atom_site_occupancy
  Nb  Nb0  1  0.50000000  0.94114032  0.50586974  1
  Nb  Nb1  1  0.00000000  0.05885968  0.00586974  1
  Nb  Nb2  1  0.50000000  0.72462366  0.98951916  1
  Nb  Nb3  1  -0.00000000  0.27537634  0.48951916  1
  Te  Te4  1  0.50000000  0.93352631  0.89514146  1
  Te  Te5  1  0.00000000  0.06647369  0.39514146  1
  Te  Te6  1  0.50000000  0.80289683  0.35425860  1
  Te  Te7  1  0.00000000  0.19710317  0.85425860  1
  Te  Te8  1  0.50000000  0.65229270  0.59124598  1
  Te  Te9  1  -0.00000000  0.34770730  0.09124598  1
  Te  Te10  1  0.50000000  0.58320668  0.13751861  1
  Te  Te11  1  0.00000000  0.41679332  0.63751861  1
  Te  Te12  1  0.50000000  0.43488951  0.89985762  1
  Te  Te13  1  -0.00000000  0.56511049  0.39985762  1
  Te  Te14  1  0.50000000  0.32474079  0.34752264  1
  Te  Te15  1  0.00000000  0.67525921  0.84752264  1
  Te  Te16  1  0.50000000  0.14991528  0.60341387  1
  Te  Te17  1  -0.00000000  0.85008472  0.10341387  1
  Te  Te18  1  0.50000000  0.10886447  0.14763076  1
  Te  Te19  1  0.00000000  0.89113553  0.64763076  1
  Os  Os20  1  0.50000000  0.45507141  0.50268700  1
  Os  Os21  1  0.00000000  0.54492859  0.00268700  1
  Os  Os22  1  0.50000000  0.23688207  0.98933455  1
  Os  Os23  1  0.00000000  0.76311793  0.48933455  1
