# generated using pymatgen
data_Fe2SiO4
_symmetry_space_group_name_H-M   'P 1'
_cell_length_a   4.88099828
_cell_length_b   6.15721526
_cell_length_c   10.69772285
_cell_angle_alpha   90.78890707
_cell_angle_beta   90.01237840
_cell_angle_gamma   90.00765015
_symmetry_Int_Tables_number   1
_chemical_formula_structural   Fe2SiO4
_chemical_formula_sum   'Fe8 Si4 O16'
_cell_volume   321.47199864
_cell_formula_units_Z   4
loop_
 _symmetry_equiv_pos_site_id
 _symmetry_equiv_pos_as_xyz
  1  'x, y, z'
loop_
 _atom_site_type_symbol
 _atom_site_label
 _atom_site_symmetry_multiplicity
 _atom_site_fract_x
 _atom_site_fract_y
 _atom_site_fract_z
 _atom_site_occupancy
  Fe  Fe0  1  -0.00000000  0.00000000  0.00000000  1
  Fe  Fe1  1  0.50000000  0.00000000  0.50000000  1
  Fe  Fe2  1  -0.00000000  0.50000000  0.00000000  1
  Fe  Fe3  1  0.50000000  0.50000000  0.50000000  1
  Fe  Fe4  1  0.01109202  0.74656546  0.28000736  1
  Fe  Fe5  1  0.98890798  0.25343454  0.71999264  1
  Fe  Fe6  1  0.51106406  0.25345495  0.22002500  1
  Fe  Fe7  1  0.48893594  0.74654505  0.77997500  1
  Si  Si8  1  0.56913336  0.75326798  0.09716959  1
  Si  Si9  1  0.43086664  0.24673202  0.90283041  1
  Si  Si10  1  0.06901457  0.24683786  0.40281987  1
  Si  Si11  1  0.93098543  0.75316214  0.59718013  1
  O  O12  1  0.76771955  0.24801910  0.90753058  1
  O  O13  1  0.23228045  0.75198090  0.09246942  1
  O  O14  1  0.73219294  0.24809796  0.40739244  1
  O  O15  1  0.26780706  0.75190204  0.59260756  1
  O  O16  1  0.70839339  0.74835699  0.95414594  1
  O  O17  1  0.29160661  0.25164301  0.04585406  1
  O  O18  1  0.79173411  0.74808515  0.45414997  1
  O  O19  1  0.20826589  0.25191485  0.54585003  1
  O  O20  1  0.71212231  0.96870658  0.16432989  1
  O  O21  1  0.28787769  0.03129342  0.83567011  1
  O  O22  1  0.70921120  0.54115471  0.16654065  1
  O  O23  1  0.29078880  0.45884529  0.83345935  1
  O  O24  1  0.21234268  0.03138262  0.33582456  1
  O  O25  1  0.78765732  0.96861738  0.66417544  1
  O  O26  1  0.79083550  0.54111379  0.66661585  1
  O  O27  1  0.20916450  0.45888621  0.33338415  1
