# generated using pymatgen
data_Rb8Th(MoO4)6
_symmetry_space_group_name_H-M   'P 1'
_cell_length_a   10.71181329
_cell_length_b   10.71181329
_cell_length_c   15.31200800
_cell_angle_alpha   96.84228938
_cell_angle_beta   96.84228938
_cell_angle_gamma   118.47447455
_symmetry_Int_Tables_number   1
_chemical_formula_structural   Rb8Th(MoO4)6
_chemical_formula_sum   'Rb16 Th2 Mo12 O48'
_cell_volume   1501.92769410
_cell_formula_units_Z   2
loop_
 _symmetry_equiv_pos_site_id
 _symmetry_equiv_pos_as_xyz
  1  'x, y, z'
loop_
 _atom_site_type_symbol
 _atom_site_label
 _atom_site_symmetry_multiplicity
 _atom_site_fract_x
 _atom_site_fract_y
 _atom_site_fract_z
 _atom_site_occupancy
  Rb  Rb0  1  0.91430718  0.08569282  0.25000000  1
  Rb  Rb1  1  0.08569282  0.91430718  0.75000000  1
  Rb  Rb2  1  0.96820770  0.81512152  0.44966257  1
  Rb  Rb3  1  0.18487848  0.03179230  0.05033743  1
  Rb  Rb4  1  0.03179230  0.18487848  0.55033743  1
  Rb  Rb5  1  0.81512152  0.96820770  0.94966257  1
  Rb  Rb6  1  0.31903314  0.47713396  0.45454845  1
  Rb  Rb7  1  0.52286604  0.68096686  0.04545155  1
  Rb  Rb8  1  0.68096686  0.52286604  0.54545155  1
  Rb  Rb9  1  0.47713396  0.31903314  0.95454845  1
  Rb  Rb10  1  0.58950809  0.41049191  0.25000000  1
  Rb  Rb11  1  0.41049191  0.58950809  0.75000000  1
  Rb  Rb12  1  0.67266845  0.16794953  0.45319705  1
  Rb  Rb13  1  0.83205047  0.32733155  0.04680295  1
  Rb  Rb14  1  0.32733155  0.83205047  0.54680295  1
  Rb  Rb15  1  0.16794953  0.67266845  0.95319705  1
  Th  Th16  1  0.26949446  0.73050554  0.25000000  1
  Th  Th17  1  0.73050554  0.26949446  0.75000000  1
  Mo  Mo18  1  0.28722723  0.11512810  0.34236449  1
  Mo  Mo19  1  0.88487190  0.71277277  0.15763551  1
  Mo  Mo20  1  0.71277277  0.88487190  0.65763551  1
  Mo  Mo21  1  0.11512810  0.28722723  0.84236449  1
  Mo  Mo22  1  0.95946948  0.45742135  0.34893619  1
  Mo  Mo23  1  0.54257865  0.04053052  0.15106381  1
  Mo  Mo24  1  0.04053052  0.54257865  0.65106381  1
  Mo  Mo25  1  0.45742135  0.95946948  0.84893619  1
  Mo  Mo26  1  0.59759787  0.78392342  0.35429860  1
  Mo  Mo27  1  0.21607658  0.40240213  0.14570140  1
  Mo  Mo28  1  0.40240213  0.21607658  0.64570140  1
  Mo  Mo29  1  0.78392342  0.59759787  0.85429860  1
  O  O30  1  0.52014116  0.74859997  0.23541038  1
  O  O31  1  0.25140003  0.47985884  0.26458962  1
  O  O32  1  0.47985884  0.25140003  0.76458962  1
  O  O33  1  0.74859997  0.52014116  0.73541038  1
  O  O34  1  0.44980847  0.79768793  0.39431670  1
  O  O35  1  0.20231207  0.55019153  0.10568330  1
  O  O36  1  0.55019153  0.20231207  0.60568330  1
  O  O37  1  0.79768793  0.44980847  0.89431670  1
  O  O38  1  0.61081551  0.63777436  0.39016700  1
  O  O39  1  0.36222564  0.38918449  0.10983300  1
  O  O40  1  0.38918449  0.36222564  0.60983300  1
  O  O41  1  0.63777436  0.61081551  0.89016700  1
  O  O42  1  0.88704464  0.38557467  0.23285890  1
  O  O43  1  0.61442533  0.11295536  0.26714110  1
  O  O44  1  0.11295536  0.61442533  0.76714110  1
  O  O45  1  0.38557467  0.88704464  0.73285890  1
  O  O46  1  0.76369614  0.95087990  0.39396515  1
  O  O47  1  0.04912010  0.23630386  0.10603485  1
  O  O48  1  0.23630386  0.04912010  0.60603485  1
  O  O49  1  0.95087990  0.76369614  0.89396515  1
  O  O50  1  0.12685632  0.63594082  0.36078203  1
  O  O51  1  0.36405918  0.87314368  0.13921797  1
  O  O52  1  0.87314368  0.36405918  0.63921797  1
  O  O53  1  0.63594082  0.12685632  0.86078203  1
  O  O54  1  0.99357383  0.33133556  0.39931226  1
  O  O55  1  0.66866444  0.00642617  0.10068774  1
  O  O56  1  0.00642617  0.66866444  0.60068774  1
  O  O57  1  0.33133556  0.99357383  0.89931226  1
  O  O58  1  0.82816274  0.48004915  0.40014153  1
  O  O59  1  0.51995085  0.17183726  0.09985847  1
  O  O60  1  0.17183726  0.51995085  0.59985847  1
  O  O61  1  0.48004915  0.82816274  0.90014153  1
  O  O62  1  0.25335846  0.15593992  0.23601157  1
  O  O63  1  0.84406008  0.74664154  0.26398843  1
  O  O64  1  0.74664154  0.84406008  0.76398843  1
  O  O65  1  0.15593992  0.25335846  0.73601157  1
  O  O66  1  0.14578417  0.10159905  0.39854337  1
  O  O67  1  0.89840095  0.85421583  0.10145663  1
  O  O68  1  0.85421583  0.89840095  0.60145663  1
  O  O69  1  0.10159905  0.14578417  0.89854337  1
  O  O70  1  0.29265301  0.94297775  0.32965615  1
  O  O71  1  0.05702225  0.70734699  0.17034385  1
  O  O72  1  0.70734699  0.05702225  0.67034385  1
  O  O73  1  0.94297775  0.29265301  0.82965615  1
  O  O74  1  0.45507684  0.26424016  0.40515075  1
  O  O75  1  0.73575984  0.54492316  0.09484925  1
  O  O76  1  0.54492316  0.73575984  0.59484925  1
  O  O77  1  0.26424016  0.45507684  0.90515075  1
