# generated using pymatgen
data_MgSiO3
_symmetry_space_group_name_H-M   'P 1'
_cell_length_a   5.26334574
_cell_length_b   9.06140615
_cell_length_c   9.97843124
_cell_angle_alpha   90.00000000
_cell_angle_beta   111.95855135
_cell_angle_gamma   90.00000000
_symmetry_Int_Tables_number   1
_chemical_formula_structural   MgSiO3
_chemical_formula_sum   'Mg8 Si8 O24'
_cell_volume   441.37977394
_cell_formula_units_Z   8
loop_
 _symmetry_equiv_pos_site_id
 _symmetry_equiv_pos_as_xyz
  1  'x, y, z'
loop_
 _atom_site_type_symbol
 _atom_site_label
 _atom_site_symmetry_multiplicity
 _atom_site_fract_x
 _atom_site_fract_y
 _atom_site_fract_z
 _atom_site_occupancy
  Mg  Mg0  1  0.69552578  0.84393092  0.28074107  1
  Mg  Mg1  1  0.19552578  0.65606908  0.28074107  1
  Mg  Mg2  1  0.34698929  0.50867768  0.76756565  1
  Mg  Mg3  1  0.30447422  0.15606908  0.71925893  1
  Mg  Mg4  1  0.80447422  0.34393092  0.71925893  1
  Mg  Mg5  1  0.65301071  0.49132232  0.23243435  1
  Mg  Mg6  1  0.15301071  0.00867768  0.23243435  1
  Mg  Mg7  1  0.84698929  0.99132232  0.76756565  1
  Si  Si8  1  0.25448459  0.33391010  0.43096765  1
  Si  Si9  1  0.78634788  0.28670608  0.98126008  1
  Si  Si10  1  0.74551541  0.66608990  0.56903235  1
  Si  Si11  1  0.71365212  0.78670608  0.01873992  1
  Si  Si12  1  0.28634788  0.21329392  0.98126008  1
  Si  Si13  1  0.21365212  0.71329392  0.01873992  1
  Si  Si14  1  0.75448459  0.16608990  0.43096765  1
  Si  Si15  1  0.24551541  0.83391010  0.56903235  1
  O  O16  1  0.20582741  0.33045866  0.84640524  1
  O  O17  1  0.61597854  0.65718288  0.39247826  1
  O  O18  1  0.73052826  0.44396351  0.89805414  1
  O  O19  1  0.96802008  0.81175185  0.61755248  1
  O  O20  1  0.79417259  0.66954134  0.15359476  1
  O  O21  1  0.88402146  0.15718288  0.60752174  1
  O  O22  1  0.42868714  0.97119259  0.65222852  1
  O  O23  1  0.23052826  0.05603649  0.89805414  1
  O  O24  1  0.92868714  0.52880741  0.65222852  1
  O  O25  1  0.53197992  0.31175185  0.38244752  1
  O  O26  1  0.39472700  0.73233988  0.91284272  1
  O  O27  1  0.70582741  0.16954134  0.84640524  1
  O  O28  1  0.46802008  0.68824815  0.61755248  1
  O  O29  1  0.03197992  0.18824815  0.38244752  1
  O  O30  1  0.60527300  0.26766012  0.08715728  1
  O  O31  1  0.57131286  0.02880741  0.34777148  1
  O  O32  1  0.38402146  0.34281712  0.60752174  1
  O  O33  1  0.11597854  0.84281712  0.39247826  1
  O  O34  1  0.76947174  0.94396351  0.10194586  1
  O  O35  1  0.29417259  0.83045866  0.15359476  1
  O  O36  1  0.10527300  0.23233988  0.08715728  1
  O  O37  1  0.89472700  0.76766012  0.91284272  1
  O  O38  1  0.07131286  0.47119259  0.34777148  1
  O  O39  1  0.26947174  0.55603649  0.10194586  1
