# generated using pymatgen
data_AgI3O8
_symmetry_space_group_name_H-M   'P 1'
_cell_length_a   8.24278352
_cell_length_b   8.26657957
_cell_length_c   12.04796320
_cell_angle_alpha   90.00000000
_cell_angle_beta   90.00000000
_cell_angle_gamma   90.00000000
_symmetry_Int_Tables_number   1
_chemical_formula_structural   AgI3O8
_chemical_formula_sum   'Ag4 I12 O32'
_cell_volume   820.94370466
_cell_formula_units_Z   4
loop_
 _symmetry_equiv_pos_site_id
 _symmetry_equiv_pos_as_xyz
  1  'x, y, z'
loop_
 _atom_site_type_symbol
 _atom_site_label
 _atom_site_symmetry_multiplicity
 _atom_site_fract_x
 _atom_site_fract_y
 _atom_site_fract_z
 _atom_site_occupancy
  Ag  Ag0  1  0.50000000  0.00000000  0.03275244  1
  Ag  Ag1  1  0.00000000  0.00000000  0.53275244  1
  Ag  Ag2  1  0.50000000  0.50000000  0.00275071  1
  Ag  Ag3  1  -0.00000000  0.50000000  0.50275071  1
  I  I4  1  0.72085150  0.24799296  0.82664067  1
  I  I5  1  0.27914850  0.75200704  0.82664067  1
  I  I6  1  0.22085150  0.75200704  0.32664067  1
  I  I7  1  0.77914850  0.24799296  0.32664067  1
  I  I8  1  -0.00000000  0.00000000  0.95209434  1
  I  I9  1  0.50000000  0.00000000  0.45209434  1
  I  I10  1  0.74541477  0.77138472  0.20797869  1
  I  I11  1  0.25458523  0.22861528  0.20797869  1
  I  I12  1  0.24541477  0.22861528  0.70797869  1
  I  I13  1  0.75458523  0.77138472  0.70797869  1
  I  I14  1  0.00000000  0.50000000  0.07898672  1
  I  I15  1  0.50000000  0.50000000  0.57898672  1
  O  O16  1  0.75995546  0.42571502  0.91229320  1
  O  O17  1  0.24004454  0.57428498  0.91229320  1
  O  O18  1  0.25995546  0.57428498  0.41229320  1
  O  O19  1  0.74004454  0.42571502  0.41229320  1
  O  O20  1  0.50450832  0.23008978  0.85122390  1
  O  O21  1  0.49549168  0.76991022  0.85122390  1
  O  O22  1  0.00450832  0.76991022  0.35122390  1
  O  O23  1  0.99549168  0.23008978  0.35122390  1
  O  O24  1  0.76211306  0.08536439  0.94298920  1
  O  O25  1  0.23788694  0.91463561  0.94298920  1
  O  O26  1  0.26211306  0.91463561  0.44298920  1
  O  O27  1  0.73788694  0.08536439  0.44298920  1
  O  O28  1  0.04805102  0.16728062  0.85679623  1
  O  O29  1  0.95194898  0.83271938  0.85679623  1
  O  O30  1  0.54805102  0.83271938  0.35679623  1
  O  O31  1  0.45194898  0.16728062  0.35679623  1
  O  O32  1  0.56777021  0.73246103  0.12149594  1
  O  O33  1  0.43222979  0.26753897  0.12149594  1
  O  O34  1  0.06777021  0.26753897  0.62149594  1
  O  O35  1  0.93222979  0.73246103  0.62149594  1
  O  O36  1  0.76172006  0.98734018  0.18556308  1
  O  O37  1  0.23827994  0.01265982  0.18556308  1
  O  O38  1  0.26172006  0.01265982  0.68556308  1
  O  O39  1  0.73827994  0.98734018  0.68556308  1
  O  O40  1  0.90845329  0.73310527  0.09058175  1
  O  O41  1  0.09154671  0.26689473  0.09058175  1
  O  O42  1  0.40845329  0.26689473  0.59058175  1
  O  O43  1  0.59154671  0.73310527  0.59058175  1
  O  O44  1  0.83317245  0.44497465  0.17320022  1
  O  O45  1  0.16682755  0.55502535  0.17320022  1
  O  O46  1  0.33317245  0.55502535  0.67320022  1
  O  O47  1  0.66682755  0.44497465  0.67320022  1
