# generated using pymatgen
data_SrV2(CoO4)2
_symmetry_space_group_name_H-M   'P 1'
_cell_length_a   8.50955364
_cell_length_b   9.77896476
_cell_length_c   9.77896476
_cell_angle_alpha   79.08762942
_cell_angle_beta   64.20867615
_cell_angle_gamma   64.20867615
_symmetry_Int_Tables_number   1
_chemical_formula_structural   SrV2(CoO4)2
_chemical_formula_sum   'Sr4 V8 Co8 O32'
_cell_volume   659.70340137
_cell_formula_units_Z   4
loop_
 _symmetry_equiv_pos_site_id
 _symmetry_equiv_pos_as_xyz
  1  'x, y, z'
loop_
 _atom_site_type_symbol
 _atom_site_label
 _atom_site_symmetry_multiplicity
 _atom_site_fract_x
 _atom_site_fract_y
 _atom_site_fract_z
 _atom_site_occupancy
  Sr  Sr0  1  0.74396285  0.50000000  0.50000000  1
  Sr  Sr1  1  0.24396285  0.50000000  0.50000000  1
  Sr  Sr2  1  0.49396285  1.00000000  1.00000000  1
  Sr  Sr3  1  0.99396285  1.00000000  1.00000000  1
  V  V4  1  0.92044112  0.31789482  0.15882191  1
  V  V5  1  0.89715785  0.84117809  0.68210518  1
  V  V6  1  0.48833594  0.65882191  0.18210518  1
  V  V7  1  0.98833594  0.18210518  0.65882191  1
  V  V8  1  0.39715785  0.68210518  0.84117809  1
  V  V9  1  0.42044112  0.15882191  0.31789482  1
  V  V10  1  0.32926303  0.34117809  0.81789482  1
  V  V11  1  0.82926303  0.81789482  0.34117809  1
  Co  Co12  1  0.85803213  0.50251359  0.83589340  1
  Co  Co13  1  0.69643912  0.16410660  0.49748641  1
  Co  Co14  1  0.61054572  0.33589340  0.99748641  1
  Co  Co15  1  0.11054572  0.99748641  0.33589340  1
  Co  Co16  1  0.19643912  0.49748641  0.16410660  1
  Co  Co17  1  0.35803213  0.83589340  0.50251359  1
  Co  Co18  1  0.94392553  0.66410660  0.00251359  1
  Co  Co19  1  0.44392553  0.00251359  0.66410660  1
  O  O20  1  0.89311538  0.85232906  0.86016597  1
  O  O21  1  0.10561040  0.13983403  0.14767094  1
  O  O22  1  0.99544443  0.36016597  0.64767094  1
  O  O23  1  0.49544443  0.64767094  0.36016597  1
  O  O24  1  0.60561040  0.14767094  0.13983403  1
  O  O25  1  0.39311538  0.86016597  0.85232906  1
  O  O26  1  0.00328135  0.63983403  0.35232906  1
  O  O27  1  0.50328135  0.35232906  0.63983403  1
  O  O28  1  0.61202211  0.82617711  0.49026809  1
  O  O29  1  0.42846731  0.50973191  0.17382289  1
  O  O30  1  0.68819922  0.99026809  0.67382289  1
  O  O31  1  0.18819922  0.67382289  0.99026809  1
  O  O32  1  0.92846731  0.17382289  0.50973191  1
  O  O33  1  0.11202211  0.49026809  0.82617711  1
  O  O34  1  0.35229019  0.00973191  0.32617711  1
  O  O35  1  0.85229019  0.32617711  0.00973191  1
  O  O36  1  0.19635857  0.02471344  0.65954169  1
  O  O37  1  0.38061370  0.34045831  0.97528656  1
  O  O38  1  0.47107201  0.15954169  0.47528656  1
  O  O39  1  0.97107201  0.47528656  0.15954169  1
  O  O40  1  0.88061370  0.97528656  0.34045831  1
  O  O41  1  0.69635857  0.65954169  0.02471344  1
  O  O42  1  0.10590026  0.84045831  0.52471344  1
  O  O43  1  0.60590026  0.52471344  0.84045831  1
  O  O44  1  0.88895021  0.67053753  0.67414152  1
  O  O45  1  0.73362926  0.32585848  0.32946247  1
  O  O46  1  0.80948774  0.17414152  0.82946247  1
  O  O47  1  0.30948774  0.82946247  0.17414152  1
  O  O48  1  0.23362926  0.32946247  0.32585848  1
  O  O49  1  0.38895021  0.67414152  0.67053753  1
  O  O50  1  0.81309173  0.82585848  0.17053753  1
  O  O51  1  0.31309173  0.17053753  0.82585848  1
