# generated using pymatgen
data_NaGdH2S2O9
_symmetry_space_group_name_H-M   'P 1'
_cell_length_a   7.02400870
_cell_length_b   7.02400870
_cell_length_c   12.86684487
_cell_angle_alpha   90.00000000
_cell_angle_beta   90.00000000
_cell_angle_gamma   120.00000109
_symmetry_Int_Tables_number   1
_chemical_formula_structural   NaGdH2S2O9
_chemical_formula_sum   'Na3 Gd3 H6 S6 O27'
_cell_volume   549.75953807
_cell_formula_units_Z   3
loop_
 _symmetry_equiv_pos_site_id
 _symmetry_equiv_pos_as_xyz
  1  'x, y, z'
loop_
 _atom_site_type_symbol
 _atom_site_label
 _atom_site_symmetry_multiplicity
 _atom_site_fract_x
 _atom_site_fract_y
 _atom_site_fract_z
 _atom_site_occupancy
  Na  Na0  1  0.47077359  0.47077236  0.66664186  1
  Na  Na1  1  0.52922764  0.00000124  0.99997586  1
  Na  Na2  1  0.99999876  0.52922641  0.33330886  1
  Gd  Gd3  1  0.55881668  0.00000335  0.50000212  1
  Gd  Gd4  1  0.99999665  0.55881333  0.83333612  1
  Gd  Gd5  1  0.44118667  0.44118332  0.16666912  1
  H  H6  1  0.03472209  0.09802164  0.45983008  1
  H  H7  1  0.90197836  0.93670045  0.79316408  1
  H  H8  1  0.06329955  0.96527791  0.12649708  1
  H  H9  1  0.96526403  0.06329491  0.20683661  1
  H  H10  1  0.93670509  0.90196912  0.54017061  1
  H  H11  1  0.09803088  0.03473597  0.87350361  1
  S  S12  1  0.55661033  0.01346615  0.74091187  1
  S  S13  1  0.98653385  0.54314418  0.07424587  1
  S  S14  1  0.45685582  0.44338967  0.40757887  1
  S  S15  1  0.44337744  0.45686405  0.92576207  1
  S  S16  1  0.54313595  0.98651338  0.25909607  1
  S  S17  1  0.01348662  0.55662256  0.59242907  1
  O  O18  1  0.75263782  0.16871694  0.80233063  1
  O  O19  1  0.83128306  0.58392087  0.13566463  1
  O  O20  1  0.41607913  0.24736218  0.46899763  1
  O  O21  1  0.24736746  0.41608279  0.86434216  1
  O  O22  1  0.58391721  0.83128467  0.19767616  1
  O  O23  1  0.16871533  0.75263254  0.53100916  1
  O  O24  1  0.37972553  0.87525928  0.81562376  1
  O  O25  1  0.12474072  0.50446625  0.14895776  1
  O  O26  1  0.49553375  0.62027447  0.48229076  1
  O  O27  1  0.62027580  0.49552484  0.85104349  1
  O  O28  1  0.50447516  0.12475096  0.18437749  1
  O  O29  1  0.87524904  0.37972420  0.51771049  1
  O  O30  1  0.61354320  0.87494717  0.67314479  1
  O  O31  1  0.12505283  0.73859603  0.00647879  1
  O  O32  1  0.26140397  0.38645680  0.33981179  1
  O  O33  1  0.38645285  0.26140177  0.99352719  1
  O  O34  1  0.73859823  0.12505108  0.32686119  1
  O  O35  1  0.87494892  0.61354715  0.66019419  1
  O  O36  1  0.48754745  0.13193828  0.66694224  1
  O  O37  1  0.86806172  0.35560917  0.00027624  1
  O  O38  1  0.64439083  0.51245255  0.33360924  1
  O  O39  1  0.51245266  0.64438386  0.99972687  1
  O  O40  1  0.35561614  0.86806880  0.33306087  1
  O  O41  1  0.13193120  0.48754734  0.66639387  1
  O  O42  1  0.90447140  0.00001054  0.50002928  1
  O  O43  1  0.99998946  0.90446086  0.83336328  1
  O  O44  1  0.09553914  0.09552860  0.16669628  1
