# generated using pymatgen
data_LiCuSO4F
_symmetry_space_group_name_H-M   'P 1'
_cell_length_a   6.16054546
_cell_length_b   7.20905235
_cell_length_c   9.84552484
_cell_angle_alpha   71.48175775
_cell_angle_beta   71.76831661
_cell_angle_gamma   64.70503255
_symmetry_Int_Tables_number   1
_chemical_formula_structural   LiCuSO4F
_chemical_formula_sum   'Li4 Cu4 S4 O16 F4'
_cell_volume   366.77240947
_cell_formula_units_Z   4
loop_
 _symmetry_equiv_pos_site_id
 _symmetry_equiv_pos_as_xyz
  1  'x, y, z'
loop_
 _atom_site_type_symbol
 _atom_site_label
 _atom_site_symmetry_multiplicity
 _atom_site_fract_x
 _atom_site_fract_y
 _atom_site_fract_z
 _atom_site_occupancy
  Li  Li0  1  0.21518932  0.09468101  0.99398330  1
  Li  Li1  1  0.30385362  0.40531899  0.50601670  1
  Li  Li2  1  0.78481068  0.90531899  0.00601670  1
  Li  Li3  1  0.69614638  0.59468101  0.49398330  1
  Cu  Cu4  1  0.74459205  0.04801147  0.66687506  1
  Cu  Cu5  1  0.45947858  0.45198853  0.83312494  1
  Cu  Cu6  1  0.25540795  0.95198853  0.33312494  1
  Cu  Cu7  1  0.54052142  0.54801147  0.16687506  1
  S  S8  1  0.91942766  0.54913306  0.79283079  1
  S  S9  1  0.26139151  0.95086694  0.70716921  1
  S  S10  1  0.08057234  0.45086694  0.20716921  1
  S  S11  1  0.73860849  0.04913306  0.29283079  1
  O  O12  1  0.83773486  0.77368425  0.80268763  1
  O  O13  1  0.41410675  0.72631575  0.69731237  1
  O  O14  1  0.16226514  0.22631575  0.19731237  1
  O  O15  1  0.58589325  0.27368425  0.30268763  1
  O  O16  1  0.14173159  0.42347040  0.85919825  1
  O  O17  1  0.42440023  0.07652960  0.64080175  1
  O  O18  1  0.85826841  0.57652960  0.14080175  1
  O  O19  1  0.57559977  0.92347040  0.35919825  1
  O  O20  1  0.08436099  0.03724331  0.60719185  1
  O  O21  1  0.72879615  0.46275669  0.89280815  1
  O  O22  1  0.91563901  0.96275669  0.39280815  1
  O  O23  1  0.27120385  0.53724331  0.10719185  1
  O  O24  1  0.96671746  0.52912038  0.64232440  1
  O  O25  1  0.13816224  0.97087962  0.85767560  1
  O  O26  1  0.03328254  0.47087962  0.35767560  1
  O  O27  1  0.86183776  0.02912038  0.14232440  1
  F  F28  1  0.61856866  0.34742783  0.60044838  1
  F  F29  1  0.56644487  0.15257217  0.89955162  1
  F  F30  1  0.38143134  0.65257217  0.39955162  1
  F  F31  1  0.43355513  0.84742783  0.10044838  1
