# generated using pymatgen
data_Na2P4Pd3O14
_symmetry_space_group_name_H-M   'P 1'
_cell_length_a   9.69521799
_cell_length_b   9.69521799
_cell_length_c   13.60061660
_cell_angle_alpha   90.00000000
_cell_angle_beta   90.00000000
_cell_angle_gamma   90.00000000
_symmetry_Int_Tables_number   1
_chemical_formula_structural   Na2P4Pd3O14
_chemical_formula_sum   'Na8 P16 Pd12 O56'
_cell_volume   1278.42058419
_cell_formula_units_Z   4
loop_
 _symmetry_equiv_pos_site_id
 _symmetry_equiv_pos_as_xyz
  1  'x, y, z'
loop_
 _atom_site_type_symbol
 _atom_site_label
 _atom_site_symmetry_multiplicity
 _atom_site_fract_x
 _atom_site_fract_y
 _atom_site_fract_z
 _atom_site_occupancy
  Na  Na0  1  0.61398919  0.88601081  0.25000000  1
  Na  Na1  1  0.38601081  0.11398919  0.25000000  1
  Na  Na2  1  0.88601081  0.38601081  0.75000000  1
  Na  Na3  1  0.11398919  0.61398919  0.75000000  1
  Na  Na4  1  0.88601081  0.38601081  0.25000000  1
  Na  Na5  1  0.11398919  0.61398919  0.25000000  1
  Na  Na6  1  0.38601081  0.11398919  0.75000000  1
  Na  Na7  1  0.61398919  0.88601081  0.75000000  1
  P  P8  1  0.65204925  0.22971011  0.10543402  1
  P  P9  1  0.34795075  0.77028989  0.10543402  1
  P  P10  1  0.84795075  0.72971011  0.60543402  1
  P  P11  1  0.15204925  0.27028989  0.60543402  1
  P  P12  1  0.22971011  0.34795075  0.10543402  1
  P  P13  1  0.77028989  0.65204925  0.10543402  1
  P  P14  1  0.72971011  0.15204925  0.60543402  1
  P  P15  1  0.27028989  0.84795075  0.60543402  1
  P  P16  1  0.34795075  0.77028989  0.89456598  1
  P  P17  1  0.65204925  0.22971011  0.89456598  1
  P  P18  1  0.15204925  0.27028989  0.39456598  1
  P  P19  1  0.84795075  0.72971011  0.39456598  1
  P  P20  1  0.77028989  0.65204925  0.89456598  1
  P  P21  1  0.22971011  0.34795075  0.89456598  1
  P  P22  1  0.27028989  0.84795075  0.39456598  1
  P  P23  1  0.72971011  0.15204925  0.39456598  1
  Pd  Pd24  1  0.50000000  0.50000000  0.18344912  1
  Pd  Pd25  1  -0.00000000  0.00000000  0.68344912  1
  Pd  Pd26  1  0.50000000  0.50000000  0.81655088  1
  Pd  Pd27  1  -0.00000000  0.00000000  0.31655088  1
  Pd  Pd28  1  0.68430940  0.94051432  -0.00000000  1
  Pd  Pd29  1  0.31569060  0.05948568  0.00000000  1
  Pd  Pd30  1  0.81569060  0.44051432  0.50000000  1
  Pd  Pd31  1  0.18430940  0.55948568  0.50000000  1
  Pd  Pd32  1  0.94051432  0.31569060  0.00000000  1
  Pd  Pd33  1  0.05948568  0.68430940  -0.00000000  1
  Pd  Pd34  1  0.44051432  0.18430940  0.50000000  1
  Pd  Pd35  1  0.55948568  0.81569060  0.50000000  1
  O  O36  1  0.59176548  0.27983517  0.00000000  1
  O  O37  1  0.40823452  0.72016483  -0.00000000  1
  O  O38  1  0.90823452  0.77983517  0.50000000  1
  O  O39  1  0.09176548  0.22016483  0.50000000  1
  O  O40  1  0.27983517  0.40823452  -0.00000000  1
  O  O41  1  0.72016483  0.59176548  0.00000000  1
  O  O42  1  0.77983517  0.09176548  0.50000000  1
  O  O43  1  0.22016483  0.90823452  0.50000000  1
  O  O44  1  0.63107700  0.07243949  0.11258669  1
  O  O45  1  0.36892300  0.92756051  0.11258669  1
  O  O46  1  0.86892300  0.57243949  0.61258669  1
  O  O47  1  0.13107700  0.42756051  0.61258669  1
  O  O48  1  0.07243949  0.36892300  0.11258669  1
  O  O49  1  0.92756051  0.63107700  0.11258669  1
  O  O50  1  0.57243949  0.13107700  0.61258669  1
  O  O51  1  0.42756051  0.86892300  0.61258669  1
  O  O52  1  0.36892300  0.92756051  0.88741331  1
  O  O53  1  0.63107700  0.07243949  0.88741331  1
  O  O54  1  0.13107700  0.42756051  0.38741331  1
  O  O55  1  0.86892300  0.57243949  0.38741331  1
  O  O56  1  0.92756051  0.63107700  0.88741331  1
  O  O57  1  0.07243949  0.36892300  0.88741331  1
  O  O58  1  0.42756051  0.86892300  0.38741331  1
  O  O59  1  0.57243949  0.13107700  0.38741331  1
  O  O60  1  0.70261605  0.56396772  0.18573289  1
  O  O61  1  0.29738395  0.43603228  0.18573289  1
  O  O62  1  0.79738395  0.06396772  0.68573289  1
  O  O63  1  0.20261605  0.93603228  0.68573289  1
  O  O64  1  0.56396772  0.29738395  0.18573289  1
  O  O65  1  0.43603228  0.70261605  0.18573289  1
  O  O66  1  0.06396772  0.20261605  0.68573289  1
  O  O67  1  0.93603228  0.79738395  0.68573289  1
  O  O68  1  0.29738395  0.43603228  0.81426711  1
  O  O69  1  0.70261605  0.56396772  0.81426711  1
  O  O70  1  0.20261605  0.93603228  0.31426711  1
  O  O71  1  0.79738395  0.06396772  0.31426711  1
  O  O72  1  0.43603228  0.70261605  0.81426711  1
  O  O73  1  0.56396772  0.29738395  0.81426711  1
  O  O74  1  0.93603228  0.79738395  0.31426711  1
  O  O75  1  0.06396772  0.20261605  0.31426711  1
  O  O76  1  0.72416151  0.80370002  0.11043796  1
  O  O77  1  0.27583849  0.19629998  0.11043796  1
  O  O78  1  0.77583849  0.30370002  0.61043796  1
  O  O79  1  0.22416151  0.69629998  0.61043796  1
  O  O80  1  0.80370002  0.27583849  0.11043796  1
  O  O81  1  0.19629998  0.72416151  0.11043796  1
  O  O82  1  0.30370002  0.22416151  0.61043796  1
  O  O83  1  0.69629998  0.77583849  0.61043796  1
  O  O84  1  0.27583849  0.19629998  0.88956204  1
  O  O85  1  0.72416151  0.80370002  0.88956204  1
  O  O86  1  0.22416151  0.69629998  0.38956204  1
  O  O87  1  0.77583849  0.30370002  0.38956204  1
  O  O88  1  0.19629998  0.72416151  0.88956204  1
  O  O89  1  0.80370002  0.27583849  0.88956204  1
  O  O90  1  0.69629998  0.77583849  0.38956204  1
  O  O91  1  0.30370002  0.22416151  0.38956204  1
