# generated using pymatgen
data_Ca(TmS2)2
_symmetry_space_group_name_H-M   'P 1'
_cell_length_a   3.85272737
_cell_length_b   12.85947537
_cell_length_c   13.06720830
_cell_angle_alpha   90.00000000
_cell_angle_beta   90.00000000
_cell_angle_gamma   90.00000000
_symmetry_Int_Tables_number   1
_chemical_formula_structural   Ca(TmS2)2
_chemical_formula_sum   'Ca4 Tm8 S16'
_cell_volume   647.40245694
_cell_formula_units_Z   4
loop_
 _symmetry_equiv_pos_site_id
 _symmetry_equiv_pos_as_xyz
  1  'x, y, z'
loop_
 _atom_site_type_symbol
 _atom_site_label
 _atom_site_symmetry_multiplicity
 _atom_site_fract_x
 _atom_site_fract_y
 _atom_site_fract_z
 _atom_site_occupancy
  Ca  Ca0  1  0.75000000  0.13129952  0.91636083  1
  Ca  Ca1  1  0.75000000  0.63129952  0.58363917  1
  Ca  Ca2  1  0.25000000  0.86870048  0.08363917  1
  Ca  Ca3  1  0.25000000  0.36870048  0.41636083  1
  Tm  Tm4  1  0.75000000  0.39272042  0.08318796  1
  Tm  Tm5  1  0.75000000  0.89272042  0.41681204  1
  Tm  Tm6  1  0.25000000  0.60727958  0.91681204  1
  Tm  Tm7  1  0.25000000  0.10727958  0.58318796  1
  Tm  Tm8  1  0.75000000  0.35316816  0.70247630  1
  Tm  Tm9  1  0.75000000  0.85316816  0.79752370  1
  Tm  Tm10  1  0.25000000  0.64683184  0.29752370  1
  Tm  Tm11  1  0.25000000  0.14683184  0.20247630  1
  S  S12  1  0.75000000  0.28285372  0.26194187  1
  S  S13  1  0.75000000  0.78285372  0.23805813  1
  S  S14  1  0.25000000  0.71714628  0.73805813  1
  S  S15  1  0.25000000  0.21714628  0.76194187  1
  S  S16  1  0.75000000  0.24178826  0.52667403  1
  S  S17  1  0.75000000  0.74178826  0.97332597  1
  S  S18  1  0.25000000  0.75821174  0.47332597  1
  S  S19  1  0.25000000  0.25821174  0.02667403  1
  S  S20  1  0.75000000  0.03090514  0.11806014  1
  S  S21  1  0.75000000  0.53090514  0.38193986  1
  S  S22  1  0.25000000  0.96909486  0.88193986  1
  S  S23  1  0.25000000  0.46909486  0.61806014  1
  S  S24  1  0.75000000  0.46650089  0.88209630  1
  S  S25  1  0.75000000  0.96650089  0.61790370  1
  S  S26  1  0.25000000  0.53349911  0.11790370  1
  S  S27  1  0.25000000  0.03349911  0.38209630  1
