# generated using pymatgen
data_Hf3NiSb7
_symmetry_space_group_name_H-M   'P 1'
_cell_length_a   3.95225540
_cell_length_b   14.54529938
_cell_length_c   17.50153752
_cell_angle_alpha   90.00000000
_cell_angle_beta   90.00000000
_cell_angle_gamma   90.00000000
_symmetry_Int_Tables_number   1
_chemical_formula_structural   Hf3NiSb7
_chemical_formula_sum   'Hf12 Ni4 Sb28'
_cell_volume   1006.10630235
_cell_formula_units_Z   4
loop_
 _symmetry_equiv_pos_site_id
 _symmetry_equiv_pos_as_xyz
  1  'x, y, z'
loop_
 _atom_site_type_symbol
 _atom_site_label
 _atom_site_symmetry_multiplicity
 _atom_site_fract_x
 _atom_site_fract_y
 _atom_site_fract_z
 _atom_site_occupancy
  Hf  Hf0  1  0.25000000  0.30972358  0.84703722  1
  Hf  Hf1  1  0.25000000  0.19027642  0.34703722  1
  Hf  Hf2  1  0.75000000  0.69027642  0.15296278  1
  Hf  Hf3  1  0.75000000  0.80972358  0.65296278  1
  Hf  Hf4  1  0.25000000  0.02841038  0.87057455  1
  Hf  Hf5  1  0.25000000  0.47158962  0.37057455  1
  Hf  Hf6  1  0.75000000  0.97158962  0.12942545  1
  Hf  Hf7  1  0.75000000  0.52841038  0.62942545  1
  Hf  Hf8  1  0.25000000  0.59031858  0.89293018  1
  Hf  Hf9  1  0.25000000  0.90968142  0.39293018  1
  Hf  Hf10  1  0.75000000  0.40968142  0.10706982  1
  Hf  Hf11  1  0.75000000  0.09031858  0.60706982  1
  Ni  Ni12  1  0.25000000  0.81079113  0.93689234  1
  Ni  Ni13  1  0.25000000  0.68920887  0.43689234  1
  Ni  Ni14  1  0.75000000  0.18920887  0.06310766  1
  Ni  Ni15  1  0.75000000  0.31079113  0.56310766  1
  Sb  Sb16  1  0.25000000  0.20190488  0.52161478  1
  Sb  Sb17  1  0.25000000  0.29809512  0.02161478  1
  Sb  Sb18  1  0.75000000  0.79809512  0.47838522  1
  Sb  Sb19  1  0.75000000  0.70190488  0.97838522  1
  Sb  Sb20  1  0.25000000  0.42419386  0.53757640  1
  Sb  Sb21  1  0.25000000  0.07580614  0.03757640  1
  Sb  Sb22  1  0.75000000  0.57580614  0.46242360  1
  Sb  Sb23  1  0.75000000  0.92419386  0.96242360  1
  Sb  Sb24  1  0.25000000  0.93988090  0.57142284  1
  Sb  Sb25  1  0.25000000  0.56011910  0.07142284  1
  Sb  Sb26  1  0.75000000  0.06011910  0.42857716  1
  Sb  Sb27  1  0.75000000  0.43988090  0.92857716  1
  Sb  Sb28  1  0.25000000  0.67492493  0.59278078  1
  Sb  Sb29  1  0.25000000  0.82507507  0.09278078  1
  Sb  Sb30  1  0.75000000  0.32507507  0.40721922  1
  Sb  Sb31  1  0.75000000  0.17492493  0.90721922  1
  Sb  Sb32  1  0.25000000  0.14577886  0.72826369  1
  Sb  Sb33  1  0.25000000  0.35422114  0.22826369  1
  Sb  Sb34  1  0.75000000  0.85422114  0.27173631  1
  Sb  Sb35  1  0.75000000  0.64577886  0.77173631  1
  Sb  Sb36  1  0.25000000  0.47892045  0.74855236  1
  Sb  Sb37  1  0.25000000  0.02107955  0.24855236  1
  Sb  Sb38  1  0.75000000  0.52107955  0.25144764  1
  Sb  Sb39  1  0.75000000  0.97892045  0.75144764  1
  Sb  Sb40  1  0.25000000  0.81606071  0.78956176  1
  Sb  Sb41  1  0.25000000  0.68393929  0.28956176  1
  Sb  Sb42  1  0.75000000  0.18393929  0.21043824  1
  Sb  Sb43  1  0.75000000  0.31606071  0.71043824  1
