# generated using pymatgen
data_Al2Si2PbO8
_symmetry_space_group_name_H-M   'P 1'
_cell_length_a   8.48956460
_cell_length_b   9.37509846
_cell_length_c   9.37509846
_cell_angle_alpha   89.63704098
_cell_angle_beta   82.94423475
_cell_angle_gamma   82.94423475
_symmetry_Int_Tables_number   1
_chemical_formula_structural   Al2Si2PbO8
_chemical_formula_sum   'Al8 Si8 Pb4 O32'
_cell_volume   734.88120416
_cell_formula_units_Z   4
loop_
 _symmetry_equiv_pos_site_id
 _symmetry_equiv_pos_as_xyz
  1  'x, y, z'
loop_
 _atom_site_type_symbol
 _atom_site_label
 _atom_site_symmetry_multiplicity
 _atom_site_fract_x
 _atom_site_fract_y
 _atom_site_fract_z
 _atom_site_occupancy
  Al  Al0  1  0.11264955  0.06298266  0.70423901  1
  Al  Al1  1  0.61264955  0.20423901  0.56298266  1
  Al  Al2  1  0.88735045  0.93701734  0.29576099  1
  Al  Al3  1  0.38735045  0.79576099  0.43701734  1
  Al  Al4  1  0.97728237  0.44824248  0.20738962  1
  Al  Al5  1  0.47728237  0.70738962  0.94824248  1
  Al  Al6  1  0.02271763  0.55175752  0.79261038  1
  Al  Al7  1  0.52271763  0.29261038  0.05175752  1
  Si  Si8  1  0.60267440  0.56705670  0.21432735  1
  Si  Si9  1  0.10267440  0.71432735  0.06705670  1
  Si  Si10  1  0.39732560  0.43294330  0.78567265  1
  Si  Si11  1  0.89732560  0.28567265  0.93294330  1
  Si  Si12  1  0.48559879  0.94014938  0.71338770  1
  Si  Si13  1  0.98559879  0.21338770  0.44014938  1
  Si  Si14  1  0.51440121  0.05985062  0.28661230  1
  Si  Si15  1  0.01440121  0.78661230  0.55985062  1
  Pb  Pb16  1  0.30368509  0.42088814  0.43197340  1
  Pb  Pb17  1  0.80368509  0.93197340  0.92088814  1
  Pb  Pb18  1  0.69631491  0.57911186  0.56802660  1
  Pb  Pb19  1  0.19631491  0.06802660  0.07911186  1
  O  O20  1  0.49881290  0.63371488  0.36607103  1
  O  O21  1  0.99881290  0.86607103  0.13371488  1
  O  O22  1  0.50118710  0.36628512  0.63392897  1
  O  O23  1  0.00118710  0.13392897  0.86628512  1
  O  O24  1  0.05027907  0.35386439  0.35481902  1
  O  O25  1  0.55027907  0.85481902  0.85386439  1
  O  O26  1  0.94972093  0.64613561  0.64518098  1
  O  O27  1  0.44972093  0.14518098  0.14613561  1
  O  O28  1  0.30213001  0.01348322  0.75538606  1
  O  O29  1  0.80213001  0.25538606  0.51348322  1
  O  O30  1  0.69786999  0.98651678  0.24461394  1
  O  O31  1  0.19786999  0.74461394  0.48651678  1
  O  O32  1  0.77989812  0.52108140  0.26118288  1
  O  O33  1  0.27989812  0.76118288  0.02108140  1
  O  O34  1  0.22010188  0.47891860  0.73881712  1
  O  O35  1  0.72010188  0.23881712  0.97891860  1
  O  O36  1  0.11095467  0.17727896  0.55742222  1
  O  O37  1  0.61095467  0.05742222  0.67727896  1
  O  O38  1  0.88904533  0.82272104  0.44257778  1
  O  O39  1  0.38904533  0.94257778  0.32272104  1
  O  O40  1  0.60609764  0.67616999  0.08010957  1
  O  O41  1  0.10609764  0.58010957  0.17616999  1
  O  O42  1  0.39390236  0.32383001  0.91989043  1
  O  O43  1  0.89390236  0.41989043  0.82383001  1
  O  O44  1  0.00425098  0.91628324  0.67936411  1
  O  O45  1  0.50425098  0.17936411  0.41628324  1
  O  O46  1  0.99574902  0.08371676  0.32063589  1
  O  O47  1  0.49574902  0.82063589  0.58371676  1
  O  O48  1  0.50839897  0.42983175  0.18165340  1
  O  O49  1  0.00839897  0.68165340  0.92983175  1
  O  O50  1  0.49160103  0.57016825  0.81834660  1
  O  O51  1  0.99160103  0.31834660  0.07016825  1
