# generated using pymatgen
data_Eu(ErSe2)2
_symmetry_space_group_name_H-M   'P 1'
_cell_length_a   4.11392081
_cell_length_b   12.51148862
_cell_length_c   14.85517814
_cell_angle_alpha   90.00000000
_cell_angle_beta   90.00000000
_cell_angle_gamma   90.00000000
_symmetry_Int_Tables_number   1
_chemical_formula_structural   Eu(ErSe2)2
_chemical_formula_sum   'Eu4 Er8 Se16'
_cell_volume   764.61493542
_cell_formula_units_Z   4
loop_
 _symmetry_equiv_pos_site_id
 _symmetry_equiv_pos_as_xyz
  1  'x, y, z'
loop_
 _atom_site_type_symbol
 _atom_site_label
 _atom_site_symmetry_multiplicity
 _atom_site_fract_x
 _atom_site_fract_y
 _atom_site_fract_z
 _atom_site_occupancy
  Eu  Eu0  1  0.75000000  0.74068273  0.16525228  1
  Eu  Eu1  1  0.75000000  0.24068273  0.33474772  1
  Eu  Eu2  1  0.25000000  0.25931727  0.83474772  1
  Eu  Eu3  1  0.25000000  0.75931727  0.66525228  1
  Er  Er4  1  0.75000000  0.08241618  0.59795816  1
  Er  Er5  1  0.75000000  0.58241618  0.90204184  1
  Er  Er6  1  0.25000000  0.91758382  0.40204184  1
  Er  Er7  1  0.25000000  0.41758382  0.09795816  1
  Er  Er8  1  0.75000000  0.06338259  0.11073797  1
  Er  Er9  1  0.75000000  0.56338259  0.38926203  1
  Er  Er10  1  0.25000000  0.93661741  0.88926203  1
  Er  Er11  1  0.25000000  0.43661741  0.61073797  1
  Se  Se12  1  0.75000000  0.29399432  0.67339283  1
  Se  Se13  1  0.75000000  0.79399432  0.82660717  1
  Se  Se14  1  0.25000000  0.70600568  0.32660717  1
  Se  Se15  1  0.25000000  0.20600568  0.17339283  1
  Se  Se16  1  0.75000000  0.36924586  0.96935209  1
  Se  Se17  1  0.75000000  0.86924586  0.53064791  1
  Se  Se18  1  0.25000000  0.63075414  0.03064791  1
  Se  Se19  1  0.25000000  0.13075414  0.46935209  1
  Se  Se20  1  0.75000000  0.97391394  0.28446279  1
  Se  Se21  1  0.75000000  0.47391394  0.21553721  1
  Se  Se22  1  0.25000000  0.02608606  0.71553721  1
  Se  Se23  1  0.25000000  0.52608606  0.78446279  1
  Se  Se24  1  0.75000000  0.09060335  0.92193385  1
  Se  Se25  1  0.75000000  0.59060335  0.57806615  1
  Se  Se26  1  0.25000000  0.90939665  0.07806615  1
  Se  Se27  1  0.25000000  0.40939665  0.42193385  1
