# generated using pymatgen
data_As2S2O9
_symmetry_space_group_name_H-M   'P 1'
_cell_length_a   6.86536440
_cell_length_b   6.86768013
_cell_length_c   17.48025998
_cell_angle_alpha   90.00000000
_cell_angle_beta   95.25886330
_cell_angle_gamma   90.00000000
_symmetry_Int_Tables_number   1
_chemical_formula_structural   As2S2O9
_chemical_formula_sum   'As8 S8 O36'
_cell_volume   820.70982604
_cell_formula_units_Z   4
loop_
 _symmetry_equiv_pos_site_id
 _symmetry_equiv_pos_as_xyz
  1  'x, y, z'
loop_
 _atom_site_type_symbol
 _atom_site_label
 _atom_site_symmetry_multiplicity
 _atom_site_fract_x
 _atom_site_fract_y
 _atom_site_fract_z
 _atom_site_occupancy
  As  As0  1  0.99703758  0.98511543  0.50248410  1
  As  As1  1  0.99703758  0.01488457  0.00248410  1
  As  As2  1  0.88536355  0.12956848  0.66783756  1
  As  As3  1  0.88536355  0.87043152  0.16783756  1
  As  As4  1  0.51486597  0.62612495  0.75932886  1
  As  As5  1  0.51486597  0.37387505  0.25932886  1
  As  As6  1  0.40499933  0.48482099  0.92522951  1
  As  As7  1  0.40499933  0.51517901  0.42522951  1
  S  S8  1  0.55054174  0.02284479  0.53356041  1
  S  S9  1  0.55054174  0.97715521  0.03356041  1
  S  S10  1  0.97576599  0.67801237  0.64112870  1
  S  S11  1  0.97576599  0.32198763  0.14112870  1
  S  S12  1  0.85077562  0.53047835  0.89251784  1
  S  S13  1  0.85077562  0.46952165  0.39251784  1
  S  S14  1  0.42562311  0.17547615  0.78857069  1
  S  S15  1  0.42562311  0.82452385  0.28857069  1
  O  O16  1  0.02849568  0.13307250  0.58697055  1
  O  O17  1  0.02849568  0.86692750  0.08697055  1
  O  O18  1  0.36959075  0.62853640  0.83949930  1
  O  O19  1  0.36959075  0.37146360  0.33949930  1
  O  O20  1  0.72427694  0.01022023  0.48149426  1
  O  O21  1  0.72427694  0.98977977  0.98149426  1
  O  O22  1  0.63497574  0.11652800  0.61045570  1
  O  O23  1  0.63497574  0.88347200  0.11045570  1
  O  O24  1  0.41149515  0.16012742  0.49689722  1
  O  O25  1  0.41149515  0.83987258  0.99689722  1
  O  O26  1  0.47784144  0.83053963  0.54746545  1
  O  O27  1  0.47784144  0.16946037  0.04746545  1
  O  O28  1  0.98164900  0.74174268  0.55585706  1
  O  O29  1  0.98164900  0.25825732  0.05585706  1
  O  O30  1  0.90023905  0.85653850  0.68514935  1
  O  O31  1  0.90023905  0.14346150  0.18514935  1
  O  O32  1  0.82759536  0.52837207  0.64300836  1
  O  O33  1  0.82759536  0.47162793  0.14300836  1
  O  O34  1  0.17072166  0.62872775  0.67271208  1
  O  O35  1  0.17072166  0.37127225  0.17271208  1
  O  O36  1  0.76373872  0.63451637  0.81835883  1
  O  O37  1  0.76373872  0.36548363  0.31835883  1
  O  O38  1  0.67812935  0.51187497  0.94492944  1
  O  O39  1  0.67812935  0.48812503  0.44492944  1
  O  O40  1  0.99178755  0.66144755  0.93173586  1
  O  O41  1  0.99178755  0.33855245  0.43173586  1
  O  O42  1  0.92198490  0.33957818  0.87450626  1
  O  O43  1  0.92198490  0.66042182  0.37450626  1
  O  O44  1  0.52134527  0.34924354  0.74815896  1
  O  O45  1  0.52134527  0.65075646  0.24815896  1
  O  O46  1  0.41268889  0.23902985  0.87357914  1
  O  O47  1  0.41268889  0.76097015  0.37357914  1
  O  O48  1  0.56495887  0.01704662  0.78842776  1
  O  O49  1  0.56495887  0.98295338  0.28842776  1
  O  O50  1  0.23101279  0.13923698  0.75353672  1
  O  O51  1  0.23101279  0.86076302  0.25353672  1
