# generated using pymatgen
data_SiC
_symmetry_space_group_name_H-M   'P 1'
_cell_length_a   3.09206746
_cell_length_b   3.09206746
_cell_length_c   43.05838988
_cell_angle_alpha   87.94232246
_cell_angle_beta   87.94232246
_cell_angle_gamma   60.00000134
_symmetry_Int_Tables_number   1
_chemical_formula_structural   SiC
_chemical_formula_sum   'Si17 C17'
_cell_volume   356.21545538
_cell_formula_units_Z   17
loop_
 _symmetry_equiv_pos_site_id
 _symmetry_equiv_pos_as_xyz
  1  'x, y, z'
loop_
 _atom_site_type_symbol
 _atom_site_label
 _atom_site_symmetry_multiplicity
 _atom_site_fract_x
 _atom_site_fract_y
 _atom_site_fract_z
 _atom_site_occupancy
  Si  Si0  1  0.99992333  0.99992333  0.00023001  1
  Si  Si1  1  0.94104927  0.94104927  0.17685218  1
  Si  Si2  1  0.86277489  0.86277489  0.41167532  1
  Si  Si3  1  0.78435935  0.78435935  0.64692195  1
  Si  Si4  1  0.70577532  0.70577532  0.88267405  1
  Si  Si5  1  0.62738289  0.62738289  0.11785132  1
  Si  Si6  1  0.58816597  0.58816597  0.23550208  1
  Si  Si7  1  0.54907179  0.54907179  0.35278463  1
  Si  Si8  1  0.50985600  0.50985600  0.47043199  1
  Si  Si9  1  0.47066129  0.47066129  0.58801614  1
  Si  Si10  1  0.43138498  0.43138498  0.70584506  1
  Si  Si11  1  0.39207786  0.39207786  0.82376643  1
  Si  Si12  1  0.35285621  0.35285621  0.94143137  1
  Si  Si13  1  0.31365745  0.31365745  0.05902765  1
  Si  Si14  1  0.23534018  0.23534018  0.29397947  1
  Si  Si15  1  0.15692275  0.15692275  0.52923175  1
  Si  Si16  1  0.07840761  0.07840761  0.76477717  1
  C  C17  1  0.98518825  0.98518825  0.04443524  1
  C  C18  1  0.92629648  0.92629648  0.22111056  1
  C  C19  1  0.84804858  0.84804858  0.45585425  1
  C  C20  1  0.76957777  0.76957777  0.69126670  1
  C  C21  1  0.69104907  0.69104907  0.92685278  1
  C  C22  1  0.61264304  0.61264304  0.16207087  1
  C  C23  1  0.57352756  0.57352756  0.27941731  1
  C  C24  1  0.53435223  0.53435223  0.39694331  1
  C  C25  1  0.49516931  0.49516931  0.51449206  1
  C  C26  1  0.45594706  0.45594706  0.63215882  1
  C  C27  1  0.41665052  0.41665052  0.75004844  1
  C  C28  1  0.37735205  0.37735205  0.86794384  1
  C  C29  1  0.33816884  0.33816884  0.98549349  1
  C  C30  1  0.29894025  0.29894025  0.10317925  1
  C  C31  1  0.22060917  0.22060917  0.33817248  1
  C  C32  1  0.14219009  0.14219009  0.57342972  1
  C  C33  1  0.06362256  0.06362256  0.80913232  1
