# generated using pymatgen
data_Ce18C18Cl11
_symmetry_space_group_name_H-M   'P 1'
_cell_length_a   6.65326158
_cell_length_b   7.61458699
_cell_length_c   18.74649021
_cell_angle_alpha   89.15033572
_cell_angle_beta   80.65995292
_cell_angle_gamma   75.75752948
_symmetry_Int_Tables_number   1
_chemical_formula_structural   Ce18C18Cl11
_chemical_formula_sum   'Ce18 C18 Cl11'
_cell_volume   908.02311955
_cell_formula_units_Z   1
loop_
 _symmetry_equiv_pos_site_id
 _symmetry_equiv_pos_as_xyz
  1  'x, y, z'
loop_
 _atom_site_type_symbol
 _atom_site_label
 _atom_site_symmetry_multiplicity
 _atom_site_fract_x
 _atom_site_fract_y
 _atom_site_fract_z
 _atom_site_occupancy
  Ce  Ce0  1  0.90876819  0.14683452  0.93953910  1
  Ce  Ce1  1  0.09123181  0.85316548  0.06046090  1
  Ce  Ce2  1  0.12909574  0.18611954  0.50963162  1
  Ce  Ce3  1  0.87090426  0.81388046  0.49036838  1
  Ce  Ce4  1  0.56997819  0.12093692  0.61386925  1
  Ce  Ce5  1  0.43002181  0.87906308  0.38613075  1
  Ce  Ce6  1  0.30854637  0.75181766  0.59960788  1
  Ce  Ce7  1  0.69145363  0.24818234  0.40039212  1
  Ce  Ce8  1  0.00175296  0.05707183  0.72665545  1
  Ce  Ce9  1  0.99824704  0.94292817  0.27334455  1
  Ce  Ce10  1  0.63275240  0.77896208  0.95450725  1
  Ce  Ce11  1  0.36724760  0.22103792  0.04549275  1
  Ce  Ce12  1  0.45137964  0.06696556  0.82677810  1
  Ce  Ce13  1  0.54862036  0.93303444  0.17322190  1
  Ce  Ce14  1  0.17408581  0.69854062  0.84605051  1
  Ce  Ce15  1  0.82591419  0.30145938  0.15394949  1
  Ce  Ce16  1  0.74086073  0.68814545  0.70911596  1
  Ce  Ce17  1  0.25913927  0.31185455  0.29088404  1
  C  C18  1  0.46171872  0.93427596  0.52071505  1
  C  C19  1  0.53828128  0.06572404  0.47928495  1
  C  C20  1  0.25686248  0.89274012  0.92362069  1
  C  C21  1  0.74313752  0.10725988  0.07637931  1
  C  C22  1  0.41239095  0.94209616  0.69674704  1
  C  C23  1  0.58760905  0.05790384  0.30325296  1
  C  C24  1  0.70754623  0.97124324  0.03480791  1
  C  C25  1  0.29245377  0.02875676  0.96519209  1
  C  C26  1  0.90083217  0.86827015  0.62970657  1
  C  C27  1  0.09916783  0.13172985  0.37029343  1
  C  C28  1  0.80644049  0.83443995  0.80681431  1
  C  C29  1  0.19355951  0.16556005  0.19318569  1
  C  C30  1  0.97822289  0.99830462  0.58820683  1
  C  C31  1  0.02177711  0.00169538  0.41179317  1
  C  C32  1  0.83370811  0.95555818  0.85688209  1
  C  C33  1  0.16629189  0.04444182  0.14311791  1
  C  C34  1  0.33557796  0.82896780  0.74740365  1
  C  C35  1  0.66442204  0.17103220  0.25259635  1
  Cl  Cl36  1  0.06119759  0.34543690  0.81825604  1
  Cl  Cl37  1  0.93880241  0.65456310  0.18174396  1
  Cl  Cl38  1  0.52142261  0.40844906  0.91280644  1
  Cl  Cl39  1  0.47857739  0.59155094  0.08719356  1
  Cl  Cl40  1  0.15628757  0.39153551  0.63842728  1
  Cl  Cl41  1  0.84371243  0.60846449  0.36157272  1
  Cl  Cl42  1  -0.00000000  0.50000000  -0.00000000  1
  Cl  Cl43  1  0.60347242  0.33965383  0.73290034  1
  Cl  Cl44  1  0.39652758  0.66034617  0.26709966  1
  Cl  Cl45  1  0.71746845  0.46092069  0.54550990  1
  Cl  Cl46  1  0.28253155  0.53907931  0.45449010  1
