# generated using pymatgen
data_Ce2H16S3O20
_symmetry_space_group_name_H-M   'P 1'
_cell_length_a   6.90179105
_cell_length_b   6.95742069
_cell_length_c   17.53017050
_cell_angle_alpha   90.00000000
_cell_angle_beta   90.00000000
_cell_angle_gamma   93.78072987
_symmetry_Int_Tables_number   1
_chemical_formula_structural   Ce2H16S3O20
_chemical_formula_sum   'Ce4 H32 S6 O40'
_cell_volume   839.94341022
_cell_formula_units_Z   2
loop_
 _symmetry_equiv_pos_site_id
 _symmetry_equiv_pos_as_xyz
  1  'x, y, z'
loop_
 _atom_site_type_symbol
 _atom_site_label
 _atom_site_symmetry_multiplicity
 _atom_site_fract_x
 _atom_site_fract_y
 _atom_site_fract_z
 _atom_site_occupancy
  Ce  Ce0  1  0.01498204  0.67024682  0.61810361  1
  Ce  Ce1  1  0.51498204  0.17024682  0.38189639  1
  Ce  Ce2  1  0.51104920  0.12528835  0.88214826  1
  Ce  Ce3  1  0.01104920  0.62528835  0.11785174  1
  H  H4  1  0.60733580  0.81480725  0.62977618  1
  H  H5  1  0.10733580  0.31480725  0.37022382  1
  H  H6  1  0.54734335  0.59608183  0.64758581  1
  H  H7  1  0.04734335  0.09608183  0.35241419  1
  H  H8  1  0.86554570  0.38110372  0.74387232  1
  H  H9  1  0.36554570  0.88110372  0.25612768  1
  H  H10  1  0.01164669  0.51008106  0.79370127  1
  H  H11  1  0.51164669  0.01008106  0.20629873  1
  H  H12  1  0.72243507  0.59438449  0.47328358  1
  H  H13  1  0.22243507  0.09438449  0.52671642  1
  H  H14  1  0.94177752  0.61257938  0.44479698  1
  H  H15  1  0.44177752  0.11257938  0.55520302  1
  H  H16  1  0.28967742  0.34942634  0.68464048  1
  H  H17  1  0.78967742  0.84942634  0.31535952  1
  H  H18  1  0.32368258  0.36833305  0.59617660  1
  H  H19  1  0.82368258  0.86833305  0.40382340  1
  H  H20  1  0.35849858  0.51460492  0.85853490  1
  H  H21  1  0.85849858  0.01460492  0.14146510  1
  H  H22  1  0.58128905  0.58885709  0.85414057  1
  H  H23  1  0.08128905  0.08885709  0.14585943  1
  H  H24  1  0.82842997  0.08128548  0.75671279  1
  H  H25  1  0.32842997  0.58128548  0.24328721  1
  H  H26  1  0.65688495  0.13730021  0.70498990  1
  H  H27  1  0.15688495  0.63730021  0.29501010  1
  H  H28  1  0.80595004  0.80536532  0.91186553  1
  H  H29  1  0.30595004  0.30536532  0.08813447  1
  H  H30  1  0.83174211  0.82769286  0.82372079  1
  H  H31  1  0.33174211  0.32769286  0.17627921  1
  H  H32  1  0.59885486  0.41562479  0.02752633  1
  H  H33  1  0.09885486  0.91562479  0.97247367  1
  H  H34  1  0.57961369  0.19813925  0.05563675  1
  H  H35  1  0.07961369  0.69813925  0.94436325  1
  S  S36  1  0.21732329  0.95440177  0.75154558  1
  S  S37  1  0.71732329  0.45440177  0.24845442  1
  S  S38  1  0.02890415  0.31750541  0.93618682  1
  S  S39  1  0.52890415  0.81750541  0.06381318  1
  S  S40  1  0.32299561  0.65387808  0.43744289  1
  S  S41  1  0.82299561  0.15387808  0.56255711  1
  O  O42  1  0.66028029  0.68882375  0.63865797  1
  O  O43  1  0.16028029  0.18882375  0.36134203  1
  O  O44  1  0.95355052  0.49934483  0.74216924  1
  O  O45  1  0.45355052  -0.00065517  0.25783076  1
  O  O46  1  0.84859296  0.66669595  0.48110500  1
  O  O47  1  0.34859296  0.16669595  0.51889500  1
  O  O48  1  0.31333729  0.44545792  0.64322840  1
  O  O49  1  0.81333729  0.94545792  0.35677160  1
  O  O50  1  0.49128828  0.47147900  0.85341243  1
  O  O51  1  0.99128828  0.97147900  0.14658757  1
  O  O52  1  0.71185699  0.15883467  0.75698020  1
  O  O53  1  0.21185699  0.65883467  0.24301980  1
  O  O54  1  0.73107783  0.81235974  0.86388165  1
  O  O55  1  0.23107783  0.31235974  0.13611835  1
  O  O56  1  0.52650133  0.29053076  0.01911730  1
  O  O57  1  0.02650133  0.79053076  0.98088270  1
  O  O58  1  0.28797340  0.86963589  0.67940767  1
  O  O59  1  0.78797340  0.36963589  0.32059233  1
  O  O60  1  0.00014521  0.91849269  0.74952104  1
  O  O61  1  0.50014521  0.41849269  0.25047896  1
  O  O62  1  0.27762132  0.16337963  0.75800092  1
  O  O63  1  0.77762132  0.66337963  0.24199908  1
  O  O64  1  0.30099868  0.86014979  0.81943481  1
  O  O65  1  0.80099868  0.36014979  0.18056519  1
  O  O66  1  0.17674991  0.16993761  0.93556630  1
  O  O67  1  0.67674991  0.66993761  0.06443370  1
  O  O68  1  0.09904084  0.48709159  0.88885061  1
  O  O69  1  0.59904084  0.98709159  0.11114939  1
  O  O70  1  0.84500098  0.22986661  0.90458454  1
  O  O71  1  0.34500098  0.72986661  0.09541546  1
  O  O72  1  0.49565531  0.88241154  0.98446682  1
  O  O73  1  0.99565531  0.38241154  0.01553318  1
  O  O74  1  0.26517419  0.68041189  0.51813470  1
  O  O75  1  0.76517419  0.18041189  0.48186530  1
  O  O76  1  0.40197831  0.84040991  0.40600563  1
  O  O77  1  0.90197831  0.34040991  0.59399437  1
  O  O78  1  0.14818861  0.58266208  0.39236041  1
  O  O79  1  0.64818861  0.08266208  0.60763959  1
  O  O80  1  0.97464609  0.01121666  0.56799572  1
  O  O81  1  0.47464609  0.51121666  0.43200428  1
