# generated using pymatgen
data_Cr2P4Pb3O16
_symmetry_space_group_name_H-M   'P 1'
_cell_length_a   9.09065207
_cell_length_b   9.13841731
_cell_length_c   9.42169563
_cell_angle_alpha   90.00000000
_cell_angle_beta   116.90442964
_cell_angle_gamma   90.00000000
_symmetry_Int_Tables_number   1
_chemical_formula_structural   Cr2P4Pb3O16
_chemical_formula_sum   'Cr4 P8 Pb6 O32'
_cell_volume   697.98215881
_cell_formula_units_Z   2
loop_
 _symmetry_equiv_pos_site_id
 _symmetry_equiv_pos_as_xyz
  1  'x, y, z'
loop_
 _atom_site_type_symbol
 _atom_site_label
 _atom_site_symmetry_multiplicity
 _atom_site_fract_x
 _atom_site_fract_y
 _atom_site_fract_z
 _atom_site_occupancy
  Cr  Cr0  1  0.24797301  0.86875549  0.74537167  1
  Cr  Cr1  1  0.75202699  0.36875549  0.75462833  1
  Cr  Cr2  1  0.75202699  0.13124451  0.25462833  1
  Cr  Cr3  1  0.24797301  0.63124451  0.24537167  1
  P  P4  1  0.57545325  0.41098056  0.35847978  1
  P  P5  1  0.42454675  0.91098056  0.14152022  1
  P  P6  1  0.42454675  0.58901944  0.64152022  1
  P  P7  1  0.57545325  0.08901944  0.85847978  1
  P  P8  1  0.98089673  0.36123288  0.15488782  1
  P  P9  1  0.01910327  0.86123288  0.34511218  1
  P  P10  1  0.01910327  0.63876712  0.84511218  1
  P  P11  1  0.98089673  0.13876712  0.65488782  1
  Pb  Pb12  1  0.30054931  0.29187118  0.03103891  1
  Pb  Pb13  1  0.69945069  0.79187118  0.46896109  1
  Pb  Pb14  1  0.69945069  0.70812882  0.96896109  1
  Pb  Pb15  1  0.30054931  0.20812882  0.53103891  1
  Pb  Pb16  1  0.00000000  0.00000000  0.00000000  1
  Pb  Pb17  1  0.00000000  0.50000000  0.50000000  1
  O  O18  1  0.15716041  0.90889232  0.50842836  1
  O  O19  1  0.84283959  0.40889232  0.99157164  1
  O  O20  1  0.84283959  0.09110768  0.49157164  1
  O  O21  1  0.15716041  0.59110768  0.00842836  1
  O  O22  1  0.09259418  0.79439621  0.23804206  1
  O  O23  1  0.90740582  0.29439621  0.26195794  1
  O  O24  1  0.90740582  0.20560379  0.76195794  1
  O  O25  1  0.09259418  0.70560379  0.73804206  1
  O  O26  1  0.58943683  0.28388102  0.25448961  1
  O  O27  1  0.41056317  0.78388102  0.24551039  1
  O  O28  1  0.41056317  0.71611898  0.74551039  1
  O  O29  1  0.58943683  0.21611898  0.75448961  1
  O  O30  1  0.38956706  0.45448918  0.25836445  1
  O  O31  1  0.61043294  0.95448918  0.24163555  1
  O  O32  1  0.61043294  0.54551082  0.74163555  1
  O  O33  1  0.38956706  0.04551082  0.75836445  1
  O  O34  1  0.07946516  0.00461598  0.75630435  1
  O  O35  1  0.92053484  0.50461598  0.74369565  1
  O  O36  1  0.92053484  0.99538402  0.24369565  1
  O  O37  1  0.07946516  0.49538402  0.25630435  1
  O  O38  1  0.39173372  0.84993382  0.97836762  1
  O  O39  1  0.60826628  0.34993382  0.52163238  1
  O  O40  1  0.60826628  0.15006618  0.02163238  1
  O  O41  1  0.39173372  0.65006618  0.47836762  1
  O  O42  1  0.09993274  0.25238856  0.13318117  1
  O  O43  1  0.90006726  0.75238856  0.36681883  1
  O  O44  1  0.90006726  0.74761144  0.86681883  1
  O  O45  1  0.09993274  0.24761144  0.63318117  1
  O  O46  1  0.31228878  0.04158119  0.12926604  1
  O  O47  1  0.68771122  0.54158119  0.37073396  1
  O  O48  1  0.68771122  0.95841881  0.87073396  1
  O  O49  1  0.31228878  0.45841881  0.62926604  1
