# generated using pymatgen
data_KVOF3
_symmetry_space_group_name_H-M   'P 1'
_cell_length_a   7.35983596
_cell_length_b   7.68137436
_cell_length_c   13.42850744
_cell_angle_alpha   90.00000000
_cell_angle_beta   90.00000000
_cell_angle_gamma   90.00000000
_symmetry_Int_Tables_number   1
_chemical_formula_structural   KVOF3
_chemical_formula_sum   'K8 V8 O8 F24'
_cell_volume   759.16260996
_cell_formula_units_Z   8
loop_
 _symmetry_equiv_pos_site_id
 _symmetry_equiv_pos_as_xyz
  1  'x, y, z'
loop_
 _atom_site_type_symbol
 _atom_site_label
 _atom_site_symmetry_multiplicity
 _atom_site_fract_x
 _atom_site_fract_y
 _atom_site_fract_z
 _atom_site_occupancy
  K  K0  1  0.40939993  0.25000000  0.10287630  1
  K  K1  1  0.90939993  0.25000000  0.39712370  1
  K  K2  1  0.59060007  0.75000000  0.89712370  1
  K  K3  1  0.09060007  0.75000000  0.60287630  1
  K  K4  1  0.67439339  0.25000000  0.85523479  1
  K  K5  1  0.17439339  0.25000000  0.64476521  1
  K  K6  1  0.32560661  0.75000000  0.14476521  1
  K  K7  1  0.82560661  0.75000000  0.35523479  1
  V  V8  1  0.13569687  0.99586425  0.89696242  1
  V  V9  1  0.63569687  0.50413575  0.60303758  1
  V  V10  1  0.86430313  0.49586425  0.10303758  1
  V  V11  1  0.36430313  0.00413575  0.39696242  1
  V  V12  1  0.86430313  0.00413575  0.10303758  1
  V  V13  1  0.36430313  0.49586425  0.39696242  1
  V  V14  1  0.13569687  0.50413575  0.89696242  1
  V  V15  1  0.63569687  0.99586425  0.60303758  1
  O  O16  1  0.11893945  0.95831039  0.77719142  1
  O  O17  1  0.61893945  0.54168961  0.72280858  1
  O  O18  1  0.88106055  0.45831039  0.22280858  1
  O  O19  1  0.38106055  0.04168961  0.27719142  1
  O  O20  1  0.88106055  0.04168961  0.22280858  1
  O  O21  1  0.38106055  0.45831039  0.27719142  1
  O  O22  1  0.11893945  0.54168961  0.77719142  1
  O  O23  1  0.61893945  0.95831039  0.72280858  1
  F  F24  1  0.07337382  0.25000000  0.88848768  1
  F  F25  1  0.57337382  0.25000000  0.61151232  1
  F  F26  1  0.92662618  0.75000000  0.11151232  1
  F  F27  1  0.42662618  0.75000000  0.38848768  1
  F  F28  1  0.19917035  0.75000000  0.93987867  1
  F  F29  1  0.69917035  0.75000000  0.56012133  1
  F  F30  1  0.80082965  0.25000000  0.06012133  1
  F  F31  1  0.30082965  0.25000000  0.43987867  1
  F  F32  1  0.38475073  0.05245761  0.91641864  1
  F  F33  1  0.88475073  0.44754239  0.58358136  1
  F  F34  1  0.61524927  0.55245761  0.08358136  1
  F  F35  1  0.11524927  0.94754239  0.41641864  1
  F  F36  1  0.61524927  0.94754239  0.08358136  1
  F  F37  1  0.11524927  0.55245761  0.41641864  1
  F  F38  1  0.38475073  0.44754239  0.91641864  1
  F  F39  1  0.88475073  0.05245761  0.58358136  1
  F  F40  1  0.87695285  0.96440056  0.94025291  1
  F  F41  1  0.37695285  0.53559944  0.55974709  1
  F  F42  1  0.12304715  0.46440056  0.05974709  1
  F  F43  1  0.62304715  0.03559944  0.44025291  1
  F  F44  1  0.12304715  0.03559944  0.05974709  1
  F  F45  1  0.62304715  0.46440056  0.44025291  1
  F  F46  1  0.87695285  0.53559944  0.94025291  1
  F  F47  1  0.37695285  0.96440056  0.55974709  1
