# generated using pymatgen
data_Nd8Sb2S15
_symmetry_space_group_name_H-M   'P 1'
_cell_length_a   14.90958878
_cell_length_b   14.90958878
_cell_length_c   14.90958878
_cell_angle_alpha   96.60948224
_cell_angle_beta   116.26025610
_cell_angle_gamma   116.26025610
_symmetry_Int_Tables_number   1
_chemical_formula_structural   Nd8Sb2S15
_chemical_formula_sum   'Nd32 Sb8 S60'
_cell_volume   2458.34671957
_cell_formula_units_Z   4
loop_
 _symmetry_equiv_pos_site_id
 _symmetry_equiv_pos_as_xyz
  1  'x, y, z'
loop_
 _atom_site_type_symbol
 _atom_site_label
 _atom_site_symmetry_multiplicity
 _atom_site_fract_x
 _atom_site_fract_y
 _atom_site_fract_z
 _atom_site_occupancy
  Nd  Nd0  1  0.86924001  0.08725071  0.91651272  1
  Nd  Nd1  1  0.17073798  0.58725071  0.71801070  1
  Nd  Nd2  1  0.67073798  0.96801070  0.33725071  1
  Nd  Nd3  1  0.36924001  0.16651272  0.83725071  1
  Nd  Nd4  1  0.13075999  0.04727271  0.21801070  1
  Nd  Nd5  1  0.82926202  0.54727271  0.41651272  1
  Nd  Nd6  1  0.32926202  0.66651272  0.29727271  1
  Nd  Nd7  1  0.63075999  0.46801070  0.79727271  1
  Nd  Nd8  1  0.67354958  0.20480388  0.83915881  1
  Nd  Nd9  1  0.36564507  0.70480388  0.03125430  1
  Nd  Nd10  1  0.86564507  0.28125430  0.45480388  1
  Nd  Nd11  1  0.17354958  0.08915881  0.95480388  1
  Nd  Nd12  1  0.32645042  0.16560923  0.53125430  1
  Nd  Nd13  1  0.63435493  0.66560923  0.33915881  1
  Nd  Nd14  1  0.13435493  0.58915881  0.41560923  1
  Nd  Nd15  1  0.82645042  0.78125430  0.91560923  1
  Nd  Nd16  1  0.15500152  0.36135705  0.93140591  1
  Nd  Nd17  1  0.42995113  0.86135705  0.70635553  1
  Nd  Nd18  1  0.92995113  0.95635553  0.61135705  1
  Nd  Nd19  1  0.65500152  0.18140591  0.11135705  1
  Nd  Nd20  1  0.84499848  0.77640439  0.20635553  1
  Nd  Nd21  1  0.57004887  0.27640439  0.43140591  1
  Nd  Nd22  1  0.07004887  0.68140591  0.02640439  1
  Nd  Nd23  1  0.34499848  0.45635553  0.52640439  1
  Nd  Nd24  1  0.79252759  0.14261031  0.64913810  1
  Nd  Nd25  1  0.49347220  0.64261031  0.85008271  1
  Nd  Nd26  1  0.99347220  0.10008271  0.39261031  1
  Nd  Nd27  1  0.29252759  0.89913810  0.89261031  1
  Nd  Nd28  1  0.20747241  0.85661051  0.35008271  1
  Nd  Nd29  1  0.50652780  0.35661051  0.14913810  1
  Nd  Nd30  1  0.00652780  0.39913810  0.10661051  1
  Nd  Nd31  1  0.70747241  0.60008271  0.60661051  1
  Sb  Sb32  1  0.88793953  0.43667697  0.75641759  1
  Sb  Sb33  1  0.68025939  0.93667697  0.04873744  1
  Sb  Sb34  1  0.18025939  0.29873744  0.68667697  1
  Sb  Sb35  1  0.38793953  0.00641759  0.18667697  1
  Sb  Sb36  1  0.11206047  0.86847805  0.54873744  1
  Sb  Sb37  1  0.31974061  0.36847805  0.25641759  1
  Sb  Sb38  1  0.81974061  0.50641759  0.11847805  1
  Sb  Sb39  1  0.61206047  0.79873744  0.61847805  1
  S  S40  1  0.50000000  0.24929122  0.74929122  1
  S  S41  1  0.50000000  0.74929122  0.24929122  1
  S  S42  1  -0.00000000  0.49929122  0.49929122  1
  S  S43  1  -0.00000000  0.99929122  0.99929122  1
  S  S44  1  0.68339250  0.26718304  0.65792117  1
  S  S45  1  0.60926187  0.76718304  0.08379055  1
  S  S46  1  0.10926187  0.33379055  0.51718304  1
  S  S47  1  0.18339250  0.90792117  0.01718304  1
  S  S48  1  0.31660750  0.97452867  0.58379055  1
  S  S49  1  0.39073813  0.47452867  0.15792117  1
  S  S50  1  0.89073813  0.40792117  0.22452867  1
  S  S51  1  0.81660750  0.83379055  0.72452867  1
  S  S52  1  0.30097305  0.52351311  0.87731452  1
  S  S53  1  0.64619859  0.02351311  0.72254007  1
  S  S54  1  0.14619859  0.97254007  0.77351311  1
  S  S55  1  0.80097305  0.12731452  0.27351311  1
  S  S56  1  0.69902695  0.57634148  0.22254007  1
  S  S57  1  0.35380141  0.07634148  0.37731452  1
  S  S58  1  0.85380141  0.62731452  0.82634148  1
  S  S59  1  0.19902695  0.47254007  0.32634148  1
  S  S60  1  0.91236736  0.28479166  0.87870649  1
  S  S61  1  0.40608517  0.78479166  0.87242430  1
  S  S62  1  0.90608517  0.12242430  0.53479166  1
  S  S63  1  0.41236736  0.12870649  0.03479166  1
  S  S64  1  0.08763264  0.96633913  0.37242430  1
  S  S65  1  0.59391483  0.46633913  0.37870649  1
  S  S66  1  0.09391483  0.62870649  0.21633913  1
  S  S67  1  0.58763264  0.62242430  0.71633913  1
  S  S68  1  0.69067624  0.91573131  0.52842349  1
  S  S69  1  0.38730782  0.41573131  0.72505507  1
  S  S70  1  0.88730782  0.97505507  0.16573131  1
  S  S71  1  0.19067624  0.77842349  0.66573131  1
  S  S72  1  0.30932376  0.83774725  0.22505507  1
  S  S73  1  0.61269218  0.33774725  0.02842349  1
  S  S74  1  0.11269218  0.27842349  0.08774725  1
  S  S75  1  0.80932376  0.47505507  0.58774725  1
  S  S76  1  0.14861736  0.68177137  0.87737853  1
  S  S77  1  0.80439285  0.18177137  0.03315401  1
  S  S78  1  0.30439285  0.28315401  0.93177137  1
  S  S79  1  0.64861736  0.12737853  0.43177137  1
  S  S80  1  0.85138264  0.72876117  0.53315401  1
  S  S81  1  0.19560715  0.22876117  0.37737853  1
  S  S82  1  0.69560715  0.62737853  0.97876117  1
  S  S83  1  0.35138264  0.78315401  0.47876117  1
  S  S84  1  0.99044331  0.12269955  0.79892469  1
  S  S85  1  0.32377486  0.62269955  0.63225624  1
  S  S86  1  0.82377486  0.88225624  0.37269955  1
  S  S87  1  0.49044331  0.04892469  0.87269955  1
  S  S88  1  0.00955669  0.80848138  0.13225624  1
  S  S89  1  0.67622514  0.30848138  0.29892469  1
  S  S90  1  0.17622514  0.54892469  0.05848138  1
  S  S91  1  0.50955669  0.38225624  0.55848138  1
  S  S92  1  0.98860404  0.36578281  0.69876709  1
  S  S93  1  0.66701572  0.86578281  0.87717877  1
  S  S94  1  0.16701572  0.12717877  0.61578281  1
  S  S95  1  0.48860404  0.94876709  0.11578281  1
  S  S96  1  0.01139596  0.71016305  0.37717877  1
  S  S97  1  0.33298428  0.21016305  0.19876709  1
  S  S98  1  0.83298428  0.44876709  0.96016305  1
  S  S99  1  0.51139596  0.62717877  0.46016305  1
