# generated using pymatgen
data_K2ZnCr2(H2O5)2
_symmetry_space_group_name_H-M   'P 1'
_cell_length_a   5.71589525
_cell_length_b   8.09347032
_cell_length_c   12.12862319
_cell_angle_alpha   74.27348432
_cell_angle_beta   76.37084940
_cell_angle_gamma   69.32187473
_symmetry_Int_Tables_number   1
_chemical_formula_structural   K2ZnCr2(H2O5)2
_chemical_formula_sum   'K4 Zn2 Cr4 H8 O20'
_cell_volume   499.15452177
_cell_formula_units_Z   2
loop_
 _symmetry_equiv_pos_site_id
 _symmetry_equiv_pos_as_xyz
  1  'x, y, z'
loop_
 _atom_site_type_symbol
 _atom_site_label
 _atom_site_symmetry_multiplicity
 _atom_site_fract_x
 _atom_site_fract_y
 _atom_site_fract_z
 _atom_site_occupancy
  K  K0  1  0.19150931  0.71887557  0.54341720  1
  K  K1  1  0.45380208  0.78112443  0.95658280  1
  K  K2  1  0.80849069  0.28112443  0.45658280  1
  K  K3  1  0.54619792  0.21887557  0.04341720  1
  Zn  Zn4  1  0.34739859  0.25000000  0.75000000  1
  Zn  Zn5  1  0.65260141  0.75000000  0.25000000  1
  Cr  Cr6  1  0.95656142  0.98390925  0.78979592  1
  Cr  Cr7  1  0.73026659  0.51609075  0.71020408  1
  Cr  Cr8  1  0.04343858  0.01609075  0.21020408  1
  Cr  Cr9  1  0.26973341  0.48390925  0.28979592  1
  H  H10  1  0.17209680  0.52099575  0.86529952  1
  H  H11  1  0.55839207  0.97900425  0.63470048  1
  H  H12  1  0.82790320  0.47900425  0.13470048  1
  H  H13  1  0.44160793  0.02099575  0.36529952  1
  H  H14  1  0.01016412  0.39164364  0.90484380  1
  H  H15  1  0.30665156  0.10835636  0.59515620  1
  H  H16  1  0.98983588  0.60835636  0.09515620  1
  H  H17  1  0.69334844  0.89164364  0.40484380  1
  O  O18  1  0.64183733  0.06831142  0.83491615  1
  O  O19  1  0.54506490  0.43168858  0.66508385  1
  O  O20  1  0.35816267  0.93168858  0.16508385  1
  O  O21  1  0.45493510  0.56831142  0.33491615  1
  O  O22  1  0.11633849  0.08214572  0.83757439  1
  O  O23  1  0.03605860  0.41785428  0.66242561  1
  O  O24  1  0.88366151  0.91785428  0.16242561  1
  O  O25  1  0.96394140  0.58214572  0.33757439  1
  O  O26  1  0.01907716  0.01983621  0.64636388  1
  O  O27  1  0.68527726  0.48016379  0.85363612  1
  O  O28  1  0.98092284  0.98016379  0.35363612  1
  O  O29  1  0.31472274  0.51983621  0.14636388  1
  O  O30  1  0.05158960  0.76521431  0.84603493  1
  O  O31  1  0.66283884  0.73478569  0.65396507  1
  O  O32  1  0.94841040  0.23478569  0.15396507  1
  O  O33  1  0.33716116  0.26521431  0.34603493  1
  O  O34  1  0.18813189  0.39041218  0.89082182  1
  O  O35  1  0.46936589  0.10958782  0.60917818  1
  O  O36  1  0.81186811  0.60958782  0.10917818  1
  O  O37  1  0.53063411  0.89041218  0.39082182  1
