# generated using pymatgen
data_Na3U6VF30
_symmetry_space_group_name_H-M   'P 1'
_cell_length_a   9.88317408
_cell_length_b   9.88355007
_cell_length_c   13.13314202
_cell_angle_alpha   89.99999999
_cell_angle_beta   90.03401288
_cell_angle_gamma   120.00125529
_symmetry_Int_Tables_number   1
_chemical_formula_structural   Na3U6VF30
_chemical_formula_sum   'Na6 U12 V2 F60'
_cell_volume   1110.97193583
_cell_formula_units_Z   2
loop_
 _symmetry_equiv_pos_site_id
 _symmetry_equiv_pos_as_xyz
  1  'x, y, z'
loop_
 _atom_site_type_symbol
 _atom_site_label
 _atom_site_symmetry_multiplicity
 _atom_site_fract_x
 _atom_site_fract_y
 _atom_site_fract_z
 _atom_site_occupancy
  Na  Na0  1  0.33346871  0.66658824  0.83739067  1
  Na  Na1  1  0.33346871  0.66688047  0.33739067  1
  Na  Na2  1  0.66653129  0.33341176  0.16260933  1
  Na  Na3  1  0.66653129  0.33311953  0.66260933  1
  Na  Na4  1  -0.00000000  -0.00000000  -0.00000000  1
  Na  Na5  1  -0.00000000  -0.00000000  0.50000000  1
  U  U6  1  0.92378098  0.60035942  0.89806012  1
  U  U7  1  0.39961938  0.32326972  0.89808542  1
  U  U8  1  0.67650519  0.07619118  0.89808205  1
  U  U9  1  0.92378098  0.32342156  0.39806012  1
  U  U10  1  0.67650519  0.60031400  0.39808205  1
  U  U11  1  0.39961938  0.07634966  0.39808542  1
  U  U12  1  0.07621902  0.39964058  0.10193988  1
  U  U13  1  0.60038062  0.67673028  0.10191458  1
  U  U14  1  0.32349481  0.92380882  0.10191795  1
  U  U15  1  0.07621902  0.67657844  0.60193988  1
  U  U16  1  0.32349481  0.39968600  0.60191795  1
  U  U17  1  0.60038062  0.92365034  0.60191458  1
  V  V18  1  0.00000000  -0.00006254  0.75000000  1
  V  V19  1  1.00000000  0.00006254  0.25000000  1
  F  F20  1  0.13047931  0.69648133  0.78452449  1
  F  F21  1  0.30345514  0.43391968  0.78458881  1
  F  F22  1  0.56594617  0.86948926  0.78445555  1
  F  F23  1  0.13047931  0.43399798  0.28452449  1
  F  F24  1  0.56594617  0.69645692  0.28445555  1
  F  F25  1  0.30345514  0.86953546  0.28458881  1
  F  F26  1  0.86952069  0.30351867  0.21547551  1
  F  F27  1  0.69654486  0.56608032  0.21541119  1
  F  F28  1  0.43405383  0.13051074  0.21554445  1
  F  F29  1  0.86952069  0.56600202  0.71547551  1
  F  F30  1  0.43405383  0.30354308  0.71554445  1
  F  F31  1  0.69654486  0.13046454  0.71541119  1
  F  F32  1  0.11558670  0.80697694  0.98004164  1
  F  F33  1  0.19300603  0.30838166  0.98016013  1
  F  F34  1  0.69121231  0.88424773  0.98027725  1
  F  F35  1  0.11558670  0.30860975  0.48004164  1
  F  F36  1  0.69121231  0.80696458  0.48027725  1
  F  F37  1  0.19300603  0.88462437  0.48016013  1
  F  F38  1  0.88441330  0.19302306  0.01995836  1
  F  F39  1  0.80699397  0.69161834  0.01983987  1
  F  F40  1  0.30878769  0.11575227  0.01972275  1
  F  F41  1  0.88441330  0.69139025  0.51995836  1
  F  F42  1  0.30878769  0.19303542  0.51972275  1
  F  F43  1  0.80699397  0.11537563  0.51983987  1
  F  F44  1  0.88042592  0.46790409  0.05008296  1
  F  F45  1  0.53224969  0.41278538  0.05023161  1
  F  F46  1  0.58730894  0.11952520  0.05033265  1
  F  F47  1  0.88042592  0.41252182  0.55008296  1
  F  F48  1  0.58730894  0.46778375  0.55033265  1
  F  F49  1  0.53224969  0.11946431  0.55023161  1
  F  F50  1  0.11957408  0.53209591  0.94991704  1
  F  F51  1  0.46775031  0.58721462  0.94976839  1
  F  F52  1  0.41269106  0.88047480  0.94966735  1
  F  F53  1  0.11957408  0.58747818  0.44991704  1
  F  F54  1  0.41269106  0.53221625  0.44966735  1
  F  F55  1  0.46775031  0.88053569  0.44976839  1
  F  F56  1  0.91439905  0.80980056  0.84239755  1
  F  F57  1  0.19035974  0.10440335  0.84178073  1
  F  F58  1  0.89554012  0.08570048  0.84217809  1
  F  F59  1  0.91439905  0.10459849  0.34239755  1
  F  F60  1  0.89554012  0.80983964  0.34217809  1
  F  F61  1  0.19035974  0.08595639  0.34178073  1
  F  F62  1  0.08560095  0.19019944  0.15760245  1
  F  F63  1  0.80964026  0.89559665  0.15821927  1
  F  F64  1  0.10445988  0.91429952  0.15782191  1
  F  F65  1  0.08560095  0.89540151  0.65760245  1
  F  F66  1  0.10445988  0.19016036  0.65782191  1
  F  F67  1  0.80964026  0.91404361  0.65821927  1
  F  F68  1  0.65976527  0.48790650  0.86330856  1
  F  F69  1  0.51216178  0.17192010  0.86324180  1
  F  F70  1  0.82832098  0.34034291  0.86312438  1
  F  F71  1  0.65976527  0.17185876  0.36330856  1
  F  F72  1  0.82832098  0.48797806  0.36312438  1
  F  F73  1  0.51216178  0.34024168  0.36324180  1
  F  F74  1  0.34023473  0.51209350  0.13669144  1
  F  F75  1  0.48783822  0.82807990  0.13675820  1
  F  F76  1  0.17167902  0.65965709  0.13687562  1
  F  F77  1  0.34023473  0.82814124  0.63669144  1
  F  F78  1  0.17167902  0.51202194  0.63687562  1
  F  F79  1  0.48783822  0.65975832  0.63675820  1
