# generated using pymatgen
data_AsCS2N2OF5
_symmetry_space_group_name_H-M   'P 1'
_cell_length_a   8.23183592
_cell_length_b   9.43302509
_cell_length_c   10.81344909
_cell_angle_alpha   90.00000000
_cell_angle_beta   90.00000000
_cell_angle_gamma   111.52241717
_symmetry_Int_Tables_number   1
_chemical_formula_structural   AsCS2N2OF5
_chemical_formula_sum   'As4 C4 S8 N8 O4 F20'
_cell_volume   781.12918614
_cell_formula_units_Z   4
loop_
 _symmetry_equiv_pos_site_id
 _symmetry_equiv_pos_as_xyz
  1  'x, y, z'
loop_
 _atom_site_type_symbol
 _atom_site_label
 _atom_site_symmetry_multiplicity
 _atom_site_fract_x
 _atom_site_fract_y
 _atom_site_fract_z
 _atom_site_occupancy
  As  As0  1  0.79439857  0.11745935  0.87621315  1
  As  As1  1  0.29439857  0.61745935  0.62378685  1
  As  As2  1  0.70560143  0.38254065  0.37621315  1
  As  As3  1  0.20560143  0.88254065  0.12378685  1
  C  C4  1  0.68081923  0.67539518  0.32506713  1
  C  C5  1  0.31918077  0.32460482  0.67493287  1
  C  C6  1  0.81918077  0.82460482  0.82506713  1
  C  C7  1  0.18081923  0.17539518  0.17493287  1
  S  S8  1  0.15288608  0.22431618  0.56591051  1
  S  S9  1  0.18084841  0.43574398  0.17872620  1
  S  S10  1  0.68084841  0.93574398  0.32127380  1
  S  S11  1  0.34711392  0.27568382  0.06591051  1
  S  S12  1  0.65288608  0.72431618  0.93408949  1
  S  S13  1  0.31915159  0.06425602  0.67872620  1
  S  S14  1  0.84711392  0.77568382  0.43408949  1
  S  S15  1  0.81915159  0.56425602  0.82127380  1
  N  N16  1  0.17443003  0.06208138  0.58014192  1
  N  N17  1  0.67443003  0.56208138  0.91985808  1
  N  N18  1  0.10670460  0.26410795  0.22790965  1
  N  N19  1  0.32556997  0.43791862  0.08014192  1
  N  N20  1  0.60670460  0.76410795  0.27209035  1
  N  N21  1  0.82556997  0.93791862  0.41985808  1
  N  N22  1  0.39329540  0.23589205  0.72790965  1
  N  N23  1  0.89329540  0.73589205  0.77209035  1
  O  O24  1  0.36758986  0.46677603  0.70393971  1
  O  O25  1  0.63241014  0.53322397  0.29606029  1
  O  O26  1  0.13241014  0.03322397  0.20393971  1
  O  O27  1  0.86758986  0.96677603  0.79606029  1
  F  F28  1  0.07549209  0.48701644  0.63065624  1
  F  F29  1  0.76478082  0.24054216  0.44554230  1
  F  F30  1  0.72419237  0.31798411  0.22667376  1
  F  F31  1  0.77580763  0.18201589  0.72667376  1
  F  F32  1  0.01852159  0.23390801  0.87957945  1
  F  F33  1  0.51852159  0.73390801  0.62042055  1
  F  F34  1  0.48147841  0.26609199  0.37957945  1
  F  F35  1  0.26478082  0.74054216  0.05445770  1
  F  F36  1  0.27580763  0.68201589  0.77332624  1
  F  F37  1  0.31732970  0.53971523  0.47823694  1
  F  F38  1  0.22419237  0.81798411  0.27332624  1
  F  F39  1  0.42450791  0.01298356  0.13065624  1
  F  F40  1  0.23521918  0.75945784  0.55445770  1
  F  F41  1  0.68267030  0.46028477  0.52176306  1
  F  F42  1  0.81732970  0.03971523  0.02176306  1
  F  F43  1  0.57549209  0.98701644  0.86934376  1
  F  F44  1  0.73521918  0.25945784  0.94554230  1
  F  F45  1  0.98147841  0.76609199  0.12042055  1
  F  F46  1  0.18267030  0.96028477  0.97823694  1
  F  F47  1  0.92450791  0.51298356  0.36934376  1
