# generated using pymatgen
data_KY(BH4)4
_symmetry_space_group_name_H-M   'P 1'
_cell_length_a   7.91467237
_cell_length_b   7.91467237
_cell_length_c   9.87817732
_cell_angle_alpha   90.00000000
_cell_angle_beta   90.00000000
_cell_angle_gamma   112.08947968
_symmetry_Int_Tables_number   1
_chemical_formula_structural   KY(BH4)4
_chemical_formula_sum   'K2 Y2 B8 H32'
_cell_volume   573.36861536
_cell_formula_units_Z   2
loop_
 _symmetry_equiv_pos_site_id
 _symmetry_equiv_pos_as_xyz
  1  'x, y, z'
loop_
 _atom_site_type_symbol
 _atom_site_label
 _atom_site_symmetry_multiplicity
 _atom_site_fract_x
 _atom_site_fract_y
 _atom_site_fract_z
 _atom_site_occupancy
  K  K0  1  0.00000000  0.00000000  0.00000000  1
  K  K1  1  0.00000000  0.00000000  0.50000000  1
  Y  Y2  1  0.36391141  0.63608859  0.25000000  1
  Y  Y3  1  0.63608859  0.36391141  0.75000000  1
  B  B4  1  0.25805153  0.74194847  0.45600905  1
  B  B5  1  0.74194847  0.25805153  0.54399095  1
  B  B6  1  0.25805153  0.74194847  0.04399095  1
  B  B7  1  0.74194847  0.25805153  0.95600905  1
  B  B8  1  0.70279810  0.75391781  0.25000000  1
  B  B9  1  0.75391781  0.70279810  0.75000000  1
  B  B10  1  0.29720190  0.24608219  0.75000000  1
  B  B11  1  0.24608219  0.29720190  0.25000000  1
  H  H12  1  0.35667656  0.86976126  0.38399596  1
  H  H13  1  0.86976126  0.35667656  0.61600404  1
  H  H14  1  0.35667656  0.86976126  0.11600404  1
  H  H15  1  0.86976126  0.35667656  0.88399596  1
  H  H16  1  0.64332344  0.13023874  0.61600404  1
  H  H17  1  0.13023874  0.64332344  0.38399596  1
  H  H18  1  0.64332344  0.13023874  0.88399596  1
  H  H19  1  0.13023874  0.64332344  0.11600404  1
  H  H20  1  0.63737172  0.65941908  0.35101028  1
  H  H21  1  0.65941908  0.63737172  0.64898972  1
  H  H22  1  0.63737172  0.65941908  0.14898972  1
  H  H23  1  0.65941908  0.63737172  0.85101028  1
  H  H24  1  0.36262828  0.34058092  0.64898972  1
  H  H25  1  0.34058092  0.36262828  0.35101028  1
  H  H26  1  0.36262828  0.34058092  0.85101028  1
  H  H27  1  0.34058092  0.36262828  0.14898972  1
  H  H28  1  0.20467165  0.79532835  0.55512840  1
  H  H29  1  0.79532835  0.20467165  0.44487160  1
  H  H30  1  0.20467165  0.79532835  0.94487160  1
  H  H31  1  0.79532835  0.20467165  0.05512840  1
  H  H32  1  0.34958636  0.65041364  0.48655675  1
  H  H33  1  0.65041364  0.34958636  0.51344325  1
  H  H34  1  0.34958636  0.65041364  0.01344325  1
  H  H35  1  0.65041364  0.34958636  0.98655675  1
  H  H36  1  0.86742165  0.80349851  0.25000000  1
  H  H37  1  0.80349851  0.86742165  0.75000000  1
  H  H38  1  0.13257835  0.19650149  0.75000000  1
  H  H39  1  0.19650149  0.13257835  0.25000000  1
  H  H40  1  0.64947503  0.88242151  0.25000000  1
  H  H41  1  0.88242151  0.64947503  0.75000000  1
  H  H42  1  0.35052497  0.11757849  0.75000000  1
  H  H43  1  0.11757849  0.35052497  0.25000000  1
