# generated using pymatgen
data_Yb2Fe3Si5
_symmetry_space_group_name_H-M   'P 1'
_cell_length_a   5.45955622
_cell_length_b   10.42479288
_cell_length_c   10.42479288
_cell_angle_alpha   90.00000000
_cell_angle_beta   90.00000000
_cell_angle_gamma   90.00000000
_symmetry_Int_Tables_number   1
_chemical_formula_structural   Yb2Fe3Si5
_chemical_formula_sum   'Yb8 Fe12 Si20'
_cell_volume   593.32440561
_cell_formula_units_Z   4
loop_
 _symmetry_equiv_pos_site_id
 _symmetry_equiv_pos_as_xyz
  1  'x, y, z'
loop_
 _atom_site_type_symbol
 _atom_site_label
 _atom_site_symmetry_multiplicity
 _atom_site_fract_x
 _atom_site_fract_y
 _atom_site_fract_z
 _atom_site_occupancy
  Yb  Yb0  1  0.50000000  0.73538427  0.57082992  1
  Yb  Yb1  1  0.50000000  0.26461573  0.42917008  1
  Yb  Yb2  1  0.00000000  0.76461573  0.07082992  1
  Yb  Yb3  1  -0.00000000  0.23538427  0.92917008  1
  Yb  Yb4  1  0.50000000  0.57082992  0.26461573  1
  Yb  Yb5  1  0.50000000  0.42917008  0.73538427  1
  Yb  Yb6  1  0.00000000  0.07082992  0.23538427  1
  Yb  Yb7  1  -0.00000000  0.92917008  0.76461573  1
  Fe  Fe8  1  0.50000000  0.85418344  0.87724644  1
  Fe  Fe9  1  0.50000000  0.14581656  0.12275356  1
  Fe  Fe10  1  -0.00000000  0.64581656  0.37724644  1
  Fe  Fe11  1  0.00000000  0.35418344  0.62275356  1
  Fe  Fe12  1  0.50000000  0.87724644  0.14581656  1
  Fe  Fe13  1  0.50000000  0.12275356  0.85418344  1
  Fe  Fe14  1  0.00000000  0.37724644  0.35418344  1
  Fe  Fe15  1  -0.00000000  0.62275356  0.64581656  1
  Fe  Fe16  1  0.25000000  -0.00000000  0.50000000  1
  Fe  Fe17  1  0.75000000  0.50000000  -0.00000000  1
  Fe  Fe18  1  0.25000000  0.50000000  -0.00000000  1
  Fe  Fe19  1  0.75000000  -0.00000000  0.50000000  1
  Si  Si20  1  0.25000000  0.17775418  0.67775418  1
  Si  Si21  1  0.25000000  0.82224582  0.32224582  1
  Si  Si22  1  0.75000000  0.32224582  0.17775418  1
  Si  Si23  1  0.75000000  0.67775418  0.82224582  1
  Si  Si24  1  0.25000000  0.67775418  0.82224582  1
  Si  Si25  1  0.25000000  0.32224582  0.17775418  1
  Si  Si26  1  0.75000000  0.17775418  0.67775418  1
  Si  Si27  1  0.75000000  0.82224582  0.32224582  1
  Si  Si28  1  0.23285116  0.50000000  0.50000000  1
  Si  Si29  1  0.73285116  -0.00000000  -0.00000000  1
  Si  Si30  1  0.76714884  0.50000000  0.50000000  1
  Si  Si31  1  0.26714884  -0.00000000  -0.00000000  1
  Si  Si32  1  0.50000000  0.97598209  0.68290503  1
  Si  Si33  1  0.50000000  0.02401791  0.31709497  1
  Si  Si34  1  0.00000000  0.52401791  0.18290503  1
  Si  Si35  1  -0.00000000  0.47598209  0.81709497  1
  Si  Si36  1  0.50000000  0.68290503  0.02401791  1
  Si  Si37  1  0.50000000  0.31709497  0.97598209  1
  Si  Si38  1  -0.00000000  0.18290503  0.47598209  1
  Si  Si39  1  0.00000000  0.81709497  0.52401791  1
