# generated using pymatgen
data_Na3B6BrO10
_symmetry_space_group_name_H-M   'P 1'
_cell_length_a   7.57983694
_cell_length_b   9.99154575
_cell_length_c   12.87883582
_cell_angle_alpha   90.00000000
_cell_angle_beta   90.00000000
_cell_angle_gamma   90.00000000
_symmetry_Int_Tables_number   1
_chemical_formula_structural   Na3B6BrO10
_chemical_formula_sum   'Na12 B24 Br4 O40'
_cell_volume   975.36945548
_cell_formula_units_Z   4
loop_
 _symmetry_equiv_pos_site_id
 _symmetry_equiv_pos_as_xyz
  1  'x, y, z'
loop_
 _atom_site_type_symbol
 _atom_site_label
 _atom_site_symmetry_multiplicity
 _atom_site_fract_x
 _atom_site_fract_y
 _atom_site_fract_z
 _atom_site_occupancy
  Na  Na0  1  0.00000000  0.50000000  0.00000000  1
  Na  Na1  1  0.50000000  0.00000000  0.50000000  1
  Na  Na2  1  0.00000000  0.00000000  0.00000000  1
  Na  Na3  1  0.50000000  0.50000000  0.50000000  1
  Na  Na4  1  0.64734497  0.75000000  0.29668798  1
  Na  Na5  1  0.85265503  0.75000000  0.79668798  1
  Na  Na6  1  0.35265503  0.25000000  0.70331202  1
  Na  Na7  1  0.14734497  0.25000000  0.20331202  1
  Na  Na8  1  0.00000000  0.00000000  0.50000000  1
  Na  Na9  1  0.50000000  0.50000000  -0.00000000  1
  Na  Na10  1  0.00000000  0.50000000  0.50000000  1
  Na  Na11  1  0.50000000  0.00000000  0.00000000  1
  B  B12  1  0.01212782  0.98217266  0.26938681  1
  B  B13  1  0.48787218  0.51782734  0.76938681  1
  B  B14  1  0.98787218  0.48217266  0.73061319  1
  B  B15  1  0.51212782  0.01782734  0.23061319  1
  B  B16  1  0.98787218  0.01782734  0.73061319  1
  B  B17  1  0.51212782  0.48217266  0.23061319  1
  B  B18  1  0.01212782  0.51782734  0.26938681  1
  B  B19  1  0.48787218  0.98217266  0.76938681  1
  B  B20  1  0.25081762  0.61933266  0.16286958  1
  B  B21  1  0.24918238  0.88066734  0.66286958  1
  B  B22  1  0.74918238  0.11933266  0.83713042  1
  B  B23  1  0.75081762  0.38066734  0.33713042  1
  B  B24  1  0.74918238  0.38066734  0.83713042  1
  B  B25  1  0.75081762  0.11933266  0.33713042  1
  B  B26  1  0.25081762  0.88066734  0.16286958  1
  B  B27  1  0.24918238  0.61933266  0.66286958  1
  B  B28  1  0.10512583  0.75000000  0.31616827  1
  B  B29  1  0.39487417  0.75000000  0.81616827  1
  B  B30  1  0.89487417  0.25000000  0.68383173  1
  B  B31  1  0.60512583  0.25000000  0.18383173  1
  B  B32  1  0.24271082  0.75000000  0.49505909  1
  B  B33  1  0.25728918  0.75000000  0.99505909  1
  B  B34  1  0.75728918  0.25000000  0.50494091  1
  B  B35  1  0.74271082  0.25000000  0.00494091  1
  Br  Br36  1  0.71212843  0.75000000  0.54381845  1
  Br  Br37  1  0.78787157  0.75000000  0.04381845  1
  Br  Br38  1  0.28787157  0.25000000  0.45618155  1
  Br  Br39  1  0.21212843  0.25000000  0.95618155  1
  O  O40  1  0.25150685  0.75000000  0.38948255  1
  O  O41  1  0.24849315  0.75000000  0.88948255  1
  O  O42  1  0.74849315  0.25000000  0.61051745  1
  O  O43  1  0.75150685  0.25000000  0.11051745  1
  O  O44  1  0.17881134  0.75000000  0.20585874  1
  O  O45  1  0.32118866  0.75000000  0.70585874  1
  O  O46  1  0.82118866  0.25000000  0.79414126  1
  O  O47  1  0.67881134  0.25000000  0.29414126  1
  O  O48  1  0.12752496  0.98929897  0.18652434  1
  O  O49  1  0.37247504  0.51070103  0.68652434  1
  O  O50  1  0.87247504  0.48929897  0.81347566  1
  O  O51  1  0.62752496  0.01070103  0.31347566  1
  O  O52  1  0.87247504  0.01070103  0.81347566  1
  O  O53  1  0.62752496  0.48929897  0.31347566  1
  O  O54  1  0.12752496  0.51070103  0.18652434  1
  O  O55  1  0.37247504  0.98929897  0.68652434  1
  O  O56  1  0.92428942  0.09821678  0.29188444  1
  O  O57  1  0.57571058  0.40178322  0.79188444  1
  O  O58  1  0.07571058  0.59821678  0.70811556  1
  O  O59  1  0.42428942  0.90178322  0.20811556  1
  O  O60  1  0.07571058  0.90178322  0.70811556  1
  O  O61  1  0.42428942  0.59821678  0.20811556  1
  O  O62  1  0.92428942  0.40178322  0.29188444  1
  O  O63  1  0.57571058  0.09821678  0.79188444  1
  O  O64  1  0.99339905  0.86963117  0.32946719  1
  O  O65  1  0.50660095  0.63036883  0.82946719  1
  O  O66  1  0.00660095  0.36963117  0.67053281  1
  O  O67  1  0.49339905  0.13036883  0.17053281  1
  O  O68  1  0.00660095  0.13036883  0.67053281  1
  O  O69  1  0.49339905  0.36963117  0.17053281  1
  O  O70  1  0.99339905  0.63036883  0.32946719  1
  O  O71  1  0.50660095  0.86963117  0.82946719  1
  O  O72  1  0.25910719  0.62979168  0.04829162  1
  O  O73  1  0.24089281  0.87020832  0.54829162  1
  O  O74  1  0.74089281  0.12979168  0.95170838  1
  O  O75  1  0.75910719  0.37020832  0.45170838  1
  O  O76  1  0.74089281  0.37020832  0.95170838  1
  O  O77  1  0.75910719  0.12979168  0.45170838  1
  O  O78  1  0.25910719  0.87020832  0.04829162  1
  O  O79  1  0.24089281  0.62979168  0.54829162  1
