# generated using pymatgen
data_Rb2ZnBr4
_symmetry_space_group_name_H-M   'P 1'
_cell_length_a   7.92590663
_cell_length_b   13.73601668
_cell_length_c   29.58872366
_cell_angle_alpha   90.00000000
_cell_angle_beta   90.00000000
_cell_angle_gamma   90.00000000
_symmetry_Int_Tables_number   1
_chemical_formula_structural   Rb2ZnBr4
_chemical_formula_sum   'Rb24 Zn12 Br48'
_cell_volume   3221.33575646
_cell_formula_units_Z   12
loop_
 _symmetry_equiv_pos_site_id
 _symmetry_equiv_pos_as_xyz
  1  'x, y, z'
loop_
 _atom_site_type_symbol
 _atom_site_label
 _atom_site_symmetry_multiplicity
 _atom_site_fract_x
 _atom_site_fract_y
 _atom_site_fract_z
 _atom_site_occupancy
  Rb  Rb0  1  0.75004532  0.82390911  0.32900165  1
  Rb  Rb1  1  0.25004532  0.17609089  0.67099835  1
  Rb  Rb2  1  0.25004532  0.32390911  0.17099835  1
  Rb  Rb3  1  0.75004532  0.67609089  0.82900165  1
  Rb  Rb4  1  0.75889308  0.09856808  0.20748851  1
  Rb  Rb5  1  0.25889308  0.90143192  0.79251149  1
  Rb  Rb6  1  0.25889308  0.59856808  0.29251149  1
  Rb  Rb7  1  0.75889308  0.40143192  0.70748851  1
  Rb  Rb8  1  0.76094722  0.67701199  0.16322023  1
  Rb  Rb9  1  0.26094722  0.32298801  0.83677977  1
  Rb  Rb10  1  0.26094722  0.17701199  0.33677977  1
  Rb  Rb11  1  0.76094722  0.82298801  0.66322023  1
  Rb  Rb12  1  0.72041932  0.40886871  0.04120731  1
  Rb  Rb13  1  0.22041932  0.59113129  0.95879269  1
  Rb  Rb14  1  0.22041932  0.90886871  0.45879269  1
  Rb  Rb15  1  0.72041932  0.09113129  0.54120731  1
  Rb  Rb16  1  0.22014025  0.32352704  0.50425200  1
  Rb  Rb17  1  0.72014025  0.67647296  0.49574800  1
  Rb  Rb18  1  0.72014025  0.82352704  0.99574800  1
  Rb  Rb19  1  0.22014025  0.17647296  0.00425200  1
  Rb  Rb20  1  0.23744876  0.90031841  0.12427064  1
  Rb  Rb21  1  0.73744876  0.09968159  0.87572936  1
  Rb  Rb22  1  0.73744876  0.40031841  0.37572936  1
  Rb  Rb23  1  0.23744876  0.59968159  0.62427064  1
  Zn  Zn24  1  0.73143136  0.07983042  0.40741596  1
  Zn  Zn25  1  0.23143136  0.92016958  0.59258404  1
  Zn  Zn26  1  0.23143136  0.57983042  0.09258404  1
  Zn  Zn27  1  0.73143136  0.42016958  0.90741596  1
  Zn  Zn28  1  0.24785318  0.92142694  0.25798214  1
  Zn  Zn29  1  0.74785318  0.07857306  0.74201786  1
  Zn  Zn30  1  0.74785318  0.42142694  0.24201786  1
  Zn  Zn31  1  0.24785318  0.57857306  0.75798214  1
  Zn  Zn32  1  0.25291825  0.57883268  0.42574103  1
  Zn  Zn33  1  0.75291825  0.42116732  0.57425897  1
  Zn  Zn34  1  0.75291825  0.07883268  0.07425897  1
  Zn  Zn35  1  0.25291825  0.92116732  0.92574103  1
  Br  Br36  1  0.70974071  0.08092406  0.32620093  1
  Br  Br37  1  0.20974071  0.91907594  0.67379907  1
  Br  Br38  1  0.20974071  0.58092406  0.17379907  1
  Br  Br39  1  0.70974071  0.41907594  0.82620093  1
  Br  Br40  1  0.69529564  0.91784028  0.44039733  1
  Br  Br41  1  0.19529564  0.08215972  0.55960267  1
  Br  Br42  1  0.19529564  0.41784028  0.05960267  1
  Br  Br43  1  0.69529564  0.58215972  0.94039733  1
  Br  Br44  1  0.50870015  0.18348940  0.43829961  1
  Br  Br45  1  0.00870015  0.81651060  0.56170039  1
  Br  Br46  1  0.00870015  0.68348940  0.06170039  1
  Br  Br47  1  0.50870015  0.31651060  0.93829961  1
  Br  Br48  1  0.00028483  0.14172174  0.43474226  1
  Br  Br49  1  0.50028483  0.85827826  0.56525774  1
  Br  Br50  1  0.50028483  0.64172174  0.06525774  1
  Br  Br51  1  0.00028483  0.35827826  0.93474226  1
  Br  Br52  1  0.22557883  0.92081307  0.33930816  1
  Br  Br53  1  0.72557883  0.07918693  0.66069184  1
  Br  Br54  1  0.72557883  0.42081307  0.16069184  1
  Br  Br55  1  0.22557883  0.57918693  0.83930816  1
  Br  Br56  1  0.30671549  0.08107840  0.22497674  1
  Br  Br57  1  0.80671549  0.91892160  0.77502326  1
  Br  Br58  1  0.80671549  0.58107840  0.27502326  1
  Br  Br59  1  0.30671549  0.41892160  0.72497674  1
  Br  Br60  1  0.97939098  0.86887194  0.22492752  1
  Br  Br61  1  0.47939098  0.13112806  0.77507248  1
  Br  Br62  1  0.47939098  0.36887194  0.27507248  1
  Br  Br63  1  0.97939098  0.63112806  0.72492752  1
  Br  Br64  1  0.46842382  0.80871408  0.23453869  1
  Br  Br65  1  0.96842382  0.19128592  0.76546131  1
  Br  Br66  1  0.96842382  0.30871408  0.26546131  1
  Br  Br67  1  0.46842382  0.69128592  0.73453869  1
  Br  Br68  1  0.29712775  0.57535111  0.50655954  1
  Br  Br69  1  0.79712775  0.42464889  0.49344046  1
  Br  Br70  1  0.79712775  0.07535111  0.99344046  1
  Br  Br71  1  0.29712775  0.92464889  0.00655954  1
  Br  Br72  1  0.19568324  0.41952103  0.39206470  1
  Br  Br73  1  0.69568324  0.58047897  0.60793530  1
  Br  Br74  1  0.69568324  0.91952103  0.10793530  1
  Br  Br75  1  0.19568324  0.08047897  0.89206470  1
  Br  Br76  1  0.02483339  0.68846685  0.40564044  1
  Br  Br77  1  0.52483339  0.31153315  0.59435956  1
  Br  Br78  1  0.52483339  0.18846685  0.09435956  1
  Br  Br79  1  0.02483339  0.81153315  0.90564044  1
  Br  Br80  1  0.51522842  0.63469949  0.38979392  1
  Br  Br81  1  0.01522842  0.36530051  0.61020608  1
  Br  Br82  1  0.01522842  0.13469949  0.11020608  1
  Br  Br83  1  0.51522842  0.86530051  0.88979392  1
