# generated using pymatgen
data_Sr2Mn3P4(HO8)2
_symmetry_space_group_name_H-M   'P 1'
_cell_length_a   8.02220295
_cell_length_b   8.89289578
_cell_length_c   9.72187797
_cell_angle_alpha   90.00000000
_cell_angle_beta   101.52806857
_cell_angle_gamma   90.00000000
_symmetry_Int_Tables_number   1
_chemical_formula_structural   Sr2Mn3P4(HO8)2
_chemical_formula_sum   'Sr4 Mn6 P8 H4 O32'
_cell_volume   679.57341325
_cell_formula_units_Z   2
loop_
 _symmetry_equiv_pos_site_id
 _symmetry_equiv_pos_as_xyz
  1  'x, y, z'
loop_
 _atom_site_type_symbol
 _atom_site_label
 _atom_site_symmetry_multiplicity
 _atom_site_fract_x
 _atom_site_fract_y
 _atom_site_fract_z
 _atom_site_occupancy
  Sr  Sr0  1  0.57395495  0.02422265  0.73526765  1
  Sr  Sr1  1  0.42604505  0.52422265  0.76473235  1
  Sr  Sr2  1  0.42604505  0.97577735  0.26473235  1
  Sr  Sr3  1  0.57395495  0.47577735  0.23526765  1
  Mn  Mn4  1  0.00000000  0.00000000  0.00000000  1
  Mn  Mn5  1  -0.00000000  0.50000000  0.50000000  1
  Mn  Mn6  1  0.89808149  0.64380829  0.90457793  1
  Mn  Mn7  1  0.10191851  0.14380829  0.59542207  1
  Mn  Mn8  1  0.10191851  0.35619171  0.09542207  1
  Mn  Mn9  1  0.89808149  0.85619171  0.40457793  1
  P  P10  1  0.14545678  0.79768484  0.73018198  1
  P  P11  1  0.85454322  0.29768484  0.76981802  1
  P  P12  1  0.85454322  0.20231516  0.26981802  1
  P  P13  1  0.14545678  0.70231516  0.23018198  1
  P  P14  1  0.65599719  0.78504674  0.06470281  1
  P  P15  1  0.34400281  0.28504674  0.43529719  1
  P  P16  1  0.34400281  0.21495326  0.93529719  1
  P  P17  1  0.65599719  0.71495326  0.56470281  1
  H  H18  1  0.40144521  0.83983898  0.93230697  1
  H  H19  1  0.59855479  0.33983898  0.56769303  1
  H  H20  1  0.59855479  0.16016102  0.06769303  1
  H  H21  1  0.40144521  0.66016102  0.43230697  1
  O  O22  1  0.05833102  0.82081244  0.85766244  1
  O  O23  1  0.94166898  0.32081244  0.64233756  1
  O  O24  1  0.94166898  0.17918756  0.14233756  1
  O  O25  1  0.05833102  0.67918756  0.35766244  1
  O  O26  1  0.06831635  0.90613591  0.60858339  1
  O  O27  1  0.93168365  0.40613591  0.89141661  1
  O  O28  1  0.93168365  0.09386409  0.39141661  1
  O  O29  1  0.06831635  0.59386409  0.10858339  1
  O  O30  1  0.12272420  0.63135487  0.68269770  1
  O  O31  1  0.87727580  0.13135487  0.81730230  1
  O  O32  1  0.87727580  0.36864513  0.31730230  1
  O  O33  1  0.12272420  0.86864513  0.18269770  1
  O  O34  1  0.34152780  0.82675165  0.77815859  1
  O  O35  1  0.65847220  0.32675165  0.72184141  1
  O  O36  1  0.65847220  0.17324835  0.22184141  1
  O  O37  1  0.34152780  0.67324835  0.27815859  1
  O  O38  1  0.70595039  0.80742435  0.22396567  1
  O  O39  1  0.29404961  0.30742435  0.27603433  1
  O  O40  1  0.29404961  0.19257565  0.77603433  1
  O  O41  1  0.70595039  0.69257565  0.72396567  1
  O  O42  1  0.76164920  0.87389804  0.97639900  1
  O  O43  1  0.23835080  0.37389804  0.52360100  1
  O  O44  1  0.23835080  0.12610196  0.02360100  1
  O  O45  1  0.76164920  0.62610196  0.47639900  1
  O  O46  1  0.65231141  0.61788689  0.01917418  1
  O  O47  1  0.34768859  0.11788689  0.48082582  1
  O  O48  1  0.34768859  0.38211311  0.98082582  1
  O  O49  1  0.65231141  0.88211311  0.51917418  1
  O  O50  1  0.46494853  0.84683366  0.03602210  1
  O  O51  1  0.53505147  0.34683366  0.46397790  1
  O  O52  1  0.53505147  0.15316634  0.96397790  1
  O  O53  1  0.46494853  0.65316634  0.53602210  1
