# generated using pymatgen
data_SrGaBO4
_symmetry_space_group_name_H-M   'P 1'
_cell_length_a   5.98272260
_cell_length_b   9.11967977
_cell_length_c   15.55476532
_cell_angle_alpha   90.00000000
_cell_angle_beta   90.00000000
_cell_angle_gamma   90.00000000
_symmetry_Int_Tables_number   1
_chemical_formula_structural   SrGaBO4
_chemical_formula_sum   'Sr8 Ga8 B8 O32'
_cell_volume   848.67599513
_cell_formula_units_Z   8
loop_
 _symmetry_equiv_pos_site_id
 _symmetry_equiv_pos_as_xyz
  1  'x, y, z'
loop_
 _atom_site_type_symbol
 _atom_site_label
 _atom_site_symmetry_multiplicity
 _atom_site_fract_x
 _atom_site_fract_y
 _atom_site_fract_z
 _atom_site_occupancy
  Sr  Sr0  1  0.50261221  0.57390558  0.62067317  1
  Sr  Sr1  1  0.50261221  0.42609442  0.37932683  1
  Sr  Sr2  1  0.49738779  0.92609442  0.12067317  1
  Sr  Sr3  1  0.49738779  0.07390558  0.87932683  1
  Sr  Sr4  1  0.99700140  0.21321138  0.02136585  1
  Sr  Sr5  1  0.99700140  0.78678862  0.97863415  1
  Sr  Sr6  1  0.00299860  0.28678862  0.52136585  1
  Sr  Sr7  1  0.00299860  0.71321138  0.47863415  1
  Ga  Ga8  1  0.74675643  0.46182234  0.84555353  1
  Ga  Ga9  1  0.74675643  0.53817766  0.15444647  1
  Ga  Ga10  1  0.25324357  0.03817766  0.34555353  1
  Ga  Ga11  1  0.25324357  0.96182234  0.65444647  1
  Ga  Ga12  1  0.24748272  0.46355217  0.84647382  1
  Ga  Ga13  1  0.24748272  0.53644783  0.15352618  1
  Ga  Ga14  1  0.75251728  0.03644783  0.34647382  1
  Ga  Ga15  1  0.75251728  0.96355217  0.65352618  1
  B  B16  1  0.00023312  0.51974093  0.68685045  1
  B  B17  1  0.00023312  0.48025907  0.31314955  1
  B  B18  1  0.99976688  0.98025907  0.18685045  1
  B  B19  1  0.99976688  0.01974093  0.81314955  1
  B  B20  1  0.50233953  0.20723980  0.57579165  1
  B  B21  1  0.50233953  0.79276020  0.42420835  1
  B  B22  1  0.49766047  0.29276020  0.07579165  1
  B  B23  1  0.49766047  0.70723980  0.92420835  1
  O  O24  1  0.00293318  0.53070428  0.59900977  1
  O  O25  1  0.00293318  0.46929572  0.40099023  1
  O  O26  1  0.99706682  0.96929572  0.09900977  1
  O  O27  1  0.99706682  0.03070428  0.90099023  1
  O  O28  1  0.29379364  0.64095311  0.90543680  1
  O  O29  1  0.29379364  0.35904689  0.09456320  1
  O  O30  1  0.70620636  0.85904689  0.40543680  1
  O  O31  1  0.70620636  0.14095311  0.59456320  1
  O  O32  1  0.49648737  0.34604590  0.85396089  1
  O  O33  1  0.49648737  0.65395410  0.14603911  1
  O  O34  1  0.50351263  0.15395410  0.35396089  1
  O  O35  1  0.50351263  0.84604590  0.64603911  1
  O  O36  1  0.70042460  0.35783918  0.09808935  1
  O  O37  1  0.70042460  0.64216082  0.90191065  1
  O  O38  1  0.29957540  0.14216082  0.59808935  1
  O  O39  1  0.29957540  0.85783918  0.40191065  1
  O  O40  1  0.20314231  0.51783084  0.73119711  1
  O  O41  1  0.20314231  0.48216916  0.26880289  1
  O  O42  1  0.79685769  0.98216916  0.23119711  1
  O  O43  1  0.79685769  0.01783084  0.76880289  1
  O  O44  1  0.79539064  0.50739057  0.72920308  1
  O  O45  1  0.79539064  0.49260943  0.27079692  1
  O  O46  1  0.20460936  0.99260943  0.22920308  1
  O  O47  1  0.20460936  0.00739057  0.77079692  1
  O  O48  1  0.99703954  0.37662409  0.89176852  1
  O  O49  1  0.99703954  0.62337591  0.10823148  1
  O  O50  1  0.00296046  0.12337591  0.39176852  1
  O  O51  1  0.00296046  0.87662409  0.60823148  1
  O  O52  1  0.50100044  0.34030333  0.53433437  1
  O  O53  1  0.50100044  0.65969667  0.46566563  1
  O  O54  1  0.49899956  0.15969667  0.03433437  1
  O  O55  1  0.49899956  0.84030333  0.96566563  1
