# generated using pymatgen
data_CsB5O8
_symmetry_space_group_name_H-M   'P 1'
_cell_length_a   8.58582554
_cell_length_b   8.82076957
_cell_length_c   21.53481798
_cell_angle_alpha   90.00000000
_cell_angle_beta   90.00000000
_cell_angle_gamma   90.00000000
_symmetry_Int_Tables_number   1
_chemical_formula_structural   CsB5O8
_chemical_formula_sum   'Cs8 B40 O64'
_cell_volume   1630.90904669
_cell_formula_units_Z   8
loop_
 _symmetry_equiv_pos_site_id
 _symmetry_equiv_pos_as_xyz
  1  'x, y, z'
loop_
 _atom_site_type_symbol
 _atom_site_label
 _atom_site_symmetry_multiplicity
 _atom_site_fract_x
 _atom_site_fract_y
 _atom_site_fract_z
 _atom_site_occupancy
  Cs  Cs0  1  0.96664571  0.64283310  0.11857932  1
  Cs  Cs1  1  0.53335429  0.14283310  0.88142068  1
  Cs  Cs2  1  0.46664571  0.35716690  0.38142068  1
  Cs  Cs3  1  0.03335429  0.85716690  0.61857932  1
  Cs  Cs4  1  0.03335429  0.35716690  0.88142068  1
  Cs  Cs5  1  0.46664571  0.85716690  0.11857932  1
  Cs  Cs6  1  0.53335429  0.64283310  0.61857932  1
  Cs  Cs7  1  0.96664571  0.14283310  0.38142068  1
  B  B8  1  0.86846103  0.05268383  0.11943009  1
  B  B9  1  0.63153897  0.55268383  0.88056991  1
  B  B10  1  0.36846103  0.94731617  0.38056991  1
  B  B11  1  0.13153897  0.44731617  0.61943009  1
  B  B12  1  0.13153897  0.94731617  0.88056991  1
  B  B13  1  0.36846103  0.44731617  0.11943009  1
  B  B14  1  0.63153897  0.05268383  0.61943009  1
  B  B15  1  0.86846103  0.55268383  0.38056991  1
  B  B16  1  0.68783306  0.75787911  0.95608833  1
  B  B17  1  0.81216694  0.25787911  0.04391167  1
  B  B18  1  0.18783306  0.24212089  0.54391167  1
  B  B19  1  0.31216694  0.74212089  0.45608833  1
  B  B20  1  0.31216694  0.24212089  0.04391167  1
  B  B21  1  0.18783306  0.74212089  0.95608833  1
  B  B22  1  0.81216694  0.75787911  0.45608833  1
  B  B23  1  0.68783306  0.25787911  0.54391167  1
  B  B24  1  0.80972271  0.54576546  0.26838098  1
  B  B25  1  0.69027729  0.04576546  0.73161902  1
  B  B26  1  0.30972271  0.45423454  0.23161902  1
  B  B27  1  0.19027729  0.95423454  0.76838098  1
  B  B28  1  0.19027729  0.45423454  0.73161902  1
  B  B29  1  0.30972271  0.95423454  0.26838098  1
  B  B30  1  0.69027729  0.54576546  0.76838098  1
  B  B31  1  0.80972271  0.04576546  0.23161902  1
  B  B32  1  0.75335717  0.00186241  0.01518261  1
  B  B33  1  0.74664283  0.50186241  0.98481739  1
  B  B34  1  0.25335717  0.99813759  0.48481739  1
  B  B35  1  0.24664283  0.49813759  0.51518261  1
  B  B36  1  0.24664283  0.99813759  0.98481739  1
  B  B37  1  0.25335717  0.49813759  0.01518261  1
  B  B38  1  0.74664283  0.00186241  0.51518261  1
  B  B39  1  0.75335717  0.50186241  0.48481739  1
  B  B40  1  0.07202006  0.51353372  0.30144889  1
  B  B41  1  0.42797994  0.01353372  0.69855111  1
  B  B42  1  0.57202006  0.48646628  0.19855111  1
  B  B43  1  0.92797994  0.98646628  0.80144889  1
  B  B44  1  0.92797994  0.48646628  0.69855111  1
  B  B45  1  0.57202006  0.98646628  0.30144889  1
  B  B46  1  0.42797994  0.51353372  0.80144889  1
  B  B47  1  0.07202006  0.01353372  0.19855111  1
  O  O48  1  0.02670969  0.00256088  0.13843097  1
  O  O49  1  0.47329031  0.50256088  0.86156903  1
  O  O50  1  0.52670969  0.99743912  0.36156903  1
  O  O51  1  0.97329031  0.49743912  0.63843097  1
  O  O52  1  0.97329031  0.99743912  0.86156903  1
  O  O53  1  0.52670969  0.49743912  0.13843097  1
  O  O54  1  0.47329031  0.00256088  0.63843097  1
  O  O55  1  0.02670969  0.50256088  0.36156903  1
  O  O56  1  0.81271121  0.95011252  0.06935688  1
  O  O57  1  0.68728879  0.45011252  0.93064312  1
  O  O58  1  0.31271121  0.04988748  0.43064312  1
  O  O59  1  0.18728879  0.54988748  0.56935688  1
  O  O60  1  0.18728879  0.04988748  0.93064312  1
  O  O61  1  0.31271121  0.54988748  0.06935688  1
  O  O62  1  0.68728879  0.95011252  0.56935688  1
  O  O63  1  0.81271121  0.45011252  0.43064312  1
  O  O64  1  0.87112754  0.21181252  0.09884388  1
  O  O65  1  0.62887246  0.71181252  0.90115612  1
  O  O66  1  0.37112754  0.78818748  0.40115612  1
  O  O67  1  0.12887246  0.28818748  0.59884388  1
  O  O68  1  0.12887246  0.78818748  0.90115612  1
  O  O69  1  0.37112754  0.28818748  0.09884388  1
  O  O70  1  0.62887246  0.21181252  0.59884388  1
  O  O71  1  0.87112754  0.71181252  0.40115612  1
  O  O72  1  0.75771287  0.03401330  0.17276615  1
  O  O73  1  0.74228713  0.53401330  0.82723385  1
  O  O74  1  0.25771287  0.96598670  0.32723385  1
  O  O75  1  0.24228713  0.46598670  0.67276615  1
  O  O76  1  0.24228713  0.96598670  0.82723385  1
  O  O77  1  0.25771287  0.46598670  0.17276615  1
  O  O78  1  0.74228713  0.03401330  0.67276615  1
  O  O79  1  0.75771287  0.53401330  0.32723385  1
  O  O80  1  0.74972486  0.65612284  0.99916811  1
  O  O81  1  0.75027514  0.15612284  0.00083189  1
  O  O82  1  0.24972486  0.34387716  0.50083189  1
  O  O83  1  0.25027514  0.84387716  0.49916811  1
  O  O84  1  0.25027514  0.34387716  0.00083189  1
  O  O85  1  0.24972486  0.84387716  0.99916811  1
  O  O86  1  0.75027514  0.65612284  0.49916811  1
  O  O87  1  0.74972486  0.15612284  0.50083189  1
  O  O88  1  0.96916604  0.56467567  0.25576523  1
  O  O89  1  0.53083396  0.06467567  0.74423477  1
  O  O90  1  0.46916604  0.43532433  0.24423477  1
  O  O91  1  0.03083396  0.93532433  0.75576523  1
  O  O92  1  0.03083396  0.43532433  0.74423477  1
  O  O93  1  0.46916604  0.93532433  0.25576523  1
  O  O94  1  0.53083396  0.56467567  0.75576523  1
  O  O95  1  0.96916604  0.06467567  0.24423477  1
  O  O96  1  0.81606653  0.41058946  0.02911726  1
  O  O97  1  0.68393347  0.91058946  0.97088274  1
  O  O98  1  0.31606653  0.58941054  0.47088274  1
  O  O99  1  0.18393347  0.08941054  0.52911726  1
  O  O100  1  0.18393347  0.58941054  0.97088274  1
  O  O101  1  0.31606653  0.08941054  0.02911726  1
  O  O102  1  0.68393347  0.41058946  0.52911726  1
  O  O103  1  0.81606653  0.91058946  0.47088274  1
  O  O104  1  0.21909433  0.96386116  0.21525108  1
  O  O105  1  0.28090567  0.46386116  0.78474892  1
  O  O106  1  0.71909433  0.03613884  0.28474892  1
  O  O107  1  0.78090567  0.53613884  0.71525108  1
  O  O108  1  0.78090567  0.03613884  0.78474892  1
  O  O109  1  0.71909433  0.53613884  0.21525108  1
  O  O110  1  0.28090567  0.96386116  0.71525108  1
  O  O111  1  0.21909433  0.46386116  0.28474892  1
