# generated using pymatgen
data_TbV(SeO4)2
_symmetry_space_group_name_H-M   'P 1'
_cell_length_a   6.79133805
_cell_length_b   7.04509504
_cell_length_c   13.58009393
_cell_angle_alpha   90.00000000
_cell_angle_beta   91.27613556
_cell_angle_gamma   90.00000000
_symmetry_Int_Tables_number   1
_chemical_formula_structural   TbV(SeO4)2
_chemical_formula_sum   'Tb4 V4 Se8 O32'
_cell_volume   649.58688531
_cell_formula_units_Z   4
loop_
 _symmetry_equiv_pos_site_id
 _symmetry_equiv_pos_as_xyz
  1  'x, y, z'
loop_
 _atom_site_type_symbol
 _atom_site_label
 _atom_site_symmetry_multiplicity
 _atom_site_fract_x
 _atom_site_fract_y
 _atom_site_fract_z
 _atom_site_occupancy
  Tb  Tb0  1  0.62500586  0.25000000  0.86475353  1
  Tb  Tb1  1  0.37499414  0.75000000  0.13524647  1
  Tb  Tb2  1  0.07763815  0.25000000  0.06808725  1
  Tb  Tb3  1  0.92236185  0.75000000  0.93191275  1
  V  V4  1  0.37269650  0.49099018  0.61450564  1
  V  V5  1  0.62730350  0.99099018  0.38549436  1
  V  V6  1  0.62730350  0.50900982  0.38549436  1
  V  V7  1  0.37269650  0.00900982  0.61450564  1
  Se  Se8  1  0.95916755  0.75000000  0.65066084  1
  Se  Se9  1  0.04083245  0.25000000  0.34933916  1
  Se  Se10  1  0.54800575  0.25000000  0.13810374  1
  Se  Se11  1  0.45199425  0.75000000  0.86189626  1
  Se  Se12  1  0.79536460  0.25000000  0.59386216  1
  Se  Se13  1  0.20463540  0.75000000  0.40613784  1
  Se  Se14  1  0.10828504  0.25000000  0.84009152  1
  Se  Se15  1  0.89171496  0.75000000  0.15990848  1
  O  O16  1  0.01922111  0.75000000  0.77245498  1
  O  O17  1  0.98077889  0.25000000  0.22754502  1
  O  O18  1  0.09138965  0.55402818  0.60594255  1
  O  O19  1  0.90861035  0.05402818  0.39405745  1
  O  O20  1  0.90861035  0.44597182  0.39405745  1
  O  O21  1  0.09138965  0.94597182  0.60594255  1
  O  O22  1  0.70879312  0.25000000  0.04008381  1
  O  O23  1  0.29120688  0.75000000  0.95991619  1
  O  O24  1  0.37548563  0.42572566  0.10803314  1
  O  O25  1  0.62451437  0.92572566  0.89196686  1
  O  O26  1  0.62451437  0.57427434  0.89196686  1
  O  O27  1  0.37548563  0.07427434  0.10803314  1
  O  O28  1  0.78831612  0.25000000  0.71868978  1
  O  O29  1  0.21168388  0.75000000  0.28131022  1
  O  O30  1  0.64043719  0.44582276  0.56325892  1
  O  O31  1  0.35956281  0.94582276  0.43674108  1
  O  O32  1  0.35956281  0.55417724  0.43674108  1
  O  O33  1  0.64043719  0.05417724  0.56325892  1
  O  O34  1  0.30911522  0.25000000  0.91981190  1
  O  O35  1  0.69088478  0.75000000  0.08018810  1
  O  O36  1  0.97357302  0.42323853  0.90263779  1
  O  O37  1  0.02642698  0.92323853  0.09736221  1
  O  O38  1  0.02642698  0.57676147  0.09736221  1
  O  O39  1  0.97357302  0.07676147  0.90263779  1
  O  O40  1  0.41302741  0.43712102  0.73272339  1
  O  O41  1  0.58697259  0.93712102  0.26727661  1
  O  O42  1  0.58697259  0.56287898  0.26727661  1
  O  O43  1  0.41302741  0.06287898  0.73272339  1
  O  O44  1  0.30039924  0.25000000  0.57183565  1
  O  O45  1  0.69960076  0.75000000  0.42816435  1
  O  O46  1  0.42304678  0.75000000  0.61713863  1
  O  O47  1  0.57695322  0.25000000  0.38286137  1
