# generated using pymatgen
data_AsC4S4N4Cl2O2F5
_symmetry_space_group_name_H-M   'P 1'
_cell_length_a   11.24573198
_cell_length_b   12.01666814
_cell_length_c   12.99001407
_cell_angle_alpha   110.56553403
_cell_angle_beta   90.00000000
_cell_angle_gamma   90.00000000
_symmetry_Int_Tables_number   1
_chemical_formula_structural   AsC4S4N4Cl2O2F5
_chemical_formula_sum   'As4 C16 S16 N16 Cl8 O8 F20'
_cell_volume   1643.55028588
_cell_formula_units_Z   4
loop_
 _symmetry_equiv_pos_site_id
 _symmetry_equiv_pos_as_xyz
  1  'x, y, z'
loop_
 _atom_site_type_symbol
 _atom_site_label
 _atom_site_symmetry_multiplicity
 _atom_site_fract_x
 _atom_site_fract_y
 _atom_site_fract_z
 _atom_site_occupancy
  As  As0  1  0.25155771  0.24551337  0.69075814  1
  As  As1  1  0.24844229  0.74551337  0.19075814  1
  As  As2  1  0.74844229  0.75448663  0.30924186  1
  As  As3  1  0.75155771  0.25448663  0.80924186  1
  C  C4  1  0.56546097  0.05890691  0.79247936  1
  C  C5  1  0.60840388  0.21215462  0.32739197  1
  C  C6  1  0.01265065  0.54643676  0.78584824  1
  C  C7  1  0.80639933  0.78601098  0.79590253  1
  C  C8  1  0.30639933  0.71398902  0.70409747  1
  C  C9  1  0.43453903  0.94109309  0.20752064  1
  C  C10  1  0.10840388  0.28784538  0.17260803  1
  C  C11  1  0.48734935  0.04643676  0.28584824  1
  C  C12  1  0.89159612  0.71215462  0.82739197  1
  C  C13  1  0.69360067  0.28601098  0.29590253  1
  C  C14  1  0.98734935  0.45356324  0.21415176  1
  C  C15  1  0.39159612  0.78784538  0.67260803  1
  C  C16  1  0.51265065  0.95356324  0.71415176  1
  C  C17  1  0.93453903  0.55890691  0.29247936  1
  C  C18  1  0.19360067  0.21398902  0.20409747  1
  C  C19  1  0.06546097  0.44109309  0.70752064  1
  S  S20  1  0.31394261  0.58230674  0.50754911  1
  S  S21  1  0.18605739  0.08230674  0.00754911  1
  S  S22  1  0.64817394  0.03123407  0.60864446  1
  S  S23  1  0.57359418  0.27290182  0.46790969  1
  S  S24  1  0.07359418  0.22709818  0.03209031  1
  S  S25  1  0.96033565  0.05516583  0.35223694  1
  S  S26  1  0.85182606  0.53123407  0.10864446  1
  S  S27  1  0.92640582  0.77290182  0.96790969  1
  S  S28  1  0.42640582  0.72709818  0.53209031  1
  S  S29  1  0.53966435  0.55516583  0.85223694  1
  S  S30  1  0.68605739  0.41769326  0.49245089  1
  S  S31  1  0.35182606  0.96876593  0.39135554  1
  S  S32  1  0.81394261  0.91769326  0.99245089  1
  S  S33  1  0.46033565  0.44483417  0.14776306  1
  S  S34  1  0.03966435  0.94483417  0.64776306  1
  S  S35  1  0.14817394  0.46876593  0.89135554  1
  N  N36  1  0.14228845  0.38967146  0.75510407  1
  N  N37  1  0.76499615  0.88351311  0.86745800  1
  N  N38  1  0.06587584  0.38583901  0.24437802  1
  N  N39  1  0.26499615  0.61648689  0.63254200  1
  N  N40  1  0.43412416  0.88583901  0.74437802  1
  N  N41  1  0.56587584  0.11416099  0.25562198  1
  N  N42  1  0.94755309  0.43259400  0.11149463  1
  N  N43  1  0.93412416  0.61416099  0.75562198  1
  N  N44  1  0.05244691  0.56740600  0.88850537  1
  N  N45  1  0.44755309  0.06740600  0.38850537  1
  N  N46  1  0.64228845  0.11032854  0.74489593  1
  N  N47  1  0.35771155  0.88967146  0.25510407  1
  N  N48  1  0.55244691  0.93259400  0.61149463  1
  N  N49  1  0.23500385  0.11648689  0.13254200  1
  N  N50  1  0.85771155  0.61032854  0.24489593  1
  N  N51  1  0.73500385  0.38351311  0.36745800  1
  Cl  Cl52  1  0.23780229  0.25623659  0.33836782  1
  Cl  Cl53  1  0.03344974  0.39268452  0.57305267  1
  Cl  Cl54  1  0.26219771  0.75623659  0.83836782  1
  Cl  Cl55  1  0.76219771  0.74376341  0.66163218  1
  Cl  Cl56  1  0.53344974  0.10731548  0.92694733  1
  Cl  Cl57  1  0.96655026  0.60731548  0.42694733  1
  Cl  Cl58  1  0.46655026  0.89268452  0.07305267  1
  Cl  Cl59  1  0.73780229  0.24376341  0.16163218  1
  O  O60  1  0.47379780  0.44420656  0.25865062  1
  O  O61  1  0.13669158  0.87670237  0.58178460  1
  O  O62  1  0.97379780  0.05579344  0.24134938  1
  O  O63  1  0.63669158  0.62329763  0.91821540  1
  O  O64  1  0.02620220  0.94420656  0.75865062  1
  O  O65  1  0.86330842  0.12329763  0.41821540  1
  O  O66  1  0.36330842  0.37670237  0.08178460  1
  O  O67  1  0.52620220  0.55579344  0.74134938  1
  F  F68  1  0.19460050  0.81193505  0.09886446  1
  F  F69  1  0.69460050  0.68806495  0.40113554  1
  F  F70  1  0.35557575  0.32586906  0.79131162  1
  F  F71  1  0.68904266  0.31136923  0.71278193  1
  F  F72  1  0.80539950  0.18806495  0.90113554  1
  F  F73  1  0.63928999  0.32812116  0.90354748  1
  F  F74  1  0.14442425  0.82586906  0.29131162  1
  F  F75  1  0.34865241  0.12374982  0.63913858  1
  F  F76  1  0.31095734  0.68863077  0.28721807  1
  F  F77  1  0.81095734  0.81136923  0.21278193  1
  F  F78  1  0.30539950  0.31193505  0.59886446  1
  F  F79  1  0.86071001  0.82812116  0.40354748  1
  F  F80  1  0.13928999  0.17187884  0.59645252  1
  F  F81  1  0.36071001  0.67187884  0.09645252  1
  F  F82  1  0.65134759  0.87625018  0.36086142  1
  F  F83  1  0.84865241  0.37625018  0.86086142  1
  F  F84  1  0.18904266  0.18863077  0.78721807  1
  F  F85  1  0.15134759  0.62374982  0.13913858  1
  F  F86  1  0.64442425  0.67413094  0.20868838  1
  F  F87  1  0.85557575  0.17413094  0.70868838  1
