# generated using pymatgen
data_Cu2AsO5
_symmetry_space_group_name_H-M   'P 1'
_cell_length_a   5.89405613
_cell_length_b   8.12453191
_cell_length_c   8.87457600
_cell_angle_alpha   90.00000000
_cell_angle_beta   90.00000000
_cell_angle_gamma   90.00000000
_symmetry_Int_Tables_number   1
_chemical_formula_structural   Cu2AsO5
_chemical_formula_sum   'Cu8 As4 O20'
_cell_volume   424.97191423
_cell_formula_units_Z   4
loop_
 _symmetry_equiv_pos_site_id
 _symmetry_equiv_pos_as_xyz
  1  'x, y, z'
loop_
 _atom_site_type_symbol
 _atom_site_label
 _atom_site_symmetry_multiplicity
 _atom_site_fract_x
 _atom_site_fract_y
 _atom_site_fract_z
 _atom_site_occupancy
  Cu  Cu0  1  0.50000000  0.84923531  0.61193267  1
  Cu  Cu1  1  0.50000000  0.15076469  0.38806733  1
  Cu  Cu2  1  -0.00000000  0.65076469  0.11193267  1
  Cu  Cu3  1  0.00000000  0.34923531  0.88806733  1
  Cu  Cu4  1  0.25242057  0.50000000  0.50000000  1
  Cu  Cu5  1  0.24757943  0.00000000  -0.00000000  1
  Cu  Cu6  1  0.74757943  0.50000000  0.50000000  1
  Cu  Cu7  1  0.75242057  0.00000000  -0.00000000  1
  As  As8  1  0.50000000  0.76247742  0.25006110  1
  As  As9  1  0.50000000  0.23752258  0.74993890  1
  As  As10  1  -0.00000000  0.73752258  0.75006110  1
  As  As11  1  0.00000000  0.26247742  0.24993890  1
  O  O12  1  0.50000000  0.91009560  0.39371383  1
  O  O13  1  0.50000000  0.08990440  0.60628617  1
  O  O14  1  -0.00000000  0.58990440  0.89371383  1
  O  O15  1  0.00000000  0.41009560  0.10628617  1
  O  O16  1  0.50000000  0.86501830  0.07562143  1
  O  O17  1  0.50000000  0.13498170  0.92437857  1
  O  O18  1  0.00000000  0.63498170  0.57562143  1
  O  O19  1  -0.00000000  0.36501830  0.42437857  1
  O  O20  1  0.50000000  0.62695310  0.57064270  1
  O  O21  1  0.50000000  0.37304690  0.42935730  1
  O  O22  1  -0.00000000  0.87304690  0.07064270  1
  O  O23  1  0.00000000  0.12695310  0.92935730  1
  O  O24  1  0.74294145  0.64846811  0.26452064  1
  O  O25  1  0.74294145  0.35153189  0.73547936  1
  O  O26  1  0.75705855  0.85153189  0.76452064  1
  O  O27  1  0.75705855  0.14846811  0.23547936  1
  O  O28  1  0.25705855  0.35153189  0.73547936  1
  O  O29  1  0.25705855  0.64846811  0.26452064  1
  O  O30  1  0.24294145  0.14846811  0.23547936  1
  O  O31  1  0.24294145  0.85153189  0.76452064  1
