# generated using pymatgen
data_BaTi(SiO3)3
_symmetry_space_group_name_H-M   'P 1'
_cell_length_a   9.89041822
_cell_length_b   11.63030511
_cell_length_c   11.63030511
_cell_angle_alpha   120.00000243
_cell_angle_beta   90.00000000
_cell_angle_gamma   90.00000000
_symmetry_Int_Tables_number   1
_chemical_formula_structural   BaTi(SiO3)3
_chemical_formula_sum   'Ba6 Ti6 Si18 O54'
_cell_volume   1158.58391167
_cell_formula_units_Z   6
loop_
 _symmetry_equiv_pos_site_id
 _symmetry_equiv_pos_as_xyz
  1  'x, y, z'
loop_
 _atom_site_type_symbol
 _atom_site_label
 _atom_site_symmetry_multiplicity
 _atom_site_fract_x
 _atom_site_fract_y
 _atom_site_fract_z
 _atom_site_occupancy
  Ba  Ba0  1  0.50020610  -0.00000000  0.00000000  1
  Ba  Ba1  1  0.00020610  -0.00000000  0.00000000  1
  Ba  Ba2  1  0.47340160  0.66666700  0.33333300  1
  Ba  Ba3  1  0.97340160  0.33333400  0.66666700  1
  Ba  Ba4  1  0.47423644  0.33333300  0.66666700  1
  Ba  Ba5  1  0.97423644  0.66666600  0.33333300  1
  Ti  Ti6  1  0.48277519  0.33298430  0.99955663  1
  Ti  Ti7  1  0.48277519  0.66657233  0.66701570  1
  Ti  Ti8  1  0.48277519  0.00044337  0.33342767  1
  Ti  Ti9  1  0.98277519  0.33342767  0.00044337  1
  Ti  Ti10  1  0.98277519  0.99955663  0.33298430  1
  Ti  Ti11  1  0.98277519  0.66701570  0.66657233  1
  Si  Si12  1  0.23775673  0.71651939  0.87994918  1
  Si  Si13  1  0.23775673  0.16342980  0.28348061  1
  Si  Si14  1  0.23775673  0.12005082  0.83657020  1
  Si  Si15  1  0.73775673  0.83657020  0.12005082  1
  Si  Si16  1  0.73775673  0.87994918  0.71651939  1
  Si  Si17  1  0.73775673  0.28348061  0.16342980  1
  Si  Si18  1  0.23061071  0.49724956  0.94978252  1
  Si  Si19  1  0.23061071  0.45253296  0.50275044  1
  Si  Si20  1  0.23061071  0.05021748  0.54746704  1
  Si  Si21  1  0.73061071  0.54746704  0.05021748  1
  Si  Si22  1  0.73061071  0.94978252  0.49724956  1
  Si  Si23  1  0.73061071  0.50275044  0.45253296  1
  Si  Si24  1  0.73052562  0.16862252  0.78607392  1
  Si  Si25  1  0.73052562  0.61745140  0.83137748  1
  Si  Si26  1  0.73052562  0.21392608  0.38254860  1
  Si  Si27  1  0.23052562  0.38254860  0.21392608  1
  Si  Si28  1  0.23052562  0.78607392  0.16862252  1
  Si  Si29  1  0.23052562  0.83137748  0.61745140  1
  O  O30  1  0.72556646  0.04354222  0.81570556  1
  O  O31  1  0.72556646  0.77216334  0.95645778  1
  O  O32  1  0.72556646  0.18429444  0.22783666  1
  O  O33  1  0.22556646  0.22783666  0.18429444  1
  O  O34  1  0.22556646  0.81570556  0.04354222  1
  O  O35  1  0.22556646  0.95645778  0.77216334  1
  O  O36  1  0.23385839  0.62208449  0.10440595  1
  O  O37  1  0.23385839  0.48232146  0.37791551  1
  O  O38  1  0.23385839  0.89559405  0.51767854  1
  O  O39  1  0.73385839  0.51767854  0.89559405  1
  O  O40  1  0.73385839  0.10440595  0.62208449  1
  O  O41  1  0.73385839  0.37791551  0.48232146  1
  O  O42  1  0.23962772  0.56178043  0.85067518  1
  O  O43  1  0.23962772  0.28889476  0.43821957  1
  O  O44  1  0.23962772  0.14932482  0.71110524  1
  O  O45  1  0.73962772  0.71110524  0.14932482  1
  O  O46  1  0.73962772  0.85067518  0.56178043  1
  O  O47  1  0.73962772  0.43821957  0.28889476  1
  O  O48  1  0.36303504  0.40271566  0.91402060  1
  O  O49  1  0.36303504  0.51130494  0.59728434  1
  O  O50  1  0.36303504  0.08597940  0.48869506  1
  O  O51  1  0.86303504  0.48869506  0.08597940  1
  O  O52  1  0.86303504  0.91402060  0.40271566  1
  O  O53  1  0.86303504  0.59728434  0.51130494  1
  O  O54  1  0.36930749  0.41369088  0.15964640  1
  O  O55  1  0.36930749  0.74595552  0.58630912  1
  O  O56  1  0.36930749  0.84035360  0.25404448  1
  O  O57  1  0.86930749  0.25404448  0.84035360  1
  O  O58  1  0.86930749  0.15964640  0.41369088  1
  O  O59  1  0.86930749  0.58630912  0.74595552  1
  O  O60  1  0.37625743  0.75665514  0.83354299  1
  O  O61  1  0.37625743  0.07688785  0.24334486  1
  O  O62  1  0.37625743  0.16645701  0.92311215  1
  O  O63  1  0.87625743  0.92311215  0.16645701  1
  O  O64  1  0.87625743  0.83354299  0.75665514  1
  O  O65  1  0.87625743  0.24334486  0.07688785  1
  O  O66  1  0.60370008  0.81965543  0.74742204  1
  O  O67  1  0.60370008  0.92776661  0.18034457  1
  O  O68  1  0.60370008  0.25257796  0.07223339  1
  O  O69  1  0.10370008  0.07223339  0.25257796  1
  O  O70  1  0.10370008  0.74742204  0.81965543  1
  O  O71  1  0.10370008  0.18034457  0.92776661  1
  O  O72  1  0.58979094  0.49978946  0.08529701  1
  O  O73  1  0.58979094  0.58550756  0.50021054  1
  O  O74  1  0.58979094  0.91470299  0.41449244  1
  O  O75  1  0.08979094  0.41449244  0.91470299  1
  O  O76  1  0.08979094  0.08529701  0.49978946  1
  O  O77  1  0.08979094  0.50021054  0.58550756  1
  O  O78  1  0.59534015  0.26017001  0.83749303  1
  O  O79  1  0.59534015  0.57732302  0.73982999  1
  O  O80  1  0.59534015  0.16250697  0.42267698  1
  O  O81  1  0.09534015  0.42267698  0.16250697  1
  O  O82  1  0.09534015  0.83749303  0.26017001  1
  O  O83  1  0.09534015  0.73982999  0.57732302  1
