# generated using pymatgen
data_Bi(W2Cl5)3
_symmetry_space_group_name_H-M   'P 1'
_cell_length_a   12.71534046
_cell_length_b   14.00425489
_cell_length_c   15.21024622
_cell_angle_alpha   64.91250573
_cell_angle_beta   90.00000000
_cell_angle_gamma   90.00000000
_symmetry_Int_Tables_number   1
_chemical_formula_structural   Bi(W2Cl5)3
_chemical_formula_sum   'Bi4 W24 Cl60'
_cell_volume   2452.95785175
_cell_formula_units_Z   4
loop_
 _symmetry_equiv_pos_site_id
 _symmetry_equiv_pos_as_xyz
  1  'x, y, z'
loop_
 _atom_site_type_symbol
 _atom_site_label
 _atom_site_symmetry_multiplicity
 _atom_site_fract_x
 _atom_site_fract_y
 _atom_site_fract_z
 _atom_site_occupancy
  Bi  Bi0  1  0.68890235  0.40232948  0.80644714  1
  Bi  Bi1  1  0.18890235  0.09767052  0.69355286  1
  Bi  Bi2  1  0.31109765  0.59767052  0.19355286  1
  Bi  Bi3  1  0.81109765  0.90232948  0.30644714  1
  W  W4  1  0.82084117  0.67022943  0.05406264  1
  W  W5  1  0.32084117  0.82977057  0.44593736  1
  W  W6  1  0.17915883  0.32977057  0.94593736  1
  W  W7  1  0.67915883  0.17022943  0.55406264  1
  W  W8  1  0.72561942  0.84641644  0.02860465  1
  W  W9  1  0.22561942  0.65358356  0.47139535  1
  W  W10  1  0.27438058  0.15358356  0.97139535  1
  W  W11  1  0.77438058  0.34641644  0.52860465  1
  W  W12  1  0.87967284  0.85011480  0.91123468  1
  W  W13  1  0.37967284  0.64988520  0.58876532  1
  W  W14  1  0.12032716  0.14988520  0.08876532  1
  W  W15  1  0.62032716  0.35011480  0.41123468  1
  W  W16  1  0.78017429  0.70612312  0.87254402  1
  W  W17  1  0.28017429  0.79387688  0.62745598  1
  W  W18  1  0.21982571  0.29387688  0.12745598  1
  W  W19  1  0.71982571  0.20612312  0.37254402  1
  W  W20  1  0.62633495  0.70439871  0.98935423  1
  W  W21  1  0.12633495  0.79560129  0.51064577  1
  W  W22  1  0.37366505  0.29560129  0.01064577  1
  W  W23  1  0.87366505  0.20439871  0.48935423  1
  W  W24  1  0.68513189  0.88380335  0.84654009  1
  W  W25  1  0.18513189  0.61619665  0.65345991  1
  W  W26  1  0.31486811  0.11619665  0.15345991  1
  W  W27  1  0.81486811  0.38380335  0.34654009  1
  Cl  Cl28  1  0.60323459  0.23653131  0.81704068  1
  Cl  Cl29  1  0.10323459  0.26346869  0.68295932  1
  Cl  Cl30  1  0.39676541  0.76346869  0.18295932  1
  Cl  Cl31  1  0.89676541  0.73653131  0.31704068  1
  Cl  Cl32  1  0.82479613  0.30088527  0.92789405  1
  Cl  Cl33  1  0.32479613  0.19911473  0.57210595  1
  Cl  Cl34  1  0.17520387  0.69911473  0.07210595  1
  Cl  Cl35  1  0.67520387  0.80088527  0.42789405  1
  Cl  Cl36  1  0.91319359  0.81258006  0.08300819  1
  Cl  Cl37  1  0.41319359  0.68741994  0.41699181  1
  Cl  Cl38  1  0.08680641  0.18741994  0.91699181  1
  Cl  Cl39  1  0.58680641  0.31258006  0.58300819  1
  Cl  Cl40  1  0.96416032  0.67702430  0.93807154  1
  Cl  Cl41  1  0.46416032  0.82297570  0.56192846  1
  Cl  Cl42  1  0.03583968  0.32297570  0.06192846  1
  Cl  Cl43  1  0.53583968  0.17702430  0.43807154  1
  Cl  Cl44  1  0.72566746  0.53967080  0.01131937  1
  Cl  Cl45  1  0.22566746  0.96032920  0.48868063  1
  Cl  Cl46  1  0.27433254  0.46032920  0.98868063  1
  Cl  Cl47  1  0.77433254  0.03967080  0.51131937  1
  Cl  Cl48  1  0.67011617  0.67283243  0.15923815  1
  Cl  Cl49  1  0.17011617  0.82716757  0.34076185  1
  Cl  Cl50  1  0.32988383  0.32716757  0.84076185  1
  Cl  Cl51  1  0.82988383  0.17283243  0.65923815  1
  Cl  Cl52  1  0.78069064  0.01366157  0.89193630  1
  Cl  Cl53  1  0.28069064  0.48633843  0.60806370  1
  Cl  Cl54  1  0.21930936  0.98633843  0.10806370  1
  Cl  Cl55  1  0.71930936  0.51366157  0.39193630  1
  Cl  Cl56  1  0.83583992  0.87964724  0.74078538  1
  Cl  Cl57  1  0.33583992  0.62035276  0.75921462  1
  Cl  Cl58  1  0.16416008  0.12035276  0.25921462  1
  Cl  Cl59  1  0.66416008  0.37964724  0.24078538  1
  Cl  Cl60  1  0.59234371  0.74263296  0.81504238  1
  Cl  Cl61  1  0.09234371  0.75736704  0.68495762  1
  Cl  Cl62  1  0.40765629  0.25736704  0.18495762  1
  Cl  Cl63  1  0.90765629  0.24263296  0.31504238  1
  Cl  Cl64  1  0.54164287  0.87656989  0.96118326  1
  Cl  Cl65  1  0.04164287  0.62343011  0.53881674  1
  Cl  Cl66  1  0.45835713  0.12343011  0.03881674  1
  Cl  Cl67  1  0.95835713  0.37656989  0.46118326  1
  Cl  Cl68  1  0.90907861  0.52505907  0.20028263  1
  Cl  Cl69  1  0.40907861  0.97494093  0.29971737  1
  Cl  Cl70  1  0.09092139  0.47494093  0.79971737  1
  Cl  Cl71  1  0.59092139  0.02505907  0.70028263  1
  Cl  Cl72  1  0.68713464  0.93034163  0.14191859  1
  Cl  Cl73  1  0.18713464  0.56965837  0.35808141  1
  Cl  Cl74  1  0.31286536  0.06965837  0.85808141  1
  Cl  Cl75  1  0.81286536  0.43034163  0.64191859  1
  Cl  Cl76  1  0.04531827  0.94687053  0.86117629  1
  Cl  Cl77  1  0.54531827  0.55312947  0.63882371  1
  Cl  Cl78  1  0.95468173  0.05312947  0.13882371  1
  Cl  Cl79  1  0.45468173  0.44687053  0.36117629  1
  Cl  Cl80  1  0.81239952  0.61306225  0.77048117  1
  Cl  Cl81  1  0.31239952  0.88693775  0.72951883  1
  Cl  Cl82  1  0.18760048  0.38693775  0.22951883  1
  Cl  Cl83  1  0.68760048  0.11306225  0.27048117  1
  Cl  Cl84  1  0.45862075  0.60288705  0.04537273  1
  Cl  Cl85  1  0.95862075  0.89711295  0.45462727  1
  Cl  Cl86  1  0.54137925  0.39711295  0.95462727  1
  Cl  Cl87  1  0.04137925  0.10288705  0.54537273  1
