# generated using pymatgen
data_K2Fe3P4(HO4)4
_symmetry_space_group_name_H-M   'P 1'
_cell_length_a   8.37897097
_cell_length_b   9.30584339
_cell_length_c   9.40266266
_cell_angle_alpha   99.17236538
_cell_angle_beta   90.00000000
_cell_angle_gamma   90.00000000
_symmetry_Int_Tables_number   1
_chemical_formula_structural   K2Fe3P4(HO4)4
_chemical_formula_sum   'K4 Fe6 P8 H8 O32'
_cell_volume   723.78280662
_cell_formula_units_Z   2
loop_
 _symmetry_equiv_pos_site_id
 _symmetry_equiv_pos_as_xyz
  1  'x, y, z'
loop_
 _atom_site_type_symbol
 _atom_site_label
 _atom_site_symmetry_multiplicity
 _atom_site_fract_x
 _atom_site_fract_y
 _atom_site_fract_z
 _atom_site_occupancy
  K  K0  1  0.77468809  0.42857908  0.01840994  1
  K  K1  1  0.27468809  0.57142092  0.48159006  1
  K  K2  1  0.22531191  0.57142092  0.98159006  1
  K  K3  1  0.72531191  0.42857908  0.51840994  1
  Fe  Fe4  1  0.36003815  0.13521824  0.99574154  1
  Fe  Fe5  1  0.86003815  0.86478176  0.50425846  1
  Fe  Fe6  1  0.63996185  0.86478176  0.00425846  1
  Fe  Fe7  1  0.13996185  0.13521824  0.49574154  1
  Fe  Fe8  1  0.00000000  -0.00000000  -0.00000000  1
  Fe  Fe9  1  0.50000000  -0.00000000  0.50000000  1
  P  P10  1  0.80339511  0.10014979  0.28934021  1
  P  P11  1  0.30339511  0.89985021  0.21065979  1
  P  P12  1  0.19660489  0.89985021  0.71065979  1
  P  P13  1  0.69660489  0.10014979  0.78934021  1
  P  P14  1  0.06185629  0.30378353  0.23338624  1
  P  P15  1  0.56185629  0.69621647  0.26661376  1
  P  P16  1  0.93814371  0.69621647  0.76661376  1
  P  P17  1  0.43814371  0.30378353  0.73338624  1
  H  H18  1  0.53615692  0.21647709  0.22970828  1
  H  H19  1  0.03615692  0.78352291  0.27029172  1
  H  H20  1  0.46384308  0.78352291  0.77029172  1
  H  H21  1  0.96384308  0.21647709  0.72970828  1
  H  H22  1  0.48881152  0.37559252  0.20417035  1
  H  H23  1  0.98881152  0.62440748  0.29582965  1
  H  H24  1  0.51118848  0.62440748  0.79582965  1
  H  H25  1  0.01118848  0.37559252  0.70417035  1
  O  O26  1  0.15078121  0.30592463  0.37568126  1
  O  O27  1  0.65078121  0.69407537  0.12431874  1
  O  O28  1  0.84921879  0.69407537  0.62431874  1
  O  O29  1  0.34921879  0.30592463  0.87568126  1
  O  O30  1  0.87406200  0.25795360  0.26407556  1
  O  O31  1  0.37406200  0.74204640  0.23592444  1
  O  O32  1  0.12593800  0.74204640  0.73592444  1
  O  O33  1  0.62593800  0.25795360  0.76407556  1
  O  O34  1  0.63909836  0.13522278  0.35524165  1
  O  O35  1  0.13909836  0.86477722  0.14475835  1
  O  O36  1  0.36090164  0.86477722  0.64475835  1
  O  O37  1  0.86090164  0.13522278  0.85524165  1
  O  O38  1  0.80065246  0.00731705  0.13730913  1
  O  O39  1  0.30065246  0.99268295  0.36269087  1
  O  O40  1  0.19934754  0.99268295  0.86269087  1
  O  O41  1  0.69934754  0.00731705  0.63730913  1
  O  O42  1  0.12177508  0.18601156  0.11105805  1
  O  O43  1  0.62177508  0.81398844  0.38894195  1
  O  O44  1  0.87822492  0.81398844  0.88894195  1
  O  O45  1  0.37822492  0.18601156  0.61105805  1
  O  O46  1  0.42018702  0.96056134  0.10976803  1
  O  O47  1  0.92018702  0.03943866  0.39023197  1
  O  O48  1  0.57981298  0.03943866  0.89023197  1
  O  O49  1  0.07981298  0.96056134  0.60976803  1
  O  O50  1  0.04394678  0.45381820  0.19031413  1
  O  O51  1  0.54394678  0.54618180  0.30968587  1
  O  O52  1  0.95605322  0.54618180  0.80968587  1
  O  O53  1  0.45605322  0.45381820  0.69031413  1
  O  O54  1  0.49706780  0.27315934  0.15462908  1
  O  O55  1  0.99706780  0.72684066  0.34537092  1
  O  O56  1  0.50293220  0.72684066  0.84537092  1
  O  O57  1  0.00293220  0.27315934  0.65462908  1
