# generated using pymatgen
data_Ce2H8S3O16
_symmetry_space_group_name_H-M   'P 1'
_cell_length_a   7.20169597
_cell_length_b   12.63296320
_cell_length_c   14.32717055
_cell_angle_alpha   90.98665796
_cell_angle_beta   90.00000000
_cell_angle_gamma   90.00000000
_symmetry_Int_Tables_number   1
_chemical_formula_structural   Ce2H8S3O16
_chemical_formula_sum   'Ce8 H32 S12 O64'
_cell_volume   1303.27495117
_cell_formula_units_Z   4
loop_
 _symmetry_equiv_pos_site_id
 _symmetry_equiv_pos_as_xyz
  1  'x, y, z'
loop_
 _atom_site_type_symbol
 _atom_site_label
 _atom_site_symmetry_multiplicity
 _atom_site_fract_x
 _atom_site_fract_y
 _atom_site_fract_z
 _atom_site_occupancy
  Ce  Ce0  1  0.62596202  0.80545570  0.58814749  1
  Ce  Ce1  1  0.87403798  0.30545570  0.08814749  1
  Ce  Ce2  1  0.37403798  0.19454430  0.41185251  1
  Ce  Ce3  1  0.12596202  0.69454430  0.91185251  1
  Ce  Ce4  1  0.12287886  0.49964705  0.30240389  1
  Ce  Ce5  1  0.37712114  0.99964705  0.80240389  1
  Ce  Ce6  1  0.87712114  0.50035295  0.69759611  1
  Ce  Ce7  1  0.62287886  0.00035295  0.19759611  1
  H  H8  1  0.45736774  0.57985020  0.56866451  1
  H  H9  1  0.04263226  0.07985020  0.06866451  1
  H  H10  1  0.54263226  0.42014980  0.43133549  1
  H  H11  1  0.95736774  0.92014980  0.93133549  1
  H  H12  1  0.30797705  0.65476216  0.52281412  1
  H  H13  1  0.19202295  0.15476216  0.02281412  1
  H  H14  1  0.69202295  0.34523784  0.47718588  1
  H  H15  1  0.80797705  0.84523784  0.97718588  1
  H  H16  1  0.12833078  0.75015748  0.29539020  1
  H  H17  1  0.37166922  0.25015748  0.79539020  1
  H  H18  1  0.87166922  0.24984252  0.70460980  1
  H  H19  1  0.62833078  0.74984252  0.20460980  1
  H  H20  1  0.15707055  0.70804266  0.19175508  1
  H  H21  1  0.34292945  0.20804266  0.69175508  1
  H  H22  1  0.84292945  0.29195734  0.80824492  1
  H  H23  1  0.65707055  0.79195734  0.30824492  1
  H  H24  1  0.45410646  0.59980622  0.41094920  1
  H  H25  1  0.04589354  0.09980622  0.91094920  1
  H  H26  1  0.54589354  0.40019378  0.58905080  1
  H  H27  1  0.95410646  0.90019378  0.08905080  1
  H  H28  1  0.55410018  0.55900097  0.31837995  1
  H  H29  1  0.94589982  0.05900097  0.81837995  1
  H  H30  1  0.44589982  0.44099903  0.68162005  1
  H  H31  1  0.05410018  0.94099903  0.18162005  1
  H  H32  1  0.29320753  0.51503803  0.09967596  1
  H  H33  1  0.20679247  0.01503803  0.59967596  1
  H  H34  1  0.70679247  0.48496197  0.90032404  1
  H  H35  1  0.79320753  0.98496197  0.40032404  1
  H  H36  1  0.45145897  0.56306456  0.16294062  1
  H  H37  1  0.04854103  0.06306456  0.66294062  1
  H  H38  1  0.54854103  0.43693544  0.83705938  1
  H  H39  1  0.95145897  0.93693544  0.33705938  1
  S  S40  1  0.61324627  0.72008285  0.80347650  1
  S  S41  1  0.88675373  0.22008285  0.30347650  1
  S  S42  1  0.38675373  0.27991715  0.19652350  1
  S  S43  1  0.11324627  0.77991715  0.69652350  1
  S  S44  1  0.88978044  0.63439070  0.45572690  1
  S  S45  1  0.61021956  0.13439070  0.95572690  1
  S  S46  1  0.11021956  0.36560930  0.54427310  1
  S  S47  1  0.38978044  0.86560930  0.04427310  1
  S  S48  1  0.67854256  0.05981894  0.59490427  1
  S  S49  1  0.82145744  0.55981894  0.09490427  1
  S  S50  1  0.32145744  0.94018106  0.40509573  1
  S  S51  1  0.17854256  0.44018106  0.90509573  1
  O  O52  1  0.44261429  0.63977550  0.52639868  1
  O  O53  1  0.05738571  0.13977550  0.02639868  1
  O  O54  1  0.55738571  0.36022450  0.47360132  1
  O  O55  1  0.94261429  0.86022450  0.97360132  1
  O  O56  1  0.10142901  0.69072838  0.25197275  1
  O  O57  1  0.39857099  0.19072838  0.75197275  1
  O  O58  1  0.89857099  0.30927162  0.74802725  1
  O  O59  1  0.60142901  0.80927162  0.24802725  1
  O  O60  1  0.43705138  0.55670447  0.35274195  1
  O  O61  1  0.06294862  0.05670447  0.85274195  1
  O  O62  1  0.56294862  0.44329553  0.64725805  1
  O  O63  1  0.93705138  0.94329553  0.14725805  1
  O  O64  1  0.32478914  0.53293194  0.16503786  1
  O  O65  1  0.17521086  0.03293194  0.66503786  1
  O  O66  1  0.67521086  0.46706806  0.83496214  1
  O  O67  1  0.82478914  0.96706806  0.33496214  1
  O  O68  1  0.44513495  0.68214557  0.85084192  1
  O  O69  1  0.05486505  0.18214557  0.35084192  1
  O  O70  1  0.55486505  0.31785443  0.14915808  1
  O  O71  1  0.94513495  0.81785443  0.64915808  1
  O  O72  1  0.64132425  0.66089250  0.71140522  1
  O  O73  1  0.85867575  0.16089250  0.21140522  1
  O  O74  1  0.35867575  0.33910750  0.28859478  1
  O  O75  1  0.14132425  0.83910750  0.78859478  1
  O  O76  1  0.59050232  0.83380235  0.77562700  1
  O  O77  1  0.90949768  0.33380235  0.27562700  1
  O  O78  1  0.40949768  0.16619765  0.22437300  1
  O  O79  1  0.09050232  0.66619765  0.72437300  1
  O  O80  1  0.77880692  0.70532822  0.86203344  1
  O  O81  1  0.72119308  0.20532822  0.36203344  1
  O  O82  1  0.22119308  0.29467178  0.13796656  1
  O  O83  1  0.27880692  0.79467178  0.63796656  1
  O  O84  1  0.84022063  0.60061949  0.55221870  1
  O  O85  1  0.65977937  0.10061949  0.05221870  1
  O  O86  1  0.15977937  0.39938051  0.44778130  1
  O  O87  1  0.34022063  0.89938051  0.94778130  1
  O  O88  1  0.09483260  0.64117231  0.44395362  1
  O  O89  1  0.40516740  0.14117231  0.94395362  1
  O  O90  1  0.90516740  0.35882769  0.55604638  1
  O  O91  1  0.59483260  0.85882769  0.05604638  1
  O  O92  1  0.82481545  0.55438676  0.38424678  1
  O  O93  1  0.67518455  0.05438676  0.88424678  1
  O  O94  1  0.17518455  0.44561324  0.61575322  1
  O  O95  1  0.32481545  0.94561324  0.11575322  1
  O  O96  1  0.79588247  0.73802737  0.44165449  1
  O  O97  1  0.70411753  0.23802737  0.94165449  1
  O  O98  1  0.20411753  0.26197263  0.55834551  1
  O  O99  1  0.29588247  0.76197263  0.05834551  1
  O  O100  1  0.56508211  0.13946298  0.54677340  1
  O  O101  1  0.93491789  0.63946298  0.04677340  1
  O  O102  1  0.43491789  0.86053702  0.45322660  1
  O  O103  1  0.06508211  0.36053702  0.95322660  1
  O  O104  1  0.76186578  0.98161217  0.52767286  1
  O  O105  1  0.73813422  0.48161217  0.02767286  1
  O  O106  1  0.23813422  0.01838783  0.47232714  1
  O  O107  1  0.26186578  0.51838783  0.97232714  1
  O  O108  1  0.55249710  0.99052314  0.65450430  1
  O  O109  1  0.94750290  0.49052314  0.15450430  1
  O  O110  1  0.44750290  0.00947686  0.34549570  1
  O  O111  1  0.05249710  0.50947686  0.84549570  1
  O  O112  1  0.81830520  0.11076172  0.65555791  1
  O  O113  1  0.68169480  0.61076172  0.15555791  1
  O  O114  1  0.18169480  0.88923828  0.34444209  1
  O  O115  1  0.31830520  0.38923828  0.84444209  1
