# generated using pymatgen
data_Nd2Fe14C
_symmetry_space_group_name_H-M   'P 1'
_cell_length_a   8.76963666
_cell_length_b   8.76963666
_cell_length_c   11.94058211
_cell_angle_alpha   90.00000000
_cell_angle_beta   90.00000000
_cell_angle_gamma   90.00000000
_symmetry_Int_Tables_number   1
_chemical_formula_structural   Nd2Fe14C
_chemical_formula_sum   'Nd8 Fe56 C4'
_cell_volume   918.30870221
_cell_formula_units_Z   4
loop_
 _symmetry_equiv_pos_site_id
 _symmetry_equiv_pos_as_xyz
  1  'x, y, z'
loop_
 _atom_site_type_symbol
 _atom_site_label
 _atom_site_symmetry_multiplicity
 _atom_site_fract_x
 _atom_site_fract_y
 _atom_site_fract_z
 _atom_site_occupancy
  Nd  Nd0  1  0.23811334  0.76188666  0.50000000  1
  Nd  Nd1  1  0.76188666  0.23811334  0.50000000  1
  Nd  Nd2  1  0.26188666  0.26188666  -0.00000000  1
  Nd  Nd3  1  0.73811334  0.73811334  -0.00000000  1
  Nd  Nd4  1  0.64253994  0.64253994  0.50000000  1
  Nd  Nd5  1  0.35746006  0.35746006  0.50000000  1
  Nd  Nd6  1  0.85746006  0.14253994  -0.00000000  1
  Nd  Nd7  1  0.14253994  0.85746006  -0.00000000  1
  Fe  Fe8  1  -0.00000000  0.50000000  0.50000000  1
  Fe  Fe9  1  0.50000000  -0.00000000  -0.00000000  1
  Fe  Fe10  1  0.50000000  -0.00000000  0.50000000  1
  Fe  Fe11  1  -0.00000000  0.50000000  -0.00000000  1
  Fe  Fe12  1  0.50000000  0.50000000  0.10654518  1
  Fe  Fe13  1  -0.00000000  -0.00000000  0.60654518  1
  Fe  Fe14  1  0.50000000  0.50000000  0.89345482  1
  Fe  Fe15  1  -0.00000000  -0.00000000  0.39345482  1
  Fe  Fe16  1  0.18233107  0.81766893  0.25504960  1
  Fe  Fe17  1  0.81766893  0.18233107  0.25504960  1
  Fe  Fe18  1  0.31766893  0.31766893  0.75504960  1
  Fe  Fe19  1  0.68233107  0.68233107  0.75504960  1
  Fe  Fe20  1  0.81766893  0.18233107  0.74495040  1
  Fe  Fe21  1  0.18233107  0.81766893  0.74495040  1
  Fe  Fe22  1  0.68233107  0.68233107  0.24495040  1
  Fe  Fe23  1  0.31766893  0.31766893  0.24495040  1
  Fe  Fe24  1  0.40206964  0.59793036  0.29172194  1
  Fe  Fe25  1  0.59793036  0.40206964  0.29172194  1
  Fe  Fe26  1  0.09793036  0.09793036  0.79172194  1
  Fe  Fe27  1  0.90206964  0.90206964  0.79172194  1
  Fe  Fe28  1  0.59793036  0.40206964  0.70827806  1
  Fe  Fe29  1  0.40206964  0.59793036  0.70827806  1
  Fe  Fe30  1  0.90206964  0.90206964  0.20827806  1
  Fe  Fe31  1  0.09793036  0.09793036  0.20827806  1
  Fe  Fe32  1  0.14044014  0.53655918  0.32316882  1
  Fe  Fe33  1  0.85955986  0.46344082  0.32316882  1
  Fe  Fe34  1  0.35955986  0.03655918  0.82316882  1
  Fe  Fe35  1  0.64044014  0.96344082  0.82316882  1
  Fe  Fe36  1  0.85955986  0.46344082  0.67683118  1
  Fe  Fe37  1  0.14044014  0.53655918  0.67683118  1
  Fe  Fe38  1  0.64044014  0.96344082  0.17683118  1
  Fe  Fe39  1  0.35955986  0.03655918  0.17683118  1
  Fe  Fe40  1  0.53655918  0.14044014  0.32316882  1
  Fe  Fe41  1  0.46344082  0.85955986  0.32316882  1
  Fe  Fe42  1  0.03655918  0.35955986  0.82316882  1
  Fe  Fe43  1  0.96344082  0.64044014  0.82316882  1
  Fe  Fe44  1  0.46344082  0.85955986  0.67683118  1
  Fe  Fe45  1  0.53655918  0.14044014  0.67683118  1
  Fe  Fe46  1  0.96344082  0.64044014  0.17683118  1
  Fe  Fe47  1  0.03655918  0.35955986  0.17683118  1
  Fe  Fe48  1  0.93369965  0.72546226  0.37866797  1
  Fe  Fe49  1  0.06630035  0.27453774  0.37866797  1
  Fe  Fe50  1  0.56630035  0.22546226  0.87866797  1
  Fe  Fe51  1  0.43369965  0.77453774  0.87866797  1
  Fe  Fe52  1  0.06630035  0.27453774  0.62133203  1
  Fe  Fe53  1  0.93369965  0.72546226  0.62133203  1
  Fe  Fe54  1  0.43369965  0.77453774  0.12133203  1
  Fe  Fe55  1  0.56630035  0.22546226  0.12133203  1
  Fe  Fe56  1  0.72546226  0.93369965  0.37866797  1
  Fe  Fe57  1  0.27453774  0.06630035  0.37866797  1
  Fe  Fe58  1  0.22546226  0.56630035  0.87866797  1
  Fe  Fe59  1  0.77453774  0.43369965  0.87866797  1
  Fe  Fe60  1  0.27453774  0.06630035  0.62133203  1
  Fe  Fe61  1  0.72546226  0.93369965  0.62133203  1
  Fe  Fe62  1  0.77453774  0.43369965  0.12133203  1
  Fe  Fe63  1  0.22546226  0.56630035  0.12133203  1
  C  C64  1  0.87433896  0.87433896  0.50000000  1
  C  C65  1  0.12566104  0.12566104  0.50000000  1
  C  C66  1  0.62566104  0.37433896  -0.00000000  1
  C  C67  1  0.37433896  0.62566104  -0.00000000  1
