# generated using pymatgen
data_NbBi4BrO8
_symmetry_space_group_name_H-M   'P 1'
_cell_length_a   5.58090447
_cell_length_b   5.65393808
_cell_length_c   29.81277221
_cell_angle_alpha   90.00000000
_cell_angle_beta   90.00000000
_cell_angle_gamma   90.00000000
_symmetry_Int_Tables_number   1
_chemical_formula_structural   NbBi4BrO8
_chemical_formula_sum   'Nb4 Bi16 Br4 O32'
_cell_volume   940.71484689
_cell_formula_units_Z   4
loop_
 _symmetry_equiv_pos_site_id
 _symmetry_equiv_pos_as_xyz
  1  'x, y, z'
loop_
 _atom_site_type_symbol
 _atom_site_label
 _atom_site_symmetry_multiplicity
 _atom_site_fract_x
 _atom_site_fract_y
 _atom_site_fract_z
 _atom_site_occupancy
  Nb  Nb0  1  0.99831719  0.25723465  0.75030487  1
  Nb  Nb1  1  0.49831719  0.74276535  0.24969513  1
  Nb  Nb2  1  0.49831719  0.75723465  0.74969513  1
  Nb  Nb3  1  0.99831719  0.24276535  0.25030487  1
  Bi  Bi4  1  0.98552337  0.69395475  0.65987814  1
  Bi  Bi5  1  0.48552337  0.30604525  0.34012186  1
  Bi  Bi6  1  0.48552337  0.19395475  0.84012186  1
  Bi  Bi7  1  0.98552337  0.80604525  0.15987814  1
  Bi  Bi8  1  0.99778812  0.24156531  0.92744243  1
  Bi  Bi9  1  0.49778812  0.75843469  0.07255757  1
  Bi  Bi10  1  0.49778812  0.74156531  0.57255757  1
  Bi  Bi11  1  0.99778812  0.25843469  0.42744243  1
  Bi  Bi12  1  0.02743556  0.69719307  0.84157804  1
  Bi  Bi13  1  0.52743556  0.30280693  0.15842196  1
  Bi  Bi14  1  0.52743556  0.19719307  0.65842196  1
  Bi  Bi15  1  0.02743556  0.80280693  0.34157804  1
  Bi  Bi16  1  0.01627513  0.24248235  0.57256380  1
  Bi  Bi17  1  0.51627513  0.75751765  0.42743620  1
  Bi  Bi18  1  0.51627513  0.74248235  0.92743620  1
  Bi  Bi19  1  0.01627513  0.25751765  0.07256380  1
  Br  Br20  1  0.50526800  0.24995026  0.49846759  1
  Br  Br21  1  0.00526800  0.75004974  0.50153241  1
  Br  Br22  1  0.00526800  0.74995026  0.00153241  1
  Br  Br23  1  0.50526800  0.25004974  0.99846759  1
  O  O24  1  0.75182089  0.99460674  0.88983284  1
  O  O25  1  0.25182089  0.00539326  0.11016716  1
  O  O26  1  0.25182089  0.49460674  0.61016716  1
  O  O27  1  0.75182089  0.50539326  0.38983284  1
  O  O28  1  0.25461662  0.00235278  0.89161071  1
  O  O29  1  0.75461662  0.99764722  0.10838929  1
  O  O30  1  0.75461662  0.50235278  0.60838929  1
  O  O31  1  0.25461662  0.49764722  0.39161071  1
  O  O32  1  0.76205606  0.49537043  0.89070590  1
  O  O33  1  0.26205606  0.50462957  0.10929410  1
  O  O34  1  0.26205606  0.99537043  0.60929410  1
  O  O35  1  0.76205606  0.00462957  0.39070590  1
  O  O36  1  0.25559283  0.50496664  0.89209530  1
  O  O37  1  0.75559283  0.49503336  0.10790470  1
  O  O38  1  0.75559283  0.00496664  0.60790470  1
  O  O39  1  0.25559283  0.99503336  0.39209530  1
  O  O40  1  0.39388570  0.83196552  0.81264141  1
  O  O41  1  0.89388570  0.16803448  0.18735859  1
  O  O42  1  0.89388570  0.33196552  0.68735859  1
  O  O43  1  0.39388570  0.66803448  0.31264141  1
  O  O44  1  0.61338883  0.83139064  0.68789431  1
  O  O45  1  0.11338883  0.16860936  0.31210569  1
  O  O46  1  0.11338883  0.33139064  0.81210569  1
  O  O47  1  0.61338883  0.66860936  0.18789431  1
  O  O48  1  0.24534939  0.55314055  0.73220053  1
  O  O49  1  0.74534939  0.44685945  0.26779947  1
  O  O50  1  0.74534939  0.05314055  0.76779947  1
  O  O51  1  0.24534939  0.94685945  0.23220053  1
  O  O52  1  0.74168230  0.54631033  0.76712026  1
  O  O53  1  0.24168230  0.45368967  0.23287974  1
  O  O54  1  0.24168230  0.04631033  0.73287974  1
  O  O55  1  0.74168230  0.95368967  0.26712026  1
