# generated using pymatgen
data_In2B(PO4)3
_symmetry_space_group_name_H-M   'P 1'
_cell_length_a   7.89851461
_cell_length_b   8.30285602
_cell_length_c   8.30283238
_cell_angle_alpha   120.00034098
_cell_angle_beta   90.00000000
_cell_angle_gamma   90.00000000
_symmetry_Int_Tables_number   1
_chemical_formula_structural   In2B(PO4)3
_chemical_formula_sum   'In4 B2 P6 O24'
_cell_volume   471.55064441
_cell_formula_units_Z   2
loop_
 _symmetry_equiv_pos_site_id
 _symmetry_equiv_pos_as_xyz
  1  'x, y, z'
loop_
 _atom_site_type_symbol
 _atom_site_label
 _atom_site_symmetry_multiplicity
 _atom_site_fract_x
 _atom_site_fract_y
 _atom_site_fract_z
 _atom_site_occupancy
  In  In0  1  0.54398317  0.33333660  0.66666816  1
  In  In1  1  0.04398317  0.66666340  0.33333184  1
  In  In2  1  0.45601683  0.66666340  0.33333184  1
  In  In3  1  0.95601683  0.33333660  0.66666816  1
  B  B4  1  0.75000000  0.99999990  0.99999846  1
  B  B5  1  0.25000000  0.00000010  0.00000154  1
  P  P6  1  0.75000000  0.35062154  0.30870601  1
  P  P7  1  0.75000000  0.69129447  0.04191883  1
  P  P8  1  0.75000000  0.95808136  0.64937187  1
  P  P9  1  0.25000000  0.64937846  0.69129399  1
  P  P10  1  0.25000000  0.30870553  0.95808117  1
  P  P11  1  0.25000000  0.04191864  0.35062813  1
  O  O12  1  0.75000000  0.12737317  0.18667446  1
  O  O13  1  0.75000000  0.81332390  0.94070217  1
  O  O14  1  0.75000000  0.05929805  0.87262007  1
  O  O15  1  0.25000000  0.87262683  0.81332554  1
  O  O16  1  0.25000000  0.18667610  0.05929783  1
  O  O17  1  0.25000000  0.94070195  0.12737993  1
  O  O18  1  0.75000000  0.38782183  0.51262463  1
  O  O19  1  0.75000000  0.48738162  0.87520061  1
  O  O20  1  0.75000000  0.12480549  0.61218198  1
  O  O21  1  0.25000000  0.61217817  0.48737537  1
  O  O22  1  0.25000000  0.51261838  0.12479939  1
  O  O23  1  0.25000000  0.87519451  0.38781802  1
  O  O24  1  0.58718823  0.41958060  0.26644005  1
  O  O25  1  0.58718652  0.73355552  0.15314387  1
  O  O26  1  0.58718915  0.84685542  0.58040978  1
  O  O27  1  0.08718823  0.58041940  0.73355995  1
  O  O28  1  0.08718652  0.26644448  0.84685613  1
  O  O29  1  0.08718915  0.15314458  0.41959022  1
  O  O30  1  0.41281177  0.58041940  0.73355995  1
  O  O31  1  0.41281348  0.26644448  0.84685613  1
  O  O32  1  0.41281085  0.15314458  0.41959022  1
  O  O33  1  0.91281177  0.41958060  0.26644005  1
  O  O34  1  0.91281348  0.73355552  0.15314387  1
  O  O35  1  0.91281085  0.84685542  0.58040978  1
