# generated using pymatgen
data_Cs5V5FeCl6O13
_symmetry_space_group_name_H-M   'P 1'
_cell_length_a   11.06636162
_cell_length_b   11.19966404
_cell_length_c   11.19966404
_cell_angle_alpha   90.00000000
_cell_angle_beta   90.00000000
_cell_angle_gamma   90.00000000
_symmetry_Int_Tables_number   1
_chemical_formula_structural   Cs5V5FeCl6O13
_chemical_formula_sum   'Cs10 V10 Fe2 Cl12 O26'
_cell_volume   1388.08112291
_cell_formula_units_Z   2
loop_
 _symmetry_equiv_pos_site_id
 _symmetry_equiv_pos_as_xyz
  1  'x, y, z'
loop_
 _atom_site_type_symbol
 _atom_site_label
 _atom_site_symmetry_multiplicity
 _atom_site_fract_x
 _atom_site_fract_y
 _atom_site_fract_z
 _atom_site_occupancy
  Cs  Cs0  1  0.64970033  0.75000000  0.75000000  1
  Cs  Cs1  1  0.35029967  0.25000000  0.25000000  1
  Cs  Cs2  1  0.71704730  0.48534597  0.01465403  1
  Cs  Cs3  1  0.71704730  0.01465403  0.01465403  1
  Cs  Cs4  1  0.71704730  0.48534597  0.48534597  1
  Cs  Cs5  1  0.71704730  0.01465403  0.48534597  1
  Cs  Cs6  1  0.28295270  0.51465403  0.98534597  1
  Cs  Cs7  1  0.28295270  0.98534597  0.98534597  1
  Cs  Cs8  1  0.28295270  0.51465403  0.51465403  1
  Cs  Cs9  1  0.28295270  0.98534597  0.51465403  1
  V  V10  1  0.85216746  0.25000000  0.25000000  1
  V  V11  1  0.14783254  0.75000000  0.75000000  1
  V  V12  1  0.98924305  0.75000000  0.02629135  1
  V  V13  1  0.98924305  0.75000000  0.47370865  1
  V  V14  1  0.98924305  0.02629135  0.75000000  1
  V  V15  1  0.98924305  0.47370865  0.75000000  1
  V  V16  1  0.01075695  0.25000000  0.97370865  1
  V  V17  1  0.01075695  0.25000000  0.52629135  1
  V  V18  1  0.01075695  0.97370865  0.25000000  1
  V  V19  1  0.01075695  0.52629135  0.25000000  1
  Fe  Fe20  1  0.50000000  0.25000000  0.75000000  1
  Fe  Fe21  1  0.50000000  0.75000000  0.25000000  1
  Cl  Cl22  1  0.49570790  0.25000000  0.96987271  1
  Cl  Cl23  1  0.49570790  0.25000000  0.53012729  1
  Cl  Cl24  1  0.49570790  0.96987271  0.25000000  1
  Cl  Cl25  1  0.49570790  0.53012729  0.25000000  1
  Cl  Cl26  1  0.50429210  0.75000000  0.03012729  1
  Cl  Cl27  1  0.50429210  0.75000000  0.46987271  1
  Cl  Cl28  1  0.50429210  0.03012729  0.75000000  1
  Cl  Cl29  1  0.50429210  0.46987271  0.75000000  1
  Cl  Cl30  1  0.71511766  0.25000000  0.75000000  1
  Cl  Cl31  1  0.71511766  0.75000000  0.25000000  1
  Cl  Cl32  1  0.28488234  0.75000000  0.25000000  1
  Cl  Cl33  1  0.28488234  0.25000000  0.75000000  1
  O  O34  1  0.70480288  0.25000000  0.25000000  1
  O  O35  1  0.29519712  0.75000000  0.75000000  1
  O  O36  1  0.85912749  0.75000000  0.95631994  1
  O  O37  1  0.85912749  0.75000000  0.54368006  1
  O  O38  1  0.85912749  0.95631994  0.75000000  1
  O  O39  1  0.85912749  0.54368006  0.75000000  1
  O  O40  1  0.14087251  0.25000000  0.04368006  1
  O  O41  1  0.14087251  0.25000000  0.45631994  1
  O  O42  1  0.14087251  0.04368006  0.25000000  1
  O  O43  1  0.14087251  0.45631994  0.25000000  1
  O  O44  1  0.10607785  0.75000000  0.92312855  1
  O  O45  1  0.10607785  0.75000000  0.57687145  1
  O  O46  1  0.10607785  0.92312855  0.75000000  1
  O  O47  1  0.10607785  0.57687145  0.75000000  1
  O  O48  1  0.89392215  0.25000000  0.07687145  1
  O  O49  1  0.89392215  0.25000000  0.42312855  1
  O  O50  1  0.89392215  0.07687145  0.25000000  1
  O  O51  1  0.89392215  0.42312855  0.25000000  1
  O  O52  1  -0.00000000  0.61607340  0.11607340  1
  O  O53  1  0.00000000  0.88392660  0.11607340  1
  O  O54  1  -0.00000000  0.61607340  0.38392660  1
  O  O55  1  -0.00000000  0.88392660  0.38392660  1
  O  O56  1  0.00000000  0.11607340  0.61607340  1
  O  O57  1  -0.00000000  0.38392660  0.61607340  1
  O  O58  1  0.00000000  0.11607340  0.88392660  1
  O  O59  1  0.00000000  0.38392660  0.88392660  1
