# generated using pymatgen
data_Na3H5(CO2)4
_symmetry_space_group_name_H-M   'P 1'
_cell_length_a   3.57252176
_cell_length_b   8.55516836
_cell_length_c   8.68436026
_cell_angle_alpha   66.34342951
_cell_angle_beta   86.83744298
_cell_angle_gamma   79.68787218
_symmetry_Int_Tables_number   1
_chemical_formula_structural   Na3H5(CO2)4
_chemical_formula_sum   'Na3 H5 C4 O8'
_cell_volume   239.15227673
_cell_formula_units_Z   1
loop_
 _symmetry_equiv_pos_site_id
 _symmetry_equiv_pos_as_xyz
  1  'x, y, z'
loop_
 _atom_site_type_symbol
 _atom_site_label
 _atom_site_symmetry_multiplicity
 _atom_site_fract_x
 _atom_site_fract_y
 _atom_site_fract_z
 _atom_site_occupancy
  Na  Na0  1  0.71569306  0.53688572  0.16723713  1
  Na  Na1  1  0.00000000  0.00000000  0.00000000  1
  Na  Na2  1  0.28430694  0.46311428  0.83276287  1
  H  H3  1  0.08239839  0.16100291  0.61644518  1
  H  H4  1  0.56293067  0.86235782  0.65621389  1
  H  H5  1  0.91760161  0.83899709  0.38355482  1
  H  H6  1  0.43706933  0.13764218  0.34378611  1
  H  H7  1  0.50000000  0.50000000  0.50000000  1
  C  C8  1  0.11113755  0.72599831  0.37571690  1
  C  C9  1  0.38888581  0.19396568  0.20432049  1
  C  C10  1  0.88886245  0.27400169  0.62428310  1
  C  C11  1  0.61111419  0.80603432  0.79567951  1
  O  O12  1  0.86249231  0.29392695  0.75980550  1
  O  O13  1  0.13750769  0.70607305  0.24019450  1
  O  O14  1  0.28901879  0.35734833  0.13436064  1
  O  O15  1  0.55974746  0.91019613  0.86765469  1
  O  O16  1  0.71098121  0.64265167  0.86563936  1
  O  O17  1  0.29491125  0.62374944  0.51393337  1
  O  O18  1  0.44025254  0.08980387  0.13234531  1
  O  O19  1  0.70508875  0.37625056  0.48606663  1
