# generated using pymatgen
data_K2TeH10O9
_symmetry_space_group_name_H-M   'P 1'
_cell_length_a   7.04029295
_cell_length_b   8.76155258
_cell_length_c   16.74573589
_cell_angle_alpha   83.57518814
_cell_angle_beta   77.86525174
_cell_angle_gamma   66.31099748
_symmetry_Int_Tables_number   1
_chemical_formula_structural   K2TeH10O9
_chemical_formula_sum   'K8 Te4 H40 O36'
_cell_volume   924.33631755
_cell_formula_units_Z   4
loop_
 _symmetry_equiv_pos_site_id
 _symmetry_equiv_pos_as_xyz
  1  'x, y, z'
loop_
 _atom_site_type_symbol
 _atom_site_label
 _atom_site_symmetry_multiplicity
 _atom_site_fract_x
 _atom_site_fract_y
 _atom_site_fract_z
 _atom_site_occupancy
  K  K0  1  0.92064154  0.38787322  0.59056895  1
  K  K1  1  0.89908371  0.11212678  0.90943105  1
  K  K2  1  0.07935846  0.61212678  0.40943105  1
  K  K3  1  0.10091629  0.88787322  0.09056895  1
  K  K4  1  0.46487948  0.16437056  0.64918417  1
  K  K5  1  0.27843421  0.33562944  0.85081583  1
  K  K6  1  0.53512052  0.83562944  0.35081583  1
  K  K7  1  0.72156579  0.66437056  0.14918417  1
  Te  Te8  1  0.08916837  0.90029914  0.57782034  1
  Te  Te9  1  0.56728784  0.59970086  0.92217966  1
  Te  Te10  1  0.91083163  0.09970086  0.42217966  1
  Te  Te11  1  0.43271216  0.40029914  0.07782034  1
  H  H12  1  0.42590739  0.53809644  0.66470921  1
  H  H13  1  0.62871304  0.96190356  0.83529079  1
  H  H14  1  0.57409261  0.46190356  0.33529079  1
  H  H15  1  0.37128696  0.03809644  0.16470921  1
  H  H16  1  0.54261279  0.47782740  0.74096278  1
  H  H17  1  0.76140297  0.02217260  0.75903722  1
  H  H18  1  0.45738721  0.52217260  0.25903722  1
  H  H19  1  0.23859703  0.97782740  0.24096278  1
  H  H20  1  0.47920038  0.76837655  0.65771389  1
  H  H21  1  0.90529082  0.73162345  0.84228611  1
  H  H22  1  0.52079962  0.23162345  0.34228611  1
  H  H23  1  0.09470918  0.26837655  0.15771389  1
  H  H24  1  0.05053685  0.54020285  0.73680578  1
  H  H25  1  0.32754548  0.95979715  0.76319422  1
  H  H26  1  0.94946315  0.45979715  0.26319422  1
  H  H27  1  0.67245452  0.04020285  0.23680578  1
  H  H28  1  0.58394764  0.70860288  0.73825740  1
  H  H29  1  0.03080792  0.79139712  0.76174260  1
  H  H30  1  0.41605236  0.29139712  0.26174260  1
  H  H31  1  0.96919208  0.20860288  0.23825740  1
  H  H32  1  0.79856167  0.78587536  0.62335243  1
  H  H33  1  0.20778947  0.71412464  0.87664757  1
  H  H34  1  0.20143833  0.21412464  0.37664757  1
  H  H35  1  0.79221053  0.28587536  0.12335243  1
  H  H36  1  0.68030344  0.48575255  0.45019168  1
  H  H37  1  0.61624766  0.01424745  0.04980832  1
  H  H38  1  0.31969656  0.51424745  0.54980832  1
  H  H39  1  0.38375234  0.98575255  0.95019168  1
  H  H40  1  0.54757425  0.63565945  0.51179789  1
  H  H41  1  0.69503158  0.86434055  0.98820211  1
  H  H42  1  0.45242575  0.36434055  0.48820211  1
  H  H43  1  0.30496842  0.13565945  0.01179789  1
  H  H44  1  0.23732147  0.10188137  0.51270411  1
  H  H45  1  0.85190695  0.39811863  0.98729589  1
  H  H46  1  0.76267853  0.89811863  0.48729589  1
  H  H47  1  0.14809305  0.60188137  0.01270411  1
  H  H48  1  0.88311594  0.46533135  0.76433923  1
  H  H49  1  0.11278652  0.03466865  0.73566077  1
  H  H50  1  0.11688406  0.53466865  0.23566077  1
  H  H51  1  0.88721348  0.96533135  0.26433923  1
  O  O52  1  0.15033516  0.88897561  0.45542989  1
  O  O53  1  0.49474066  0.61102439  0.04457011  1
  O  O54  1  0.84966484  0.11102439  0.54457011  1
  O  O55  1  0.50525934  0.38897561  0.95542989  1
  O  O56  1  0.33043984  0.70386476  0.58939042  1
  O  O57  1  0.62369502  0.79613524  0.91060958  1
  O  O58  1  0.66956016  0.29613524  0.41060958  1
  O  O59  1  0.37630498  0.20386476  0.08939042  1
  O  O60  1  0.56007213  0.79494465  0.69216249  1
  O  O61  1  0.04717928  0.70505535  0.80783751  1
  O  O62  1  0.43992787  0.20505535  0.30783751  1
  O  O63  1  0.95282072  0.29494465  0.19216249  1
  O  O64  1  0.98300071  0.94734032  0.68951339  1
  O  O65  1  0.61985442  0.55265968  0.81048661  1
  O  O66  1  0.01699929  0.05265968  0.31048661  1
  O  O67  1  0.38014558  0.44734032  0.18951339  1
  O  O68  1  0.25237950  0.04535569  0.56725310  1
  O  O69  1  0.86498830  0.45464431  0.93274690  1
  O  O70  1  0.74762050  0.95464431  0.43274690  1
  O  O71  1  0.13501170  0.54535569  0.06725310  1
  O  O72  1  0.90615231  0.77555696  0.57247093  1
  O  O73  1  0.25418020  0.72444304  0.92752907  1
  O  O74  1  0.09384769  0.22444304  0.42752907  1
  O  O75  1  0.74581980  0.27555696  0.07247093  1
  O  O76  1  0.51421136  0.43686805  0.69321246  1
  O  O77  1  0.64429187  0.06313195  0.80678754  1
  O  O78  1  0.48578864  0.56313195  0.30678754  1
  O  O79  1  0.35570813  0.93686805  0.19321246  1
  O  O80  1  0.68276830  0.58554284  0.47198805  1
  O  O81  1  0.74029919  0.91445716  0.02801195  1
  O  O82  1  0.31723170  0.41445716  0.52801195  1
  O  O83  1  0.25970081  0.08554284  0.97198805  1
  O  O84  1  0.02428355  0.44160166  0.72837014  1
  O  O85  1  0.19425536  0.05839834  0.77162986  1
  O  O86  1  0.97571645  0.55839834  0.27162986  1
  O  O87  1  0.80574464  0.94160166  0.22837014  1
