# generated using pymatgen
data_LaHoS3
_symmetry_space_group_name_H-M   'P 1'
_cell_length_a   4.01954782
_cell_length_b   11.10621536
_cell_length_c   21.73417134
_cell_angle_alpha   101.41553430
_cell_angle_beta   90.00000000
_cell_angle_gamma   90.00000000
_symmetry_Int_Tables_number   1
_chemical_formula_structural   LaHoS3
_chemical_formula_sum   'La8 Ho8 S24'
_cell_volume   951.06204543
_cell_formula_units_Z   8
loop_
 _symmetry_equiv_pos_site_id
 _symmetry_equiv_pos_as_xyz
  1  'x, y, z'
loop_
 _atom_site_type_symbol
 _atom_site_label
 _atom_site_symmetry_multiplicity
 _atom_site_fract_x
 _atom_site_fract_y
 _atom_site_fract_z
 _atom_site_occupancy
  La  La0  1  0.25000000  0.69772452  0.76561592  1
  La  La1  1  0.75000000  0.30227548  0.23438408  1
  La  La2  1  0.25000000  0.09221594  0.86351954  1
  La  La3  1  0.75000000  0.90778406  0.13648046  1
  La  La4  1  0.25000000  0.30840767  0.73223774  1
  La  La5  1  0.75000000  0.69159233  0.26776226  1
  La  La6  1  0.25000000  0.19947832  0.53599249  1
  La  La7  1  0.75000000  0.80052168  0.46400751  1
  Ho  Ho8  1  0.25000000  0.44759252  0.41707763  1
  Ho  Ho9  1  0.75000000  0.55240748  0.58292237  1
  Ho  Ho10  1  0.25000000  0.02924499  0.35107241  1
  Ho  Ho11  1  0.75000000  0.97075501  0.64892759  1
  Ho  Ho12  1  0.25000000  0.17932553  0.04692652  1
  Ho  Ho13  1  0.75000000  0.82067447  0.95307348  1
  Ho  Ho14  1  0.25000000  0.52316062  0.08808132  1
  Ho  Ho15  1  0.75000000  0.47683938  0.91191868  1
  S  S16  1  0.25000000  0.91371700  0.03668592  1
  S  S17  1  0.75000000  0.08628300  0.96331408  1
  S  S18  1  0.25000000  0.79468627  0.36601292  1
  S  S19  1  0.75000000  0.20531373  0.63398708  1
  S  S20  1  0.25000000  0.25440967  0.32430647  1
  S  S21  1  0.75000000  0.74559033  0.67569353  1
  S  S22  1  0.25000000  0.36458981  0.96376840  1
  S  S23  1  0.75000000  0.63541019  0.03623160  1
  S  S24  1  0.25000000  0.49426783  0.22107052  1
  S  S25  1  0.75000000  0.50573217  0.77892948  1
  S  S26  1  0.25000000  0.74779333  0.17386539  1
  S  S27  1  0.75000000  0.25220667  0.82613461  1
  S  S28  1  0.25000000  0.12393925  0.16383192  1
  S  S29  1  0.75000000  0.87606075  0.83616808  1
  S  S30  1  0.25000000  0.64476010  0.51438881  1
  S  S31  1  0.75000000  0.35523990  0.48561119  1
  S  S32  1  0.25000000  0.94231319  0.55622575  1
  S  S33  1  0.75000000  0.05768681  0.44377425  1
  S  S34  1  0.25000000  0.03741813  0.72859755  1
  S  S35  1  0.75000000  0.96258187  0.27140245  1
  S  S36  1  0.25000000  0.45273516  0.63343207  1
  S  S37  1  0.75000000  0.54726484  0.36656793  1
  S  S38  1  0.25000000  0.65767420  0.90134098  1
  S  S39  1  0.75000000  0.34232580  0.09865902  1
