# generated using pymatgen
data_Na3NbAs2O9
_symmetry_space_group_name_H-M   'P 1'
_cell_length_a   8.68371374
_cell_length_b   9.82853253
_cell_length_c   10.82605269
_cell_angle_alpha   109.09708923
_cell_angle_beta   90.00000000
_cell_angle_gamma   90.00000000
_symmetry_Int_Tables_number   1
_chemical_formula_structural   Na3NbAs2O9
_chemical_formula_sum   'Na12 Nb4 As8 O36'
_cell_volume   873.13276018
_cell_formula_units_Z   4
loop_
 _symmetry_equiv_pos_site_id
 _symmetry_equiv_pos_as_xyz
  1  'x, y, z'
loop_
 _atom_site_type_symbol
 _atom_site_label
 _atom_site_symmetry_multiplicity
 _atom_site_fract_x
 _atom_site_fract_y
 _atom_site_fract_z
 _atom_site_occupancy
  Na  Na0  1  0.95215944  0.83425473  0.00727092  1
  Na  Na1  1  0.45215944  0.16574527  0.49272908  1
  Na  Na2  1  0.04784056  0.16574527  0.99272908  1
  Na  Na3  1  0.54784056  0.83425473  0.50727092  1
  Na  Na4  1  0.26345061  0.79959668  0.85380636  1
  Na  Na5  1  0.76345061  0.20040332  0.64619364  1
  Na  Na6  1  0.73654939  0.20040332  0.14619364  1
  Na  Na7  1  0.23654939  0.79959668  0.35380636  1
  Na  Na8  1  0.04576596  0.46685857  0.74184733  1
  Na  Na9  1  0.54576596  0.53314143  0.75815267  1
  Na  Na10  1  0.95423404  0.53314143  0.25815267  1
  Na  Na11  1  0.45423404  0.46685857  0.24184733  1
  Nb  Nb12  1  0.57708738  0.77989785  0.11455644  1
  Nb  Nb13  1  0.07708738  0.22010215  0.38544356  1
  Nb  Nb14  1  0.42291262  0.22010215  0.88544356  1
  Nb  Nb15  1  0.92291262  0.77989785  0.61455644  1
  As  As16  1  0.73887272  0.42652260  0.47405075  1
  As  As17  1  0.23887272  0.57347740  0.02594925  1
  As  As18  1  0.26112728  0.57347740  0.52594925  1
  As  As19  1  0.76112728  0.42652260  0.97405075  1
  As  As20  1  0.67610111  0.93163258  0.86058656  1
  As  As21  1  0.17610111  0.06836742  0.63941344  1
  As  As22  1  0.32389889  0.06836742  0.13941344  1
  As  As23  1  0.82389889  0.93163258  0.36058656  1
  O  O24  1  0.50075808  0.98185807  0.12917912  1
  O  O25  1  0.00075808  0.01814193  0.37082088  1
  O  O26  1  0.49924192  0.01814193  0.87082088  1
  O  O27  1  0.99924192  0.98185807  0.62917912  1
  O  O28  1  0.49763819  0.77509405  0.26438991  1
  O  O29  1  0.99763819  0.22490595  0.23561009  1
  O  O30  1  0.50236181  0.22490595  0.73561009  1
  O  O31  1  0.00236181  0.77509405  0.76438991  1
  O  O32  1  0.21579633  0.58663151  0.18423111  1
  O  O33  1  0.71579633  0.41336849  0.31576889  1
  O  O34  1  0.78420367  0.41336849  0.81576889  1
  O  O35  1  0.28420367  0.58663151  0.68423111  1
  O  O36  1  0.64793270  0.78112771  0.90488349  1
  O  O37  1  0.14793270  0.21887229  0.59511651  1
  O  O38  1  0.35206730  0.21887229  0.09511651  1
  O  O39  1  0.85206730  0.78112771  0.40488349  1
  O  O40  1  0.78310922  0.88245866  0.19318287  1
  O  O41  1  0.28310922  0.11754134  0.30681713  1
  O  O42  1  0.21689078  0.11754134  0.80681713  1
  O  O43  1  0.71689078  0.88245866  0.69318287  1
  O  O44  1  0.18497472  0.96287558  0.04719926  1
  O  O45  1  0.68497472  0.03712442  0.45280074  1
  O  O46  1  0.81502528  0.03712442  0.95280074  1
  O  O47  1  0.31502528  0.96287558  0.54719926  1
  O  O48  1  0.09214004  0.62379886  0.94915611  1
  O  O49  1  0.59214004  0.37620114  0.55084389  1
  O  O50  1  0.90785996  0.37620114  0.05084389  1
  O  O51  1  0.40785996  0.62379886  0.44915611  1
  O  O52  1  0.40069580  0.67221614  0.00024870  1
  O  O53  1  0.90069580  0.32778386  0.49975130  1
  O  O54  1  0.59930420  0.32778386  0.99975130  1
  O  O55  1  0.09930420  0.67221614  0.50024870  1
  O  O56  1  0.70550051  0.60071759  0.06575102  1
  O  O57  1  0.20550051  0.39928241  0.43424898  1
  O  O58  1  0.29449949  0.39928241  0.93424898  1
  O  O59  1  0.79449949  0.60071759  0.56575102  1
