# generated using pymatgen
data_Sb4IrC5ClO5F22
_symmetry_space_group_name_H-M   'P 1'
_cell_length_a   9.88848851
_cell_length_b   10.78011854
_cell_length_c   12.83114359
_cell_angle_alpha   90.00000000
_cell_angle_beta   90.00000000
_cell_angle_gamma   106.57183307
_symmetry_Int_Tables_number   1
_chemical_formula_structural   Sb4IrC5ClO5F22
_chemical_formula_sum   'Sb8 Ir2 C10 Cl2 O10 F44'
_cell_volume   1310.97413629
_cell_formula_units_Z   2
loop_
 _symmetry_equiv_pos_site_id
 _symmetry_equiv_pos_as_xyz
  1  'x, y, z'
loop_
 _atom_site_type_symbol
 _atom_site_label
 _atom_site_symmetry_multiplicity
 _atom_site_fract_x
 _atom_site_fract_y
 _atom_site_fract_z
 _atom_site_occupancy
  Sb  Sb0  1  0.74090852  0.96765628  0.62219260  1
  Sb  Sb1  1  0.75879980  0.50843241  0.36683314  1
  Sb  Sb2  1  0.24120020  0.49156759  0.86683314  1
  Sb  Sb3  1  0.16855253  0.76941106  0.68246342  1
  Sb  Sb4  1  0.83144747  0.23058894  0.18246342  1
  Sb  Sb5  1  0.25909148  0.03234372  0.12219260  1
  Sb  Sb6  1  0.34835596  0.74411519  0.28291612  1
  Sb  Sb7  1  0.65164404  0.25588481  0.78291612  1
  Ir  Ir8  1  0.25854921  0.24622664  0.48887255  1
  Ir  Ir9  1  0.74145079  0.75377336  0.98887255  1
  C  C10  1  0.58479389  0.83178488  0.96593906  1
  C  C11  1  0.76927097  0.81785102  0.13655500  1
  C  C12  1  0.41520611  0.16821512  0.46593906  1
  C  C13  1  0.26921903  0.32015814  0.34447139  1
  C  C14  1  0.11536080  0.08471689  0.43941894  1
  C  C15  1  0.23072903  0.18214898  0.63655500  1
  C  C16  1  0.88463920  0.91528311  0.93941894  1
  C  C17  1  0.73078097  0.67984186  0.84447139  1
  C  C18  1  0.61387098  0.58457817  0.04004029  1
  C  C19  1  0.38612902  0.41542183  0.54004029  1
  Cl  Cl20  1  0.92793695  0.65908545  0.01234173  1
  Cl  Cl21  1  0.07206305  0.34091455  0.51234173  1
  O  O22  1  0.45587733  0.51234366  0.56766784  1
  O  O23  1  0.50272326  0.12042046  0.45416992  1
  O  O24  1  0.72994637  0.63401117  0.76490888  1
  O  O25  1  0.27005363  0.36598883  0.26490888  1
  O  O26  1  0.21432835  0.14642493  0.71993444  1
  O  O27  1  0.03304352  0.99431821  0.41208059  1
  O  O28  1  0.54412267  0.48765634  0.06766784  1
  O  O29  1  0.49727674  0.87957954  0.95416992  1
  O  O30  1  0.96695648  0.00568179  0.91208059  1
  O  O31  1  0.78567165  0.85357507  0.21993444  1
  F  F32  1  0.04294639  0.82224247  0.77466135  1
  F  F33  1  0.76076834  0.41354539  0.49109915  1
  F  F34  1  0.29839233  0.09741185  0.26290314  1
  F  F35  1  0.70160767  0.90258815  0.76290314  1
  F  F36  1  0.44924870  0.11011995  0.08513934  1
  F  F37  1  0.07738917  0.93351574  0.17018405  1
  F  F38  1  0.24815697  0.42301004  0.72987594  1
  F  F39  1  0.92261083  0.06648426  0.67018405  1
  F  F40  1  0.18741089  0.63295556  0.21825620  1
  F  F41  1  0.31525187  0.36548033  0.92846382  1
  F  F42  1  0.94971463  0.60503110  0.38142324  1
  F  F43  1  0.75184303  0.57698996  0.22987594  1
  F  F44  1  0.71257522  0.30605119  0.10454828  1
  F  F45  1  0.81258911  0.36704444  0.71825620  1
  F  F46  1  0.28742478  0.69394881  0.60454828  1
  F  F47  1  0.55075130  0.88988005  0.58513934  1
  F  F48  1  0.76367328  0.18356877  0.87077693  1
  F  F49  1  0.05028537  0.39496890  0.88142324  1
  F  F50  1  0.22069673  0.94552721  0.99228582  1
  F  F51  1  0.16257636  0.62725189  0.79498342  1
  F  F52  1  0.36782960  0.61220202  0.37527556  1
  F  F53  1  0.00870468  0.65126845  0.62195492  1
  F  F54  1  0.67595489  0.12963055  0.26015072  1
  F  F55  1  0.66923714  0.12006779  0.67093280  1
  F  F56  1  0.77930327  0.05447279  0.49228582  1
  F  F57  1  0.63217040  0.38779798  0.87527556  1
  F  F58  1  0.46635316  0.70094445  0.17683914  1
  F  F59  1  0.42857594  0.60543432  0.84278408  1
  F  F60  1  0.19301181  0.17390337  0.08342790  1
  F  F61  1  0.99129532  0.34873155  0.12195492  1
  F  F62  1  0.83742364  0.37274811  0.29498342  1
  F  F63  1  0.80698819  0.82609663  0.58342790  1
  F  F64  1  0.32404511  0.87036945  0.76015072  1
  F  F65  1  0.48791644  0.12950071  0.82990731  1
  F  F66  1  0.17912481  0.90970339  0.58780100  1
  F  F67  1  0.23923166  0.58645461  0.99109915  1
  F  F68  1  0.95705361  0.17775753  0.27466135  1
  F  F69  1  0.57142406  0.39456568  0.34278408  1
  F  F70  1  0.23632672  0.81643123  0.37077693  1
  F  F71  1  0.68474813  0.63451967  0.42846382  1
  F  F72  1  0.33076286  0.87993221  0.17093280  1
  F  F73  1  0.53364684  0.29905555  0.67683914  1
  F  F74  1  0.82087519  0.09029661  0.08780100  1
  F  F75  1  0.51208356  0.87049929  0.32990731  1
