# generated using pymatgen
data_TcSbH2(OF5)2
_symmetry_space_group_name_H-M   'P 1'
_cell_length_a   8.82799775
_cell_length_b   9.94250204
_cell_length_c   11.81845026
_cell_angle_alpha   90.00000000
_cell_angle_beta   107.07151325
_cell_angle_gamma   90.00000000
_symmetry_Int_Tables_number   1
_chemical_formula_structural   TcSbH2(OF5)2
_chemical_formula_sum   'Tc4 Sb4 H8 O8 F40'
_cell_volume   991.62771251
_cell_formula_units_Z   4
loop_
 _symmetry_equiv_pos_site_id
 _symmetry_equiv_pos_as_xyz
  1  'x, y, z'
loop_
 _atom_site_type_symbol
 _atom_site_label
 _atom_site_symmetry_multiplicity
 _atom_site_fract_x
 _atom_site_fract_y
 _atom_site_fract_z
 _atom_site_occupancy
  Tc  Tc0  1  0.14435391  0.59113429  0.85735817  1
  Tc  Tc1  1  0.85564609  0.09113429  0.64264183  1
  Tc  Tc2  1  0.85564609  0.40886571  0.14264183  1
  Tc  Tc3  1  0.14435391  0.90886571  0.35735817  1
  Sb  Sb4  1  0.64578782  0.56469616  0.72133623  1
  Sb  Sb5  1  0.35421218  0.06469616  0.77866377  1
  Sb  Sb6  1  0.35421218  0.43530384  0.27866377  1
  Sb  Sb7  1  0.64578782  0.93530384  0.22133623  1
  H  H8  1  0.13857159  0.42462517  0.64098824  1
  H  H9  1  0.86142841  0.92462517  0.85901176  1
  H  H10  1  0.86142841  0.57537483  0.35901176  1
  H  H11  1  0.13857159  0.07537483  0.14098824  1
  H  H12  1  0.22423458  0.37209164  0.49588249  1
  H  H13  1  0.77576542  0.87209164  0.00411751  1
  H  H14  1  0.77576542  0.62790836  0.50411751  1
  H  H15  1  0.22423458  0.12790836  0.99588249  1
  O  O16  1  0.34197617  0.57817821  0.89226797  1
  O  O17  1  0.65802383  0.07817821  0.60773203  1
  O  O18  1  0.65802383  0.42182179  0.10773203  1
  O  O19  1  0.34197617  0.92182179  0.39226797  1
  O  O20  1  0.11720459  0.70971120  0.95095327  1
  O  O21  1  0.88279541  0.20971120  0.54904673  1
  O  O22  1  0.88279541  0.29028880  0.04904673  1
  O  O23  1  0.11720459  0.79028880  0.45095327  1
  F  F24  1  0.10326421  0.68899826  0.71888754  1
  F  F25  1  0.89673579  0.18899826  0.78111246  1
  F  F26  1  0.89673579  0.31100174  0.28111246  1
  F  F27  1  0.10326421  0.81100174  0.21888754  1
  F  F28  1  0.10021755  0.43613015  0.92840692  1
  F  F29  1  0.89978245  0.93613015  0.57159308  1
  F  F30  1  0.89978245  0.56386985  0.07159308  1
  F  F31  1  0.10021755  0.06386985  0.42840692  1
  F  F32  1  0.11838397  0.42467715  0.72008761  1
  F  F33  1  0.88161603  0.92467715  0.77991239  1
  F  F34  1  0.88161603  0.57532285  0.27991239  1
  F  F35  1  0.11838397  0.07532285  0.22008761  1
  F  F36  1  0.13673085  0.40837016  0.52054691  1
  F  F37  1  0.86326915  0.90837016  0.97945309  1
  F  F38  1  0.86326915  0.59162984  0.47945309  1
  F  F39  1  0.13673085  0.09162984  0.02054691  1
  F  F40  1  0.65287202  0.44884416  0.85101421  1
  F  F41  1  0.34712798  0.94884416  0.64898579  1
  F  F42  1  0.34712798  0.55115584  0.14898579  1
  F  F43  1  0.65287202  0.05115584  0.35101421  1
  F  F44  1  0.64717361  0.71909006  0.81666984  1
  F  F45  1  0.35282639  0.21909006  0.68333016  1
  F  F46  1  0.35282639  0.28090994  0.18333016  1
  F  F47  1  0.64717361  0.78090994  0.31666984  1
  F  F48  1  0.42096058  0.56513663  0.66209880  1
  F  F49  1  0.57903942  0.06513663  0.83790120  1
  F  F50  1  0.57903942  0.43486337  0.33790120  1
  F  F51  1  0.42096058  0.93486337  0.16209880  1
  F  F52  1  0.67192270  0.67710043  0.59361708  1
  F  F53  1  0.32807730  0.17710043  0.90638292  1
  F  F54  1  0.32807730  0.32289957  0.40638292  1
  F  F55  1  0.67192270  0.82289957  0.09361708  1
  F  F56  1  0.66898239  0.41412876  0.62866337  1
  F  F57  1  0.33101761  0.91412876  0.87133663  1
  F  F58  1  0.33101761  0.58587124  0.37133663  1
  F  F59  1  0.66898239  0.08587124  0.12866337  1
  F  F60  1  0.88264114  0.57226403  0.78298835  1
  F  F61  1  0.11735886  0.07226403  0.71701165  1
  F  F62  1  0.11735886  0.42773597  0.21701165  1
  F  F63  1  0.88264114  0.92773597  0.28298835  1
