# generated using pymatgen
data_Sr2B5H3O11
_symmetry_space_group_name_H-M   'P 1'
_cell_length_a   6.61995464
_cell_length_b   6.57421125
_cell_length_c   11.51095100
_cell_angle_alpha   88.91880741
_cell_angle_beta   85.51564887
_cell_angle_gamma   61.26822345
_symmetry_Int_Tables_number   1
_chemical_formula_structural   Sr2B5H3O11
_chemical_formula_sum   'Sr4 B10 H6 O22'
_cell_volume   437.84339174
_cell_formula_units_Z   2
loop_
 _symmetry_equiv_pos_site_id
 _symmetry_equiv_pos_as_xyz
  1  'x, y, z'
loop_
 _atom_site_type_symbol
 _atom_site_label
 _atom_site_symmetry_multiplicity
 _atom_site_fract_x
 _atom_site_fract_y
 _atom_site_fract_z
 _atom_site_occupancy
  Sr  Sr0  1  0.47475450  0.23615759  0.23181159  1
  Sr  Sr1  1  0.47226376  0.43158307  0.74601022  1
  Sr  Sr2  1  0.87348221  0.38686229  0.43744221  1
  Sr  Sr3  1  0.87859801  0.88070695  0.94288456  1
  B  B4  1  0.34273071  0.95588390  0.73821766  1
  B  B5  1  0.00142555  0.34405406  0.76357167  1
  B  B6  1  0.96821664  0.03061578  0.65838072  1
  B  B7  1  0.89747678  0.34089357  0.98936472  1
  B  B8  1  0.37884165  0.75886098  0.22164139  1
  B  B9  1  0.88462954  0.83974371  0.49639019  1
  B  B10  1  0.82846823  0.58680304  0.16606401  1
  B  B11  1  0.78567778  0.77079165  0.70320494  1
  B  B12  1  0.04769933  0.15079085  0.18102461  1
  B  B13  1  0.96846397  0.83698765  0.26985565  1
  H  H14  1  0.38530160  0.34931450  0.48434416  1
  H  H15  1  0.34323334  0.62110998  0.51329595  1
  H  H16  1  0.35338278  0.08935572  0.48650302  1
  H  H17  1  0.38595567  0.43845649  0.98487396  1
  H  H18  1  0.36887016  0.70601111  0.99347203  1
  H  H19  1  0.36890428  0.16976865  0.00219312  1
  O  O20  1  0.02054109  0.37825742  0.21121898  1
  O  O21  1  0.30792713  0.22556824  0.43875861  1
  O  O22  1  0.91025494  0.27565636  0.66732108  1
  O  O23  1  0.97429885  0.57657214  0.75829899  1
  O  O24  1  0.81981344  0.55854503  0.03642599  1
  O  O25  1  0.79355302  0.98847781  0.72622644  1
  O  O26  1  0.98311275  0.14768048  0.05921197  1
  O  O27  1  0.87917976  0.78663100  0.38244245  1
  O  O28  1  0.22468572  0.68060493  0.25630854  1
  O  O29  1  0.56513854  0.78932001  0.75513148  1
  O  O30  1  0.79731958  0.73510525  0.57482137  1
  O  O31  1  0.91401131  0.08349345  0.26646818  1
  O  O32  1  0.46326489  0.45922717  0.51834265  1
  O  O33  1  0.97302263  0.97895176  0.53065960  1
  O  O34  1  0.20305069  0.87466660  0.69769469  1
  O  O35  1  0.60921626  0.59988027  0.22708642  1
  O  O36  1  0.88509117  0.30189301  0.87379061  1
  O  O37  1  0.25893595  0.18611217  0.76516278  1
  O  O38  1  0.84717064  0.79651831  0.17833855  1
  O  O39  1  0.30534448  0.62411476  0.95280957  1
  O  O40  1  0.30254897  0.98065014  0.18191137  1
  O  O41  1  0.48565172  0.21844215  0.00774332  1
