# generated using pymatgen
data_KSb2PO8
_symmetry_space_group_name_H-M   'P 1'
_cell_length_a   7.19167986
_cell_length_b   7.22248258
_cell_length_c   15.26076243
_cell_angle_alpha   95.17970757
_cell_angle_beta   90.00000000
_cell_angle_gamma   119.85901570
_symmetry_Int_Tables_number   1
_chemical_formula_structural   KSb2PO8
_chemical_formula_sum   'K4 Sb8 P4 O32'
_cell_volume   683.71164711
_cell_formula_units_Z   4
loop_
 _symmetry_equiv_pos_site_id
 _symmetry_equiv_pos_as_xyz
  1  'x, y, z'
loop_
 _atom_site_type_symbol
 _atom_site_label
 _atom_site_symmetry_multiplicity
 _atom_site_fract_x
 _atom_site_fract_y
 _atom_site_fract_z
 _atom_site_occupancy
  K  K0  1  0.15162538  0.06054683  0.88799654  1
  K  K1  1  0.90892145  0.06054683  0.38799654  1
  K  K2  1  0.85125168  0.94331300  0.11853383  1
  K  K3  1  0.09206132  0.94331300  0.61853383  1
  Sb  Sb4  1  0.12341748  0.50140022  0.74823526  1
  Sb  Sb5  1  0.37798275  0.50140022  0.24823526  1
  Sb  Sb6  1  0.87474401  0.49539020  0.25481490  1
  Sb  Sb7  1  0.62064619  0.49539020  0.75481490  1
  Sb  Sb8  1  0.19001579  0.64363446  0.06470894  1
  Sb  Sb9  1  0.45361867  0.64363446  0.56470894  1
  Sb  Sb10  1  0.80711231  0.35152698  0.93834030  1
  Sb  Sb11  1  0.54441466  0.35152698  0.43834030  1
  P  P12  1  0.48677982  0.19953504  0.10748938  1
  P  P13  1  0.71275522  0.19953504  0.60748938  1
  P  P14  1  0.51057157  0.79682572  0.89528776  1
  P  P15  1  0.28625415  0.79682572  0.39528776  1
  O  O16  1  0.30422372  0.36447800  0.74887504  1
  O  O17  1  0.06025428  0.36447800  0.24887504  1
  O  O18  1  0.69482754  0.63341213  0.25471534  1
  O  O19  1  0.93858459  0.63341213  0.75471534  1
  O  O20  1  0.58613133  0.32709491  0.85519870  1
  O  O21  1  0.74096358  0.32709491  0.35519870  1
  O  O22  1  0.41340829  0.66318229  0.14514863  1
  O  O23  1  0.24977400  0.66318229  0.64514863  1
  O  O24  1  0.99670587  0.66417573  0.97411218  1
  O  O25  1  0.66746985  0.66417573  0.47411218  1
  O  O26  1  0.99799375  0.33005128  0.02961511  1
  O  O27  1  0.33205753  0.33005128  0.52961511  1
  O  O28  1  0.02021234  0.67802627  0.16061035  1
  O  O29  1  0.65781393  0.67802627  0.66061035  1
  O  O30  1  0.98256446  0.32058993  0.84391032  1
  O  O31  1  0.33802547  0.32058993  0.34391032  1
  O  O32  1  0.33972569  0.77759435  0.82676203  1
  O  O33  1  0.43786866  0.77759435  0.32676203  1
  O  O34  1  0.66282757  0.22114638  0.17378701  1
  O  O35  1  0.55831881  0.22114638  0.67378701  1
  O  O36  1  0.59180815  0.34712180  0.03329577  1
  O  O37  1  0.75531365  0.34712180  0.53329577  1
  O  O38  1  0.40297684  0.64993792  0.96917511  1
  O  O39  1  0.24696108  0.64993792  0.46917511  1
  O  O40  1  0.64418286  0.02765184  0.93911021  1
  O  O41  1  0.38346899  0.02765184  0.43911021  1
  O  O42  1  0.34920784  0.96858393  0.06426070  1
  O  O43  1  0.61937609  0.96858393  0.56426070  1
  O  O44  1  0.32583739  0.25231131  0.15567986  1
  O  O45  1  0.92647392  0.25231131  0.65567986  1
  O  O46  1  0.67203962  0.74174949  0.84901673  1
  O  O47  1  0.06970987  0.74174949  0.34901673  1
