# generated using pymatgen
data_SrCdB2O5
_symmetry_space_group_name_H-M   'P 1'
_cell_length_a   5.85879087
_cell_length_b   12.17964609
_cell_length_c   12.81698241
_cell_angle_alpha   90.00000000
_cell_angle_beta   90.00000000
_cell_angle_gamma   90.00000000
_symmetry_Int_Tables_number   1
_chemical_formula_structural   SrCdB2O5
_chemical_formula_sum   'Sr8 Cd8 B16 O40'
_cell_volume   914.59422199
_cell_formula_units_Z   8
loop_
 _symmetry_equiv_pos_site_id
 _symmetry_equiv_pos_as_xyz
  1  'x, y, z'
loop_
 _atom_site_type_symbol
 _atom_site_label
 _atom_site_symmetry_multiplicity
 _atom_site_fract_x
 _atom_site_fract_y
 _atom_site_fract_z
 _atom_site_occupancy
  Sr  Sr0  1  0.88574130  0.61940275  0.58773114  1
  Sr  Sr1  1  0.61425870  0.11940275  0.41226886  1
  Sr  Sr2  1  0.38574130  0.38059725  0.91226886  1
  Sr  Sr3  1  0.11425870  0.88059725  0.08773114  1
  Sr  Sr4  1  0.11425870  0.38059725  0.41226886  1
  Sr  Sr5  1  0.38574130  0.88059725  0.58773114  1
  Sr  Sr6  1  0.61425870  0.61940275  0.08773114  1
  Sr  Sr7  1  0.88574130  0.11940275  0.91226886  1
  Cd  Cd8  1  0.12891441  0.63261766  0.26465781  1
  Cd  Cd9  1  0.37108559  0.13261766  0.73534219  1
  Cd  Cd10  1  0.62891441  0.36738234  0.23534219  1
  Cd  Cd11  1  0.87108559  0.86738234  0.76465781  1
  Cd  Cd12  1  0.87108559  0.36738234  0.73534219  1
  Cd  Cd13  1  0.62891441  0.86738234  0.26465781  1
  Cd  Cd14  1  0.37108559  0.63261766  0.76465781  1
  Cd  Cd15  1  0.12891441  0.13261766  0.23534219  1
  B  B16  1  0.62614532  0.61153210  0.32679607  1
  B  B17  1  0.87385468  0.11153210  0.67320393  1
  B  B18  1  0.12614532  0.38846790  0.17320393  1
  B  B19  1  0.37385468  0.88846790  0.82679607  1
  B  B20  1  0.37385468  0.38846790  0.67320393  1
  B  B21  1  0.12614532  0.88846790  0.32679607  1
  B  B22  1  0.87385468  0.61153210  0.82679607  1
  B  B23  1  0.62614532  0.11153210  0.17320393  1
  B  B24  1  0.37786991  0.62192179  0.48846693  1
  B  B25  1  0.12213009  0.12192179  0.51153307  1
  B  B26  1  0.87786991  0.37807821  0.01153307  1
  B  B27  1  0.62213009  0.87807821  0.98846693  1
  B  B28  1  0.62213009  0.37807821  0.51153307  1
  B  B29  1  0.87786991  0.87807821  0.48846693  1
  B  B30  1  0.12213009  0.62192179  0.98846693  1
  B  B31  1  0.37786991  0.12192179  0.01153307  1
  O  O32  1  0.17585900  0.59181576  0.44252589  1
  O  O33  1  0.32414100  0.09181576  0.55747411  1
  O  O34  1  0.67585900  0.40818424  0.05747411  1
  O  O35  1  0.82414100  0.90818424  0.94252589  1
  O  O36  1  0.82414100  0.40818424  0.55747411  1
  O  O37  1  0.67585900  0.90818424  0.44252589  1
  O  O38  1  0.32414100  0.59181576  0.94252589  1
  O  O39  1  0.17585900  0.09181576  0.05747411  1
  O  O40  1  0.58974657  0.60216443  0.43504759  1
  O  O41  1  0.91025343  0.10216443  0.56495241  1
  O  O42  1  0.08974657  0.39783557  0.06495241  1
  O  O43  1  0.41025343  0.89783557  0.93504759  1
  O  O44  1  0.41025343  0.39783557  0.56495241  1
  O  O45  1  0.08974657  0.89783557  0.43504759  1
  O  O46  1  0.91025343  0.60216443  0.93504759  1
  O  O47  1  0.58974657  0.10216443  0.06495241  1
  O  O48  1  0.50342560  0.68770200  0.27035436  1
  O  O49  1  0.99657440  0.18770200  0.72964564  1
  O  O50  1  0.00342560  0.31229800  0.22964564  1
  O  O51  1  0.49657440  0.81229800  0.77035436  1
  O  O52  1  0.49657440  0.31229800  0.72964564  1
  O  O53  1  0.00342560  0.81229800  0.27035436  1
  O  O54  1  0.99657440  0.68770200  0.77035436  1
  O  O55  1  0.50342560  0.18770200  0.22964564  1
  O  O56  1  0.78389992  0.54537680  0.27807681  1
  O  O57  1  0.71610008  0.04537680  0.72192319  1
  O  O58  1  0.28389992  0.45462320  0.22192319  1
  O  O59  1  0.21610008  0.95462320  0.77807681  1
  O  O60  1  0.21610008  0.45462320  0.72192319  1
  O  O61  1  0.28389992  0.95462320  0.27807681  1
  O  O62  1  0.71610008  0.54537680  0.77807681  1
  O  O63  1  0.78389992  0.04537680  0.22192319  1
  O  O64  1  0.10313849  0.66981604  0.08436297  1
  O  O65  1  0.39686151  0.16981604  0.91563703  1
  O  O66  1  0.60313849  0.33018396  0.41563703  1
  O  O67  1  0.89686151  0.83018396  0.58436297  1
  O  O68  1  0.89686151  0.33018396  0.91563703  1
  O  O69  1  0.60313849  0.83018396  0.08436297  1
  O  O70  1  0.39686151  0.66981604  0.58436297  1
  O  O71  1  0.10313849  0.16981604  0.41563703  1
