# generated using pymatgen
data_Gd3InS6
_symmetry_space_group_name_H-M   'P 1'
_cell_length_a   3.89898602
_cell_length_b   13.62867187
_cell_length_c   16.61123717
_cell_angle_alpha   90.00000000
_cell_angle_beta   90.00000000
_cell_angle_gamma   90.00000000
_symmetry_Int_Tables_number   1
_chemical_formula_structural   Gd3InS6
_chemical_formula_sum   'Gd12 In4 S24'
_cell_volume   882.68793888
_cell_formula_units_Z   4
loop_
 _symmetry_equiv_pos_site_id
 _symmetry_equiv_pos_as_xyz
  1  'x, y, z'
loop_
 _atom_site_type_symbol
 _atom_site_label
 _atom_site_symmetry_multiplicity
 _atom_site_fract_x
 _atom_site_fract_y
 _atom_site_fract_z
 _atom_site_occupancy
  Gd  Gd0  1  0.50000000  0.04010068  0.27662826  1
  Gd  Gd1  1  0.50000000  0.95989932  0.72337174  1
  Gd  Gd2  1  0.00000000  0.54010068  0.22337174  1
  Gd  Gd3  1  0.00000000  0.45989932  0.77662826  1
  Gd  Gd4  1  0.50000000  0.81177149  0.14565763  1
  Gd  Gd5  1  0.50000000  0.18822851  0.85434237  1
  Gd  Gd6  1  0.00000000  0.31177149  0.35434237  1
  Gd  Gd7  1  0.00000000  0.68822851  0.64565763  1
  Gd  Gd8  1  0.50000000  0.25111528  0.10657808  1
  Gd  Gd9  1  0.50000000  0.74888472  0.89342192  1
  Gd  Gd10  1  -0.00000000  0.75111528  0.39342192  1
  Gd  Gd11  1  -0.00000000  0.24888472  0.60657808  1
  In  In12  1  0.50000000  0.50000000  0.50000000  1
  In  In13  1  0.00000000  -0.00000000  -0.00000000  1
  In  In14  1  0.50000000  0.50000000  -0.00000000  1
  In  In15  1  -0.00000000  -0.00000000  0.50000000  1
  S  S16  1  0.50000000  0.61307900  0.11681570  1
  S  S17  1  0.50000000  0.38692100  0.88318430  1
  S  S18  1  0.00000000  0.11307900  0.38318430  1
  S  S19  1  -0.00000000  0.88692100  0.61681570  1
  S  S20  1  0.50000000  0.90386639  0.41406524  1
  S  S21  1  0.50000000  0.09613361  0.58593476  1
  S  S22  1  -0.00000000  0.40386639  0.08593476  1
  S  S23  1  -0.00000000  0.59613361  0.91406524  1
  S  S24  1  0.50000000  0.68189783  0.28676720  1
  S  S25  1  0.50000000  0.31810217  0.71323280  1
  S  S26  1  -0.00000000  0.18189783  0.21323280  1
  S  S27  1  0.00000000  0.81810217  0.78676720  1
  S  S28  1  0.50000000  0.30850453  0.47949327  1
  S  S29  1  0.50000000  0.69149547  0.52050673  1
  S  S30  1  -0.00000000  0.80850453  0.02050673  1
  S  S31  1  0.00000000  0.19149547  0.97949327  1
  S  S32  1  0.50000000  0.02090101  0.10508342  1
  S  S33  1  0.50000000  0.97909899  0.89491658  1
  S  S34  1  0.00000000  0.52090101  0.39491658  1
  S  S35  1  -0.00000000  0.47909899  0.60508342  1
  S  S36  1  0.50000000  0.38891480  0.25342600  1
  S  S37  1  0.50000000  0.61108520  0.74657400  1
  S  S38  1  -0.00000000  0.88891480  0.24657400  1
  S  S39  1  -0.00000000  0.11108520  0.75342600  1
