# generated using pymatgen
data_KNb(BO3)2
_symmetry_space_group_name_H-M   'P 1'
_cell_length_a   7.43500965
_cell_length_b   32.33635283
_cell_length_c   9.36195656
_cell_angle_alpha   90.00000000
_cell_angle_beta   90.00000000
_cell_angle_gamma   90.00000000
_symmetry_Int_Tables_number   1
_chemical_formula_structural   KNb(BO3)2
_chemical_formula_sum   'K16 Nb16 B32 O96'
_cell_volume   2250.81185065
_cell_formula_units_Z   16
loop_
 _symmetry_equiv_pos_site_id
 _symmetry_equiv_pos_as_xyz
  1  'x, y, z'
loop_
 _atom_site_type_symbol
 _atom_site_label
 _atom_site_symmetry_multiplicity
 _atom_site_fract_x
 _atom_site_fract_y
 _atom_site_fract_z
 _atom_site_occupancy
  K  K0  1  0.74801877  0.93649876  0.24904352  1
  K  K1  1  0.25198123  0.06350124  0.74904352  1
  K  K2  1  0.75198123  0.43649876  0.24904352  1
  K  K3  1  0.24801877  0.56350124  0.74904352  1
  K  K4  1  0.25991995  0.93976174  0.73695134  1
  K  K5  1  0.74008005  0.06023826  0.23695134  1
  K  K6  1  0.24008005  0.43976174  0.73695134  1
  K  K7  1  0.75991995  0.56023826  0.23695134  1
  K  K8  1  0.75942473  0.81148426  0.24614002  1
  K  K9  1  0.24057527  0.18851574  0.74614002  1
  K  K10  1  0.74057527  0.31148426  0.24614002  1
  K  K11  1  0.25942473  0.68851574  0.74614002  1
  K  K12  1  0.25520071  0.81402664  0.73655716  1
  K  K13  1  0.74479929  0.18597336  0.23655716  1
  K  K14  1  0.24479929  0.31402664  0.73655716  1
  K  K15  1  0.75520071  0.68597336  0.23655716  1
  Nb  Nb16  1  0.76150519  0.89898563  0.63765755  1
  Nb  Nb17  1  0.23849481  0.10101437  0.13765755  1
  Nb  Nb18  1  0.73849481  0.39898563  0.63765755  1
  Nb  Nb19  1  0.26150519  0.60101437  0.13765755  1
  Nb  Nb20  1  0.78816869  0.65009467  0.64146262  1
  Nb  Nb21  1  0.21183131  0.34990533  0.14146262  1
  Nb  Nb22  1  0.71183131  0.15009467  0.64146262  1
  Nb  Nb23  1  0.28816869  0.84990533  0.14146262  1
  Nb  Nb24  1  0.73203340  0.52386382  0.64071451  1
  Nb  Nb25  1  0.26796660  0.47613618  0.14071451  1
  Nb  Nb26  1  0.76796660  0.02386382  0.64071451  1
  Nb  Nb27  1  0.23203340  0.97613618  0.14071451  1
  Nb  Nb28  1  0.73798361  0.77506936  0.63905106  1
  Nb  Nb29  1  0.26201639  0.22493064  0.13905106  1
  Nb  Nb30  1  0.76201639  0.27506936  0.63905106  1
  Nb  Nb31  1  0.23798361  0.72493064  0.13905106  1
  B  B32  1  0.57739249  0.74126116  0.92662836  1
  B  B33  1  0.42260751  0.25873884  0.42662836  1
  B  B34  1  0.92260751  0.24126116  0.92662836  1
  B  B35  1  0.07739249  0.75873884  0.42662836  1
  B  B36  1  0.88731723  0.99525158  0.94089836  1
  B  B37  1  0.11268277  0.00474842  0.44089836  1
  B  B38  1  0.61268277  0.49525158  0.94089836  1
  B  B39  1  0.38731723  0.50474842  0.44089836  1
  B  B40  1  0.90708204  0.75460390  0.92946518  1
  B  B41  1  0.09291796  0.24539610  0.42946518  1
  B  B42  1  0.59291796  0.25460390  0.92946518  1
  B  B43  1  0.40708204  0.74539610  0.42946518  1
  B  B44  1  0.91454712  0.61774164  0.93814771  1
  B  B45  1  0.08545288  0.38225836  0.43814771  1
  B  B46  1  0.58545288  0.11774164  0.93814771  1
  B  B47  1  0.41454712  0.88225836  0.43814771  1
  B  B48  1  0.96090708  0.86891990  0.91598137  1
  B  B49  1  0.03909292  0.13108010  0.41598137  1
  B  B50  1  0.53909292  0.36891990  0.91598137  1
  B  B51  1  0.46090708  0.63108010  0.41598137  1
  B  B52  1  0.55602027  0.99713515  0.91538202  1
  B  B53  1  0.44397973  0.00286485  0.41538202  1
  B  B54  1  0.94397973  0.49713515  0.91538202  1
  B  B55  1  0.05602027  0.50286485  0.41538202  1
  B  B56  1  0.58233997  0.62806559  0.91937066  1
  B  B57  1  0.41766003  0.37193441  0.41937066  1
  B  B58  1  0.91766003  0.12806559  0.91937066  1
  B  B59  1  0.08233997  0.87193441  0.41937066  1
  B  B60  1  0.63240335  0.87735494  0.93939098  1
  B  B61  1  0.36759665  0.12264506  0.43939098  1
  B  B62  1  0.86759665  0.37735494  0.93939098  1
  B  B63  1  0.13240335  0.62264506  0.43939098  1
  O  O64  1  0.56381744  0.75700298  0.49160127  1
  O  O65  1  0.43618256  0.24299702  0.99160127  1
  O  O66  1  0.93618256  0.25700298  0.49160127  1
  O  O67  1  0.06381744  0.74299702  0.99160127  1
  O  O68  1  0.51512886  0.52561278  0.51659066  1
  O  O69  1  0.48487114  0.47438722  0.01659066  1
  O  O70  1  0.98487114  0.02561278  0.51659066  1
  O  O71  1  0.01512886  0.97438722  0.01659066  1
  O  O72  1  0.54144727  0.90356800  0.51478454  1
  O  O73  1  0.45855273  0.09643200  0.01478454  1
  O  O74  1  0.95855273  0.40356800  0.51478454  1
  O  O75  1  0.04144727  0.59643200  0.01478454  1
  O  O76  1  0.99195026  0.63833662  0.51412516  1
  O  O77  1  0.00804974  0.36166338  0.01412516  1
  O  O78  1  0.50804974  0.13833662  0.51412516  1
  O  O79  1  0.49195026  0.86166338  0.01412516  1
  O  O80  1  0.59002097  0.64645028  0.78842331  1
  O  O81  1  0.40997903  0.35354972  0.28842331  1
  O  O82  1  0.90997903  0.14645028  0.78842331  1
  O  O83  1  0.09002097  0.85354972  0.28842331  1
  O  O84  1  0.74543269  0.74282958  0.99696958  1
  O  O85  1  0.25456731  0.25717042  0.49696958  1
  O  O86  1  0.75456731  0.24282958  0.99696958  1
  O  O87  1  0.24543269  0.75717042  0.49696958  1
  O  O88  1  0.96319655  0.88072139  0.77596438  1
  O  O89  1  0.03680345  0.11927861  0.27596438  1
  O  O90  1  0.53680345  0.38072139  0.77596438  1
  O  O91  1  0.46319655  0.61927861  0.27596438  1
  O  O92  1  0.55214491  0.75632668  0.79207565  1
  O  O93  1  0.44785509  0.24367332  0.29207565  1
  O  O94  1  0.94785509  0.25632668  0.79207565  1
  O  O95  1  0.05214491  0.74367332  0.29207565  1
  O  O96  1  0.76099912  0.57929834  0.64745338  1
  O  O97  1  0.23900088  0.42070166  0.14745338  1
  O  O98  1  0.73900088  0.07929834  0.64745338  1
  O  O99  1  0.26099912  0.92070166  0.14745338  1
  O  O100  1  0.93819378  0.50867464  0.77534129  1
  O  O101  1  0.06180622  0.49132536  0.27534129  1
  O  O102  1  0.56180622  0.00867464  0.77534129  1
  O  O103  1  0.43819378  0.99132536  0.27534129  1
  O  O104  1  0.57530688  0.51652754  0.81875945  1
  O  O105  1  0.42469312  0.48347246  0.31875945  1
  O  O106  1  0.92469312  0.01652754  0.81875945  1
  O  O107  1  0.07530688  0.98347246  0.31875945  1
  O  O108  1  0.80303864  0.86961550  0.99836512  1
  O  O109  1  0.19696136  0.13038450  0.49836512  1
  O  O110  1  0.69696136  0.36961550  0.99836512  1
  O  O111  1  0.30303864  0.63038450  0.49836512  1
  O  O112  1  0.81645071  0.95345639  0.63269555  1
  O  O113  1  0.18354929  0.04654361  0.13269555  1
  O  O114  1  0.68354929  0.45345639  0.63269555  1
  O  O115  1  0.31645071  0.54654361  0.13269555  1
  O  O116  1  0.61301557  0.64560146  0.48121427  1
  O  O117  1  0.38698443  0.35439854  0.98121427  1
  O  O118  1  0.88698443  0.14560146  0.48121427  1
  O  O119  1  0.11301557  0.85439854  0.98121427  1
  O  O120  1  0.81339254  0.70590468  0.64378010  1
  O  O121  1  0.18660746  0.29409532  0.14378010  1
  O  O122  1  0.68660746  0.20590468  0.64378010  1
  O  O123  1  0.31339254  0.79409532  0.14378010  1
  O  O124  1  0.95489020  0.63652946  0.81186450  1
  O  O125  1  0.04510980  0.36347054  0.31186450  1
  O  O126  1  0.54510980  0.13652946  0.81186450  1
  O  O127  1  0.45489020  0.86347054  0.31186450  1
  O  O128  1  0.94110411  0.77781159  0.50033106  1
  O  O129  1  0.05889589  0.22218841  0.00033106  1
  O  O130  1  0.55889589  0.27781159  0.50033106  1
  O  O131  1  0.44110411  0.72218841  0.00033106  1
  O  O132  1  0.73919268  0.61804146  0.99680961  1
  O  O133  1  0.26080732  0.38195854  0.49680961  1
  O  O134  1  0.76080732  0.11804146  0.99680961  1
  O  O135  1  0.23919268  0.88195854  0.49680961  1
  O  O136  1  0.90816568  0.77699484  0.80636395  1
  O  O137  1  0.09183432  0.22300516  0.30636395  1
  O  O138  1  0.59183432  0.27699484  0.80636395  1
  O  O139  1  0.40816568  0.72300516  0.30636395  1
  O  O140  1  0.68198705  0.82970114  0.63768383  1
  O  O141  1  0.31801295  0.17029886  0.13768383  1
  O  O142  1  0.81801295  0.32970114  0.63768383  1
  O  O143  1  0.18198705  0.67029886  0.13768383  1
  O  O144  1  0.60843590  0.89922149  0.81665415  1
  O  O145  1  0.39156410  0.10077851  0.31665415  1
  O  O146  1  0.89156410  0.39922149  0.81665415  1
  O  O147  1  0.10843590  0.60077851  0.31665415  1
  O  O148  1  0.91952858  0.88150490  0.47660074  1
  O  O149  1  0.08047142  0.11849510  0.97660074  1
  O  O150  1  0.58047142  0.38150490  0.47660074  1
  O  O151  1  0.41952858  0.61849510  0.97660074  1
  O  O152  1  0.71224954  0.99310888  0.99869594  1
  O  O153  1  0.28775046  0.00689112  0.49869594  1
  O  O154  1  0.78775046  0.49310888  0.99869594  1
  O  O155  1  0.21224954  0.50689112  0.49869594  1
  O  O156  1  0.39436704  0.98786975  0.97623010  1
  O  O157  1  0.60563296  0.01213025  0.47623010  1
  O  O158  1  0.10563296  0.48786975  0.97623010  1
  O  O159  1  0.89436704  0.51213025  0.47623010  1
