# generated using pymatgen
data_Y2Zn17
_symmetry_space_group_name_H-M   'P 1'
_cell_length_a   8.69697581
_cell_length_b   9.02740787
_cell_length_c   9.02740787
_cell_angle_alpha   120.01517978
_cell_angle_beta   90.00000000
_cell_angle_gamma   90.00000000
_symmetry_Int_Tables_number   1
_chemical_formula_structural   Y2Zn17
_chemical_formula_sum   'Y4 Zn34'
_cell_volume   613.70346139
_cell_formula_units_Z   2
loop_
 _symmetry_equiv_pos_site_id
 _symmetry_equiv_pos_as_xyz
  1  'x, y, z'
loop_
 _atom_site_type_symbol
 _atom_site_label
 _atom_site_symmetry_multiplicity
 _atom_site_fract_x
 _atom_site_fract_y
 _atom_site_fract_z
 _atom_site_occupancy
  Y  Y0  1  0.75000000  0.99996396  0.00003604  1
  Y  Y1  1  0.25000000  0.00003604  0.99996396  1
  Y  Y2  1  0.25000000  0.66661397  0.33338603  1
  Y  Y3  1  0.75000000  0.33338603  0.66661397  1
  Zn  Zn4  1  0.59821447  0.66670534  0.33329466  1
  Zn  Zn5  1  0.40178553  0.33329466  0.66670534  1
  Zn  Zn6  1  0.09821447  0.33329466  0.66670534  1
  Zn  Zn7  1  0.90178553  0.66670534  0.33329466  1
  Zn  Zn8  1  0.50000000  0.50000000  -0.00000000  1
  Zn  Zn9  1  0.50000000  0.50000000  0.50000000  1
  Zn  Zn10  1  0.50000000  0.00000000  0.50000000  1
  Zn  Zn11  1  -0.00000000  0.50000000  -0.00000000  1
  Zn  Zn12  1  -0.00000000  0.50000000  0.50000000  1
  Zn  Zn13  1  -0.00000000  0.00000000  0.50000000  1
  Zn  Zn14  1  0.75000000  0.67087414  0.03589172  1
  Zn  Zn15  1  0.75000000  0.36519949  0.32939745  1
  Zn  Zn16  1  0.75000000  0.96442561  0.63515272  1
  Zn  Zn17  1  0.75000000  0.36484728  0.03557439  1
  Zn  Zn18  1  0.75000000  0.96410828  0.32912586  1
  Zn  Zn19  1  0.75000000  0.67060255  0.63480051  1
  Zn  Zn20  1  0.25000000  0.32912586  0.96410828  1
  Zn  Zn21  1  0.25000000  0.63480051  0.67060255  1
  Zn  Zn22  1  0.25000000  0.03557439  0.36484728  1
  Zn  Zn23  1  0.25000000  0.63515272  0.96442561  1
  Zn  Zn24  1  0.25000000  0.03589172  0.67087414  1
  Zn  Zn25  1  0.25000000  0.32939745  0.36519949  1
  Zn  Zn26  1  0.48064194  0.83822515  0.67640816  1
  Zn  Zn27  1  0.48040705  0.83823638  0.16176362  1
  Zn  Zn28  1  0.48064194  0.32359184  0.16177485  1
  Zn  Zn29  1  0.51935806  0.16177485  0.32359184  1
  Zn  Zn30  1  0.51959295  0.16176362  0.83823638  1
  Zn  Zn31  1  0.51935806  0.67640816  0.83822515  1
  Zn  Zn32  1  0.98064194  0.16177485  0.32359184  1
  Zn  Zn33  1  0.98040705  0.16176362  0.83823638  1
  Zn  Zn34  1  0.98064194  0.67640816  0.83822515  1
  Zn  Zn35  1  0.01935806  0.83822515  0.67640816  1
  Zn  Zn36  1  0.01959295  0.83823638  0.16176362  1
  Zn  Zn37  1  0.01935806  0.32359184  0.16177485  1
