# generated using pymatgen
data_MgH16(IO4)2
_symmetry_space_group_name_H-M   'P 1'
_cell_length_a   8.81385519
_cell_length_b   8.95912713
_cell_length_c   10.18149900
_cell_angle_alpha   90.00000000
_cell_angle_beta   90.00000000
_cell_angle_gamma   119.46504990
_symmetry_Int_Tables_number   1
_chemical_formula_structural   MgH16(IO4)2
_chemical_formula_sum   'Mg2 H32 I4 O16'
_cell_volume   699.98685610
_cell_formula_units_Z   2
loop_
 _symmetry_equiv_pos_site_id
 _symmetry_equiv_pos_as_xyz
  1  'x, y, z'
loop_
 _atom_site_type_symbol
 _atom_site_label
 _atom_site_symmetry_multiplicity
 _atom_site_fract_x
 _atom_site_fract_y
 _atom_site_fract_z
 _atom_site_occupancy
  Mg  Mg0  1  -0.00000000  0.00000000  0.00000000  1
  Mg  Mg1  1  0.50000000  0.00000000  0.50000000  1
  H  H2  1  0.87116673  0.74233345  0.81227423  1
  H  H3  1  0.12883327  0.25766655  0.18772577  1
  H  H4  1  0.62883327  0.25766655  0.31227423  1
  H  H5  1  0.37116673  0.74233345  0.68772577  1
  H  H6  1  0.82304139  0.64608277  0.94940803  1
  H  H7  1  0.17695861  0.35391723  0.05059197  1
  H  H8  1  0.67695861  0.35391723  0.44940803  1
  H  H9  1  0.32304139  0.64608277  0.55059197  1
  H  H10  1  0.82040416  0.82053980  0.21260433  1
  H  H11  1  0.99986436  0.17946020  0.78739567  1
  H  H12  1  0.49986436  0.17946020  0.71260433  1
  H  H13  1  0.32040416  0.82053980  0.28739567  1
  H  H14  1  0.17959584  0.17946020  0.78739567  1
  H  H15  1  0.00013564  0.82053980  0.21260433  1
  H  H16  1  0.50013564  0.82053980  0.28739567  1
  H  H17  1  0.67959584  0.17946020  0.71260433  1
  H  H18  1  0.03867212  0.61598331  0.32473955  1
  H  H19  1  0.42268881  0.38401669  0.67526045  1
  H  H20  1  0.92268881  0.38401669  0.82473955  1
  H  H21  1  0.53867212  0.61598331  0.17526045  1
  H  H22  1  0.96132788  0.38401669  0.67526045  1
  H  H23  1  0.57731119  0.61598331  0.32473955  1
  H  H24  1  0.07731119  0.61598331  0.17526045  1
  H  H25  1  0.46132788  0.38401669  0.82473955  1
  H  H26  1  0.64718259  0.90516442  0.97264208  1
  H  H27  1  0.74201817  0.09483558  0.02735792  1
  H  H28  1  0.24201817  0.09483558  0.47264208  1
  H  H29  1  0.14718259  0.90516442  0.52735792  1
  H  H30  1  0.35281741  0.09483558  0.02735792  1
  H  H31  1  0.25798183  0.90516442  0.97264208  1
  H  H32  1  0.75798183  0.90516442  0.52735792  1
  H  H33  1  0.85281741  0.09483558  0.47264208  1
  I  I34  1  0.82577006  0.65154012  0.56321218  1
  I  I35  1  0.17422994  0.34845988  0.43678782  1
  I  I36  1  0.67422994  0.34845988  0.06321218  1
  I  I37  1  0.32577006  0.65154012  0.93678782  1
  O  O38  1  0.88005247  0.76010493  0.90809521  1
  O  O39  1  0.11994753  0.23989507  0.09190479  1
  O  O40  1  0.61994753  0.23989507  0.40809521  1
  O  O41  1  0.38005247  0.76010493  0.59190479  1
  O  O42  1  0.09593817  0.69187635  0.25000000  1
  O  O43  1  0.40406183  0.30812365  0.75000000  1
  O  O44  1  0.90406183  0.30812365  0.75000000  1
  O  O45  1  0.59593817  0.69187635  0.25000000  1
  O  O46  1  0.76123087  1.00000000  0.00000000  1
  O  O47  1  0.26123087  1.00000000  0.50000000  1
  O  O48  1  0.23876913  0.00000000  0.00000000  1
  O  O49  1  0.73876913  0.00000000  0.50000000  1
  O  O50  1  0.94311983  0.88623967  0.18316105  1
  O  O51  1  0.05688017  0.11376033  0.81683895  1
  O  O52  1  0.55688017  0.11376033  0.68316105  1
  O  O53  1  0.44311983  0.88623967  0.31683895  1
