# generated using pymatgen
data_U6Al43Cr4
_symmetry_space_group_name_H-M   'P 1'
_cell_length_a   10.91051250
_cell_length_b   10.91088215
_cell_length_c   17.29772880
_cell_angle_alpha   90.00000000
_cell_angle_beta   90.00000000
_cell_angle_gamma   119.99887669
_symmetry_Int_Tables_number   1
_chemical_formula_structural   U6Al43Cr4
_chemical_formula_sum   'U12 Al86 Cr8'
_cell_volume   1783.32150848
_cell_formula_units_Z   2
loop_
 _symmetry_equiv_pos_site_id
 _symmetry_equiv_pos_as_xyz
  1  'x, y, z'
loop_
 _atom_site_type_symbol
 _atom_site_label
 _atom_site_symmetry_multiplicity
 _atom_site_fract_x
 _atom_site_fract_y
 _atom_site_fract_z
 _atom_site_occupancy
  U  U0  1  0.52274477  0.00000000  0.58616881  1
  U  U1  1  0.47730072  0.47732115  0.58609569  1
  U  U2  1  0.99997958  0.52267885  0.58609569  1
  U  U3  1  0.47725523  1.00000000  0.41383119  1
  U  U4  1  0.52269928  0.52267885  0.41390431  1
  U  U5  1  0.00002042  0.47732115  0.41390431  1
  U  U6  1  0.47725523  1.00000000  0.08616881  1
  U  U7  1  0.52269928  0.52267885  0.08609569  1
  U  U8  1  0.00002042  0.47732115  0.08609569  1
  U  U9  1  0.52274477  0.00000000  0.91383119  1
  U  U10  1  0.47730072  0.47732115  0.91390431  1
  U  U11  1  0.99997958  0.52267885  0.91390431  1
  Al  Al12  1  0.16129904  0.39276861  0.66486655  1
  Al  Al13  1  0.23142146  0.83869328  0.66488983  1
  Al  Al14  1  0.60720130  0.76835939  0.66482598  1
  Al  Al15  1  0.76853043  0.60723139  0.66486655  1
  Al  Al16  1  0.39272818  0.16130672  0.66488983  1
  Al  Al17  1  0.83884192  0.23164061  0.66482598  1
  Al  Al18  1  0.83870096  0.60723139  0.33513345  1
  Al  Al19  1  0.76857854  0.16130672  0.33511017  1
  Al  Al20  1  0.39279870  0.23164061  0.33517402  1
  Al  Al21  1  0.23146957  0.39276861  0.33513345  1
  Al  Al22  1  0.60727182  0.83869328  0.33511017  1
  Al  Al23  1  0.16115808  0.76835939  0.33517402  1
  Al  Al24  1  0.83870096  0.60723139  0.16486655  1
  Al  Al25  1  0.76857854  0.16130672  0.16488983  1
  Al  Al26  1  0.39279870  0.23164061  0.16482598  1
  Al  Al27  1  0.23146957  0.39276861  0.16486655  1
  Al  Al28  1  0.60727182  0.83869328  0.16488983  1
  Al  Al29  1  0.16115808  0.76835939  0.16482598  1
  Al  Al30  1  0.16129904  0.39276861  0.83513345  1
  Al  Al31  1  0.23142146  0.83869328  0.83511017  1
  Al  Al32  1  0.60720130  0.76835939  0.83517402  1
  Al  Al33  1  0.76853043  0.60723139  0.83513345  1
  Al  Al34  1  0.39272818  0.16130672  0.83511017  1
  Al  Al35  1  0.83884192  0.23164061  0.83517402  1
  Al  Al36  1  0.15781544  0.00000000  0.11521881  1
  Al  Al37  1  0.84202671  0.84202438  0.11528917  1
  Al  Al38  1  0.00000234  0.15797562  0.11528917  1
  Al  Al39  1  0.84218456  1.00000000  0.88478119  1
  Al  Al40  1  0.15797329  0.15797562  0.88471083  1
  Al  Al41  1  0.99999766  0.84202438  0.88471083  1
  Al  Al42  1  0.84218456  1.00000000  0.61521881  1
  Al  Al43  1  0.15797329  0.15797562  0.61528917  1
  Al  Al44  1  0.99999766  0.84202438  0.61528917  1
  Al  Al45  1  0.15781544  0.00000000  0.38478119  1
  Al  Al46  1  0.84202671  0.84202438  0.38471083  1
  Al  Al47  1  0.00000234  0.15797562  0.38471083  1
  Al  Al48  1  0.25092424  0.00000000  0.52961386  1
  Al  Al49  1  0.74902715  0.74901699  0.52958338  1
  Al  Al50  1  0.00001016  0.25098301  0.52958338  1
  Al  Al51  1  0.74907576  1.00000000  0.47038614  1
  Al  Al52  1  0.25097285  0.25098301  0.47041662  1
  Al  Al53  1  0.99998984  0.74901699  0.47041662  1
  Al  Al54  1  0.74907576  1.00000000  0.02961386  1
  Al  Al55  1  0.25097285  0.25098301  0.02958338  1
  Al  Al56  1  0.99998984  0.74901699  0.02958338  1
  Al  Al57  1  0.25092424  0.00000000  0.97038614  1
  Al  Al58  1  0.74902715  0.74901699  0.97041662  1
  Al  Al59  1  0.00001016  0.25098301  0.97041662  1
  Al  Al60  1  0.13946893  0.59387974  0.75000000  1
  Al  Al61  1  0.45413809  0.86035933  0.75000000  1
  Al  Al62  1  0.40609043  0.54557431  0.75000000  1
  Al  Al63  1  0.54558918  0.40612026  0.75000000  1
  Al  Al64  1  0.59377876  0.13964067  0.75000000  1
  Al  Al65  1  0.86051612  0.45442569  0.75000000  1
  Al  Al66  1  0.86053107  0.40612026  0.25000000  1
  Al  Al67  1  0.54586191  0.13964067  0.25000000  1
  Al  Al68  1  0.59390957  0.45442569  0.25000000  1
  Al  Al69  1  0.45441082  0.59387974  0.25000000  1
  Al  Al70  1  0.40622124  0.86035933  0.25000000  1
  Al  Al71  1  0.13948388  0.54557431  0.25000000  1
  Al  Al72  1  0.24653050  0.49306100  0.50000000  1
  Al  Al73  1  0.24648450  0.75340540  0.50001014  1
  Al  Al74  1  0.50692090  0.75340540  0.49998986  1
  Al  Al75  1  0.75346950  0.50693900  0.50000000  1
  Al  Al76  1  0.49307910  0.24659460  0.50001014  1
  Al  Al77  1  0.75351550  0.24659460  0.49998986  1
  Al  Al78  1  0.75346950  0.50693900  0.00000000  1
  Al  Al79  1  0.75351550  0.24659460  0.00001014  1
  Al  Al80  1  0.49307910  0.24659460  0.99998986  1
  Al  Al81  1  0.24653050  0.49306100  0.00000000  1
  Al  Al82  1  0.50692090  0.75340540  0.00001014  1
  Al  Al83  1  0.24648450  0.75340540  0.99998986  1
  Al  Al84  1  0.33328578  0.66661773  0.62862599  1
  Al  Al85  1  0.66666805  0.33338227  0.62862599  1
  Al  Al86  1  0.66671422  0.33338227  0.37137401  1
  Al  Al87  1  0.33333195  0.66661773  0.37137401  1
  Al  Al88  1  0.66671422  0.33338227  0.12862599  1
  Al  Al89  1  0.33333195  0.66661773  0.12862599  1
  Al  Al90  1  0.33328578  0.66661773  0.87137401  1
  Al  Al91  1  0.66666805  0.33338227  0.87137401  1
  Al  Al92  1  0.14675551  1.00000000  0.75000000  1
  Al  Al93  1  0.85335175  0.85317912  0.75000000  1
  Al  Al94  1  0.00017263  0.14682088  0.75000000  1
  Al  Al95  1  0.85324449  0.00000000  0.25000000  1
  Al  Al96  1  0.14664825  0.14682088  0.25000000  1
  Al  Al97  1  0.99982737  0.85317912  0.25000000  1
  Cr  Cr98  1  0.73394450  1.00000000  0.75000000  1
  Cr  Cr99  1  0.26586183  0.26586806  0.75000000  1
  Cr  Cr100  1  0.99999376  0.73413194  0.75000000  1
  Cr  Cr101  1  0.26605550  0.00000000  0.25000000  1
  Cr  Cr102  1  0.73413817  0.73413194  0.25000000  1
  Cr  Cr103  1  0.00000624  0.26586806  0.25000000  1
  Cr  Cr104  1  0.00000000  -0.00000000  0.50000000  1
  Cr  Cr105  1  0.00000000  -0.00000000  0.00000000  1
