# generated using pymatgen
data_KHo2F7
_symmetry_space_group_name_H-M   'P 1'
_cell_length_a   8.04732914
_cell_length_b   8.26169319
_cell_length_c   10.60851134
_cell_angle_alpha   77.97520616
_cell_angle_beta   67.71050948
_cell_angle_gamma   60.85466296
_symmetry_Int_Tables_number   1
_chemical_formula_structural   KHo2F7
_chemical_formula_sum   'K4 Ho8 F28'
_cell_volume   569.73046269
_cell_formula_units_Z   4
loop_
 _symmetry_equiv_pos_site_id
 _symmetry_equiv_pos_as_xyz
  1  'x, y, z'
loop_
 _atom_site_type_symbol
 _atom_site_label
 _atom_site_symmetry_multiplicity
 _atom_site_fract_x
 _atom_site_fract_y
 _atom_site_fract_z
 _atom_site_occupancy
  K  K0  1  0.77751930  0.79012227  0.65483912  1
  K  K1  1  0.74630226  0.48874831  0.01864716  1
  K  K2  1  0.24485540  0.16196987  0.34831933  1
  K  K3  1  0.26994328  0.48102834  0.97908511  1
  Ho  Ho4  1  0.74769058  0.98415025  0.00187113  1
  Ho  Ho5  1  0.26628804  0.98415025  0.00187113  1
  Ho  Ho6  1  0.24950495  0.82115861  0.67983150  1
  Ho  Ho7  1  0.77004312  0.30374950  0.68121126  1
  Ho  Ho8  1  0.24499613  0.30374950  0.68121126  1
  Ho  Ho9  1  0.77289342  0.65979831  0.31932630  1
  Ho  Ho10  1  0.24798197  0.65979831  0.31932630  1
  Ho  Ho11  1  0.76708509  0.14303261  0.32279721  1
  F  F12  1  0.14585623  0.26980282  0.91569702  1
  F  F13  1  0.66864393  0.26980282  0.91569702  1
  F  F14  1  0.87664815  0.69804079  0.08559565  1
  F  F15  1  0.33971541  0.69804079  0.08559565  1
  F  F16  1  0.12326566  0.98235028  0.23829190  1
  F  F17  1  0.65609216  0.98235028  0.23829190  1
  F  F18  1  0.11215227  0.52354934  0.25214612  1
  F  F19  1  0.61130357  0.84658089  0.93081198  1
  F  F20  1  0.12237150  0.13479838  0.62045862  1
  F  F21  1  0.18098716  0.80426276  0.50152380  1
  F  F22  1  0.51322628  0.80426276  0.50152380  1
  F  F23  1  0.88639783  0.98394167  0.76509850  1
  F  F24  1  0.36456200  0.98394167  0.76509850  1
  F  F25  1  0.89594140  0.82565873  0.38245847  1
  F  F26  1  0.40263015  0.11752616  0.07721354  1
  F  F27  1  0.83921170  0.15505825  0.50059068  1
  F  F28  1  0.50513936  0.15505825  0.50059068  1
  F  F29  1  0.16282880  0.59056677  0.73934752  1
  F  F30  1  0.50725691  0.59056677  0.73934752  1
  F  F31  1  0.84743299  0.37834255  0.26258500  1
  F  F32  1  0.51163946  0.37834255  0.26258500  1
  F  F33  1  0.51091185  0.71459497  0.26358133  1
  F  F34  1  0.50198284  0.26556679  0.73046753  1
  F  F35  1  0.83031859  0.47999363  0.50001604  1
  F  F36  1  0.18967175  0.47999363  0.50001604  1
  F  F37  1  0.11183929  0.86366219  0.91265923  1
  F  F38  1  0.90651467  0.43720200  0.74976867  1
  F  F39  1  0.90105455  0.11048539  0.08740551  1
