# generated using pymatgen
data_BaLa2WO7
_symmetry_space_group_name_H-M   'P 1'
_cell_length_a   5.89578118
_cell_length_b   9.01669277
_cell_length_c   12.99120919
_cell_angle_alpha   105.24877777
_cell_angle_beta   90.00000000
_cell_angle_gamma   90.00000000
_symmetry_Int_Tables_number   1
_chemical_formula_structural   BaLa2WO7
_chemical_formula_sum   'Ba4 La8 W4 O28'
_cell_volume   666.30384388
_cell_formula_units_Z   4
loop_
 _symmetry_equiv_pos_site_id
 _symmetry_equiv_pos_as_xyz
  1  'x, y, z'
loop_
 _atom_site_type_symbol
 _atom_site_label
 _atom_site_symmetry_multiplicity
 _atom_site_fract_x
 _atom_site_fract_y
 _atom_site_fract_z
 _atom_site_occupancy
  Ba  Ba0  1  0.00819819  0.48288507  0.63416118  1
  Ba  Ba1  1  0.50819819  0.51711493  0.86583882  1
  Ba  Ba2  1  0.99180181  0.51711493  0.36583882  1
  Ba  Ba3  1  0.49180181  0.48288507  0.13416118  1
  La  La4  1  0.51107053  0.19504581  0.58450850  1
  La  La5  1  0.01107053  0.80495419  0.91549150  1
  La  La6  1  0.48892947  0.80495419  0.41549150  1
  La  La7  1  0.98892947  0.19504581  0.08450850  1
  La  La8  1  0.01668678  0.06670284  0.36988331  1
  La  La9  1  0.51668678  0.93329716  0.13011669  1
  La  La10  1  0.98331322  0.93329716  0.63011669  1
  La  La11  1  0.48331322  0.06670284  0.86988331  1
  W  W12  1  0.02395593  0.28064967  0.83840455  1
  W  W13  1  0.52395593  0.71935033  0.66159545  1
  W  W14  1  0.97604407  0.71935033  0.16159545  1
  W  W15  1  0.47604407  0.28064967  0.33840455  1
  O  O16  1  0.02262163  0.49684464  0.84249221  1
  O  O17  1  0.52262163  0.50315536  0.65750779  1
  O  O18  1  0.97737837  0.50315536  0.15750779  1
  O  O19  1  0.47737837  0.49684464  0.34249221  1
  O  O20  1  0.04272173  0.05592937  0.82001960  1
  O  O21  1  0.54272173  0.94407063  0.67998040  1
  O  O22  1  0.95727827  0.94407063  0.17998040  1
  O  O23  1  0.45727827  0.05592937  0.32001960  1
  O  O24  1  0.76486653  0.29236848  0.93353053  1
  O  O25  1  0.26486653  0.70763152  0.56646947  1
  O  O26  1  0.23513347  0.70763152  0.06646947  1
  O  O27  1  0.73513347  0.29236848  0.43353053  1
  O  O28  1  0.30778846  0.25402245  0.75076824  1
  O  O29  1  0.80778846  0.74597755  0.74923176  1
  O  O30  1  0.69221154  0.74597755  0.24923176  1
  O  O31  1  0.19221154  0.25402245  0.25076824  1
  O  O32  1  0.23721392  0.30854884  0.95954329  1
  O  O33  1  0.73721392  0.69145116  0.54045671  1
  O  O34  1  0.76278608  0.69145116  0.04045671  1
  O  O35  1  0.26278608  0.30854884  0.45954329  1
  O  O36  1  0.84510204  0.23673081  0.70694455  1
  O  O37  1  0.34510204  0.76326919  0.79305545  1
  O  O38  1  0.15489796  0.76326919  0.29305545  1
  O  O39  1  0.65489796  0.23673081  0.20694455  1
  O  O40  1  0.23761197  0.00685674  0.50828768  1
  O  O41  1  0.73761197  0.99314326  0.99171232  1
  O  O42  1  0.76238803  0.99314326  0.49171232  1
  O  O43  1  0.26238803  0.00685674  0.00828768  1
