# generated using pymatgen
data_BPb7Br3O7
_symmetry_space_group_name_H-M   'P 1'
_cell_length_a   9.07665983
_cell_length_b   9.48051188
_cell_length_c   21.74053041
_cell_angle_alpha   96.97542548
_cell_angle_beta   90.00000000
_cell_angle_gamma   118.60058851
_symmetry_Int_Tables_number   1
_chemical_formula_structural   BPb7Br3O7
_chemical_formula_sum   'B4 Pb28 Br12 O28'
_cell_volume   1626.73464320
_cell_formula_units_Z   4
loop_
 _symmetry_equiv_pos_site_id
 _symmetry_equiv_pos_as_xyz
  1  'x, y, z'
loop_
 _atom_site_type_symbol
 _atom_site_label
 _atom_site_symmetry_multiplicity
 _atom_site_fract_x
 _atom_site_fract_y
 _atom_site_fract_z
 _atom_site_occupancy
  B  B0  1  0.72055618  0.43584301  0.21527071  1
  B  B1  1  0.28471316  0.56415699  0.28472929  1
  B  B2  1  0.27944382  0.56415699  0.78472929  1
  B  B3  1  0.71528684  0.43584301  0.71527071  1
  Pb  Pb4  1  0.75303319  0.37777099  0.07747631  1
  Pb  Pb5  1  0.37526220  0.62222901  0.42252369  1
  Pb  Pb6  1  0.24696681  0.62222901  0.92252369  1
  Pb  Pb7  1  0.62473780  0.37777099  0.57747631  1
  Pb  Pb8  1  0.62107368  0.93769262  0.05282324  1
  Pb  Pb9  1  0.68338106  0.06230738  0.44717676  1
  Pb  Pb10  1  0.37892632  0.06230738  0.94717676  1
  Pb  Pb11  1  0.31661894  0.93769262  0.55282324  1
  Pb  Pb12  1  0.07217166  0.22222477  0.01550530  1
  Pb  Pb13  1  0.84994690  0.77777523  0.48449470  1
  Pb  Pb14  1  0.92782834  0.77777523  0.98449470  1
  Pb  Pb15  1  0.15005310  0.22222477  0.51550530  1
  Pb  Pb16  1  0.43367124  0.53663757  0.14576957  1
  Pb  Pb17  1  0.89703367  0.46336243  0.35423043  1
  Pb  Pb18  1  0.56632876  0.46336243  0.85423043  1
  Pb  Pb19  1  0.10296633  0.53663757  0.64576957  1
  Pb  Pb20  1  0.70149550  0.92349322  0.88644647  1
  Pb  Pb21  1  0.77800228  0.07650678  0.61355353  1
  Pb  Pb22  1  0.29850450  0.07650678  0.11355353  1
  Pb  Pb23  1  0.22199772  0.92349322  0.38644647  1
  Pb  Pb24  1  0.98046875  0.22964238  0.18261997  1
  Pb  Pb25  1  0.75082637  0.77035762  0.31738003  1
  Pb  Pb26  1  0.01953125  0.77035762  0.81738003  1
  Pb  Pb27  1  0.24917363  0.22964238  0.68261997  1
  Pb  Pb28  1  0.12644483  0.71919950  0.21611160  1
  Pb  Pb29  1  0.40724532  0.28080050  0.28388840  1
  Pb  Pb30  1  0.87355517  0.28080050  0.78388840  1
  Pb  Pb31  1  0.59275468  0.71919950  0.71611160  1
  Br  Br32  1  0.19095078  0.66339057  0.08370172  1
  Br  Br33  1  0.52756021  0.33660943  0.41629828  1
  Br  Br34  1  0.80904922  0.33660943  0.91629828  1
  Br  Br35  1  0.47243979  0.66339057  0.58370172  1
  Br  Br36  1  0.54086309  0.00000000  0.25000000  1
  Br  Br37  1  0.45913691  1.00000000  0.75000000  1
  Br  Br38  1  0.50000000  0.50000000  0.00000000  1
  Br  Br39  1  0.00000000  0.50000000  0.50000000  1
  Br  Br40  1  0.88622164  0.84838930  0.15121969  1
  Br  Br41  1  0.03783234  0.15161070  0.34878031  1
  Br  Br42  1  0.11377836  0.15161070  0.84878031  1
  Br  Br43  1  0.96216766  0.84838930  0.65121969  1
  O  O44  1  0.52055742  0.13107396  0.04961409  1
  O  O45  1  0.38948346  0.86892604  0.45038591  1
  O  O46  1  0.47944258  0.86892604  0.95038591  1
  O  O47  1  0.61051654  0.13107396  0.54961409  1
  O  O48  1  0.83152742  0.96955810  0.98160257  1
  O  O49  1  0.86196932  0.03044190  0.51839743  1
  O  O50  1  0.16847258  0.03044190  0.01839743  1
  O  O51  1  0.13803068  0.96955810  0.48160257  1
  O  O52  1  0.58733797  0.38294370  0.17156019  1
  O  O53  1  0.20439427  0.61705630  0.32843981  1
  O  O54  1  0.41266203  0.61705630  0.82843981  1
  O  O55  1  0.79560573  0.38294370  0.67156019  1
  O  O56  1  0.21952795  0.28371069  0.12502768  1
  O  O57  1  0.93581726  0.71628931  0.37497232  1
  O  O58  1  0.78047205  0.71628931  0.87497232  1
  O  O59  1  0.06418274  0.28371069  0.62502768  1
  O  O60  1  0.86295822  0.20520053  0.08920995  1
  O  O61  1  0.65775769  0.79479947  0.41079005  1
  O  O62  1  0.13704178  0.79479947  0.91079005  1
  O  O63  1  0.34224231  0.20520053  0.58920995  1
  O  O64  1  0.87826672  0.46687802  0.19732254  1
  O  O65  1  0.41138871  0.53312198  0.30267746  1
  O  O66  1  0.12173328  0.53312198  0.80267746  1
  O  O67  1  0.58861129  0.46687802  0.69732254  1
  O  O68  1  0.69267333  0.45530153  0.27806878  1
  O  O69  1  0.23737181  0.54469847  0.22193122  1
  O  O70  1  0.30732667  0.54469847  0.72193122  1
  O  O71  1  0.76262819  0.45530153  0.77806878  1
