# generated using pymatgen
data_LiY3Si2(O4F)2
_symmetry_space_group_name_H-M   'P 1'
_cell_length_a   4.94485833
_cell_length_b   9.26609976
_cell_length_c   9.27088032
_cell_angle_alpha   78.70588934
_cell_angle_beta   74.53274022
_cell_angle_gamma   74.52456053
_symmetry_Int_Tables_number   1
_chemical_formula_structural   LiY3Si2(O4F)2
_chemical_formula_sum   'Li2 Y6 Si4 O16 F4'
_cell_volume   390.98895031
_cell_formula_units_Z   2
loop_
 _symmetry_equiv_pos_site_id
 _symmetry_equiv_pos_as_xyz
  1  'x, y, z'
loop_
 _atom_site_type_symbol
 _atom_site_label
 _atom_site_symmetry_multiplicity
 _atom_site_fract_x
 _atom_site_fract_y
 _atom_site_fract_z
 _atom_site_occupancy
  Li  Li0  1  -0.00000000  -0.00000000  0.50000000  1
  Li  Li1  1  0.50000000  0.50000000  0.00000000  1
  Y  Y2  1  0.78705081  0.25000000  0.75000000  1
  Y  Y3  1  0.21294919  0.75000000  0.25000000  1
  Y  Y4  1  0.67279573  0.65608809  0.59153447  1
  Y  Y5  1  0.92041829  0.84391191  0.90846553  1
  Y  Y6  1  0.32720427  0.34391191  0.40846553  1
  Y  Y7  1  0.07958171  0.15608809  0.09153447  1
  Si  Si8  1  0.08725392  0.48608316  0.79346594  1
  Si  Si9  1  0.36680301  0.01391684  0.70653406  1
  Si  Si10  1  0.91274608  0.51391684  0.20653406  1
  Si  Si11  1  0.63319699  0.98608316  0.29346594  1
  O  O12  1  0.42613671  0.47763639  0.78494346  1
  O  O13  1  0.68871657  0.02236361  0.71505654  1
  O  O14  1  0.57386329  0.52236361  0.21505654  1
  O  O15  1  0.31128343  0.97763639  0.28494346  1
  O  O16  1  0.04944379  0.43204396  0.63925658  1
  O  O17  1  0.12074432  0.06795604  0.86074342  1
  O  O18  1  0.95055621  0.56795604  0.36074342  1
  O  O19  1  0.87925568  0.93204396  0.13925658  1
  O  O20  1  0.88081032  0.65793297  0.79019107  1
  O  O21  1  0.32893436  0.84206703  0.70980893  1
  O  O22  1  0.11918968  0.34206703  0.20980893  1
  O  O23  1  0.67106564  0.15793297  0.29019107  1
  O  O24  1  0.93176439  0.36883017  0.92860199  1
  O  O25  1  0.22919654  0.13116983  0.57139801  1
  O  O26  1  0.06823561  0.63116983  0.07139801  1
  O  O27  1  0.77080346  0.86883017  0.42860199  1
  F  F28  1  0.53274419  0.17298261  0.97858471  1
  F  F29  1  0.68431152  0.32701739  0.52141529  1
  F  F30  1  0.46725581  0.82701739  0.02141529  1
  F  F31  1  0.31568848  0.67298261  0.47858471  1
