# generated using pymatgen
data_Na4UC3O11
_symmetry_space_group_name_H-M   'P 1'
_cell_length_a   6.61029069
_cell_length_b   9.38850054
_cell_length_c   9.40213742
_cell_angle_alpha   60.04796452
_cell_angle_beta   90.02057635
_cell_angle_gamma   90.04121741
_symmetry_Int_Tables_number   1
_chemical_formula_structural   Na4UC3O11
_chemical_formula_sum   'Na8 U2 C6 O22'
_cell_volume   505.57269280
_cell_formula_units_Z   2
loop_
 _symmetry_equiv_pos_site_id
 _symmetry_equiv_pos_as_xyz
  1  'x, y, z'
loop_
 _atom_site_type_symbol
 _atom_site_label
 _atom_site_symmetry_multiplicity
 _atom_site_fract_x
 _atom_site_fract_y
 _atom_site_fract_z
 _atom_site_occupancy
  Na  Na0  1  0.57404676  0.56563793  0.99558490  1
  Na  Na1  1  0.07404676  0.56122284  0.00441510  1
  Na  Na2  1  0.35761043  0.00044269  0.69459924  1
  Na  Na3  1  0.85761043  0.69504193  0.30540076  1
  Na  Na4  1  0.30121702  0.43369353  0.43690662  1
  Na  Na5  1  0.80121702  0.87060015  0.56309338  1
  Na  Na6  1  0.29497358  0.25693351  0.87185271  1
  Na  Na7  1  0.79497358  0.12878622  0.12814729  1
  U  U8  1  0.82260524  0.23041806  0.66621623  1
  U  U9  1  0.32260524  0.89663429  0.33378377  1
  C  C10  1  0.34674424  0.23340940  0.25615102  1
  C  C11  1  0.84674424  0.48956042  0.74384898  1
  C  C12  1  0.33692815  0.63813447  0.67038922  1
  C  C13  1  0.83692815  0.30852369  0.32961078  1
  C  C14  1  0.29181716  0.82073916  0.07385551  1
  C  C15  1  0.79181716  0.89459466  0.92614449  1
  O  O16  1  0.36487275  0.18673342  0.14542212  1
  O  O17  1  0.86487275  0.33215553  0.85457788  1
  O  O18  1  0.36100789  0.79512031  0.62311836  1
  O  O19  1  0.86100789  0.41823867  0.37688164  1
  O  O20  1  0.34582916  0.38286298  0.21866951  1
  O  O21  1  0.84582916  0.60153249  0.78133049  1
  O  O22  1  0.34025995  0.52652524  0.81960582  1
  O  O23  1  0.84025995  0.34613106  0.18039418  1
  O  O24  1  0.26583750  0.71019746  0.23024041  1
  O  O25  1  0.76583750  0.94043786  0.76975959  1
  O  O26  1  0.32955483  0.11078492  0.40662460  1
  O  O27  1  0.82955483  0.51740952  0.59337540  1
  O  O28  1  0.32105487  0.97022076  0.04706512  1
  O  O29  1  0.82105487  0.01728588  0.95293488  1
  O  O30  1  0.28944739  0.78441462  0.96127484  1
  O  O31  1  0.78944739  0.74568946  0.03872516  1
  O  O32  1  0.30884139  0.60964448  0.54888755  1
  O  O33  1  0.80884139  0.15853203  0.45111245  1
  O  O34  1  0.10358684  0.21206979  0.66934744  1
  O  O35  1  0.60358684  0.88141723  0.33065256  1
  O  O36  1  0.54178486  0.24731115  0.66316105  1
  O  O37  1  0.04178486  0.91047220  0.33683895  1
