# generated using pymatgen
data_Sr2V3BiO11
_symmetry_space_group_name_H-M   'P 1'
_cell_length_a   7.09465119
_cell_length_b   7.12976823
_cell_length_c   10.37861571
_cell_angle_alpha   99.23047025
_cell_angle_beta   95.93400872
_cell_angle_gamma   92.89805715
_symmetry_Int_Tables_number   1
_chemical_formula_structural   Sr2V3BiO11
_chemical_formula_sum   'Sr4 V6 Bi2 O22'
_cell_volume   514.20246008
_cell_formula_units_Z   2
loop_
 _symmetry_equiv_pos_site_id
 _symmetry_equiv_pos_as_xyz
  1  'x, y, z'
loop_
 _atom_site_type_symbol
 _atom_site_label
 _atom_site_symmetry_multiplicity
 _atom_site_fract_x
 _atom_site_fract_y
 _atom_site_fract_z
 _atom_site_occupancy
  Sr  Sr0  1  0.64991881  0.25143052  0.97937922  1
  Sr  Sr1  1  0.35008119  0.74856948  0.02062078  1
  Sr  Sr2  1  0.34043055  0.38837766  0.63681680  1
  Sr  Sr3  1  0.65956945  0.61162234  0.36318320  1
  V  V4  1  0.64052866  0.11124458  0.33548066  1
  V  V5  1  0.35947134  0.88875542  0.66451934  1
  V  V6  1  0.15954852  0.23566749  0.96189995  1
  V  V7  1  0.84045148  0.76433251  0.03810005  1
  V  V8  1  0.13283636  0.42743881  0.26475944  1
  V  V9  1  0.86716364  0.57256119  0.73524056  1
  Bi  Bi10  1  0.84926990  0.07144864  0.64041031  1
  Bi  Bi11  1  0.15073010  0.92855136  0.35958969  1
  O  O12  1  0.99125964  0.39438523  0.65473197  1
  O  O13  1  0.00874036  0.60561477  0.34526803  1
  O  O14  1  0.02847360  0.34015777  0.09566166  1
  O  O15  1  0.97152640  0.65984223  0.90433834  1
  O  O16  1  0.41929881  0.74671553  0.52567032  1
  O  O17  1  0.58070119  0.25328447  0.47432968  1
  O  O18  1  0.69996810  0.26215775  0.23222865  1
  O  O19  1  0.30003190  0.73784225  0.76777135  1
  O  O20  1  0.97056210  0.12116758  0.85079276  1
  O  O21  1  0.02943790  0.87883242  0.14920724  1
  O  O22  1  0.68121209  0.91341737  0.98821052  1
  O  O23  1  0.31878791  0.08658263  0.01178948  1
  O  O24  1  0.54245990  0.05960843  0.73485643  1
  O  O25  1  0.45754010  0.94039157  0.26514357  1
  O  O26  1  0.16738568  0.02589826  0.60461063  1
  O  O27  1  0.83261432  0.97410174  0.39538937  1
  O  O28  1  0.29989315  0.39739469  0.90242964  1
  O  O29  1  0.70010685  0.60260531  0.09757036  1
  O  O30  1  0.66141400  0.46076235  0.76154287  1
  O  O31  1  0.33858600  0.53923765  0.23845713  1
  O  O32  1  0.82585416  0.74374039  0.63490770  1
  O  O33  1  0.17414584  0.25625961  0.36509230  1
