# generated using pymatgen
data_Er(FeGe)6
_symmetry_space_group_name_H-M   'P 1'
_cell_length_a   5.10481652
_cell_length_b   8.11200405
_cell_length_c   14.08367495
_cell_angle_alpha   106.73784738
_cell_angle_beta   100.44150884
_cell_angle_gamma   90.00000000
_symmetry_Int_Tables_number   1
_chemical_formula_structural   Er(FeGe)6
_chemical_formula_sum   'Er3 Fe18 Ge18'
_cell_volume   548.40730902
_cell_formula_units_Z   3
loop_
 _symmetry_equiv_pos_site_id
 _symmetry_equiv_pos_as_xyz
  1  'x, y, z'
loop_
 _atom_site_type_symbol
 _atom_site_label
 _atom_site_symmetry_multiplicity
 _atom_site_fract_x
 _atom_site_fract_y
 _atom_site_fract_z
 _atom_site_occupancy
  Er  Er0  1  0.66737150  0.16737150  0.33474301  1
  Er  Er1  1  0.33262850  0.83262850  0.66525699  1
  Er  Er2  1  0.00000000  0.00000000  0.00000000  1
  Fe  Fe3  1  0.50000000  0.24856874  0.00000000  1
  Fe  Fe4  1  0.50000000  0.75143126  0.00000000  1
  Fe  Fe5  1  0.00000000  0.50000000  0.50000000  1
  Fe  Fe6  1  0.00000000  0.00000000  0.50000000  1
  Fe  Fe7  1  0.50000000  0.00000000  0.50000000  1
  Fe  Fe8  1  0.50000000  0.50000000  0.50000000  1
  Fe  Fe9  1  0.83330428  0.58154550  0.66660856  1
  Fe  Fe10  1  0.16669572  0.91493694  0.33339144  1
  Fe  Fe11  1  0.83330428  0.08506306  0.66660856  1
  Fe  Fe12  1  0.16669572  0.41845450  0.33339144  1
  Fe  Fe13  1  0.83339882  0.33185087  0.16643217  1
  Fe  Fe14  1  0.16660118  0.16541871  0.83356783  1
  Fe  Fe15  1  0.33303335  0.83458129  0.16643217  1
  Fe  Fe16  1  0.66696665  0.66814913  0.83356783  1
  Fe  Fe17  1  0.16660118  0.66814913  0.83356783  1
  Fe  Fe18  1  0.83339882  0.83458129  0.16643217  1
  Fe  Fe19  1  0.66696665  0.16541871  0.83356783  1
  Fe  Fe20  1  0.33303335  0.33185087  0.16643217  1
  Ge  Ge21  1  0.55563958  0.05563958  0.11127915  1
  Ge  Ge22  1  0.44436042  0.94436042  0.88872085  1
  Ge  Ge23  1  0.55564031  0.55564031  0.11128062  1
  Ge  Ge24  1  0.44435969  0.44435969  0.88871938  1
  Ge  Ge25  1  0.11204996  0.11204996  0.22409992  1
  Ge  Ge26  1  0.88795004  0.88795004  0.77590008  1
  Ge  Ge27  1  0.11051599  0.61051599  0.22103199  1
  Ge  Ge28  1  0.88948401  0.38948401  0.77896801  1
  Ge  Ge29  1  0.22257117  0.22257117  0.44514234  1
  Ge  Ge30  1  0.77742883  0.77742883  0.55485766  1
  Ge  Ge31  1  0.22111563  0.72111563  0.44223126  1
  Ge  Ge32  1  0.77888437  0.27888437  0.55776874  1
  Ge  Ge33  1  0.00000000  0.34552604  0.00000000  1
  Ge  Ge34  1  0.00000000  0.65447396  0.00000000  1
  Ge  Ge35  1  0.66660401  0.51302185  0.33320801  1
  Ge  Ge36  1  0.33339599  0.17981384  0.66679199  1
  Ge  Ge37  1  0.66660401  0.82018616  0.33320801  1
  Ge  Ge38  1  0.33339599  0.48697815  0.66679199  1
