# generated using pymatgen
data_S4N2O3F
_symmetry_space_group_name_H-M   'P 1'
_cell_length_a   6.34123956
_cell_length_b   10.07549452
_cell_length_c   11.71737377
_cell_angle_alpha   90.00000000
_cell_angle_beta   90.00000000
_cell_angle_gamma   102.32086048
_symmetry_Int_Tables_number   1
_chemical_formula_structural   S4N2O3F
_chemical_formula_sum   'S16 N8 O12 F4'
_cell_volume   731.39355915
_cell_formula_units_Z   4
loop_
 _symmetry_equiv_pos_site_id
 _symmetry_equiv_pos_as_xyz
  1  'x, y, z'
loop_
 _atom_site_type_symbol
 _atom_site_label
 _atom_site_symmetry_multiplicity
 _atom_site_fract_x
 _atom_site_fract_y
 _atom_site_fract_z
 _atom_site_occupancy
  S  S0  1  0.33489624  0.50084982  0.87079852  1
  S  S1  1  0.83489624  0.00084982  0.62920148  1
  S  S2  1  0.66510376  0.49915018  0.12920148  1
  S  S3  1  0.18044109  0.98707316  0.76914200  1
  S  S4  1  0.86661762  0.85066172  0.41618161  1
  S  S5  1  0.67864207  0.27385595  0.42704398  1
  S  S6  1  0.31955891  0.51292684  0.26914200  1
  S  S7  1  0.16510376  0.99915018  0.37079852  1
  S  S8  1  0.13338238  0.14933828  0.58381839  1
  S  S9  1  0.82135793  0.22614405  0.92704398  1
  S  S10  1  0.32135793  0.72614405  0.57295602  1
  S  S11  1  0.81955891  0.01292684  0.23085800  1
  S  S12  1  0.36661762  0.35066172  0.08381839  1
  S  S13  1  0.68044109  0.48707316  0.73085800  1
  S  S14  1  0.63338238  0.64933828  0.91618161  1
  S  S15  1  0.17864207  0.77385595  0.07295602  1
  N  N16  1  0.72278424  0.89457350  0.31657505  1
  N  N17  1  0.27721576  0.10542650  0.68342495  1
  N  N18  1  0.77721576  0.60542650  0.81657505  1
  N  N19  1  0.93474909  0.93610624  0.73575874  1
  N  N20  1  0.43474909  0.43610624  0.76424126  1
  N  N21  1  0.22278424  0.39457350  0.18342495  1
  N  N22  1  0.06525091  0.06389376  0.26424126  1
  N  N23  1  0.56525091  0.56389376  0.23575874  1
  O  O24  1  0.06413209  0.75071433  0.18079693  1
  O  O25  1  0.43586791  0.74928567  0.68079693  1
  O  O26  1  0.93586791  0.24928567  0.81920307  1
  O  O27  1  0.56650367  0.32381099  0.51990624  1
  O  O28  1  0.06650367  0.82381099  0.98009376  1
  O  O29  1  0.79216949  0.16615305  0.45749603  1
  O  O30  1  0.29216949  0.66615305  0.04250397  1
  O  O31  1  0.70783051  0.33384695  0.95749603  1
  O  O32  1  0.56413209  0.25071433  0.31920307  1
  O  O33  1  0.43349633  0.67618901  0.48009376  1
  O  O34  1  0.93349633  0.17618901  0.01990624  1
  O  O35  1  0.20783051  0.83384695  0.54250397  1
  F  F36  1  0.37935138  0.90140510  0.10038775  1
  F  F37  1  0.87935138  0.40140510  0.39961225  1
  F  F38  1  0.12064862  0.59859490  0.60038775  1
  F  F39  1  0.62064862  0.09859490  0.89961225  1
