# generated using pymatgen
data_U2B6Os
_symmetry_space_group_name_H-M   'P 1'
_cell_length_a   3.59245084
_cell_length_b   9.31605513
_cell_length_c   11.39649755
_cell_angle_alpha   90.00000000
_cell_angle_beta   90.00000000
_cell_angle_gamma   90.00000000
_symmetry_Int_Tables_number   1
_chemical_formula_structural   U2B6Os
_chemical_formula_sum   'U8 B24 Os4'
_cell_volume   381.41194074
_cell_formula_units_Z   4
loop_
 _symmetry_equiv_pos_site_id
 _symmetry_equiv_pos_as_xyz
  1  'x, y, z'
loop_
 _atom_site_type_symbol
 _atom_site_label
 _atom_site_symmetry_multiplicity
 _atom_site_fract_x
 _atom_site_fract_y
 _atom_site_fract_z
 _atom_site_occupancy
  U  U0  1  0.00000000  0.33737863  0.40702318  1
  U  U1  1  0.00000000  0.66262137  0.59297682  1
  U  U2  1  -0.00000000  0.83737863  0.09297682  1
  U  U3  1  -0.00000000  0.16262137  0.90702318  1
  U  U4  1  -0.00000000  0.95694744  0.39556859  1
  U  U5  1  0.00000000  0.04305256  0.60443141  1
  U  U6  1  -0.00000000  0.45694744  0.10443141  1
  U  U7  1  0.00000000  0.54305256  0.89556859  1
  B  B8  1  0.50000000  0.54930825  0.43356007  1
  B  B9  1  0.50000000  0.45069175  0.56643993  1
  B  B10  1  0.50000000  0.04930825  0.06643993  1
  B  B11  1  0.50000000  0.95069175  0.93356007  1
  B  B12  1  0.50000000  0.74224631  0.42378999  1
  B  B13  1  0.50000000  0.25775369  0.57621001  1
  B  B14  1  0.50000000  0.24224631  0.07621001  1
  B  B15  1  0.50000000  0.75775369  0.92378999  1
  B  B16  1  0.50000000  0.80521093  0.27278793  1
  B  B17  1  0.50000000  0.19478907  0.72721207  1
  B  B18  1  0.50000000  0.30521093  0.22721207  1
  B  B19  1  0.50000000  0.69478907  0.77278793  1
  B  B20  1  0.50000000  0.64570839  0.18872958  1
  B  B21  1  0.50000000  0.35429161  0.81127042  1
  B  B22  1  0.50000000  0.14570839  0.31127042  1
  B  B23  1  0.50000000  0.85429161  0.68872958  1
  B  B24  1  0.50000000  0.98499949  0.21893374  1
  B  B25  1  0.50000000  0.01500051  0.78106626  1
  B  B26  1  0.50000000  0.48499949  0.28106626  1
  B  B27  1  0.50000000  0.51500051  0.71893374  1
  B  B28  1  0.50000000  0.64455863  0.04019981  1
  B  B29  1  0.50000000  0.35544137  0.95980019  1
  B  B30  1  0.50000000  0.14455863  0.45980019  1
  B  B31  1  0.50000000  0.85544137  0.54019981  1
  Os  Os32  1  -0.00000000  0.64453644  0.31959870  1
  Os  Os33  1  -0.00000000  0.35546356  0.68040130  1
  Os  Os34  1  0.00000000  0.14453644  0.18040130  1
  Os  Os35  1  0.00000000  0.85546356  0.81959870  1
