# generated using pymatgen
data_NaFeH22C10(NO6)2
_symmetry_space_group_name_H-M   'P 1'
_cell_length_a   8.40435213
_cell_length_b   9.41451574
_cell_length_c   12.74637730
_cell_angle_alpha   92.36224655
_cell_angle_beta   89.85386897
_cell_angle_gamma   90.37675587
_symmetry_Int_Tables_number   1
_chemical_formula_structural   NaFeH22C10(NO6)2
_chemical_formula_sum   'Na2 Fe2 H44 C20 N4 O24'
_cell_volume   1007.64895501
_cell_formula_units_Z   2
loop_
 _symmetry_equiv_pos_site_id
 _symmetry_equiv_pos_as_xyz
  1  'x, y, z'
loop_
 _atom_site_type_symbol
 _atom_site_label
 _atom_site_symmetry_multiplicity
 _atom_site_fract_x
 _atom_site_fract_y
 _atom_site_fract_z
 _atom_site_occupancy
  Na  Na0  1  0.76888168  0.74551211  0.75280843  1
  Na  Na1  1  0.23111832  0.25448789  0.24719157  1
  Fe  Fe2  1  0.26588401  0.25580503  0.74705515  1
  Fe  Fe3  1  0.73411599  0.74419497  0.25294485  1
  H  H4  1  0.91652739  0.18720731  0.98595265  1
  H  H5  1  0.08347261  0.81279269  0.01404735  1
  H  H6  1  0.75515134  0.12735268  0.91262094  1
  H  H7  1  0.24484866  0.87264732  0.08737906  1
  H  H8  1  0.79260481  0.18717374  0.38978666  1
  H  H9  1  0.20739519  0.81282626  0.61021334  1
  H  H10  1  0.59870381  0.21528155  0.43418814  1
  H  H11  1  0.40129619  0.78471845  0.56581186  1
  H  H12  1  0.80515096  0.37832866  0.88958277  1
  H  H13  1  0.19484904  0.62167134  0.11041723  1
  H  H14  1  0.62123800  0.35066831  0.95693581  1
  H  H15  1  0.37876200  0.64933169  0.04306419  1
  H  H16  1  0.79294663  0.40795079  0.02961072  1
  H  H17  1  0.20705337  0.59204921  0.97038928  1
  H  H18  1  0.24450441  0.97585048  0.91874925  1
  H  H19  1  0.75549559  0.02414952  0.08125075  1
  H  H20  1  0.40936852  0.85733901  0.93114044  1
  H  H21  1  0.59063148  0.14266099  0.06885956  1
  H  H22  1  0.23874944  0.80128741  0.85740013  1
  H  H23  1  0.76125056  0.19871259  0.14259987  1
  H  H24  1  0.32824940  0.56447059  0.48268163  1
  H  H25  1  0.67175060  0.43552941  0.51731837  1
  H  H26  1  0.28642275  0.56827546  0.62091682  1
  H  H27  1  0.71357725  0.43172454  0.37908318  1
  H  H28  1  0.12867182  0.58697662  0.52843100  1
  H  H29  1  0.87132818  0.41302338  0.47156900  1
  H  H30  1  0.69096964  0.21593306  0.61285523  1
  H  H31  1  0.30903036  0.78406694  0.38714477  1
  H  H32  1  0.73137677  0.05122460  0.54335549  1
  H  H33  1  0.26862323  0.94877540  0.45664451  1
  H  H34  1  0.88781115  0.18044967  0.56569065  1
  H  H35  1  0.11218885  0.81955033  0.43430935  1
  H  H36  1  0.31483621  0.30462235  0.98553013  1
  H  H37  1  0.68516379  0.69537765  0.01446987  1
  H  H38  1  0.96421563  0.05997491  0.75464572  1
  H  H39  1  0.03578437  0.94002509  0.24535428  1
  H  H40  1  0.05548363  0.49022048  0.80701049  1
  H  H41  1  0.94451637  0.50977952  0.19298951  1
  H  H42  1  0.56504284  0.43340322  0.73024724  1
  H  H43  1  0.43495716  0.56659678  0.26975276  1
  H  H44  1  0.48063895  0.00029953  0.71039142  1
  H  H45  1  0.51936105  0.99970047  0.28960858  1
  H  H46  1  0.18614994  0.23464055  0.51948318  1
  H  H47  1  0.81385006  0.76535945  0.48051682  1
  C  C48  1  0.19303930  0.25937781  0.97833198  1
  C  C49  1  0.80696070  0.74062219  0.02166802  1
  C  C50  1  0.05662339  0.99559650  0.71316905  1
  C  C51  1  0.94337661  0.00440350  0.28683095  1
  C  C52  1  0.00227880  0.45449700  0.73072384  1
  C  C53  1  0.99772120  0.54550300  0.26927616  1
  C  C54  1  0.48472976  0.50299067  0.77845963  1
  C  C55  1  0.51527024  0.49700933  0.22154037  1
  C  C56  1  0.53770477  0.05859378  0.77776952  1
  C  C57  1  0.46229523  0.94140622  0.22223048  1
  C  C58  1  0.31812955  0.24038882  0.51737335  1
  C  C59  1  0.68187045  0.75961118  0.48262665  1
  C  C60  1  0.75057779  0.34277215  0.96216293  1
  C  C61  1  0.24942221  0.65722785  0.03783707  1
  C  C62  1  0.27992242  0.86502127  0.92580047  1
  C  C63  1  0.72007758  0.13497873  0.07419953  1
  C  C64  1  0.25362851  0.61094040  0.54546689  1
  C  C65  1  0.74637149  0.38905960  0.45453311  1
  C  C66  1  0.76097520  0.16471616  0.54968154  1
  C  C67  1  0.23902480  0.83528384  0.45031846  1
  N  N68  1  0.79310293  0.19173019  0.97790987  1
  N  N69  1  0.20689707  0.80826981  0.02209013  1
  N  N70  1  0.72072796  0.23241418  0.44965293  1
  N  N71  1  0.27927204  0.76758582  0.55034707  1
  O  O72  1  0.34521300  0.44981111  0.79771789  1
  O  O73  1  0.65478700  0.55018889  0.20228211  1
  O  O74  1  0.14182995  0.23177949  0.88419523  1
  O  O75  1  0.85817005  0.76822051  0.11580477  1
  O  O76  1  0.38759891  0.26362196  0.60633210  1
  O  O77  1  0.61240109  0.73637804  0.39366790  1
  O  O78  1  0.07034457  0.34481730  0.68487281  1
  O  O79  1  0.92965543  0.65518270  0.31512719  1
  O  O80  1  0.19180866  0.05640313  0.69721668  1
  O  O81  1  0.80819134  0.94359687  0.30278332  1
  O  O82  1  0.46539294  0.17042850  0.81363265  1
  O  O83  1  0.53460706  0.82957150  0.18636735  1
  O  O84  1  0.88679698  0.51907492  0.69532212  1
  O  O85  1  0.11320302  0.48092508  0.30467788  1
  O  O86  1  0.66531140  0.01233332  0.81390774  1
  O  O87  1  0.33468860  0.98766668  0.18609226  1
  O  O88  1  0.02544910  0.86957845  0.68443531  1
  O  O89  1  0.97455090  0.13042155  0.31556469  1
  O  O90  1  0.53072454  0.62341557  0.80956464  1
  O  O91  1  0.46927546  0.37658443  0.19043536  1
  O  O92  1  0.38779237  0.22449471  0.43052610  1
  O  O93  1  0.61220763  0.77550529  0.56947390  1
  O  O94  1  0.11317048  0.23777029  0.05909776  1
  O  O95  1  0.88682952  0.76222971  0.94090224  1
