# generated using pymatgen
data_Na3Gd(PO4)2
_symmetry_space_group_name_H-M   'P 1'
_cell_length_a   5.37173814
_cell_length_b   14.06430544
_cell_length_c   14.18895157
_cell_angle_alpha   91.28278698
_cell_angle_beta   100.91152889
_cell_angle_gamma   90.00000000
_symmetry_Int_Tables_number   1
_chemical_formula_structural   Na3Gd(PO4)2
_chemical_formula_sum   'Na18 Gd6 P12 O48'
_cell_volume   1052.31780123
_cell_formula_units_Z   6
loop_
 _symmetry_equiv_pos_site_id
 _symmetry_equiv_pos_as_xyz
  1  'x, y, z'
loop_
 _atom_site_type_symbol
 _atom_site_label
 _atom_site_symmetry_multiplicity
 _atom_site_fract_x
 _atom_site_fract_y
 _atom_site_fract_z
 _atom_site_occupancy
  Na  Na0  1  0.60932286  0.63683702  0.23700890  1
  Na  Na1  1  0.37231395  0.86316298  0.76299110  1
  Na  Na2  1  0.39067714  0.36316298  0.76299110  1
  Na  Na3  1  0.62768605  0.13683702  0.23700890  1
  Na  Na4  1  0.01605234  0.91994361  0.10897955  1
  Na  Na5  1  0.90707279  0.58005639  0.89102045  1
  Na  Na6  1  0.98394766  0.08005639  0.89102045  1
  Na  Na7  1  0.09292721  0.41994361  0.10897955  1
  Na  Na8  1  0.50000000  0.50000000  0.00000000  1
  Na  Na9  1  0.50000000  0.00000000  0.00000000  1
  Na  Na10  1  0.72549394  0.82295124  0.44244772  1
  Na  Na11  1  0.28304622  0.67704876  0.55755228  1
  Na  Na12  1  0.27450606  0.17704876  0.55755228  1
  Na  Na13  1  0.71695378  0.32295124  0.44244772  1
  Na  Na14  1  0.15381308  0.76613095  0.30299925  1
  Na  Na15  1  0.85081383  0.73386905  0.69700075  1
  Na  Na16  1  0.84618692  0.23386905  0.69700075  1
  Na  Na17  1  0.14918617  0.26613095  0.30299925  1
  Gd  Gd18  1  0.40392819  0.75000000  0.00000000  1
  Gd  Gd19  1  0.59607181  0.25000000  1.00000000  1
  Gd  Gd20  1  0.19056701  0.51483704  0.35582955  1
  Gd  Gd21  1  0.83473746  0.98516296  0.64417045  1
  Gd  Gd22  1  0.80943299  0.48516296  0.64417045  1
  Gd  Gd23  1  0.16526254  0.01483704  0.35582955  1
  P  P24  1  0.02227712  0.65213872  0.11595977  1
  P  P25  1  0.90631734  0.84786128  0.88404023  1
  P  P26  1  0.97772288  0.34786128  0.88404023  1
  P  P27  1  0.09368266  0.15213872  0.11595977  1
  P  P28  1  0.59874157  0.88996142  0.22333239  1
  P  P29  1  0.37540918  0.61003858  0.77666761  1
  P  P30  1  0.40125843  0.11003858  0.77666761  1
  P  P31  1  0.62459082  0.38996142  0.22333239  1
  P  P32  1  0.26731208  0.39619398  0.54194866  1
  P  P33  1  0.72536342  0.10380602  0.45805134  1
  P  P34  1  0.73268792  0.60380602  0.45805134  1
  P  P35  1  0.27463658  0.89619398  0.54194866  1
  O  O36  1  0.56371478  0.87552301  0.11213028  1
  O  O37  1  0.45158450  0.62447699  0.88786972  1
  O  O38  1  0.43628522  0.12447699  0.88786972  1
  O  O39  1  0.54841550  0.37552301  0.11213028  1
  O  O40  1  0.22005967  0.36358694  0.43449312  1
  O  O41  1  0.78556655  0.13641306  0.56550688  1
  O  O42  1  0.77994033  0.63641306  0.56550688  1
  O  O43  1  0.21443345  0.86358694  0.43449312  1
  O  O44  1  0.07875327  0.61973755  0.22188246  1
  O  O45  1  0.85687081  0.88026245  0.77811754  1
  O  O46  1  0.92124673  0.38026245  0.77811754  1
  O  O47  1  0.14312919  0.11973755  0.22188246  1
  O  O48  1  0.52225515  0.35471404  0.59562096  1
  O  O49  1  0.92663418  0.14528596  0.40437904  1
  O  O50  1  0.47774485  0.64528596  0.40437904  1
  O  O51  1  0.07336582  0.85471404  0.59562096  1
  O  O52  1  0.72839558  0.64960258  0.08044652  1
  O  O53  1  0.64794906  0.85039742  0.91955348  1
  O  O54  1  0.27160442  0.35039742  0.91955348  1
  O  O55  1  0.35205094  0.14960258  0.08044652  1
  O  O56  1  0.15909517  0.58931831  0.05032224  1
  O  O57  1  0.10877293  0.91068169  0.94967776  1
  O  O58  1  0.84090483  0.41068169  0.94967776  1
  O  O59  1  0.89122707  0.08931831  0.05032224  1
  O  O60  1  0.05122956  0.35981602  0.59031782  1
  O  O61  1  0.46091174  0.14018398  0.40968218  1
  O  O62  1  0.94877044  0.64018398  0.40968218  1
  O  O63  1  0.53908826  0.85981602  0.59031782  1
  O  O64  1  0.68774583  0.79846081  0.27642066  1
  O  O65  1  0.41132516  0.70153919  0.72357934  1
  O  O66  1  0.31225417  0.20153919  0.72357934  1
  O  O67  1  0.58867484  0.29846081  0.27642066  1
  O  O68  1  0.34299081  0.92319965  0.24990896  1
  O  O69  1  0.09308185  0.57680035  0.75009104  1
  O  O70  1  0.65700919  0.07680035  0.75009104  1
  O  O71  1  0.90691815  0.42319965  0.24990896  1
  O  O72  1  0.13073707  0.75464543  0.11365195  1
  O  O73  1  0.01708512  0.74535457  0.88634805  1
  O  O74  1  0.86926293  0.24535457  0.88634805  1
  O  O75  1  0.98291488  0.25464543  0.11365195  1
  O  O76  1  0.79919305  0.97145222  0.25098032  1
  O  O77  1  0.54821274  0.52854778  0.74901968  1
  O  O78  1  0.20080695  0.02854778  0.74901968  1
  O  O79  1  0.45178726  0.47145222  0.25098032  1
  O  O80  1  0.27786684  0.50648077  0.54462063  1
  O  O81  1  0.73324621  0.99351923  0.45537937  1
  O  O82  1  0.72213316  0.49351923  0.45537937  1
  O  O83  1  0.26675379  0.00648077  0.54462063  1
