# generated using pymatgen
data_SiC
_symmetry_space_group_name_H-M   'P 1'
_cell_length_a   3.09485085
_cell_length_b   3.09485085
_cell_length_c   48.12149689
_cell_angle_alpha   88.15724276
_cell_angle_beta   88.15724276
_cell_angle_gamma   60.00001471
_symmetry_Int_Tables_number   1
_chemical_formula_structural   SiC
_chemical_formula_sum   'Si19 C19'
_cell_volume   398.88681223
_cell_formula_units_Z   19
loop_
 _symmetry_equiv_pos_site_id
 _symmetry_equiv_pos_as_xyz
  1  'x, y, z'
loop_
 _atom_site_type_symbol
 _atom_site_label
 _atom_site_symmetry_multiplicity
 _atom_site_fract_x
 _atom_site_fract_y
 _atom_site_fract_z
 _atom_site_occupancy
  Si  Si0  1  0.00000620  0.00000620  0.99998140  1
  Si  Si1  1  0.92981812  0.92981812  0.21054564  1
  Si  Si2  1  0.89472536  0.89472536  0.31582392  1
  Si  Si3  1  0.82458378  0.82458378  0.52624867  1
  Si  Si4  1  0.78948149  0.78948149  0.63155554  1
  Si  Si5  1  0.71930079  0.71930079  0.84209762  1
  Si  Si6  1  0.68421933  0.68421933  0.94734202  1
  Si  Si7  1  0.63157741  0.63157741  0.10526778  1
  Si  Si8  1  0.57893781  0.57893781  0.26318658  1
  Si  Si9  1  0.52632238  0.52632238  0.42103285  1
  Si  Si10  1  0.47369707  0.47369707  0.57890879  1
  Si  Si11  1  0.42107685  0.42107685  0.73676946  1
  Si  Si12  1  0.36841764  0.36841764  0.89474709  1
  Si  Si13  1  0.31579232  0.31579232  0.05262304  1
  Si  Si14  1  0.28068858  0.28068858  0.15793427  1
  Si  Si15  1  0.21053279  0.21053279  0.36840164  1
  Si  Si16  1  0.17544508  0.17544508  0.47366475  1
  Si  Si17  1  0.10528891  0.10528891  0.68413326  1
  Si  Si18  1  0.07018663  0.07018663  0.78944010  1
  C  C19  1  0.98682580  0.98682580  0.03952260  1
  C  C20  1  0.91667088  0.91667088  0.24998735  1
  C  C21  1  0.88157333  0.88157333  0.35528002  1
  C  C22  1  0.81142545  0.81142545  0.56572366  1
  C  C23  1  0.77631966  0.77631966  0.67104102  1
  C  C24  1  0.70613906  0.70613906  0.88158282  1
  C  C25  1  0.67106238  0.67106238  0.98681287  1
  C  C26  1  0.61838280  0.61838280  0.14485161  1
  C  C27  1  0.56575590  0.56575590  0.30273231  1
  C  C28  1  0.51314302  0.51314302  0.46057093  1
  C  C29  1  0.46050197  0.46050197  0.61849410  1
  C  C30  1  0.40788154  0.40788154  0.77635539  1
  C  C31  1  0.35524222  0.35524222  0.93427335  1
  C  C32  1  0.30263219  0.30263219  0.09210344  1
  C  C33  1  0.26752291  0.26752291  0.19743127  1
  C  C34  1  0.19738969  0.19738969  0.40783092  1
  C  C35  1  0.16228990  0.16228990  0.51313030  1
  C  C36  1  0.09213273  0.09213273  0.72360181  1
  C  C37  1  0.05701007  0.05701007  0.82896980  1
