# generated using pymatgen
data_Nd13(B2O13)2
_symmetry_space_group_name_H-M   'P 1'
_cell_length_a   6.79947074
_cell_length_b   12.77593401
_cell_length_c   14.42633746
_cell_angle_alpha   90.00000000
_cell_angle_beta   99.65325362
_cell_angle_gamma   90.00000000
_symmetry_Int_Tables_number   1
_chemical_formula_structural   Nd13(B2O13)2
_chemical_formula_sum   'Nd26 B8 O52'
_cell_volume   1235.46532117
_cell_formula_units_Z   2
loop_
 _symmetry_equiv_pos_site_id
 _symmetry_equiv_pos_as_xyz
  1  'x, y, z'
loop_
 _atom_site_type_symbol
 _atom_site_label
 _atom_site_symmetry_multiplicity
 _atom_site_fract_x
 _atom_site_fract_y
 _atom_site_fract_z
 _atom_site_occupancy
  Nd  Nd0  1  0.00000000  0.50000000  0.50000000  1
  Nd  Nd1  1  0.00000000  0.00000000  0.00000000  1
  Nd  Nd2  1  0.51271407  0.38899388  0.58630866  1
  Nd  Nd3  1  0.48728593  0.88899388  0.91369134  1
  Nd  Nd4  1  0.48728593  0.61100612  0.41369134  1
  Nd  Nd5  1  0.51271407  0.11100612  0.08630866  1
  Nd  Nd6  1  0.14330150  0.30795566  0.97117588  1
  Nd  Nd7  1  0.85669850  0.80795566  0.52882412  1
  Nd  Nd8  1  0.85669850  0.69204434  0.02882412  1
  Nd  Nd9  1  0.14330150  0.19204434  0.47117588  1
  Nd  Nd10  1  0.67171260  0.11490148  0.55558669  1
  Nd  Nd11  1  0.32828740  0.61490148  0.94441331  1
  Nd  Nd12  1  0.32828740  0.88509852  0.44441331  1
  Nd  Nd13  1  0.67171260  0.38509852  0.05558669  1
  Nd  Nd14  1  0.62415131  0.19855905  0.83862184  1
  Nd  Nd15  1  0.37584869  0.69855905  0.66137816  1
  Nd  Nd16  1  0.37584869  0.80144095  0.16137816  1
  Nd  Nd17  1  0.62415131  0.30144095  0.33862184  1
  Nd  Nd18  1  0.23325465  0.00066010  0.66828696  1
  Nd  Nd19  1  0.76674535  0.50066010  0.83171304  1
  Nd  Nd20  1  0.76674535  0.99933990  0.33171304  1
  Nd  Nd21  1  0.23325465  0.49933990  0.16828696  1
  Nd  Nd22  1  0.05583647  0.28644048  0.70058139  1
  Nd  Nd23  1  0.94416353  0.78644048  0.79941861  1
  Nd  Nd24  1  0.94416353  0.71355952  0.29941861  1
  Nd  Nd25  1  0.05583647  0.21355952  0.20058139  1
  B  B26  1  0.13941710  0.09550206  0.83718387  1
  B  B27  1  0.86058290  0.59550206  0.66281613  1
  B  B28  1  0.86058290  0.90449794  0.16281613  1
  B  B29  1  0.13941710  0.40449794  0.33718387  1
  B  B30  1  0.32209311  0.44901497  0.78962592  1
  B  B31  1  0.67790689  0.94901497  0.71037408  1
  B  B32  1  0.67790689  0.55098503  0.21037408  1
  B  B33  1  0.32209311  0.05098503  0.28962592  1
  O  O34  1  0.01014966  0.64877230  0.62915316  1
  O  O35  1  0.98985034  0.14877230  0.87084684  1
  O  O36  1  0.98985034  0.35122770  0.37084684  1
  O  O37  1  0.01014966  0.85122770  0.12915316  1
  O  O38  1  0.16175457  0.98798251  0.84834483  1
  O  O39  1  0.83824543  0.48798251  0.65165517  1
  O  O40  1  0.83824543  0.01201749  0.15165517  1
  O  O41  1  0.16175457  0.51201749  0.34834483  1
  O  O42  1  0.26593392  0.15053063  0.78828773  1
  O  O43  1  0.73406608  0.65053063  0.71171227  1
  O  O44  1  0.73406608  0.84946937  0.21171227  1
  O  O45  1  0.26593392  0.34946937  0.28828773  1
  O  O46  1  0.42479863  0.36878452  0.75472042  1
  O  O47  1  0.57520137  0.86878452  0.74527958  1
  O  O48  1  0.57520137  0.63121548  0.24527958  1
  O  O49  1  0.42479863  0.13121548  0.25472042  1
  O  O50  1  0.59989483  0.04888774  0.71079736  1
  O  O51  1  0.40010517  0.54888774  0.78920264  1
  O  O52  1  0.40010517  0.95111226  0.28920264  1
  O  O53  1  0.59989483  0.45111226  0.21079736  1
  O  O54  1  0.14726947  0.42577490  0.82532974  1
  O  O55  1  0.85273053  0.92577490  0.67467026  1
  O  O56  1  0.85273053  0.57422510  0.17467026  1
  O  O57  1  0.14726947  0.07422510  0.32532974  1
  O  O58  1  0.16092461  0.34500805  0.56884325  1
  O  O59  1  0.83907539  0.84500805  0.93115675  1
  O  O60  1  0.83907539  0.65499195  0.43115675  1
  O  O61  1  0.16092461  0.15499195  0.06884325  1
  O  O62  1  0.34550362  0.94551564  0.04954552  1
  O  O63  1  0.65449638  0.44551564  0.45045448  1
  O  O64  1  0.65449638  0.05448436  0.95045448  1
  O  O65  1  0.34550362  0.55448436  0.54954552  1
  O  O66  1  0.71962367  0.26162463  0.67836584  1
  O  O67  1  0.28037633  0.76162463  0.82163416  1
  O  O68  1  0.28037633  0.73837537  0.32163416  1
  O  O69  1  0.71962367  0.23837537  0.17836584  1
  O  O70  1  0.02356864  0.13560478  0.60624442  1
  O  O71  1  0.97643136  0.63560478  0.89375558  1
  O  O72  1  0.97643136  0.86439522  0.39375558  1
  O  O73  1  0.02356864  0.36439522  0.10624442  1
  O  O74  1  0.47946035  0.24874976  0.97840129  1
  O  O75  1  0.52053965  0.74874976  0.52159871  1
  O  O76  1  0.52053965  0.75125024  0.02159871  1
  O  O77  1  0.47946035  0.25125024  0.47840129  1
  O  O78  1  0.19421069  0.84349305  0.59020680  1
  O  O79  1  0.80578931  0.34349305  0.90979320  1
  O  O80  1  0.80578931  0.15650695  0.40979320  1
  O  O81  1  0.19421069  0.65650695  0.09020680  1
  O  O82  1  0.33422136  0.04617086  0.53109822  1
  O  O83  1  0.66577864  0.54617086  0.96890178  1
  O  O84  1  0.66577864  0.95382914  0.46890178  1
  O  O85  1  0.33422136  0.45382914  0.03109822  1
