# generated using pymatgen
data_HfFeGe2
_symmetry_space_group_name_H-M   'P 1'
_cell_length_a   7.91921174
_cell_length_b   9.11381986
_cell_length_c   10.15226073
_cell_angle_alpha   90.00000000
_cell_angle_beta   90.00000000
_cell_angle_gamma   90.00000000
_symmetry_Int_Tables_number   1
_chemical_formula_structural   HfFeGe2
_chemical_formula_sum   'Hf12 Fe12 Ge24'
_cell_volume   732.73199924
_cell_formula_units_Z   12
loop_
 _symmetry_equiv_pos_site_id
 _symmetry_equiv_pos_as_xyz
  1  'x, y, z'
loop_
 _atom_site_type_symbol
 _atom_site_label
 _atom_site_symmetry_multiplicity
 _atom_site_fract_x
 _atom_site_fract_y
 _atom_site_fract_z
 _atom_site_occupancy
  Hf  Hf0  1  0.74381630  0.82588986  0.04895829  1
  Hf  Hf1  1  0.74381630  0.17411014  0.95104171  1
  Hf  Hf2  1  0.25618370  0.67411014  0.54895829  1
  Hf  Hf3  1  0.25618370  0.32588986  0.45104171  1
  Hf  Hf4  1  0.25618370  0.17411014  0.95104171  1
  Hf  Hf5  1  0.25618370  0.82588986  0.04895829  1
  Hf  Hf6  1  0.74381630  0.32588986  0.45104171  1
  Hf  Hf7  1  0.74381630  0.67411014  0.54895829  1
  Hf  Hf8  1  0.50000000  0.83528459  0.32097414  1
  Hf  Hf9  1  0.50000000  0.16471541  0.67902586  1
  Hf  Hf10  1  0.50000000  0.66471541  0.82097414  1
  Hf  Hf11  1  0.50000000  0.33528459  0.17902586  1
  Fe  Fe12  1  0.74938165  0.59193929  0.25374833  1
  Fe  Fe13  1  0.74938165  0.40806071  0.74625167  1
  Fe  Fe14  1  0.25061835  0.90806071  0.75374833  1
  Fe  Fe15  1  0.25061835  0.09193929  0.24625167  1
  Fe  Fe16  1  0.25061835  0.40806071  0.74625167  1
  Fe  Fe17  1  0.25061835  0.59193929  0.25374833  1
  Fe  Fe18  1  0.74938165  0.09193929  0.24625167  1
  Fe  Fe19  1  0.74938165  0.90806071  0.75374833  1
  Fe  Fe20  1  0.74509557  -0.00000000  0.50000000  1
  Fe  Fe21  1  0.25490443  0.50000000  0.00000000  1
  Fe  Fe22  1  0.25490443  -0.00000000  0.50000000  1
  Fe  Fe23  1  0.74509557  0.50000000  0.00000000  1
  Ge  Ge24  1  0.84342672  0.84146645  0.31918532  1
  Ge  Ge25  1  0.84342672  0.15853355  0.68081468  1
  Ge  Ge26  1  0.15657328  0.65853355  0.81918532  1
  Ge  Ge27  1  0.15657328  0.34146645  0.18081468  1
  Ge  Ge28  1  0.15657328  0.15853355  0.68081468  1
  Ge  Ge29  1  0.15657328  0.84146645  0.31918532  1
  Ge  Ge30  1  0.84342672  0.34146645  0.18081468  1
  Ge  Ge31  1  0.84342672  0.65853355  0.81918532  1
  Ge  Ge32  1  0.50000000  0.54054504  0.37983099  1
  Ge  Ge33  1  0.50000000  0.45945496  0.62016901  1
  Ge  Ge34  1  0.50000000  0.95945496  0.87983099  1
  Ge  Ge35  1  0.50000000  0.04054504  0.12016901  1
  Ge  Ge36  1  0.00000000  0.54753777  0.37884081  1
  Ge  Ge37  1  0.00000000  0.45246223  0.62115919  1
  Ge  Ge38  1  0.00000000  0.95246223  0.87884081  1
  Ge  Ge39  1  0.00000000  0.04753777  0.12115919  1
  Ge  Ge40  1  0.50000000  0.62767954  0.10223612  1
  Ge  Ge41  1  0.50000000  0.37232046  0.89776388  1
  Ge  Ge42  1  0.50000000  0.87232046  0.60223612  1
  Ge  Ge43  1  0.50000000  0.12767954  0.39776388  1
  Ge  Ge44  1  0.00000000  0.62416035  0.09869383  1
  Ge  Ge45  1  0.00000000  0.37583965  0.90130617  1
  Ge  Ge46  1  0.00000000  0.87583965  0.59869383  1
  Ge  Ge47  1  0.00000000  0.12416035  0.40130617  1
