# generated using pymatgen
data_TbFe5P3
_symmetry_space_group_name_H-M   'P 1'
_cell_length_a   3.65774431
_cell_length_b   10.32355454
_cell_length_c   11.82938269
_cell_angle_alpha   90.00000000
_cell_angle_beta   90.00000000
_cell_angle_gamma   90.00000000
_symmetry_Int_Tables_number   1
_chemical_formula_structural   TbFe5P3
_chemical_formula_sum   'Tb4 Fe20 P12'
_cell_volume   446.68840745
_cell_formula_units_Z   4
loop_
 _symmetry_equiv_pos_site_id
 _symmetry_equiv_pos_as_xyz
  1  'x, y, z'
loop_
 _atom_site_type_symbol
 _atom_site_label
 _atom_site_symmetry_multiplicity
 _atom_site_fract_x
 _atom_site_fract_y
 _atom_site_fract_z
 _atom_site_occupancy
  Tb  Tb0  1  0.25000000  0.58135930  0.70430034  1
  Tb  Tb1  1  0.25000000  0.91864070  0.20430034  1
  Tb  Tb2  1  0.75000000  0.41864070  0.29569966  1
  Tb  Tb3  1  0.75000000  0.08135930  0.79569966  1
  Fe  Fe4  1  0.25000000  0.70603591  0.98791183  1
  Fe  Fe5  1  0.25000000  0.79396409  0.48791183  1
  Fe  Fe6  1  0.75000000  0.29396409  0.01208817  1
  Fe  Fe7  1  0.75000000  0.20603591  0.51208817  1
  Fe  Fe8  1  0.25000000  0.40486286  0.49026408  1
  Fe  Fe9  1  0.25000000  0.09513714  0.99026408  1
  Fe  Fe10  1  0.75000000  0.59513714  0.50973592  1
  Fe  Fe11  1  0.75000000  0.90486286  0.00973592  1
  Fe  Fe12  1  0.25000000  0.21928173  0.17609475  1
  Fe  Fe13  1  0.25000000  0.28071827  0.67609475  1
  Fe  Fe14  1  0.75000000  0.78071827  0.82390525  1
  Fe  Fe15  1  0.75000000  0.71928173  0.32390525  1
  Fe  Fe16  1  0.25000000  0.87716352  0.70017206  1
  Fe  Fe17  1  0.25000000  0.62283648  0.20017206  1
  Fe  Fe18  1  0.75000000  0.12283648  0.29982794  1
  Fe  Fe19  1  0.75000000  0.37716352  0.79982794  1
  Fe  Fe20  1  0.25000000  0.46382011  0.93321928  1
  Fe  Fe21  1  0.25000000  0.03617989  0.43321928  1
  Fe  Fe22  1  0.75000000  0.53617989  0.06678072  1
  Fe  Fe23  1  0.75000000  0.96382011  0.56678072  1
  P  P24  1  0.25000000  0.42086184  0.11263112  1
  P  P25  1  0.25000000  0.07913816  0.61263112  1
  P  P26  1  0.75000000  0.57913816  0.88736888  1
  P  P27  1  0.75000000  0.92086184  0.38736888  1
  P  P28  1  0.25000000  0.26706244  0.87136233  1
  P  P29  1  0.25000000  0.23293756  0.37136233  1
  P  P30  1  0.75000000  0.73293756  0.12863767  1
  P  P31  1  0.75000000  0.76706244  0.62863767  1
  P  P32  1  0.25000000  0.60222991  0.39593732  1
  P  P33  1  0.25000000  0.89777009  0.89593732  1
  P  P34  1  0.75000000  0.39777009  0.60406268  1
  P  P35  1  0.75000000  0.10222991  0.10406268  1
