# generated using pymatgen
data_MgAl2O4
_symmetry_space_group_name_H-M   'P 1'
_cell_length_a   2.80643161
_cell_length_b   4.84378194
_cell_length_c   9.46206440
_cell_angle_alpha   90.00000000
_cell_angle_beta   90.00000000
_cell_angle_gamma   106.83965239
_symmetry_Int_Tables_number   1
_chemical_formula_structural   MgAl2O4
_chemical_formula_sum   'Mg2 Al4 O8'
_cell_volume   123.10933719
_cell_formula_units_Z   2
loop_
 _symmetry_equiv_pos_site_id
 _symmetry_equiv_pos_as_xyz
  1  'x, y, z'
loop_
 _atom_site_type_symbol
 _atom_site_label
 _atom_site_symmetry_multiplicity
 _atom_site_fract_x
 _atom_site_fract_y
 _atom_site_fract_z
 _atom_site_occupancy
  Mg  Mg0  1  0.61087761  0.22175522  0.25000000  1
  Mg  Mg1  1  0.38912239  0.77824478  0.75000000  1
  Al  Al2  1  0.13456264  0.26912528  0.92672722  1
  Al  Al3  1  0.86543736  0.73087472  0.42672722  1
  Al  Al4  1  0.86543736  0.73087472  0.07327278  1
  Al  Al5  1  0.13456264  0.26912528  0.57327278  1
  O  O6  1  0.76989391  0.53978782  0.89004876  1
  O  O7  1  0.76989391  0.53978782  0.60995124  1
  O  O8  1  0.23010609  0.46021218  0.39004876  1
  O  O9  1  0.04832063  0.09664125  0.75000000  1
  O  O10  1  0.23010609  0.46021218  0.10995124  1
  O  O11  1  0.50000000  0.00000000  0.50000000  1
  O  O12  1  0.50000000  0.00000000  0.00000000  1
  O  O13  1  0.95167937  0.90335875  0.25000000  1
