# generated using pymatgen
data_BP3(PbO4)3
_symmetry_space_group_name_H-M   'P 1'
_cell_length_a   7.09329725
_cell_length_b   14.23591833
_cell_length_c   21.89281572
_cell_angle_alpha   90.00000000
_cell_angle_beta   90.00000000
_cell_angle_gamma   90.00000000
_symmetry_Int_Tables_number   1
_chemical_formula_structural   BP3(PbO4)3
_chemical_formula_sum   'B8 P24 Pb24 O96'
_cell_volume   2210.72778175
_cell_formula_units_Z   8
loop_
 _symmetry_equiv_pos_site_id
 _symmetry_equiv_pos_as_xyz
  1  'x, y, z'
loop_
 _atom_site_type_symbol
 _atom_site_label
 _atom_site_symmetry_multiplicity
 _atom_site_fract_x
 _atom_site_fract_y
 _atom_site_fract_z
 _atom_site_occupancy
  B  B0  1  0.78520589  0.49494865  0.83436840  1
  B  B1  1  0.28520589  0.50505135  0.66563160  1
  B  B2  1  0.21479411  0.00505135  0.33436840  1
  B  B3  1  0.71479411  0.99494865  0.16563160  1
  B  B4  1  0.21479411  0.50505135  0.16563160  1
  B  B5  1  0.71479411  0.49494865  0.33436840  1
  B  B6  1  0.78520589  0.99494865  0.66563160  1
  B  B7  1  0.28520589  0.00505135  0.83436840  1
  P  P8  1  0.96391494  0.37928964  0.91881479  1
  P  P9  1  0.46391494  0.62071036  0.58118521  1
  P  P10  1  0.03608506  0.12071036  0.41881479  1
  P  P11  1  0.53608506  0.87928964  0.08118521  1
  P  P12  1  0.03608506  0.62071036  0.08118521  1
  P  P13  1  0.53608506  0.37928964  0.41881479  1
  P  P14  1  0.96391494  0.87928964  0.58118521  1
  P  P15  1  0.46391494  0.12071036  0.91881479  1
  P  P16  1  0.61673496  0.13076940  0.59152766  1
  P  P17  1  0.11673496  0.86923060  0.90847234  1
  P  P18  1  0.38326504  0.36923060  0.09152766  1
  P  P19  1  0.88326504  0.63076940  0.40847234  1
  P  P20  1  0.38326504  0.86923060  0.40847234  1
  P  P21  1  0.88326504  0.13076940  0.09152766  1
  P  P22  1  0.61673496  0.63076940  0.90847234  1
  P  P23  1  0.11673496  0.36923060  0.59152766  1
  P  P24  1  0.01498400  0.58790181  0.74001381  1
  P  P25  1  0.51498400  0.41209819  0.75998619  1
  P  P26  1  0.98501600  0.91209819  0.24001381  1
  P  P27  1  0.48501600  0.08790181  0.25998619  1
  P  P28  1  0.98501600  0.41209819  0.25998619  1
  P  P29  1  0.48501600  0.58790181  0.24001381  1
  P  P30  1  0.01498400  0.08790181  0.75998619  1
  P  P31  1  0.51498400  0.91209819  0.74001381  1
  Pb  Pb32  1  0.65111523  0.37255755  0.57652999  1
  Pb  Pb33  1  0.15111523  0.62744245  0.92347001  1
  Pb  Pb34  1  0.34888477  0.12744245  0.07652999  1
  Pb  Pb35  1  0.84888477  0.87255755  0.42347001  1
  Pb  Pb36  1  0.34888477  0.62744245  0.42347001  1
  Pb  Pb37  1  0.84888477  0.37255755  0.07652999  1
  Pb  Pb38  1  0.65111523  0.87255755  0.92347001  1
  Pb  Pb39  1  0.15111523  0.12744245  0.57652999  1
  Pb  Pb40  1  0.42071868  0.36257203  0.94238422  1
  Pb  Pb41  1  0.92071868  0.63742797  0.55761578  1
  Pb  Pb42  1  0.57928132  0.13742797  0.44238422  1
  Pb  Pb43  1  0.07928132  0.86257203  0.05761578  1
  Pb  Pb44  1  0.57928132  0.63742797  0.05761578  1
  Pb  Pb45  1  0.07928132  0.36257203  0.44238422  1
  Pb  Pb46  1  0.42071868  0.86257203  0.55761578  1
  Pb  Pb47  1  0.92071868  0.13742797  0.94238422  1
  Pb  Pb48  1  0.00873499  0.31822497  0.75369510  1
  Pb  Pb49  1  0.50873499  0.68177503  0.74630490  1
  Pb  Pb50  1  0.99126501  0.18177503  0.25369510  1
  Pb  Pb51  1  0.49126501  0.81822497  0.24630490  1
  Pb  Pb52  1  0.99126501  0.68177503  0.24630490  1
  Pb  Pb53  1  0.49126501  0.31822497  0.25369510  1
  Pb  Pb54  1  0.00873499  0.81822497  0.74630490  1
  Pb  Pb55  1  0.50873499  0.18177503  0.75369510  1
  O  O56  1  0.11271626  0.45621077  0.93161350  1
  O  O57  1  0.61271626  0.54378923  0.56838650  1
  O  O58  1  0.88728374  0.04378923  0.43161350  1
  O  O59  1  0.38728374  0.95621077  0.06838650  1
  O  O60  1  0.88728374  0.54378923  0.06838650  1
  O  O61  1  0.38728374  0.45621077  0.43161350  1
  O  O62  1  0.11271626  0.95621077  0.56838650  1
  O  O63  1  0.61271626  0.04378923  0.93161350  1
  O  O64  1  0.81480884  0.36949737  0.96947438  1
  O  O65  1  0.31480884  0.63050263  0.53052562  1
  O  O66  1  0.18519116  0.13050263  0.46947438  1
  O  O67  1  0.68519116  0.86949737  0.03052562  1
  O  O68  1  0.18519116  0.63050263  0.03052562  1
  O  O69  1  0.68519116  0.36949737  0.46947438  1
  O  O70  1  0.81480884  0.86949737  0.53052562  1
  O  O71  1  0.31480884  0.13050263  0.96947438  1
  O  O72  1  0.06972380  0.28695846  0.90471367  1
  O  O73  1  0.56972380  0.71304154  0.59528633  1
  O  O74  1  0.93027620  0.21304154  0.40471367  1
  O  O75  1  0.43027620  0.78695846  0.09528633  1
  O  O76  1  0.93027620  0.71304154  0.09528633  1
  O  O77  1  0.43027620  0.28695846  0.40471367  1
  O  O78  1  0.06972380  0.78695846  0.59528633  1
  O  O79  1  0.56972380  0.21304154  0.90471367  1
  O  O80  1  0.84807132  0.40380484  0.85812452  1
  O  O81  1  0.34807132  0.59619516  0.64187548  1
  O  O82  1  0.15192868  0.09619516  0.35812452  1
  O  O83  1  0.65192868  0.90380484  0.14187548  1
  O  O84  1  0.15192868  0.59619516  0.14187548  1
  O  O85  1  0.65192868  0.40380484  0.35812452  1
  O  O86  1  0.84807132  0.90380484  0.64187548  1
  O  O87  1  0.34807132  0.09619516  0.85812452  1
  O  O88  1  0.52475243  0.19155903  0.64127604  1
  O  O89  1  0.02475243  0.80844097  0.85872396  1
  O  O90  1  0.47524757  0.30844097  0.14127604  1
  O  O91  1  0.97524757  0.69155903  0.35872396  1
  O  O92  1  0.47524757  0.80844097  0.35872396  1
  O  O93  1  0.97524757  0.19155903  0.14127604  1
  O  O94  1  0.52475243  0.69155903  0.85872396  1
  O  O95  1  0.02475243  0.30844097  0.64127604  1
  O  O96  1  0.78497946  0.06966315  0.61977754  1
  O  O97  1  0.28497946  0.93033685  0.88022246  1
  O  O98  1  0.21502054  0.43033685  0.11977754  1
  O  O99  1  0.71502054  0.56966315  0.38022246  1
  O  O100  1  0.21502054  0.93033685  0.38022246  1
  O  O101  1  0.71502054  0.06966315  0.11977754  1
  O  O102  1  0.78497946  0.56966315  0.88022246  1
  O  O103  1  0.28497946  0.43033685  0.61977754  1
  O  O104  1  0.71228100  0.19211998  0.54162154  1
  O  O105  1  0.21228100  0.80788002  0.95837846  1
  O  O106  1  0.28771900  0.30788002  0.04162154  1
  O  O107  1  0.78771900  0.69211998  0.45837846  1
  O  O108  1  0.28771900  0.80788002  0.45837846  1
  O  O109  1  0.78771900  0.19211998  0.04162154  1
  O  O110  1  0.71228100  0.69211998  0.95837846  1
  O  O111  1  0.21228100  0.30788002  0.54162154  1
  O  O112  1  0.47129469  0.06517170  0.56045191  1
  O  O113  1  0.97129469  0.93482830  0.93954809  1
  O  O114  1  0.52870531  0.43482830  0.06045191  1
  O  O115  1  0.02870531  0.56517170  0.43954809  1
  O  O116  1  0.52870531  0.93482830  0.43954809  1
  O  O117  1  0.02870531  0.06517170  0.06045191  1
  O  O118  1  0.47129469  0.56517170  0.93954809  1
  O  O119  1  0.97129469  0.43482830  0.56045191  1
  O  O120  1  0.17327431  0.64535976  0.76973682  1
  O  O121  1  0.67327431  0.35464024  0.73026318  1
  O  O122  1  0.82672569  0.85464024  0.26973682  1
  O  O123  1  0.32672569  0.14535976  0.23026318  1
  O  O124  1  0.82672569  0.35464024  0.23026318  1
  O  O125  1  0.32672569  0.64535976  0.26973682  1
  O  O126  1  0.17327431  0.14535976  0.73026318  1
  O  O127  1  0.67327431  0.85464024  0.76973682  1
  O  O128  1  0.09249238  0.51630230  0.69062651  1
  O  O129  1  0.59249238  0.48369770  0.80937349  1
  O  O130  1  0.90750762  0.98369770  0.19062651  1
  O  O131  1  0.40750762  0.01630230  0.30937349  1
  O  O132  1  0.90750762  0.48369770  0.30937349  1
  O  O133  1  0.40750762  0.51630230  0.19062651  1
  O  O134  1  0.09249238  0.01630230  0.80937349  1
  O  O135  1  0.59249238  0.98369770  0.69062651  1
  O  O136  1  0.86720773  0.65442403  0.71270720  1
  O  O137  1  0.36720773  0.34557597  0.78729280  1
  O  O138  1  0.13279227  0.84557597  0.21270720  1
  O  O139  1  0.63279227  0.15442403  0.28729280  1
  O  O140  1  0.13279227  0.34557597  0.28729280  1
  O  O141  1  0.63279227  0.65442403  0.21270720  1
  O  O142  1  0.86720773  0.15442403  0.78729280  1
  O  O143  1  0.36720773  0.84557597  0.71270720  1
  O  O144  1  0.92576831  0.51625235  0.78582521  1
  O  O145  1  0.42576831  0.48374765  0.71417479  1
  O  O146  1  0.07423169  0.98374765  0.28582521  1
  O  O147  1  0.57423169  0.01625235  0.21417479  1
  O  O148  1  0.07423169  0.48374765  0.21417479  1
  O  O149  1  0.57423169  0.51625235  0.28582521  1
  O  O150  1  0.92576831  0.01625235  0.71417479  1
  O  O151  1  0.42576831  0.98374765  0.78582521  1
