# generated using pymatgen
data_Nd3PO7
_symmetry_space_group_name_H-M   'P 1'
_cell_length_a   9.36099468
_cell_length_b   9.36099468
_cell_length_c   12.37499068
_cell_angle_alpha   102.77890394
_cell_angle_beta   102.77890394
_cell_angle_gamma   91.18286718
_symmetry_Int_Tables_number   1
_chemical_formula_structural   Nd3PO7
_chemical_formula_sum   'Nd18 P6 O42'
_cell_volume   1028.58169155
_cell_formula_units_Z   6
loop_
 _symmetry_equiv_pos_site_id
 _symmetry_equiv_pos_as_xyz
  1  'x, y, z'
loop_
 _atom_site_type_symbol
 _atom_site_label
 _atom_site_symmetry_multiplicity
 _atom_site_fract_x
 _atom_site_fract_y
 _atom_site_fract_z
 _atom_site_occupancy
  Nd  Nd0  1  0.16502191  0.85481216  0.83597406  1
  Nd  Nd1  1  0.85481216  0.16502191  0.83597406  1
  Nd  Nd2  1  0.15296394  0.49883298  0.29601079  1
  Nd  Nd3  1  0.49883298  0.15296394  0.29601079  1
  Nd  Nd4  1  0.15577083  0.81003844  0.16160676  1
  Nd  Nd5  1  0.81003844  0.15577083  0.16160676  1
  Nd  Nd6  1  0.50806398  0.85416355  0.05375760  1
  Nd  Nd7  1  0.85416355  0.50806398  0.05375760  1
  Nd  Nd8  1  0.49479066  0.80849650  0.71979826  1
  Nd  Nd9  1  0.80849650  0.49479066  0.71979826  1
  Nd  Nd10  1  0.16977769  0.85584449  0.49648527  1
  Nd  Nd11  1  0.85584449  0.16977769  0.49648527  1
  Nd  Nd12  1  0.14192136  0.52171611  0.60792720  1
  Nd  Nd13  1  0.52171611  0.14192136  0.60792720  1
  Nd  Nd14  1  0.16539965  0.51028095  0.91946025  1
  Nd  Nd15  1  0.51028095  0.16539965  0.91946025  1
  Nd  Nd16  1  0.80895324  0.49930014  0.37938760  1
  Nd  Nd17  1  0.49930014  0.80895324  0.37938760  1
  P  P18  1  0.83655882  0.83655882  0.92570467  1
  P  P19  1  0.16355451  0.16355451  0.34142961  1
  P  P20  1  0.82767873  0.82767873  0.28748511  1
  P  P21  1  0.49834433  0.49834433  0.87315683  1
  P  P22  1  0.49471256  0.49471256  0.49566434  1
  P  P23  1  0.16614530  0.16614530  0.72056339  1
  O  O24  1  0.22885188  0.77292196  0.66356989  1
  O  O25  1  0.77292196  0.22885188  0.66356989  1
  O  O26  1  0.41413972  0.92599843  0.88539624  1
  O  O27  1  0.92599843  0.41413972  0.88539624  1
  O  O28  1  0.25333066  0.75766916  0.99616507  1
  O  O29  1  0.75766916  0.25333066  0.99616507  1
  O  O30  1  0.94496980  0.94496980  0.89621054  1
  O  O31  1  0.13524057  0.13524057  0.83318118  1
  O  O32  1  0.25999824  0.25999824  0.29029050  1
  O  O33  1  0.24965719  0.73761148  0.33017431  1
  O  O34  1  0.73761148  0.24965719  0.33017431  1
  O  O35  1  0.11791951  0.54618496  0.10776980  1
  O  O36  1  0.54618496  0.11791951  0.10776980  1
  O  O37  1  0.05878110  0.05878110  0.23494820  1
  O  O38  1  0.93042953  0.73876641  0.99472110  1
  O  O39  1  0.73876641  0.93042953  0.99472110  1
  O  O40  1  0.92460679  0.73321815  0.21816755  1
  O  O41  1  0.73321815  0.92460679  0.21816755  1
  O  O42  1  0.60537482  0.60537482  0.97676408  1
  O  O43  1  0.41067687  0.90572231  0.21952683  1
  O  O44  1  0.90572231  0.41067687  0.21952683  1
  O  O45  1  0.43600978  0.88936436  0.55213089  1
  O  O46  1  0.88936436  0.43600978  0.55213089  1
  O  O47  1  0.59655499  0.59655499  0.60319126  1
  O  O48  1  0.74067036  0.74067036  0.81343221  1
  O  O49  1  0.61822485  0.04894467  0.77134146  1
  O  O50  1  0.04894467  0.61822485  0.77134146  1
  O  O51  1  0.92513441  0.92513441  0.39877111  1
  O  O52  1  0.04507943  0.61590791  0.44455313  1
  O  O53  1  0.61590791  0.04507943  0.44455313  1
  O  O54  1  0.26606383  0.07418202  0.41388081  1
  O  O55  1  0.07418202  0.26606383  0.41388081  1
  O  O56  1  0.32689848  0.13591843  0.71632973  1
  O  O57  1  0.13591843  0.32689848  0.71632973  1
  O  O58  1  0.05977567  0.05977567  0.61762551  1
  O  O59  1  0.33248943  0.52291918  0.49544464  1
  O  O60  1  0.52291918  0.33248943  0.49544464  1
  O  O61  1  0.39319230  0.58575556  0.80071268  1
  O  O62  1  0.58575556  0.39319230  0.80071268  1
  O  O63  1  0.40379231  0.40379231  0.92710414  1
  O  O64  1  0.71984210  0.71984210  0.31793714  1
  O  O65  1  0.53306759  0.53306759  0.38755634  1
