# generated using pymatgen
data_Ba8CaY2U4O24
_symmetry_space_group_name_H-M   'P 1'
_cell_length_a   8.76923146
_cell_length_b   8.76923146
_cell_length_c   10.78279495
_cell_angle_alpha   114.01104882
_cell_angle_beta   114.01104882
_cell_angle_gamma   89.96025432
_symmetry_Int_Tables_number   1
_chemical_formula_structural   Ba8CaY2U4O24
_chemical_formula_sum   'Ba8 Ca1 Y2 U4 O24'
_cell_volume   678.25222144
_cell_formula_units_Z   1
loop_
 _symmetry_equiv_pos_site_id
 _symmetry_equiv_pos_as_xyz
  1  'x, y, z'
loop_
 _atom_site_type_symbol
 _atom_site_label
 _atom_site_symmetry_multiplicity
 _atom_site_fract_x
 _atom_site_fract_y
 _atom_site_fract_z
 _atom_site_occupancy
  Ba  Ba0  1  0.87904840  0.87904840  0.23570678  1
  Ba  Ba1  1  0.35665838  0.35665838  0.23570678  1
  Ba  Ba2  1  0.12095160  0.12095160  0.76429322  1
  Ba  Ba3  1  0.64334162  0.64334162  0.76429322  1
  Ba  Ba4  1  0.35681259  0.87895418  0.23576677  1
  Ba  Ba5  1  0.87895418  0.35681259  0.23576677  1
  Ba  Ba6  1  0.12104582  0.64318741  0.76423323  1
  Ba  Ba7  1  0.64318741  0.12104582  0.76423323  1
  Ca  Ca8  1  0.50000000  0.50000000  -0.00000000  1
  Y  Y9  1  0.25000000  0.75000000  0.50000000  1
  Y  Y10  1  0.75000000  0.25000000  0.50000000  1
  U  U11  1  0.25296823  0.25296823  0.50593646  1
  U  U12  1  0.74703177  0.74703177  0.49406354  1
  U  U13  1  0.50000000  0.00000000  -0.00000000  1
  U  U14  1  -0.00000000  0.50000000  -0.00000000  1
  O  O15  1  0.13911987  0.13911987  0.27823973  1
  O  O16  1  0.86088013  0.86088013  0.72176027  1
  O  O17  1  0.36822321  0.36822321  0.73644642  1
  O  O18  1  0.63177679  0.63177679  0.26355358  1
  O  O19  1  0.99996306  0.72910203  -0.00000000  1
  O  O20  1  0.00003694  0.27089797  -0.00000000  1
  O  O21  1  0.27089797  0.00003694  -0.00000000  1
  O  O22  1  0.72910203  0.99996306  -0.00000000  1
  O  O23  1  0.49985142  0.23905301  -0.00000000  1
  O  O24  1  0.50014858  0.76094699  -0.00000000  1
  O  O25  1  0.76094699  0.50014858  -0.00000000  1
  O  O26  1  0.23905301  0.49985142  -0.00000000  1
  O  O27  1  0.12259789  0.62259789  0.24519578  1
  O  O28  1  0.37740211  0.87740211  0.75480422  1
  O  O29  1  0.87740211  0.37740211  0.75480422  1
  O  O30  1  0.62259789  0.12259789  0.24519578  1
  O  O31  1  0.24926649  0.00616211  0.49843033  1
  O  O32  1  0.24916384  0.49226822  0.49843033  1
  O  O33  1  0.99383789  0.75073351  0.50156967  1
  O  O34  1  0.50773178  0.75083616  0.50156967  1
  O  O35  1  0.75073351  0.99383789  0.50156967  1
  O  O36  1  0.75083616  0.50773178  0.50156967  1
  O  O37  1  0.00616211  0.24926649  0.49843033  1
  O  O38  1  0.49226822  0.24916384  0.49843033  1
