# generated using pymatgen
data_MgSiO3
_symmetry_space_group_name_H-M   'P 1'
_cell_length_a   5.29015869
_cell_length_b   9.18506946
_cell_length_c   18.42924071
_cell_angle_alpha   90.00000000
_cell_angle_beta   90.00000000
_cell_angle_gamma   90.00000000
_symmetry_Int_Tables_number   1
_chemical_formula_structural   MgSiO3
_chemical_formula_sum   'Mg16 Si16 O48'
_cell_volume   895.48556040
_cell_formula_units_Z   16
loop_
 _symmetry_equiv_pos_site_id
 _symmetry_equiv_pos_as_xyz
  1  'x, y, z'
loop_
 _atom_site_type_symbol
 _atom_site_label
 _atom_site_symmetry_multiplicity
 _atom_site_fract_x
 _atom_site_fract_y
 _atom_site_fract_z
 _atom_site_occupancy
  Mg  Mg0  1  0.64417072  0.15532534  0.61017253  1
  Mg  Mg1  1  0.14417072  0.34467466  0.61017253  1
  Mg  Mg2  1  0.15457620  0.49552710  0.86642787  1
  Mg  Mg3  1  0.85582928  0.15532534  0.11017253  1
  Mg  Mg4  1  0.65457620  0.50447290  0.63357213  1
  Mg  Mg5  1  0.64417072  0.65532534  0.88982747  1
  Mg  Mg6  1  0.84542380  0.00447290  0.36642787  1
  Mg  Mg7  1  0.14417072  0.84467466  0.88982747  1
  Mg  Mg8  1  0.15457620  0.99552710  0.63357213  1
  Mg  Mg9  1  0.65457620  0.00447290  0.86642787  1
  Mg  Mg10  1  0.35582928  0.84467466  0.38982747  1
  Mg  Mg11  1  0.34542380  0.49552710  0.36642787  1
  Mg  Mg12  1  0.34542380  0.99552710  0.13357213  1
  Mg  Mg13  1  0.35582928  0.34467466  0.11017253  1
  Mg  Mg14  1  0.85582928  0.65532534  0.38982747  1
  Mg  Mg15  1  0.84542380  0.50447290  0.13357213  1
  Si  Si16  1  0.57778369  0.78275614  0.25954373  1
  Si  Si17  1  0.57778369  0.28275614  0.24045627  1
  Si  Si18  1  0.20175502  0.16604188  0.96517560  1
  Si  Si19  1  0.29824498  0.66604188  0.03482440  1
  Si  Si20  1  0.92221631  0.28275614  0.74045627  1
  Si  Si21  1  0.92221631  0.78275614  0.75954373  1
  Si  Si22  1  0.07778369  0.71724386  0.25954373  1
  Si  Si23  1  0.07778369  0.21724386  0.24045627  1
  Si  Si24  1  0.79824498  0.83395812  0.03482440  1
  Si  Si25  1  0.70175502  0.33395812  0.96517560  1
  Si  Si26  1  0.42221631  0.21724386  0.74045627  1
  Si  Si27  1  0.79824498  0.33395812  0.46517560  1
  Si  Si28  1  0.29824498  0.16604188  0.46517560  1
  Si  Si29  1  0.70175502  0.83395812  0.53482440  1
  Si  Si30  1  0.42221631  0.71724386  0.75954373  1
  Si  Si31  1  0.20175502  0.66604188  0.53482440  1
  O  O32  1  0.19650422  0.65593262  0.44600886  1
  O  O33  1  0.67865017  0.23288141  0.79329308  1
  O  O34  1  0.68184501  0.97141512  0.07694434  1
  O  O35  1  0.92943747  0.44040866  0.70126188  1
  O  O36  1  0.54075479  0.17116951  0.17226566  1
  O  O37  1  0.17865017  0.26711859  0.79329308  1
  O  O38  1  0.68184501  0.47141512  0.42305566  1
  O  O39  1  0.18184501  0.02858488  0.42305566  1
  O  O40  1  0.04075479  0.32883049  0.17226566  1
  O  O41  1  0.92943747  0.94040866  0.79873812  1
  O  O42  1  0.07056253  0.05959134  0.20126188  1
  O  O43  1  0.31815499  0.52858488  0.57694434  1
  O  O44  1  0.95924521  0.67116951  0.82773434  1
  O  O45  1  0.07056253  0.55959134  0.29873812  1
  O  O46  1  0.82134983  0.73288141  0.20670692  1
  O  O47  1  0.45924521  0.82883049  0.82773434  1
  O  O48  1  0.89286353  0.19209618  0.94156323  1
  O  O49  1  0.69650422  0.84406738  0.44600886  1
  O  O50  1  0.19650422  0.15593262  0.05399114  1
  O  O51  1  0.30349578  0.15593262  0.55399114  1
  O  O52  1  0.89286353  0.69209618  0.55843677  1
  O  O53  1  0.10713647  0.80790382  0.05843677  1
  O  O54  1  0.60713647  0.19209618  0.44156323  1
  O  O55  1  0.82134983  0.23288141  0.29329308  1
  O  O56  1  0.60713647  0.69209618  0.05843677  1
  O  O57  1  0.95924521  0.17116951  0.67226566  1
  O  O58  1  0.67865017  0.73288141  0.70670692  1
  O  O59  1  0.80349578  0.84406738  0.94600886  1
  O  O60  1  0.32134983  0.76711859  0.20670692  1
  O  O61  1  0.57056253  0.44040866  0.20126188  1
  O  O62  1  0.18184501  0.52858488  0.07694434  1
  O  O63  1  0.80349578  0.34406738  0.55399114  1
  O  O64  1  0.69650422  0.34406738  0.05399114  1
  O  O65  1  0.42943747  0.05959134  0.70126188  1
  O  O66  1  0.45924521  0.32883049  0.67226566  1
  O  O67  1  0.04075479  0.82883049  0.32773434  1
  O  O68  1  0.32134983  0.26711859  0.29329308  1
  O  O69  1  0.31815499  0.02858488  0.92305566  1
  O  O70  1  0.39286353  0.30790382  0.94156323  1
  O  O71  1  0.39286353  0.80790382  0.55843677  1
  O  O72  1  0.42943747  0.55959134  0.79873812  1
  O  O73  1  0.17865017  0.76711859  0.70670692  1
  O  O74  1  0.81815499  0.97141512  0.57694434  1
  O  O75  1  0.81815499  0.47141512  0.92305566  1
  O  O76  1  0.54075479  0.67116951  0.32773434  1
  O  O77  1  0.10713647  0.30790382  0.44156323  1
  O  O78  1  0.57056253  0.94040866  0.29873812  1
  O  O79  1  0.30349578  0.65593262  0.94600886  1
