# generated using pymatgen
data_Be(B3H8)2
_symmetry_space_group_name_H-M   'P 1'
_cell_length_a   8.05537478
_cell_length_b   11.32072253
_cell_length_c   12.15139874
_cell_angle_alpha   115.27213500
_cell_angle_beta   90.00000000
_cell_angle_gamma   90.00000000
_symmetry_Int_Tables_number   1
_chemical_formula_structural   Be(B3H8)2
_chemical_formula_sum   'Be4 B24 H64'
_cell_volume   1002.06070750
_cell_formula_units_Z   4
loop_
 _symmetry_equiv_pos_site_id
 _symmetry_equiv_pos_as_xyz
  1  'x, y, z'
loop_
 _atom_site_type_symbol
 _atom_site_label
 _atom_site_symmetry_multiplicity
 _atom_site_fract_x
 _atom_site_fract_y
 _atom_site_fract_z
 _atom_site_occupancy
  Be  Be0  1  0.53682714  0.28691718  0.77413760  1
  Be  Be1  1  0.96317286  0.28691718  0.27413760  1
  Be  Be2  1  0.46317286  0.71308282  0.22586240  1
  Be  Be3  1  0.03682714  0.71308282  0.72586240  1
  B  B4  1  0.72905053  0.16853833  0.73139606  1
  B  B5  1  0.77094947  0.16853833  0.23139606  1
  B  B6  1  0.27094947  0.83146167  0.26860394  1
  B  B7  1  0.22905053  0.83146167  0.76860394  1
  B  B8  1  0.71559890  0.11904600  0.85551947  1
  B  B9  1  0.78440110  0.11904600  0.35551947  1
  B  B10  1  0.28440110  0.88095400  0.14448053  1
  B  B11  1  0.21559890  0.88095400  0.64448053  1
  B  B12  1  0.72153589  0.28981664  0.88198984  1
  B  B13  1  0.77846411  0.28981664  0.38198984  1
  B  B14  1  0.27846411  0.71018336  0.11801016  1
  B  B15  1  0.22153589  0.71018336  0.61801016  1
  B  B16  1  0.29443425  0.30018167  0.76809565  1
  B  B17  1  0.20556575  0.30018167  0.26809565  1
  B  B18  1  0.70556575  0.69981833  0.23190435  1
  B  B19  1  0.79443425  0.69981833  0.73190435  1
  B  B20  1  0.27850807  0.27513218  0.61021059  1
  B  B21  1  0.22149193  0.27513218  0.11021059  1
  B  B22  1  0.72149193  0.72486782  0.38978941  1
  B  B23  1  0.77850807  0.72486782  0.88978941  1
  B  B24  1  0.40950562  0.40099239  0.71971193  1
  B  B25  1  0.09049438  0.40099239  0.21971193  1
  B  B26  1  0.59049438  0.59900761  0.28028807  1
  B  B27  1  0.90950562  0.59900761  0.78028807  1
  H  H28  1  0.85050528  0.17209340  0.67655887  1
  H  H29  1  0.64949472  0.17209340  0.17655887  1
  H  H30  1  0.14949472  0.82790660  0.32344113  1
  H  H31  1  0.35050528  0.82790660  0.82344113  1
  H  H32  1  0.84197043  0.07839048  0.87936407  1
  H  H33  1  0.65802957  0.07839048  0.37936407  1
  H  H34  1  0.15802957  0.92160952  0.12063593  1
  H  H35  1  0.34197043  0.92160952  0.62063593  1
  H  H36  1  0.83910127  0.36059285  0.91211258  1
  H  H37  1  0.66089873  0.36059285  0.41211258  1
  H  H38  1  0.16089873  0.63940715  0.08788742  1
  H  H39  1  0.33910127  0.63940715  0.58788742  1
  H  H40  1  0.58641409  0.07477078  0.86972753  1
  H  H41  1  0.91358591  0.07477078  0.36972753  1
  H  H42  1  0.41358591  0.92522922  0.13027247  1
  H  H43  1  0.08641409  0.92522922  0.63027247  1
  H  H44  1  0.72153548  0.05416548  0.72533601  1
  H  H45  1  0.77846452  0.05416548  0.22533601  1
  H  H46  1  0.27846452  0.94583452  0.27466399  1
  H  H47  1  0.22153548  0.94583452  0.77466399  1
  H  H48  1  0.70538686  0.24286147  0.95904596  1
  H  H49  1  0.79461314  0.24286147  0.45904596  1
  H  H50  1  0.29461314  0.75713853  0.04095404  1
  H  H51  1  0.20538686  0.75713853  0.54095404  1
  H  H52  1  0.58977077  0.35550780  0.90979370  1
  H  H53  1  0.91022923  0.35550780  0.40979370  1
  H  H54  1  0.41022923  0.64449220  0.09020630  1
  H  H55  1  0.08977077  0.64449220  0.59020630  1
  H  H56  1  0.60016810  0.15830910  0.66981454  1
  H  H57  1  0.89983190  0.15830910  0.16981454  1
  H  H58  1  0.39983190  0.84169090  0.33018546  1
  H  H59  1  0.10016810  0.84169090  0.83018546  1
  H  H60  1  0.20204924  0.36004894  0.85016354  1
  H  H61  1  0.29795076  0.36004894  0.35016354  1
  H  H62  1  0.79795076  0.63995106  0.14983646  1
  H  H63  1  0.70204924  0.63995106  0.64983646  1
  H  H64  1  0.15326878  0.31247037  0.58168232  1
  H  H65  1  0.34673122  0.31247037  0.08168232  1
  H  H66  1  0.84673122  0.68752963  0.41831768  1
  H  H67  1  0.65326878  0.68752963  0.91831768  1
  H  H68  1  0.37795529  0.51465227  0.77410347  1
  H  H69  1  0.12204471  0.51465227  0.27410347  1
  H  H70  1  0.62204471  0.48534773  0.22589653  1
  H  H71  1  0.87795529  0.48534773  0.72589653  1
  H  H72  1  0.34599195  0.18014468  0.53503567  1
  H  H73  1  0.15400805  0.18014468  0.03503567  1
  H  H74  1  0.65400805  0.81985532  0.46496433  1
  H  H75  1  0.84599195  0.81985532  0.96496433  1
  H  H76  1  0.20797621  0.21694674  0.68382082  1
  H  H77  1  0.29202379  0.21694674  0.18382082  1
  H  H78  1  0.79202379  0.78305326  0.31617918  1
  H  H79  1  0.70797621  0.78305326  0.81617918  1
  H  H80  1  0.39009943  0.37258228  0.60814057  1
  H  H81  1  0.10990057  0.37258228  0.10814057  1
  H  H82  1  0.60990057  0.62741772  0.39185943  1
  H  H83  1  0.89009943  0.62741772  0.89185943  1
  H  H84  1  0.56358372  0.38306287  0.71500654  1
  H  H85  1  0.93641628  0.38306287  0.21500654  1
  H  H86  1  0.43641628  0.61693713  0.28499346  1
  H  H87  1  0.06358372  0.61693713  0.78499346  1
  H  H88  1  0.37748807  0.21906681  0.79011151  1
  H  H89  1  0.12251193  0.21906681  0.29011151  1
  H  H90  1  0.62251193  0.78093319  0.20988849  1
  H  H91  1  0.87748807  0.78093319  0.70988849  1
