# generated using pymatgen
data_K2Na2Eu4Nb2O13
_symmetry_space_group_name_H-M   'P 1'
_cell_length_a   5.74531521
_cell_length_b   11.38516966
_cell_length_c   12.59612178
_cell_angle_alpha   115.72727945
_cell_angle_beta   103.18281760
_cell_angle_gamma   90.00000000
_symmetry_Int_Tables_number   1
_chemical_formula_structural   K2Na2Eu4Nb2O13
_chemical_formula_sum   'K4 Na4 Eu8 Nb4 O26'
_cell_volume   718.07584652
_cell_formula_units_Z   2
loop_
 _symmetry_equiv_pos_site_id
 _symmetry_equiv_pos_as_xyz
  1  'x, y, z'
loop_
 _atom_site_type_symbol
 _atom_site_label
 _atom_site_symmetry_multiplicity
 _atom_site_fract_x
 _atom_site_fract_y
 _atom_site_fract_z
 _atom_site_occupancy
  K  K0  1  0.19834285  0.86667326  0.50128001  1
  K  K1  1  0.69706285  0.63332674  0.49871999  1
  K  K2  1  0.80165715  0.13332674  0.49871999  1
  K  K3  1  0.30293715  0.36667326  0.50128001  1
  Na  Na4  1  0.11998521  0.52269150  0.31653691  1
  Na  Na5  1  0.80344830  0.97730850  0.68346309  1
  Na  Na6  1  0.88001479  0.47730850  0.68346309  1
  Na  Na7  1  0.19655170  0.02269150  0.31653691  1
  Eu  Eu8  1  0.39528171  0.05174751  0.87435952  1
  Eu  Eu9  1  0.52092218  0.44825249  0.12564048  1
  Eu  Eu10  1  0.60471829  0.94825249  0.12564048  1
  Eu  Eu11  1  0.47907782  0.55174751  0.87435952  1
  Eu  Eu12  1  0.02910583  0.67435304  0.12515094  1
  Eu  Eu13  1  0.90395489  0.82564696  0.87484906  1
  Eu  Eu14  1  0.97089417  0.32564696  0.87484906  1
  Eu  Eu15  1  0.09604511  0.17435304  0.12515094  1
  Nb  Nb16  1  0.31540260  0.71846170  0.69903388  1
  Nb  Nb17  1  0.61636872  0.78153830  0.30096612  1
  Nb  Nb18  1  0.68459740  0.28153830  0.30096612  1
  Nb  Nb19  1  0.38363128  0.21846170  0.69903388  1
  O  O20  1  0.09133705  0.85899398  0.73729830  1
  O  O21  1  0.35403876  0.64100602  0.26270170  1
  O  O22  1  0.90866295  0.14100602  0.26270170  1
  O  O23  1  0.64596124  0.35899398  0.73729830  1
  O  O24  1  0.13975514  0.12360209  0.73246507  1
  O  O25  1  0.40729007  0.37639791  0.26753493  1
  O  O26  1  0.86024486  0.87639791  0.26753493  1
  O  O27  1  0.59270993  0.62360209  0.73246507  1
  O  O28  1  0.81876335  0.63672331  0.25939054  1
  O  O29  1  0.55937282  0.86327669  0.74060946  1
  O  O30  1  0.18123665  0.36327669  0.74060946  1
  O  O31  1  0.44062718  0.13672331  0.25939054  1
  O  O32  1  0.20143065  0.62406205  0.52975796  1
  O  O33  1  0.67167269  0.87593795  0.47024204  1
  O  O34  1  0.79856935  0.37593795  0.47024204  1
  O  O35  1  0.32832731  0.12406205  0.52975796  1
  O  O36  1  0.75876515  0.75000000  0.00000000  1
  O  O37  1  0.24123485  0.25000000  -0.00000000  1
  O  O38  1  0.62987677  0.15937650  0.79824873  1
  O  O39  1  0.83162804  0.34062350  0.20175127  1
  O  O40  1  0.37012323  0.84062350  0.20175127  1
  O  O41  1  0.16837196  0.65937650  0.79824873  1
  O  O42  1  0.24927790  0.97878496  0.00183664  1
  O  O43  1  0.24744126  0.52121504  0.99816336  1
  O  O44  1  0.75072210  0.02121504  0.99816336  1
  O  O45  1  0.75255874  0.47878496  0.00183664  1
