# generated using pymatgen
data_SrH8(ClO6)2
_symmetry_space_group_name_H-M   'P 1'
_cell_length_a   7.30602253
_cell_length_b   7.51083573
_cell_length_c   10.34683539
_cell_angle_alpha   86.71089122
_cell_angle_beta   86.10033026
_cell_angle_gamma   71.98652749
_symmetry_Int_Tables_number   1
_chemical_formula_structural   SrH8(ClO6)2
_chemical_formula_sum   'Sr2 H16 Cl4 O24'
_cell_volume   538.30001945
_cell_formula_units_Z   2
loop_
 _symmetry_equiv_pos_site_id
 _symmetry_equiv_pos_as_xyz
  1  'x, y, z'
loop_
 _atom_site_type_symbol
 _atom_site_label
 _atom_site_symmetry_multiplicity
 _atom_site_fract_x
 _atom_site_fract_y
 _atom_site_fract_z
 _atom_site_occupancy
  Sr  Sr0  1  0.46236360  0.07153280  0.27776424  1
  Sr  Sr1  1  0.53763640  0.92846720  0.72223576  1
  H  H2  1  0.71461798  0.17323990  0.03846296  1
  H  H3  1  0.28538202  0.82676010  0.96153704  1
  H  H4  1  0.72805977  0.96205568  0.01644988  1
  H  H5  1  0.27194023  0.03794432  0.98355012  1
  H  H6  1  0.34836402  0.78223553  0.47545750  1
  H  H7  1  0.65163598  0.21776447  0.52454250  1
  H  H8  1  0.57500736  0.72355586  0.46803266  1
  H  H9  1  0.42499264  0.27644414  0.53196734  1
  H  H10  1  0.07028602  0.30009192  0.43383009  1
  H  H11  1  0.92971398  0.69990808  0.56616991  1
  H  H12  1  0.16145999  0.45339899  0.37683237  1
  H  H13  1  0.83854001  0.54660101  0.62316763  1
  H  H14  1  0.25048685  0.34060194  0.03402680  1
  H  H15  1  0.74951315  0.65939806  0.96597320  1
  H  H16  1  0.08685086  0.29217105  0.11845621  1
  H  H17  1  0.91314914  0.70782895  0.88154379  1
  Cl  Cl18  1  0.02916038  0.84567598  0.29729367  1
  Cl  Cl19  1  0.97083962  0.15432402  0.70270633  1
  Cl  Cl20  1  0.64234070  0.51493502  0.22023437  1
  Cl  Cl21  1  0.35765930  0.48506498  0.77976563  1
  O  O22  1  0.66592115  0.07107842  0.07032771  1
  O  O23  1  0.33407885  0.92892158  0.92967229  1
  O  O24  1  0.22286662  0.24103960  0.08975751  1
  O  O25  1  0.77713338  0.75896040  0.91024249  1
  O  O26  1  0.45807487  0.83034722  0.48114872  1
  O  O27  1  0.54192513  0.16965278  0.51885128  1
  O  O28  1  0.18804517  0.31801265  0.39270067  1
  O  O29  1  0.81195483  0.68198735  0.60729933  1
  O  O30  1  0.12464599  0.71775168  0.40480224  1
  O  O31  1  0.87535401  0.28224832  0.59519776  1
  O  O32  1  0.78463096  0.43737807  0.11463163  1
  O  O33  1  0.21536904  0.56262193  0.88536837  1
  O  O34  1  0.54682488  0.71298875  0.18898406  1
  O  O35  1  0.45317512  0.28701125  0.81101594  1
  O  O36  1  0.49762319  0.41603764  0.23054374  1
  O  O37  1  0.50237681  0.58396236  0.76945626  1
  O  O38  1  0.82952083  0.93733619  0.34196286  1
  O  O39  1  0.17047917  0.06266381  0.65803714  1
  O  O40  1  0.12608402  0.98869313  0.27192938  1
  O  O41  1  0.87391598  0.01130687  0.72807062  1
  O  O42  1  0.03910729  0.74105396  0.18345817  1
  O  O43  1  0.96089271  0.25894604  0.81654183  1
  O  O44  1  0.73578927  0.49401951  0.34264680  1
  O  O45  1  0.26421073  0.50598049  0.65735320  1
