# generated using pymatgen
data_Bi6Mo2O15
_symmetry_space_group_name_H-M   'P 1'
_cell_length_a   5.74567828
_cell_length_b   8.78274080
_cell_length_c   29.43620724
_cell_angle_alpha   98.00511232
_cell_angle_beta   90.00000000
_cell_angle_gamma   90.00000000
_symmetry_Int_Tables_number   1
_chemical_formula_structural   Bi6Mo2O15
_chemical_formula_sum   'Bi24 Mo8 O60'
_cell_volume   1470.95893993
_cell_formula_units_Z   4
loop_
 _symmetry_equiv_pos_site_id
 _symmetry_equiv_pos_as_xyz
  1  'x, y, z'
loop_
 _atom_site_type_symbol
 _atom_site_label
 _atom_site_symmetry_multiplicity
 _atom_site_fract_x
 _atom_site_fract_y
 _atom_site_fract_z
 _atom_site_occupancy
  Bi  Bi0  1  0.27233041  0.57243423  0.60876791  1
  Bi  Bi1  1  0.77233041  0.42756577  0.89123209  1
  Bi  Bi2  1  0.72766959  0.42756577  0.39123209  1
  Bi  Bi3  1  0.22766959  0.57243423  0.10876791  1
  Bi  Bi4  1  0.24546705  0.23495771  0.66706603  1
  Bi  Bi5  1  0.74546705  0.76504229  0.83293397  1
  Bi  Bi6  1  0.75453295  0.76504229  0.33293397  1
  Bi  Bi7  1  0.25453295  0.23495771  0.16706603  1
  Bi  Bi8  1  0.24198241  0.81266826  0.74071802  1
  Bi  Bi9  1  0.74198241  0.18733174  0.75928198  1
  Bi  Bi10  1  0.75801759  0.18733174  0.25928198  1
  Bi  Bi11  1  0.25801759  0.81266826  0.24071802  1
  Bi  Bi12  1  0.18346438  0.46101687  0.79650108  1
  Bi  Bi13  1  0.68346438  0.53898313  0.70349892  1
  Bi  Bi14  1  0.81653562  0.53898313  0.20349892  1
  Bi  Bi15  1  0.31653562  0.46101687  0.29650108  1
  Bi  Bi16  1  0.27151232  0.70904779  0.92259857  1
  Bi  Bi17  1  0.77151232  0.29095221  0.57740143  1
  Bi  Bi18  1  0.72848768  0.29095221  0.07740143  1
  Bi  Bi19  1  0.22848768  0.70904779  0.42259857  1
  Bi  Bi20  1  0.24812243  0.36540903  0.98565820  1
  Bi  Bi21  1  0.74812243  0.63459097  0.51434180  1
  Bi  Bi22  1  0.75187757  0.63459097  0.01434180  1
  Bi  Bi23  1  0.25187757  0.36540903  0.48565820  1
  Mo  Mo24  1  0.26059660  0.96354104  0.54918832  1
  Mo  Mo25  1  0.76059660  0.03645896  0.95081168  1
  Mo  Mo26  1  0.73940340  0.03645896  0.45081168  1
  Mo  Mo27  1  0.23940340  0.96354104  0.04918832  1
  Mo  Mo28  1  0.22266924  0.08695620  0.85347316  1
  Mo  Mo29  1  0.72266924  0.91304380  0.64652684  1
  Mo  Mo30  1  0.77733076  0.91304380  0.14652684  1
  Mo  Mo31  1  0.27733076  0.08695620  0.35347316  1
  O  O32  1  0.51150029  0.34342809  0.72741010  1
  O  O33  1  0.01150029  0.65657191  0.77258990  1
  O  O34  1  0.48849971  0.65657191  0.27258990  1
  O  O35  1  0.98849971  0.34342809  0.22741010  1
  O  O36  1  0.03115967  0.30591825  0.72905324  1
  O  O37  1  0.53115967  0.69408175  0.77094676  1
  O  O38  1  0.96884033  0.69408175  0.27094676  1
  O  O39  1  0.46884033  0.30591825  0.22905324  1
  O  O40  1  0.52204600  0.40585773  0.63468963  1
  O  O41  1  0.02204600  0.59414227  0.86531037  1
  O  O42  1  0.47795400  0.59414227  0.36531037  1
  O  O43  1  0.97795400  0.40585773  0.13468963  1
  O  O44  1  0.03476213  0.39105138  0.63107081  1
  O  O45  1  0.53476213  0.60894862  0.86892919  1
  O  O46  1  0.96523787  0.60894862  0.36892919  1
  O  O47  1  0.46523787  0.39105138  0.13107081  1
  O  O48  1  0.48411328  0.47039927  0.54463264  1
  O  O49  1  0.98411328  0.52960073  0.95536736  1
  O  O50  1  0.51588672  0.52960073  0.45536736  1
  O  O51  1  0.01588672  0.47039927  0.04463264  1
  O  O52  1  0.97646721  0.45854080  0.54197345  1
  O  O53  1  0.47646721  0.54145920  0.95802655  1
  O  O54  1  0.02353279  0.54145920  0.45802655  1
  O  O55  1  0.52353279  0.45854080  0.04197345  1
  O  O56  1  0.06558920  0.83214483  0.57050946  1
  O  O57  1  0.56558920  0.16785517  0.92949054  1
  O  O58  1  0.93441080  0.16785517  0.42949054  1
  O  O59  1  0.43441080  0.83214483  0.07050946  1
  O  O60  1  0.40543854  0.84978668  0.50168830  1
  O  O61  1  0.90543854  0.15021332  0.99831170  1
  O  O62  1  0.59456146  0.15021332  0.49831170  1
  O  O63  1  0.09456146  0.84978668  0.00168830  1
  O  O64  1  0.10233692  0.12981468  0.53538011  1
  O  O65  1  0.60233692  0.87018532  0.96461989  1
  O  O66  1  0.89766308  0.87018532  0.46461989  1
  O  O67  1  0.39766308  0.12981468  0.03538011  1
  O  O68  1  0.46459175  0.03242371  0.59473417  1
  O  O69  1  0.96459175  0.96757629  0.90526583  1
  O  O70  1  0.53540825  0.96757629  0.40526583  1
  O  O71  1  0.03540825  0.03242371  0.09473417  1
  O  O72  1  0.38686331  0.91569980  0.86392701  1
  O  O73  1  0.88686331  0.08430020  0.63607299  1
  O  O74  1  0.61313669  0.08430020  0.13607299  1
  O  O75  1  0.11313669  0.91569980  0.36392701  1
  O  O76  1  0.99242643  0.02547751  0.81289985  1
  O  O77  1  0.49242643  0.97452249  0.68710015  1
  O  O78  1  0.00757357  0.97452249  0.18710015  1
  O  O79  1  0.50757357  0.02547751  0.31289985  1
  O  O80  1  0.41967608  0.17244181  0.81620413  1
  O  O81  1  0.91967608  0.82755819  0.68379587  1
  O  O82  1  0.58032392  0.82755819  0.18379587  1
  O  O83  1  0.08032392  0.17244181  0.31620413  1
  O  O84  1  0.13467147  0.25576554  0.89301462  1
  O  O85  1  0.63467147  0.74423446  0.60698538  1
  O  O86  1  0.86532853  0.74423446  0.10698538  1
  O  O87  1  0.36532853  0.25576554  0.39301462  1
  O  O88  1  0.33677561  0.63252256  0.68863816  1
  O  O89  1  0.83677561  0.36747744  0.81136184  1
  O  O90  1  0.66322439  0.36747744  0.31136184  1
  O  O91  1  0.16322439  0.63252256  0.18863816  1
