# generated using pymatgen
data_Cs2V2H2O7
_symmetry_space_group_name_H-M   'P 1'
_cell_length_a   5.92540236
_cell_length_b   9.06815615
_cell_length_c   18.58356738
_cell_angle_alpha   90.00000000
_cell_angle_beta   90.00000000
_cell_angle_gamma   90.00000000
_symmetry_Int_Tables_number   1
_chemical_formula_structural   Cs2V2H2O7
_chemical_formula_sum   'Cs8 V8 H8 O28'
_cell_volume   998.54104832
_cell_formula_units_Z   4
loop_
 _symmetry_equiv_pos_site_id
 _symmetry_equiv_pos_as_xyz
  1  'x, y, z'
loop_
 _atom_site_type_symbol
 _atom_site_label
 _atom_site_symmetry_multiplicity
 _atom_site_fract_x
 _atom_site_fract_y
 _atom_site_fract_z
 _atom_site_occupancy
  Cs  Cs0  1  0.40402398  0.25000000  0.53582506  1
  Cs  Cs1  1  0.59597602  0.75000000  0.46417494  1
  Cs  Cs2  1  0.40402398  0.75000000  0.96417494  1
  Cs  Cs3  1  0.59597602  0.25000000  0.03582506  1
  Cs  Cs4  1  0.40978754  0.25000000  0.79808031  1
  Cs  Cs5  1  0.59021246  0.75000000  0.20191969  1
  Cs  Cs6  1  0.40978754  0.75000000  0.70191969  1
  Cs  Cs7  1  0.59021246  0.25000000  0.29808031  1
  V  V8  1  0.87922879  0.93978687  0.83872655  1
  V  V9  1  0.12077121  0.43978687  0.16127345  1
  V  V10  1  0.87922879  0.06021313  0.66127345  1
  V  V11  1  0.12077121  0.56021313  0.33872655  1
  V  V12  1  0.12077121  0.06021313  0.16127345  1
  V  V13  1  0.87922879  0.56021313  0.83872655  1
  V  V14  1  0.12077121  0.93978687  0.33872655  1
  V  V15  1  0.87922879  0.43978687  0.66127345  1
  H  H16  1  0.03963096  0.33475712  0.93552691  1
  H  H17  1  0.96036904  0.83475712  0.06447309  1
  H  H18  1  0.03963096  0.66524288  0.56447309  1
  H  H19  1  0.96036904  0.16524288  0.43552691  1
  H  H20  1  0.96036904  0.66524288  0.06447309  1
  H  H21  1  0.03963096  0.16524288  0.93552691  1
  H  H22  1  0.96036904  0.33475712  0.43552691  1
  H  H23  1  0.03963096  0.83475712  0.56447309  1
  O  O24  1  0.77734580  0.75000000  0.84963080  1
  O  O25  1  0.22265420  0.25000000  0.15036920  1
  O  O26  1  0.77734580  0.25000000  0.65036920  1
  O  O27  1  0.22265420  0.75000000  0.34963080  1
  O  O28  1  0.16048220  0.94624685  0.84250813  1
  O  O29  1  0.83951780  0.44624685  0.15749187  1
  O  O30  1  0.16048220  0.05375315  0.65749187  1
  O  O31  1  0.83951780  0.55375315  0.34250813  1
  O  O32  1  0.83951780  0.05375315  0.15749187  1
  O  O33  1  0.16048220  0.55375315  0.84250813  1
  O  O34  1  0.83951780  0.94624685  0.34250813  1
  O  O35  1  0.16048220  0.44624685  0.65749187  1
  O  O36  1  0.78063310  -0.00000000  0.75000000  1
  O  O37  1  0.21936690  0.50000000  0.25000000  1
  O  O38  1  0.21936690  -0.00000000  0.25000000  1
  O  O39  1  0.78063310  0.50000000  0.75000000  1
  O  O40  1  0.77019261  0.05014583  0.90283355  1
  O  O41  1  0.22980739  0.55014583  0.09716645  1
  O  O42  1  0.77019261  0.94985417  0.59716645  1
  O  O43  1  0.22980739  0.44985417  0.40283355  1
  O  O44  1  0.22980739  0.94985417  0.09716645  1
  O  O45  1  0.77019261  0.44985417  0.90283355  1
  O  O46  1  0.22980739  0.05014583  0.40283355  1
  O  O47  1  0.77019261  0.55014583  0.59716645  1
  O  O48  1  0.13371647  0.25000000  0.94953440  1
  O  O49  1  0.86628353  0.75000000  0.05046560  1
  O  O50  1  0.13371647  0.75000000  0.55046560  1
  O  O51  1  0.86628353  0.25000000  0.44953440  1
