# generated using pymatgen
data_Cd12Ge17(B4O29)2
_symmetry_space_group_name_H-M   'P 1'
_cell_length_a   4.77104474
_cell_length_b   15.15850855
_cell_length_c   15.15850855
_cell_angle_alpha   90.00000000
_cell_angle_beta   90.00000000
_cell_angle_gamma   90.00000000
_symmetry_Int_Tables_number   1
_chemical_formula_structural   Cd12Ge17(B4O29)2
_chemical_formula_sum   'Cd12 Ge17 B8 O58'
_cell_volume   1096.29248032
_cell_formula_units_Z   1
loop_
 _symmetry_equiv_pos_site_id
 _symmetry_equiv_pos_as_xyz
  1  'x, y, z'
loop_
 _atom_site_type_symbol
 _atom_site_label
 _atom_site_symmetry_multiplicity
 _atom_site_fract_x
 _atom_site_fract_y
 _atom_site_fract_z
 _atom_site_occupancy
  Cd  Cd0  1  0.48984158  0.85364820  0.10627319  1
  Cd  Cd1  1  0.48984158  0.14635180  0.89372681  1
  Cd  Cd2  1  0.51015842  0.89372681  0.85364820  1
  Cd  Cd3  1  0.51015842  0.10627319  0.14635180  1
  Cd  Cd4  1  0.49739417  0.63838072  0.24590277  1
  Cd  Cd5  1  0.49739417  0.36161928  0.75409723  1
  Cd  Cd6  1  0.50260583  0.75409723  0.63838072  1
  Cd  Cd7  1  0.50260583  0.24590277  0.36161928  1
  Cd  Cd8  1  0.48433087  0.67486644  0.98930539  1
  Cd  Cd9  1  0.48433087  0.32513356  0.01069461  1
  Cd  Cd10  1  0.51566913  0.01069461  0.67486644  1
  Cd  Cd11  1  0.51566913  0.98930539  0.32513356  1
  Ge  Ge12  1  0.00000000  0.00000000  0.00000000  1
  Ge  Ge13  1  0.99960974  0.51355631  0.10445962  1
  Ge  Ge14  1  0.99960974  0.48644369  0.89554038  1
  Ge  Ge15  1  0.00039026  0.89554038  0.51355631  1
  Ge  Ge16  1  0.00039026  0.10445962  0.48644369  1
  Ge  Ge17  1  0.00052438  0.28255281  0.19194905  1
  Ge  Ge18  1  0.00052438  0.71744719  0.80805095  1
  Ge  Ge19  1  0.99947562  0.80805095  0.28255281  1
  Ge  Ge20  1  0.99947562  0.19194905  0.71744719  1
  Ge  Ge21  1  0.99267280  0.46258482  0.35534069  1
  Ge  Ge22  1  0.99267280  0.53741518  0.64465931  1
  Ge  Ge23  1  0.00732720  0.64465931  0.46258482  1
  Ge  Ge24  1  0.00732720  0.35534069  0.53741518  1
  Ge  Ge25  1  0.49833628  0.42245938  0.21688610  1
  Ge  Ge26  1  0.49833628  0.57754062  0.78311390  1
  Ge  Ge27  1  0.50166372  0.78311390  0.42245938  1
  Ge  Ge28  1  0.50166372  0.21688610  0.57754062  1
  B  B29  1  0.97365779  0.70729644  0.11803381  1
  B  B30  1  0.97365779  0.29270356  0.88196619  1
  B  B31  1  0.02634221  0.88196619  0.70729644  1
  B  B32  1  0.02634221  0.11803381  0.29270356  1
  B  B33  1  0.96167904  0.18507047  0.02741534  1
  B  B34  1  0.96167904  0.81492953  0.97258466  1
  B  B35  1  0.03832096  0.97258466  0.18507047  1
  B  B36  1  0.03832096  0.02741534  0.81492953  1
  O  O37  1  0.84907450  0.76541585  0.04968852  1
  O  O38  1  0.84907450  0.23458415  0.95031148  1
  O  O39  1  0.15092550  0.95031148  0.76541585  1
  O  O40  1  0.15092550  0.04968852  0.23458415  1
  O  O41  1  0.74484519  0.96593507  0.17843961  1
  O  O42  1  0.74484519  0.03406493  0.82156039  1
  O  O43  1  0.25515481  0.82156039  0.96593507  1
  O  O44  1  0.25515481  0.17843961  0.03406493  1
  O  O45  1  0.72742744  0.50310073  0.28156679  1
  O  O46  1  0.72742744  0.49689927  0.71843321  1
  O  O47  1  0.27257256  0.71843321  0.50310073  1
  O  O48  1  0.27257256  0.28156679  0.49689927  1
  O  O49  1  0.26583653  0.34892825  0.14306769  1
  O  O50  1  0.26583653  0.65107175  0.85693231  1
  O  O51  1  0.73416347  0.85693231  0.34892825  1
  O  O52  1  0.73416347  0.14306769  0.65107175  1
  O  O53  1  0.26812030  0.51961033  0.18595706  1
  O  O54  1  0.26812030  0.48038967  0.81404294  1
  O  O55  1  0.73187970  0.81404294  0.51961033  1
  O  O56  1  0.73187970  0.18595706  0.48038967  1
  O  O57  1  0.72789383  0.32866609  0.25714684  1
  O  O58  1  0.72789383  0.67133391  0.74285316  1
  O  O59  1  0.27210617  0.74285316  0.32866609  1
  O  O60  1  0.27210617  0.25714684  0.67133391  1
  O  O61  1  0.81662990  0.22656625  0.10707944  1
  O  O62  1  0.81662990  0.77343375  0.89292056  1
  O  O63  1  0.18337010  0.89292056  0.22656625  1
  O  O64  1  0.18337010  0.10707944  0.77343375  1
  O  O65  1  0.17651075  0.50000000  0.00000000  1
  O  O66  1  0.82348925  0.00000000  0.50000000  1
  O  O67  1  0.83071988  0.61793857  0.10232802  1
  O  O68  1  0.83071988  0.38206143  0.89767198  1
  O  O69  1  0.16928012  0.89767198  0.61793857  1
  O  O70  1  0.16928012  0.10232802  0.38206143  1
  O  O71  1  0.79960118  0.09563806  0.02128228  1
  O  O72  1  0.79960118  0.90436194  0.97871772  1
  O  O73  1  0.20039882  0.97871772  0.09563806  1
  O  O74  1  0.20039882  0.02128228  0.90436194  1
  O  O75  1  0.27104441  0.70606043  0.12121208  1
  O  O76  1  0.27104441  0.29393957  0.87878792  1
  O  O77  1  0.72895559  0.87878792  0.70606043  1
  O  O78  1  0.72895559  0.12121208  0.29393957  1
  O  O79  1  0.16311930  0.55835312  0.39891444  1
  O  O80  1  0.16311930  0.44164688  0.60108556  1
  O  O81  1  0.83688070  0.60108556  0.55835312  1
  O  O82  1  0.83688070  0.39891444  0.44164688  1
  O  O83  1  0.26243034  0.39395030  0.31307594  1
  O  O84  1  0.26243034  0.60604970  0.68692406  1
  O  O85  1  0.73756966  0.68692406  0.39395030  1
  O  O86  1  0.73756966  0.31307594  0.60604970  1
  O  O87  1  0.16396777  0.20455167  0.26258255  1
  O  O88  1  0.16396777  0.79544833  0.73741745  1
  O  O89  1  0.83603223  0.73741745  0.20455167  1
  O  O90  1  0.83603223  0.26258255  0.79544833  1
  O  O91  1  0.73091035  0.43257746  0.11281527  1
  O  O92  1  0.73091035  0.56742254  0.88718473  1
  O  O93  1  0.26908965  0.88718473  0.43257746  1
  O  O94  1  0.26908965  0.11281527  0.56742254  1
