# generated using pymatgen
data_Al2Bi7Ru(BrCl4)2
_symmetry_space_group_name_H-M   'P 1'
_cell_length_a   11.90142126
_cell_length_b   14.76375283
_cell_length_c   15.47270045
_cell_angle_alpha   90.00000000
_cell_angle_beta   97.92880343
_cell_angle_gamma   90.00000000
_symmetry_Int_Tables_number   1
_chemical_formula_structural   Al2Bi7Ru(BrCl4)2
_chemical_formula_sum   'Al8 Bi28 Ru4 Br8 Cl32'
_cell_volume   2692.71251572
_cell_formula_units_Z   4
loop_
 _symmetry_equiv_pos_site_id
 _symmetry_equiv_pos_as_xyz
  1  'x, y, z'
loop_
 _atom_site_type_symbol
 _atom_site_label
 _atom_site_symmetry_multiplicity
 _atom_site_fract_x
 _atom_site_fract_y
 _atom_site_fract_z
 _atom_site_occupancy
  Al  Al0  1  0.94693231  0.18868520  0.41651224  1
  Al  Al1  1  0.44693231  0.31131480  0.91651224  1
  Al  Al2  1  0.05306769  0.81131480  0.58348776  1
  Al  Al3  1  0.55306769  0.68868520  0.08348776  1
  Al  Al4  1  0.00281378  0.53265972  0.80554961  1
  Al  Al5  1  0.50281378  0.96734028  0.30554961  1
  Al  Al6  1  0.99718622  0.46734028  0.19445039  1
  Al  Al7  1  0.49718622  0.03265972  0.69445039  1
  Bi  Bi8  1  0.98480325  0.13389132  0.08977599  1
  Bi  Bi9  1  0.48480325  0.36610868  0.58977599  1
  Bi  Bi10  1  0.01519675  0.86610868  0.91022401  1
  Bi  Bi11  1  0.51519675  0.63389132  0.41022401  1
  Bi  Bi12  1  0.20527892  0.00501811  0.03557184  1
  Bi  Bi13  1  0.70527892  0.49498189  0.53557184  1
  Bi  Bi14  1  0.79472108  0.99498189  0.96442816  1
  Bi  Bi15  1  0.29472108  0.50501811  0.46442816  1
  Bi  Bi16  1  0.10115259  0.95987064  0.25293312  1
  Bi  Bi17  1  0.60115259  0.54012936  0.75293312  1
  Bi  Bi18  1  0.89884741  0.04012936  0.74706688  1
  Bi  Bi19  1  0.39884741  0.45987064  0.24706688  1
  Bi  Bi20  1  0.13108783  0.78820607  0.14329678  1
  Bi  Bi21  1  0.63108783  0.71179393  0.64329678  1
  Bi  Bi22  1  0.86891217  0.21179393  0.85670322  1
  Bi  Bi23  1  0.36891217  0.28820607  0.35670322  1
  Bi  Bi24  1  0.87083477  0.77746985  0.09367646  1
  Bi  Bi25  1  0.37083477  0.72253015  0.59367646  1
  Bi  Bi26  1  0.12916523  0.22253015  0.90632354  1
  Bi  Bi27  1  0.62916523  0.27746985  0.40632354  1
  Bi  Bi28  1  0.84016550  0.94420013  0.20783810  1
  Bi  Bi29  1  0.34016550  0.55579987  0.70783810  1
  Bi  Bi30  1  0.15983450  0.05579987  0.79216190  1
  Bi  Bi31  1  0.65983450  0.44420013  0.29216190  1
  Bi  Bi32  1  0.97836460  0.77530331  0.29405260  1
  Bi  Bi33  1  0.47836460  0.72469669  0.79405260  1
  Bi  Bi34  1  0.02163540  0.22469669  0.70594740  1
  Bi  Bi35  1  0.52163540  0.27530331  0.20594740  1
  Ru  Ru36  1  0.99344300  0.94328132  0.07506671  1
  Ru  Ru37  1  0.49344300  0.55671868  0.57506671  1
  Ru  Ru38  1  0.00655700  0.05671868  0.92493329  1
  Ru  Ru39  1  0.50655700  0.44328132  0.42493329  1
  Br  Br40  1  0.23288057  0.16378330  0.15087090  1
  Br  Br41  1  0.73288057  0.33621670  0.65087090  1
  Br  Br42  1  0.76711943  0.83621670  0.84912910  1
  Br  Br43  1  0.26711943  0.66378330  0.34912910  1
  Br  Br44  1  0.25775433  0.83749194  0.94602030  1
  Br  Br45  1  0.75775433  0.66250806  0.44602030  1
  Br  Br46  1  0.74224567  0.16250806  0.05397970  1
  Br  Br47  1  0.24224567  0.33749194  0.55397970  1
  Cl  Cl48  1  0.84532665  0.16650080  0.29061411  1
  Cl  Cl49  1  0.34532665  0.33349920  0.79061411  1
  Cl  Cl50  1  0.15467335  0.83349920  0.70938589  1
  Cl  Cl51  1  0.65467335  0.66650080  0.20938589  1
  Cl  Cl52  1  0.93099384  0.32943283  0.45136003  1
  Cl  Cl53  1  0.43099384  0.17056717  0.95136003  1
  Cl  Cl54  1  0.06900616  0.67056717  0.54863997  1
  Cl  Cl55  1  0.56900616  0.82943283  0.04863997  1
  Cl  Cl56  1  0.87394753  0.11065959  0.51305142  1
  Cl  Cl57  1  0.37394753  0.38934041  0.01305142  1
  Cl  Cl58  1  0.12605247  0.88934041  0.48694858  1
  Cl  Cl59  1  0.62605247  0.61065959  0.98694858  1
  Cl  Cl60  1  0.11666444  0.14551920  0.40796064  1
  Cl  Cl61  1  0.61666444  0.35448080  0.90796064  1
  Cl  Cl62  1  0.88333556  0.85448080  0.59203936  1
  Cl  Cl63  1  0.38333556  0.64551920  0.09203936  1
  Cl  Cl64  1  0.14891238  0.59835801  0.87484534  1
  Cl  Cl65  1  0.64891238  0.90164199  0.37484534  1
  Cl  Cl66  1  0.85108762  0.40164199  0.12515466  1
  Cl  Cl67  1  0.35108762  0.09835801  0.62515466  1
  Cl  Cl68  1  0.88699827  0.63458832  0.74391538  1
  Cl  Cl69  1  0.38699827  0.86541168  0.24391538  1
  Cl  Cl70  1  0.11300173  0.36541168  0.25608462  1
  Cl  Cl71  1  0.61300173  0.13458832  0.75608462  1
  Cl  Cl72  1  0.91509386  0.45030779  0.88921623  1
  Cl  Cl73  1  0.41509386  0.04969221  0.38921623  1
  Cl  Cl74  1  0.08490614  0.54969221  0.11078377  1
  Cl  Cl75  1  0.58490614  0.95030779  0.61078377  1
  Cl  Cl76  1  0.05472981  0.44970697  0.70217298  1
  Cl  Cl77  1  0.55472981  0.05029303  0.20217298  1
  Cl  Cl78  1  0.94527019  0.55029303  0.29782702  1
  Cl  Cl79  1  0.44527019  0.94970697  0.79782702  1
