# generated using pymatgen
data_CsVSO6
_symmetry_space_group_name_H-M   'P 1'
_cell_length_a   6.66243194
_cell_length_b   10.74227033
_cell_length_c   17.97035636
_cell_angle_alpha   90.00000000
_cell_angle_beta   90.00000000
_cell_angle_gamma   90.00000000
_symmetry_Int_Tables_number   1
_chemical_formula_structural   CsVSO6
_chemical_formula_sum   'Cs8 V8 S8 O48'
_cell_volume   1286.13202439
_cell_formula_units_Z   8
loop_
 _symmetry_equiv_pos_site_id
 _symmetry_equiv_pos_as_xyz
  1  'x, y, z'
loop_
 _atom_site_type_symbol
 _atom_site_label
 _atom_site_symmetry_multiplicity
 _atom_site_fract_x
 _atom_site_fract_y
 _atom_site_fract_z
 _atom_site_occupancy
  Cs  Cs0  1  0.74941458  0.47661384  0.41161681  1
  Cs  Cs1  1  0.24941458  0.02338616  0.58838319  1
  Cs  Cs2  1  0.25058542  0.97661384  0.08838319  1
  Cs  Cs3  1  0.75058542  0.52338616  0.91161681  1
  Cs  Cs4  1  0.25058542  0.52338616  0.58838319  1
  Cs  Cs5  1  0.75058542  0.97661384  0.41161681  1
  Cs  Cs6  1  0.74941458  0.02338616  0.91161681  1
  Cs  Cs7  1  0.24941458  0.47661384  0.08838319  1
  V  V8  1  0.50608404  0.22399289  0.24774589  1
  V  V9  1  0.00608404  0.27600711  0.75225411  1
  V  V10  1  0.49391596  0.72399289  0.25225411  1
  V  V11  1  0.99391596  0.77600711  0.74774589  1
  V  V12  1  0.49391596  0.77600711  0.75225411  1
  V  V13  1  0.99391596  0.72399289  0.24774589  1
  V  V14  1  0.50608404  0.27600711  0.74774589  1
  V  V15  1  0.00608404  0.22399289  0.25225411  1
  S  S16  1  0.76234041  0.27960584  0.59752437  1
  S  S17  1  0.26234041  0.22039416  0.40247563  1
  S  S18  1  0.23765959  0.77960584  0.90247563  1
  S  S19  1  0.73765959  0.72039416  0.09752437  1
  S  S20  1  0.23765959  0.72039416  0.40247563  1
  S  S21  1  0.73765959  0.77960584  0.59752437  1
  S  S22  1  0.76234041  0.22039416  0.09752437  1
  S  S23  1  0.26234041  0.27960584  0.90247563  1
  O  O24  1  0.76963323  0.20645792  0.52968837  1
  O  O25  1  0.26963323  0.29354208  0.47031163  1
  O  O26  1  0.23036677  0.70645792  0.97031163  1
  O  O27  1  0.73036677  0.79354208  0.02968837  1
  O  O28  1  0.23036677  0.79354208  0.47031163  1
  O  O29  1  0.73036677  0.70645792  0.52968837  1
  O  O30  1  0.76963323  0.29354208  0.02968837  1
  O  O31  1  0.26963323  0.20645792  0.97031163  1
  O  O32  1  0.75714018  0.41425226  0.58708078  1
  O  O33  1  0.25714018  0.08574774  0.41291922  1
  O  O34  1  0.24285982  0.91425226  0.91291922  1
  O  O35  1  0.74285982  0.58574774  0.08708078  1
  O  O36  1  0.24285982  0.58574774  0.41291922  1
  O  O37  1  0.74285982  0.91425226  0.58708078  1
  O  O38  1  0.75714018  0.08574774  0.08708078  1
  O  O39  1  0.25714018  0.41425226  0.91291922  1
  O  O40  1  0.25812312  0.28304106  0.22754880  1
  O  O41  1  0.75812312  0.21695894  0.77245120  1
  O  O42  1  0.74187688  0.78304106  0.27245120  1
  O  O43  1  0.24187688  0.71695894  0.72754880  1
  O  O44  1  0.74187688  0.71695894  0.77245120  1
  O  O45  1  0.24187688  0.78304106  0.22754880  1
  O  O46  1  0.25812312  0.21695894  0.72754880  1
  O  O47  1  0.75812312  0.28304106  0.27245120  1
  O  O48  1  0.57680877  0.23842727  0.64277459  1
  O  O49  1  0.07680877  0.26157273  0.35722541  1
  O  O50  1  0.42319123  0.73842727  0.85722541  1
  O  O51  1  0.92319123  0.76157273  0.14277459  1
  O  O52  1  0.42319123  0.76157273  0.35722541  1
  O  O53  1  0.92319123  0.73842727  0.64277459  1
  O  O54  1  0.57680877  0.26157273  0.14277459  1
  O  O55  1  0.07680877  0.23842727  0.85722541  1
  O  O56  1  0.94643552  0.24461314  0.64509818  1
  O  O57  1  0.44643552  0.25538686  0.35490182  1
  O  O58  1  0.05356448  0.74461314  0.85490182  1
  O  O59  1  0.55356448  0.75538686  0.14509818  1
  O  O60  1  0.05356448  0.75538686  0.35490182  1
  O  O61  1  0.55356448  0.74461314  0.64509818  1
  O  O62  1  0.94643552  0.25538686  0.14509818  1
  O  O63  1  0.44643552  0.24461314  0.85490182  1
  O  O64  1  0.50268464  0.07328689  0.24573372  1
  O  O65  1  0.00268464  0.42671311  0.75426628  1
  O  O66  1  0.49731536  0.57328689  0.25426628  1
  O  O67  1  0.99731536  0.92671311  0.74573372  1
  O  O68  1  0.49731536  0.92671311  0.75426628  1
  O  O69  1  0.99731536  0.57328689  0.24573372  1
  O  O70  1  0.50268464  0.42671311  0.74573372  1
  O  O71  1  0.00268464  0.07328689  0.25426628  1
