# generated using pymatgen
data_Zr3Tl2(CuSe4)2
_symmetry_space_group_name_H-M   'P 1'
_cell_length_a   3.85858805
_cell_length_b   7.68915954
_cell_length_c   13.44483849
_cell_angle_alpha   82.03643693
_cell_angle_beta   81.74974636
_cell_angle_gamma   75.46857822
_symmetry_Int_Tables_number   1
_chemical_formula_structural   Zr3Tl2(CuSe4)2
_chemical_formula_sum   'Zr3 Tl2 Cu2 Se8'
_cell_volume   379.94669526
_cell_formula_units_Z   1
loop_
 _symmetry_equiv_pos_site_id
 _symmetry_equiv_pos_as_xyz
  1  'x, y, z'
loop_
 _atom_site_type_symbol
 _atom_site_label
 _atom_site_symmetry_multiplicity
 _atom_site_fract_x
 _atom_site_fract_y
 _atom_site_fract_z
 _atom_site_occupancy
  Zr  Zr0  1  -0.00000000  0.00000000  -0.00000000  1
  Zr  Zr1  1  0.84550874  0.92874588  0.38023663  1
  Zr  Zr2  1  0.15449126  0.07125412  0.61976337  1
  Tl  Tl3  1  0.83159827  0.53524663  0.80155683  1
  Tl  Tl4  1  0.16840173  0.46475337  0.19844317  1
  Cu  Cu5  1  0.45728656  0.88747205  0.19795482  1
  Cu  Cu6  1  0.54271344  0.11252795  0.80204518  1
  Se  Se7  1  0.85509744  0.09909525  0.19070988  1
  Se  Se8  1  0.14490256  0.90090475  0.80929012  1
  Se  Se9  1  0.79626442  0.82598850  0.58148266  1
  Se  Se10  1  0.20373558  0.17401150  0.41851734  1
  Se  Se11  1  0.48290560  0.68130121  0.35288758  1
  Se  Se12  1  0.51709440  0.31869879  0.64711242  1
  Se  Se13  1  0.60734537  0.74319843  0.04211083  1
  Se  Se14  1  0.39265463  0.25680157  0.95788917  1
