# generated using pymatgen
data_Y3(GeRh)2
_symmetry_space_group_name_H-M   'P 1'
_cell_length_a   5.61528143
_cell_length_b   7.88416874
_cell_length_c   13.23786171
_cell_angle_alpha   90.00000000
_cell_angle_beta   90.00000000
_cell_angle_gamma   90.00000000
_symmetry_Int_Tables_number   1
_chemical_formula_structural   Y3(GeRh)2
_chemical_formula_sum   'Y12 Ge8 Rh8'
_cell_volume   586.06431443
_cell_formula_units_Z   4
loop_
 _symmetry_equiv_pos_site_id
 _symmetry_equiv_pos_as_xyz
  1  'x, y, z'
loop_
 _atom_site_type_symbol
 _atom_site_label
 _atom_site_symmetry_multiplicity
 _atom_site_fract_x
 _atom_site_fract_y
 _atom_site_fract_z
 _atom_site_occupancy
  Y  Y0  1  0.63149677  0.25189232  0.25000000  1
  Y  Y1  1  0.36850323  0.74810768  0.75000000  1
  Y  Y2  1  0.36850323  0.75189232  0.25000000  1
  Y  Y3  1  0.63149677  0.24810768  0.75000000  1
  Y  Y4  1  0.14452079  0.39339254  0.10124024  1
  Y  Y5  1  0.85547921  0.60660746  0.89875976  1
  Y  Y6  1  0.85547921  0.60660746  0.60124024  1
  Y  Y7  1  0.85547921  0.89339254  0.39875976  1
  Y  Y8  1  0.14452079  0.39339254  0.39875976  1
  Y  Y9  1  0.14452079  0.10660746  0.60124024  1
  Y  Y10  1  0.14452079  0.10660746  0.89875976  1
  Y  Y11  1  0.85547921  0.89339254  0.10124024  1
  Ge  Ge12  1  0.13140242  0.10752236  0.25000000  1
  Ge  Ge13  1  0.86859758  0.89247764  0.75000000  1
  Ge  Ge14  1  0.86859758  0.60752236  0.25000000  1
  Ge  Ge15  1  0.13140242  0.39247764  0.75000000  1
  Ge  Ge16  1  0.65432846  0.25000000  0.00000000  1
  Ge  Ge17  1  0.34567154  0.75000000  0.00000000  1
  Ge  Ge18  1  0.34567154  0.75000000  0.50000000  1
  Ge  Ge19  1  0.65432846  0.25000000  0.50000000  1
  Rh  Rh20  1  0.37358735  0.03795532  0.09324624  1
  Rh  Rh21  1  0.62641265  0.96204468  0.90675376  1
  Rh  Rh22  1  0.62641265  0.96204468  0.59324624  1
  Rh  Rh23  1  0.62641265  0.53795532  0.40675376  1
  Rh  Rh24  1  0.37358735  0.03795532  0.40675376  1
  Rh  Rh25  1  0.37358735  0.46204468  0.59324624  1
  Rh  Rh26  1  0.37358735  0.46204468  0.90675376  1
  Rh  Rh27  1  0.62641265  0.53795532  0.09324624  1
