# generated using pymatgen
data_Zr5CdSb2
_symmetry_space_group_name_H-M   'P 1'
_cell_length_a   5.62159564
_cell_length_b   8.45431865
_cell_length_c   8.45431865
_cell_angle_alpha   83.65380943
_cell_angle_beta   70.58130222
_cell_angle_gamma   70.58130222
_symmetry_Int_Tables_number   1
_chemical_formula_structural   Zr5CdSb2
_chemical_formula_sum   'Zr10 Cd2 Sb4'
_cell_volume   357.39247725
_cell_formula_units_Z   2
loop_
 _symmetry_equiv_pos_site_id
 _symmetry_equiv_pos_as_xyz
  1  'x, y, z'
loop_
 _atom_site_type_symbol
 _atom_site_label
 _atom_site_symmetry_multiplicity
 _atom_site_fract_x
 _atom_site_fract_y
 _atom_site_fract_z
 _atom_site_occupancy
  Zr  Zr0  1  0.25000000  0.50000000  0.50000000  1
  Zr  Zr1  1  0.75000000  0.50000000  0.50000000  1
  Zr  Zr2  1  0.07793003  0.14681811  0.69732183  1
  Zr  Zr3  1  0.92206997  0.85318189  0.30267817  1
  Zr  Zr4  1  0.77525186  0.30267817  0.14681811  1
  Zr  Zr5  1  0.42206997  0.30267817  0.85318189  1
  Zr  Zr6  1  0.22474814  0.69732183  0.85318189  1
  Zr  Zr7  1  0.57793003  0.69732183  0.14681811  1
  Zr  Zr8  1  0.72474814  0.85318189  0.69732183  1
  Zr  Zr9  1  0.27525186  0.14681811  0.30267817  1
  Cd  Cd10  1  0.25000000  -0.00000000  0.00000000  1
  Cd  Cd11  1  0.75000000  -0.00000000  0.00000000  1
  Sb  Sb12  1  0.16386513  0.50000000  0.17226975  1
  Sb  Sb13  1  0.83613487  0.50000000  0.82773025  1
  Sb  Sb14  1  0.33613487  0.82773025  0.50000000  1
  Sb  Sb15  1  0.66386513  0.17226975  0.50000000  1
