# generated using pymatgen
data_NaCdH3(CO2)3
_symmetry_space_group_name_H-M   'P 1'
_cell_length_a   6.54026180
_cell_length_b   7.37633476
_cell_length_c   14.37064197
_cell_angle_alpha   90.00000000
_cell_angle_beta   90.00000000
_cell_angle_gamma   90.00000000
_symmetry_Int_Tables_number   1
_chemical_formula_structural   NaCdH3(CO2)3
_chemical_formula_sum   'Na4 Cd4 H12 C12 O24'
_cell_volume   693.28518640
_cell_formula_units_Z   4
loop_
 _symmetry_equiv_pos_site_id
 _symmetry_equiv_pos_as_xyz
  1  'x, y, z'
loop_
 _atom_site_type_symbol
 _atom_site_label
 _atom_site_symmetry_multiplicity
 _atom_site_fract_x
 _atom_site_fract_y
 _atom_site_fract_z
 _atom_site_occupancy
  Na  Na0  1  0.75000000  0.50000000  0.27899799  1
  Na  Na1  1  0.25000000  0.50000000  0.22100201  1
  Na  Na2  1  0.75000000  0.50000000  0.77899799  1
  Na  Na3  1  0.25000000  0.50000000  0.72100201  1
  Cd  Cd4  1  0.75000000  0.00000000  0.42842839  1
  Cd  Cd5  1  0.25000000  0.00000000  0.57157161  1
  Cd  Cd6  1  0.75000000  0.00000000  0.92842839  1
  Cd  Cd7  1  0.25000000  0.00000000  0.07157161  1
  H  H8  1  0.00000000  0.95083157  0.75000000  1
  H  H9  1  0.00000000  0.04916843  0.25000000  1
  H  H10  1  0.29199023  0.33190049  0.43023292  1
  H  H11  1  0.50000000  0.95083157  0.25000000  1
  H  H12  1  0.20800977  0.66809951  0.43023292  1
  H  H13  1  0.79199023  0.33190049  0.56976708  1
  H  H14  1  0.70800977  0.66809951  0.56976708  1
  H  H15  1  0.50000000  0.04916843  0.75000000  1
  H  H16  1  0.79199023  0.66809951  0.06976708  1
  H  H17  1  0.29199023  0.66809951  0.93023292  1
  H  H18  1  0.20800977  0.33190049  0.93023292  1
  H  H19  1  0.70800977  0.33190049  0.06976708  1
  C  C20  1  0.63187048  0.70460061  0.08701154  1
  C  C21  1  0.00000000  0.10131393  0.75000000  1
  C  C22  1  0.86812952  0.29539939  0.08701154  1
  C  C23  1  0.50000000  0.89868607  0.75000000  1
  C  C24  1  0.50000000  0.10131393  0.25000000  1
  C  C25  1  0.63187048  0.29539939  0.58701154  1
  C  C26  1  0.00000000  0.89868607  0.25000000  1
  C  C27  1  0.36812952  0.29539939  0.91298846  1
  C  C28  1  0.86812952  0.70460061  0.58701154  1
  C  C29  1  0.36812952  0.70460061  0.41298846  1
  C  C30  1  0.13187048  0.29539939  0.41298846  1
  C  C31  1  0.13187048  0.70460061  0.91298846  1
  O  O32  1  0.46147517  0.38567426  0.85316683  1
  O  O33  1  0.44082026  0.15792666  0.95781324  1
  O  O34  1  0.60615117  0.18216709  0.31145551  1
  O  O35  1  0.05917974  0.15792666  0.45781324  1
  O  O36  1  0.03852483  0.61432574  0.85316683  1
  O  O37  1  0.94082026  0.84207334  0.54218676  1
  O  O38  1  0.44082026  0.84207334  0.45781324  1
  O  O39  1  0.60615117  0.81783291  0.81145551  1
  O  O40  1  0.89384883  0.18216709  0.81145551  1
  O  O41  1  0.55917974  0.84207334  0.04218676  1
  O  O42  1  0.39384883  0.81783291  0.68854449  1
  O  O43  1  0.96147517  0.61432574  0.64683317  1
  O  O44  1  0.96147517  0.38567426  0.14683317  1
  O  O45  1  0.10615117  0.81783291  0.18854449  1
  O  O46  1  0.53852483  0.38567426  0.64683317  1
  O  O47  1  0.10615117  0.18216709  0.68854449  1
  O  O48  1  0.39384883  0.18216709  0.18854449  1
  O  O49  1  0.55917974  0.15792666  0.54218676  1
  O  O50  1  0.05917974  0.84207334  0.95781324  1
  O  O51  1  0.53852483  0.61432574  0.14683317  1
  O  O52  1  0.89384883  0.81783291  0.31145551  1
  O  O53  1  0.94082026  0.15792666  0.04218676  1
  O  O54  1  0.03852483  0.38567426  0.35316683  1
  O  O55  1  0.46147517  0.61432574  0.35316683  1
