# generated using pymatgen
data_V5B6
_symmetry_space_group_name_H-M   'P 1'
_cell_length_a   2.98061627
_cell_length_b   3.04588689
_cell_length_c   10.72462972
_cell_angle_alpha   90.00000000
_cell_angle_beta   97.98774374
_cell_angle_gamma   90.00000000
_symmetry_Int_Tables_number   1
_chemical_formula_structural   V5B6
_chemical_formula_sum   'V5 B6'
_cell_volume   96.42018662
_cell_formula_units_Z   1
loop_
 _symmetry_equiv_pos_site_id
 _symmetry_equiv_pos_as_xyz
  1  'x, y, z'
loop_
 _atom_site_type_symbol
 _atom_site_label
 _atom_site_symmetry_multiplicity
 _atom_site_fract_x
 _atom_site_fract_y
 _atom_site_fract_z
 _atom_site_occupancy
  V  V0  1  0.80570875  0.50000000  0.61141750  1
  V  V1  1  0.19429125  0.50000000  0.38858250  1
  V  V2  1  0.61655729  0.00000000  0.23311459  1
  V  V3  1  0.38344271  -0.00000000  0.76688541  1
  V  V4  1  0.00000000  0.00000000  0.00000000  1
  B  B5  1  0.91528844  0.50000000  0.83057688  1
  B  B6  1  0.08471156  0.50000000  0.16942312  1
  B  B7  1  0.54083239  0.50000000  0.08166478  1
  B  B8  1  0.45916761  0.50000000  0.91833522  1
  B  B9  1  0.72629469  -0.00000000  0.45258938  1
  B  B10  1  0.27370531  -0.00000000  0.54741062  1
