# generated using pymatgen
data_Tm5BiPt2
_symmetry_space_group_name_H-M   'P 1'
_cell_length_a   7.66815031
_cell_length_b   7.66815031
_cell_length_c   8.81212455
_cell_angle_alpha   115.79107782
_cell_angle_beta   115.79107782
_cell_angle_gamma   90.00000000
_symmetry_Int_Tables_number   1
_chemical_formula_structural   Tm5BiPt2
_chemical_formula_sum   'Tm10 Bi2 Pt4'
_cell_volume   408.45538808
_cell_formula_units_Z   2
loop_
 _symmetry_equiv_pos_site_id
 _symmetry_equiv_pos_as_xyz
  1  'x, y, z'
loop_
 _atom_site_type_symbol
 _atom_site_label
 _atom_site_symmetry_multiplicity
 _atom_site_fract_x
 _atom_site_fract_y
 _atom_site_fract_z
 _atom_site_occupancy
  Tm  Tm0  1  -0.00000000  -0.00000000  -0.00000000  1
  Tm  Tm1  1  0.50000000  0.50000000  -0.00000000  1
  Tm  Tm2  1  0.29210489  0.79210489  0.27016582  1
  Tm  Tm3  1  0.70789511  0.20789511  0.72983418  1
  Tm  Tm4  1  0.97806093  0.47806093  0.27016582  1
  Tm  Tm5  1  0.47806093  0.29210489  0.27016582  1
  Tm  Tm6  1  0.20789511  0.02193907  0.72983418  1
  Tm  Tm7  1  0.02193907  0.52193907  0.72983418  1
  Tm  Tm8  1  0.52193907  0.70789511  0.72983418  1
  Tm  Tm9  1  0.79210489  0.97806093  0.27016582  1
  Bi  Bi10  1  0.25000000  0.25000000  0.50000000  1
  Bi  Bi11  1  0.75000000  0.75000000  0.50000000  1
  Pt  Pt12  1  0.63857618  0.13857618  -0.00000000  1
  Pt  Pt13  1  0.36142382  0.86142382  -0.00000000  1
  Pt  Pt14  1  0.86142382  0.63857618  -0.00000000  1
  Pt  Pt15  1  0.13857618  0.36142382  -0.00000000  1
