# generated using pymatgen
data_TlSbAs2PbS6
_symmetry_space_group_name_H-M   'P 1'
_cell_length_a   6.07682004
_cell_length_b   8.25492973
_cell_length_c   24.68092489
_cell_angle_alpha   90.00000000
_cell_angle_beta   90.00000000
_cell_angle_gamma   108.69245615
_symmetry_Int_Tables_number   1
_chemical_formula_structural   TlSbAs2PbS6
_chemical_formula_sum   'Tl4 Sb4 As8 Pb4 S24'
_cell_volume   1172.78104703
_cell_formula_units_Z   4
loop_
 _symmetry_equiv_pos_site_id
 _symmetry_equiv_pos_as_xyz
  1  'x, y, z'
loop_
 _atom_site_type_symbol
 _atom_site_label
 _atom_site_symmetry_multiplicity
 _atom_site_fract_x
 _atom_site_fract_y
 _atom_site_fract_z
 _atom_site_occupancy
  Tl  Tl0  1  0.13666680  0.90175046  0.06204386  1
  Tl  Tl1  1  0.86333320  0.09824954  0.93795614  1
  Tl  Tl2  1  0.36333320  0.59824954  0.56204386  1
  Tl  Tl3  1  0.63666680  0.40175046  0.43795614  1
  Sb  Sb4  1  0.00981370  0.96251999  0.42917924  1
  Sb  Sb5  1  0.99018630  0.03748001  0.57082076  1
  Sb  Sb6  1  0.49018630  0.53748001  0.92917924  1
  Sb  Sb7  1  0.50981370  0.46251999  0.07082076  1
  As  As8  1  0.46949286  0.81113513  0.34644863  1
  As  As9  1  0.53050714  0.18886487  0.65355137  1
  As  As10  1  0.03050714  0.68886487  0.84644863  1
  As  As11  1  0.96949286  0.31113513  0.15355137  1
  As  As12  1  0.55935076  0.90449579  0.16527027  1
  As  As13  1  0.44064924  0.09550421  0.83472973  1
  As  As14  1  0.94064924  0.59550421  0.66527027  1
  As  As15  1  0.05935076  0.40449579  0.33472973  1
  Pb  Pb16  1  0.07939659  0.94341863  0.25430532  1
  Pb  Pb17  1  0.92060341  0.05658137  0.74569468  1
  Pb  Pb18  1  0.42060341  0.55658137  0.75430532  1
  Pb  Pb19  1  0.57939659  0.44341863  0.24569468  1
  S  S20  1  0.88849682  0.77249988  0.51225174  1
  S  S21  1  0.11150318  0.22750012  0.48774826  1
  S  S22  1  0.61150318  0.72750012  0.01225174  1
  S  S23  1  0.38849682  0.27249988  0.98774826  1
  S  S24  1  0.77222335  0.71142607  0.33576073  1
  S  S25  1  0.22777665  0.28857393  0.66423927  1
  S  S26  1  0.72777665  0.78857393  0.83576073  1
  S  S27  1  0.27222335  0.21142607  0.16423927  1
  S  S28  1  0.77709357  0.72775271  0.16459770  1
  S  S29  1  0.22290643  0.27224729  0.83540230  1
  S  S30  1  0.72290643  0.77224729  0.66459770  1
  S  S31  1  0.27709357  0.22775271  0.33540230  1
  S  S32  1  0.19310845  0.56035039  0.25878788  1
  S  S33  1  0.80689155  0.43964961  0.74121212  1
  S  S34  1  0.30689155  0.93964961  0.75878788  1
  S  S35  1  0.69310845  0.06035039  0.24121212  1
  S  S36  1  0.37134527  0.99270328  0.58528065  1
  S  S37  1  0.62865473  0.00729672  0.41471935  1
  S  S38  1  0.12865473  0.50729672  0.08528065  1
  S  S39  1  0.87134527  0.49270328  0.91471935  1
  S  S40  1  0.24694628  0.59715305  0.40352601  1
  S  S41  1  0.75305372  0.40284695  0.59647399  1
  S  S42  1  0.25305372  0.90284695  0.90352601  1
  S  S43  1  0.74694628  0.09715305  0.09647399  1
