# generated using pymatgen
data_AlS5N5Cl4
_symmetry_space_group_name_H-M   'P 1'
_cell_length_a   9.90376970
_cell_length_b   14.33676027
_cell_length_c   21.48499860
_cell_angle_alpha   90.00000000
_cell_angle_beta   90.00000000
_cell_angle_gamma   90.00000000
_symmetry_Int_Tables_number   1
_chemical_formula_structural   AlS5N5Cl4
_chemical_formula_sum   'Al8 S40 N40 Cl32'
_cell_volume   3050.61137874
_cell_formula_units_Z   8
loop_
 _symmetry_equiv_pos_site_id
 _symmetry_equiv_pos_as_xyz
  1  'x, y, z'
loop_
 _atom_site_type_symbol
 _atom_site_label
 _atom_site_symmetry_multiplicity
 _atom_site_fract_x
 _atom_site_fract_y
 _atom_site_fract_z
 _atom_site_occupancy
  Al  Al0  1  0.94445939  0.25000000  0.37048551  1
  Al  Al1  1  0.05554061  0.75000000  0.62951449  1
  Al  Al2  1  0.44445939  0.25000000  0.12951449  1
  Al  Al3  1  0.46633335  0.75000000  0.38075185  1
  Al  Al4  1  0.96633335  0.75000000  0.11924815  1
  Al  Al5  1  0.03366665  0.25000000  0.88075185  1
  Al  Al6  1  0.55554061  0.75000000  0.87048551  1
  Al  Al7  1  0.53366665  0.25000000  0.61924815  1
  S  S8  1  0.41233834  0.39481043  0.36870960  1
  S  S9  1  0.57204741  0.89355597  0.04655755  1
  S  S10  1  0.91233834  0.10518957  0.13129040  1
  S  S11  1  0.51860045  0.10163277  0.82207224  1
  S  S12  1  0.01860045  0.39836723  0.67792776  1
  S  S13  1  0.07204741  0.89355597  0.45344245  1
  S  S14  1  0.41233834  0.10518957  0.36870960  1
  S  S15  1  0.08766166  0.60518957  0.86870960  1
  S  S16  1  0.19921069  0.50979869  0.97944858  1
  S  S17  1  0.19921069  0.99020131  0.97944858  1
  S  S18  1  0.92795259  0.39355597  0.54655755  1
  S  S19  1  0.69921069  0.99020131  0.52055142  1
  S  S20  1  0.57204741  0.60644403  0.04655755  1
  S  S21  1  0.08766166  0.89481043  0.86870960  1
  S  S22  1  0.79489045  0.96929364  0.72806114  1
  S  S23  1  0.30078931  0.49020131  0.47944858  1
  S  S24  1  0.42795259  0.39355597  0.95344245  1
  S  S25  1  0.42795259  0.10644403  0.95344245  1
  S  S26  1  0.70510955  0.03070636  0.22806114  1
  S  S27  1  0.58766166  0.60518957  0.63129040  1
  S  S28  1  0.01860045  0.10163277  0.67792776  1
  S  S29  1  0.51860045  0.39836723  0.82207224  1
  S  S30  1  0.20510955  0.46929364  0.27193886  1
  S  S31  1  0.98139955  0.60163277  0.32207224  1
  S  S32  1  0.91233834  0.39481043  0.13129040  1
  S  S33  1  0.80078931  0.00979869  0.02055142  1
  S  S34  1  0.48139955  0.89836723  0.17792776  1
  S  S35  1  0.07204741  0.60644403  0.45344245  1
  S  S36  1  0.70510955  0.46929364  0.22806114  1
  S  S37  1  0.98139955  0.89836723  0.32207224  1
  S  S38  1  0.92795259  0.10644403  0.54655755  1
  S  S39  1  0.29489045  0.53070636  0.77193886  1
  S  S40  1  0.58766166  0.89481043  0.63129040  1
  S  S41  1  0.79489045  0.53070636  0.72806114  1
  S  S42  1  0.20510955  0.03070636  0.27193886  1
  S  S43  1  0.80078931  0.49020131  0.02055142  1
  S  S44  1  0.29489045  0.96929364  0.77193886  1
  S  S45  1  0.30078931  0.00979869  0.47944858  1
  S  S46  1  0.48139955  0.60163277  0.17792776  1
  S  S47  1  0.69921069  0.50979869  0.52055142  1
  N  N48  1  0.58943856  0.96564942  0.20536157  1
  N  N49  1  0.31373991  0.46717742  0.93610074  1
  N  N50  1  0.60583838  0.57398299  0.56116863  1
  N  N51  1  0.18676967  0.93227155  0.81829731  1
  N  N52  1  0.51458535  0.12704181  0.89368449  1
  N  N53  1  0.31373991  0.03282258  0.93610074  1
  N  N54  1  0.81373991  0.03282258  0.56389926  1
  N  N55  1  0.18676967  0.56772845  0.81829731  1
  N  N56  1  0.01458535  0.12704181  0.60631551  1
  N  N57  1  0.31323033  0.43227155  0.31829731  1
  N  N58  1  0.60583838  0.92601701  0.56116863  1
  N  N59  1  0.41056144  0.03435058  0.79463843  1
  N  N60  1  0.81373991  0.46717742  0.56389926  1
  N  N61  1  0.08943856  0.53435058  0.29463843  1
  N  N62  1  0.89416162  0.42601701  0.06116863  1
  N  N63  1  0.51458535  0.37295819  0.89368449  1
  N  N64  1  0.91056144  0.03435058  0.70536157  1
  N  N65  1  0.10583838  0.57398299  0.93883137  1
  N  N66  1  0.89416162  0.07398299  0.06116863  1
  N  N67  1  0.39416162  0.07398299  0.43883137  1
  N  N68  1  0.48541465  0.87295819  0.10631551  1
  N  N69  1  0.68626009  0.53282258  0.06389926  1
  N  N70  1  0.91056144  0.46564942  0.70536157  1
  N  N71  1  0.98541465  0.62704181  0.39368449  1
  N  N72  1  0.81323033  0.06772845  0.18170269  1
  N  N73  1  0.18626009  0.53282258  0.43610074  1
  N  N74  1  0.98541465  0.87295819  0.39368449  1
  N  N75  1  0.01458535  0.37295819  0.60631551  1
  N  N76  1  0.58943856  0.53435058  0.20536157  1
  N  N77  1  0.18626009  0.96717742  0.43610074  1
  N  N78  1  0.68676967  0.93227155  0.68170269  1
  N  N79  1  0.31323033  0.06772845  0.31829731  1
  N  N80  1  0.68676967  0.56772845  0.68170269  1
  N  N81  1  0.68626009  0.96717742  0.06389926  1
  N  N82  1  0.81323033  0.43227155  0.18170269  1
  N  N83  1  0.41056144  0.46564942  0.79463843  1
  N  N84  1  0.39416162  0.42601701  0.43883137  1
  N  N85  1  0.48541465  0.62704181  0.10631551  1
  N  N86  1  0.08943856  0.96564942  0.29463843  1
  N  N87  1  0.10583838  0.92601701  0.93883137  1
  Cl  Cl88  1  0.41200890  0.12621579  0.63059484  1
  Cl  Cl89  1  0.80597741  0.75000000  0.18795615  1
  Cl  Cl90  1  0.08799110  0.62621579  0.13059484  1
  Cl  Cl91  1  0.37524347  0.75000000  0.47227461  1
  Cl  Cl92  1  0.87524347  0.75000000  0.02772539  1
  Cl  Cl93  1  0.88211173  0.75000000  0.56821991  1
  Cl  Cl94  1  0.67348886  0.87449143  0.88822198  1
  Cl  Cl95  1  0.82651114  0.37449143  0.38822198  1
  Cl  Cl96  1  0.91200890  0.12621579  0.86940516  1
  Cl  Cl97  1  0.17348886  0.62550857  0.61177802  1
  Cl  Cl98  1  0.58799110  0.87378421  0.36940516  1
  Cl  Cl99  1  0.91200890  0.37378421  0.86940516  1
  Cl  Cl100  1  0.98778096  0.75000000  0.72495530  1
  Cl  Cl101  1  0.38211173  0.75000000  0.93178009  1
  Cl  Cl102  1  0.69402259  0.25000000  0.68795615  1
  Cl  Cl103  1  0.01221904  0.25000000  0.27504470  1
  Cl  Cl104  1  0.41200890  0.37378421  0.63059484  1
  Cl  Cl105  1  0.82651114  0.12550857  0.38822198  1
  Cl  Cl106  1  0.08799110  0.87378421  0.13059484  1
  Cl  Cl107  1  0.62475653  0.25000000  0.52772539  1
  Cl  Cl108  1  0.19402259  0.25000000  0.81204385  1
  Cl  Cl109  1  0.67348886  0.62550857  0.88822198  1
  Cl  Cl110  1  0.11788827  0.25000000  0.43178009  1
  Cl  Cl111  1  0.32651114  0.37449143  0.11177802  1
  Cl  Cl112  1  0.51221904  0.25000000  0.22495530  1
  Cl  Cl113  1  0.12475653  0.25000000  0.97227461  1
  Cl  Cl114  1  0.17348886  0.87449143  0.61177802  1
  Cl  Cl115  1  0.30597741  0.75000000  0.31204385  1
  Cl  Cl116  1  0.32651114  0.12550857  0.11177802  1
  Cl  Cl117  1  0.58799110  0.62621579  0.36940516  1
  Cl  Cl118  1  0.61788827  0.25000000  0.06821991  1
  Cl  Cl119  1  0.48778096  0.75000000  0.77504470  1
