# generated using pymatgen
data_TiBi6(PO8)2
_symmetry_space_group_name_H-M   'P 1'
_cell_length_a   5.43792860
_cell_length_b   8.20384980
_cell_length_c   8.79775046
_cell_angle_alpha   84.48006831
_cell_angle_beta   71.99787476
_cell_angle_gamma   70.64468148
_symmetry_Int_Tables_number   1
_chemical_formula_structural   TiBi6(PO8)2
_chemical_formula_sum   'Ti1 Bi6 P2 O16'
_cell_volume   352.16548447
_cell_formula_units_Z   1
loop_
 _symmetry_equiv_pos_site_id
 _symmetry_equiv_pos_as_xyz
  1  'x, y, z'
loop_
 _atom_site_type_symbol
 _atom_site_label
 _atom_site_symmetry_multiplicity
 _atom_site_fract_x
 _atom_site_fract_y
 _atom_site_fract_z
 _atom_site_occupancy
  Ti  Ti0  1  0.73844371  0.50000000  0.50000000  1
  Bi  Bi1  1  0.46730959  0.16346191  0.48683454  1
  Bi  Bi2  1  0.11760604  0.83653809  0.51316546  1
  Bi  Bi3  1  0.07824411  0.15830472  0.17831512  1
  Bi  Bi4  1  0.41486395  0.84169528  0.82168488  1
  Bi  Bi5  1  0.73813876  0.17194084  0.84806323  1
  Bi  Bi6  1  0.75814283  0.82805916  0.15193677  1
  P  P7  1  0.35385626  0.51045727  0.22416109  1
  P  P8  1  0.08847462  0.48954273  0.77583891  1
  O  O9  1  0.48250049  0.31598029  0.17595201  1
  O  O10  1  0.97443280  0.68401971  0.82404799  1
  O  O11  1  0.33895779  0.98004453  0.32335335  1
  O  O12  1  0.64235567  0.01995547  0.67664665  1
  O  O13  1  0.50267386  1.00000000  1.00000000  1
  O  O14  1  0.92087390  0.46172095  0.66563863  1
  O  O15  1  0.04823349  0.53827905  0.33436137  1
  O  O16  1  0.33878850  0.63953785  0.08781382  1
  O  O17  1  0.06614017  0.36046215  0.91218618  1
  O  O18  1  0.54016008  0.73188844  0.55278944  1
  O  O19  1  0.82483796  0.26811156  0.44721056  1
  O  O20  1  0.50362621  0.55720256  0.33153207  1
  O  O21  1  0.39236084  0.44279744  0.66846793  1
  O  O22  1  0.83683968  0.97910224  0.32125137  1
  O  O23  1  0.13719329  0.02089776  0.67874863  1
  O  O24  1  0.99274539  0.00000000  0.00000000  1
