# generated using pymatgen
data_Sr2NdTaO6
_symmetry_space_group_name_H-M   'P 1'
_cell_length_a   5.89695037
_cell_length_b   6.07715195
_cell_length_c   8.44091419
_cell_angle_alpha   90.00000000
_cell_angle_beta   90.16872359
_cell_angle_gamma   90.00000000
_symmetry_Int_Tables_number   1
_chemical_formula_structural   Sr2NdTaO6
_chemical_formula_sum   'Sr4 Nd2 Ta2 O12'
_cell_volume   302.49288937
_cell_formula_units_Z   2
loop_
 _symmetry_equiv_pos_site_id
 _symmetry_equiv_pos_as_xyz
  1  'x, y, z'
loop_
 _atom_site_type_symbol
 _atom_site_label
 _atom_site_symmetry_multiplicity
 _atom_site_fract_x
 _atom_site_fract_y
 _atom_site_fract_z
 _atom_site_occupancy
  Sr  Sr0  1  0.01188066  0.45440422  0.25333674  1
  Sr  Sr1  1  0.98811934  0.54559578  0.74666326  1
  Sr  Sr2  1  0.48811934  0.95440422  0.24666326  1
  Sr  Sr3  1  0.51188066  0.04559578  0.75333674  1
  Nd  Nd4  1  -0.00000000  -0.00000000  0.50000000  1
  Nd  Nd5  1  0.50000000  0.50000000  0.00000000  1
  Ta  Ta6  1  -0.00000000  -0.00000000  0.00000000  1
  Ta  Ta7  1  0.50000000  0.50000000  0.50000000  1
  O  O8  1  0.90608594  0.03738471  0.22865661  1
  O  O9  1  0.09391406  0.96261529  0.77134339  1
  O  O10  1  0.59391406  0.53738471  0.27134339  1
  O  O11  1  0.40608594  0.46261529  0.72865661  1
  O  O12  1  0.18292914  0.72727787  0.05607768  1
  O  O13  1  0.81707086  0.27272213  0.94392232  1
  O  O14  1  0.31707086  0.22727787  0.44392232  1
  O  O15  1  0.68292914  0.77272213  0.55607768  1
  O  O16  1  0.27600869  0.18577946  0.04434737  1
  O  O17  1  0.72399131  0.81422054  0.95565263  1
  O  O18  1  0.22399131  0.68577946  0.45565263  1
  O  O19  1  0.77600869  0.31422054  0.54434737  1
