# generated using pymatgen
data_Sb3IO4
_symmetry_space_group_name_H-M   'P 1'
_cell_length_a   4.60082569
_cell_length_b   18.75358650
_cell_length_c   18.70892470
_cell_angle_alpha   118.05953246
_cell_angle_beta   90.00000000
_cell_angle_gamma   90.00000000
_symmetry_Int_Tables_number   1
_chemical_formula_structural   Sb3IO4
_chemical_formula_sum   'Sb24 I8 O32'
_cell_volume   1424.50387697
_cell_formula_units_Z   8
loop_
 _symmetry_equiv_pos_site_id
 _symmetry_equiv_pos_as_xyz
  1  'x, y, z'
loop_
 _atom_site_type_symbol
 _atom_site_label
 _atom_site_symmetry_multiplicity
 _atom_site_fract_x
 _atom_site_fract_y
 _atom_site_fract_z
 _atom_site_occupancy
  Sb  Sb0  1  0.83739591  0.82796987  0.84283281  1
  Sb  Sb1  1  0.16260409  0.17203013  0.15716719  1
  Sb  Sb2  1  0.33739591  0.67203013  0.65716719  1
  Sb  Sb3  1  0.66260409  0.32796987  0.34283281  1
  Sb  Sb4  1  0.33122474  0.95449801  0.27696805  1
  Sb  Sb5  1  0.66877526  0.04550199  0.72303195  1
  Sb  Sb6  1  0.83122474  0.54550199  0.22303195  1
  Sb  Sb7  1  0.16877526  0.45449801  0.77696805  1
  Sb  Sb8  1  0.62968040  0.54604853  0.94447987  1
  Sb  Sb9  1  0.37031960  0.45395147  0.05552013  1
  Sb  Sb10  1  0.12968040  0.95395147  0.55552013  1
  Sb  Sb11  1  0.87031960  0.04604853  0.44447987  1
  Sb  Sb12  1  0.32304945  0.77711550  0.95404566  1
  Sb  Sb13  1  0.67695055  0.22288450  0.04595434  1
  Sb  Sb14  1  0.82304945  0.72288450  0.54595434  1
  Sb  Sb15  1  0.17695055  0.27711550  0.45404566  1
  Sb  Sb16  1  0.86369019  0.94480122  0.04605694  1
  Sb  Sb17  1  0.13630981  0.05519878  0.95394306  1
  Sb  Sb18  1  0.36369019  0.55519878  0.45394306  1
  Sb  Sb19  1  0.63630981  0.44480122  0.54605694  1
  Sb  Sb20  1  0.84480969  0.84275429  0.32669284  1
  Sb  Sb21  1  0.15519031  0.15724571  0.67330716  1
  Sb  Sb22  1  0.34480969  0.65724571  0.17330716  1
  Sb  Sb23  1  0.65519031  0.34275429  0.82669284  1
  I  I24  1  0.73468760  0.77391098  0.11545054  1
  I  I25  1  0.26531240  0.22608902  0.88454946  1
  I  I26  1  0.23468760  0.72608902  0.38454946  1
  I  I27  1  0.76531240  0.27391098  0.61545054  1
  I  I28  1  0.72916486  0.61640129  0.77561818  1
  I  I29  1  0.27083514  0.38359871  0.22438182  1
  I  I30  1  0.22916486  0.88359871  0.72438182  1
  I  I31  1  0.77083514  0.11640129  0.27561818  1
  O  O32  1  0.73676478  0.81795405  0.94845417  1
  O  O33  1  0.26323522  0.18204595  0.05154583  1
  O  O34  1  0.23676478  0.68204595  0.55154583  1
  O  O35  1  0.76323522  0.31795405  0.44845417  1
  O  O36  1  0.74632676  0.96330630  0.60786103  1
  O  O37  1  0.25367324  0.03669370  0.39213897  1
  O  O38  1  0.24632676  0.53669370  0.89213897  1
  O  O39  1  0.75367324  0.46330630  0.10786103  1
  O  O40  1  0.87412375  0.93570438  0.44612906  1
  O  O41  1  0.12587625  0.06429562  0.55387094  1
  O  O42  1  0.37412375  0.56429562  0.05387094  1
  O  O43  1  0.62587625  0.43570438  0.94612906  1
  O  O44  1  0.24337436  0.89164850  0.03698223  1
  O  O45  1  0.75662564  0.10835150  0.96301777  1
  O  O46  1  0.74337436  0.60835150  0.46301777  1
  O  O47  1  0.25662564  0.39164850  0.53698223  1
  O  O48  1  0.24065905  0.80001661  0.86081621  1
  O  O49  1  0.75934095  0.19998339  0.13918379  1
  O  O50  1  0.74065905  0.69998339  0.63918379  1
  O  O51  1  0.25934095  0.30001661  0.36081621  1
  O  O52  1  0.37579323  0.55332886  0.56428929  1
  O  O53  1  0.62420677  0.44667114  0.43571071  1
  O  O54  1  0.87579323  0.94667114  0.93571071  1
  O  O55  1  0.12420677  0.05332886  0.06428929  1
  O  O56  1  0.74644913  0.94809688  0.31635528  1
  O  O57  1  0.25355087  0.05190312  0.68364472  1
  O  O58  1  0.24644913  0.55190312  0.18364472  1
  O  O59  1  0.75355087  0.44809688  0.81635528  1
  O  O60  1  0.74835692  0.63932310  0.20136996  1
  O  O61  1  0.25164308  0.36067690  0.79863004  1
  O  O62  1  0.24835692  0.86067690  0.29863004  1
  O  O63  1  0.75164308  0.13932310  0.70136996  1
