# generated using pymatgen
data_RbZr6CI14
_symmetry_space_group_name_H-M   'P 1'
_cell_length_a   10.96610434
_cell_length_b   10.96610434
_cell_length_c   13.14110395
_cell_angle_alpha   90.00000000
_cell_angle_beta   90.00000000
_cell_angle_gamma   94.89572883
_symmetry_Int_Tables_number   1
_chemical_formula_structural   RbZr6CI14
_chemical_formula_sum   'Rb2 Zr12 C2 I28'
_cell_volume   1574.52386422
_cell_formula_units_Z   2
loop_
 _symmetry_equiv_pos_site_id
 _symmetry_equiv_pos_as_xyz
  1  'x, y, z'
loop_
 _atom_site_type_symbol
 _atom_site_label
 _atom_site_symmetry_multiplicity
 _atom_site_fract_x
 _atom_site_fract_y
 _atom_site_fract_z
 _atom_site_occupancy
  Rb  Rb0  1  0.50000000  0.50000000  0.00000000  1
  Rb  Rb1  1  0.00000000  0.00000000  0.50000000  1
  Zr  Zr2  1  0.37231597  0.37231597  0.40569740  1
  Zr  Zr3  1  0.62768403  0.62768403  0.59430260  1
  Zr  Zr4  1  0.12768403  0.12768403  0.90569740  1
  Zr  Zr5  1  0.87231597  0.87231597  0.09430260  1
  Zr  Zr6  1  0.16554506  0.95913900  0.10594772  1
  Zr  Zr7  1  0.83445494  0.04086100  0.89405228  1
  Zr  Zr8  1  0.33445494  0.54086100  0.60594772  1
  Zr  Zr9  1  0.45913900  0.66554506  0.39405228  1
  Zr  Zr10  1  0.66554506  0.45913900  0.39405228  1
  Zr  Zr11  1  0.54086100  0.33445494  0.60594772  1
  Zr  Zr12  1  0.04086100  0.83445494  0.89405228  1
  Zr  Zr13  1  0.95913900  0.16554506  0.10594772  1
  C  C14  1  -0.00000000  0.00000000  0.00000000  1
  C  C15  1  0.50000000  0.50000000  0.50000000  1
  I  I16  1  0.36115873  0.11365278  0.00618205  1
  I  I17  1  0.63884127  0.88634722  0.99381795  1
  I  I18  1  0.13884127  0.38634722  0.50618205  1
  I  I19  1  0.61365278  0.86115873  0.49381795  1
  I  I20  1  0.86115873  0.61365278  0.49381795  1
  I  I21  1  0.38634722  0.13884127  0.50618205  1
  I  I22  1  0.88634722  0.63884127  0.99381795  1
  I  I23  1  0.11365278  0.36115873  0.00618205  1
  I  I24  1  0.24888384  0.75111616  0.00000000  1
  I  I25  1  0.75111616  0.24888384  0.00000000  1
  I  I26  1  0.25111616  0.74888384  0.50000000  1
  I  I27  1  0.74888384  0.25111616  0.50000000  1
  I  I28  1  0.39837529  0.89837529  0.25000000  1
  I  I29  1  0.60162471  0.10162471  0.75000000  1
  I  I30  1  0.10162471  0.60162471  0.75000000  1
  I  I31  1  0.89837529  0.39837529  0.25000000  1
  I  I32  1  0.15314357  0.15314357  0.25918761  1
  I  I33  1  0.84685643  0.84685643  0.74081239  1
  I  I34  1  0.34685643  0.34685643  0.75918761  1
  I  I35  1  0.65314357  0.65314357  0.24081239  1
  I  I36  1  0.53545140  0.28913101  0.25297887  1
  I  I37  1  0.46454860  0.71086899  0.74702113  1
  I  I38  1  0.96454860  0.21086899  0.75297887  1
  I  I39  1  0.78913101  0.03545140  0.24702113  1
  I  I40  1  0.03545140  0.78913101  0.24702113  1
  I  I41  1  0.21086899  0.96454860  0.75297887  1
  I  I42  1  0.71086899  0.46454860  0.74702113  1
  I  I43  1  0.28913101  0.53545140  0.25297887  1
