# generated using pymatgen
data_Sc6InCo2
_symmetry_space_group_name_H-M   'P 1'
_cell_length_a   7.81025655
_cell_length_b   7.81025655
_cell_length_c   7.81025655
_cell_angle_alpha   106.63928920
_cell_angle_beta   110.73206396
_cell_angle_gamma   111.07908790
_symmetry_Int_Tables_number   1
_chemical_formula_structural   Sc6InCo2
_chemical_formula_sum   'Sc12 In2 Co4'
_cell_volume   366.08196507
_cell_formula_units_Z   2
loop_
 _symmetry_equiv_pos_site_id
 _symmetry_equiv_pos_as_xyz
  1  'x, y, z'
loop_
 _atom_site_type_symbol
 _atom_site_label
 _atom_site_symmetry_multiplicity
 _atom_site_fract_x
 _atom_site_fract_y
 _atom_site_fract_z
 _atom_site_occupancy
  Sc  Sc0  1  0.78368204  0.76470981  0.54839185  1
  Sc  Sc1  1  0.21631796  0.23529019  0.45160815  1
  Sc  Sc2  1  0.21631796  0.76470981  0.98102777  1
  Sc  Sc3  1  0.78368204  0.23529019  0.01897223  1
  Sc  Sc4  1  0.70132962  0.38830597  0.68697635  1
  Sc  Sc5  1  0.29867038  0.61169403  0.31302365  1
  Sc  Sc6  1  0.29867038  0.98564673  0.68697635  1
  Sc  Sc7  1  0.70132962  0.01435327  0.31302365  1
  Sc  Sc8  1  0.52528034  0.71563450  0.80964584  1
  Sc  Sc9  1  0.47471966  0.28436550  0.19035416  1
  Sc  Sc10  1  0.09401134  0.28436550  0.80964584  1
  Sc  Sc11  1  0.90598866  0.71563450  0.19035416  1
  In  In12  1  -0.00000000  0.50000000  0.50000000  1
  In  In13  1  -0.00000000  0.00000000  -0.00000000  1
  Co  Co14  1  0.62987842  -0.00000000  0.62987842  1
  Co  Co15  1  0.37012158  0.00000000  0.37012158  1
  Co  Co16  1  0.50000000  0.38176620  0.88176620  1
  Co  Co17  1  0.50000000  0.61823380  0.11823380  1
