# generated using pymatgen
data_SbTe8Cl6O6F31
_symmetry_space_group_name_H-M   'P 1'
_cell_length_a   9.36618025
_cell_length_b   10.66431611
_cell_length_c   10.81484403
_cell_angle_alpha   83.50542176
_cell_angle_beta   86.18252504
_cell_angle_gamma   75.65719341
_symmetry_Int_Tables_number   1
_chemical_formula_structural   SbTe8Cl6O6F31
_chemical_formula_sum   'Sb1 Te8 Cl6 O6 F31'
_cell_volume   1039.00837088
_cell_formula_units_Z   1
loop_
 _symmetry_equiv_pos_site_id
 _symmetry_equiv_pos_as_xyz
  1  'x, y, z'
loop_
 _atom_site_type_symbol
 _atom_site_label
 _atom_site_symmetry_multiplicity
 _atom_site_fract_x
 _atom_site_fract_y
 _atom_site_fract_z
 _atom_site_occupancy
  Sb  Sb0  1  -0.00000000  0.00000000  0.50000000  1
  Te  Te1  1  0.27541139  0.72289049  0.39306116  1
  Te  Te2  1  0.72458861  0.27710951  0.60693884  1
  Te  Te3  1  0.23885479  0.19889221  0.34300525  1
  Te  Te4  1  0.76114521  0.80110779  0.65699475  1
  Te  Te5  1  0.66152067  0.51433590  0.13831576  1
  Te  Te6  1  0.33847933  0.48566410  0.86168424  1
  Te  Te7  1  0.83060831  0.02592443  0.20037912  1
  Te  Te8  1  0.16939169  0.97407557  0.79962088  1
  Cl  Cl9  1  0.15894059  0.45072061  0.73685719  1
  Cl  Cl10  1  0.84105941  0.54927939  0.26314281  1
  Cl  Cl11  1  0.16540444  0.57767550  0.00852017  1
  Cl  Cl12  1  0.83459556  0.42232450  0.99147983  1
  Cl  Cl13  1  0.60321490  0.72961139  0.05743096  1
  Cl  Cl14  1  0.39678510  0.27038861  0.94256904  1
  O  O15  1  0.80565879  0.12665161  0.52641534  1
  O  O16  1  0.19434121  0.87334839  0.47358466  1
  O  O17  1  0.06623586  0.14208264  0.39382973  1
  O  O18  1  0.93376414  0.85791736  0.60617027  1
  O  O19  1  0.08324973  0.04970102  0.64731764  1
  O  O20  1  0.91675027  0.95029898  0.35268236  1
  F  F21  1  0.76356435  0.19657909  0.24839349  1
  F  F22  1  0.23643565  0.80342091  0.75160651  1
  F  F23  1  0.54508590  0.22812088  0.62949485  1
  F  F24  1  0.45491410  0.77187912  0.37050515  1
  F  F25  1  0.65680452  0.37179835  0.45596511  1
  F  F26  1  0.34319548  0.62820165  0.54403489  1
  F  F27  1  0.18169398  0.33740481  0.44256861  1
  F  F28  1  0.81830602  0.66259519  0.55743139  1
  F  F29  1  0.40144844  0.26701668  0.28613046  1
  F  F30  1  0.59855156  0.73298332  0.71386954  1
  F  F31  1  0.35542009  0.09830746  0.46925400  1
  F  F32  1  0.64457991  0.90169254  0.53074600  1
  F  F33  1  0.22139359  0.80217410  0.23376876  1
  F  F34  1  0.77860641  0.19782590  0.76623124  1
  F  F35  1  0.00241639  0.07004820  0.13061408  1
  F  F36  1  0.99758361  0.92995180  0.86938592  1
  F  F37  1  0.10907993  0.13821120  0.85874322  1
  F  F38  1  0.89092007  0.86178880  0.14125678  1
  F  F39  1  0.10614397  0.65751168  0.41132094  1
  F  F40  1  0.89385603  0.34248832  0.58867906  1
  F  F41  1  0.74221314  0.09025783  0.04755252  1
  F  F42  1  0.25778686  0.90974217  0.95244748  1
  F  F43  1  0.37011043  0.57289527  0.31317471  1
  F  F44  1  0.62988957  0.42710473  0.68682529  1
  F  F45  1  0.50000000  0.50000000  0.00000000  1
  F  F46  1  0.34912470  0.01098672  0.74246001  1
  F  F47  1  0.65087530  0.98901328  0.25753999  1
  F  F48  1  0.13226098  0.30377074  0.21214702  1
  F  F49  1  0.86773902  0.69622926  0.78785298  1
  F  F50  1  0.30832108  0.06854386  0.23557987  1
  F  F51  1  0.69167892  0.93145614  0.76442013  1
