# generated using pymatgen
data_Rb2Y2(PO4)3
_symmetry_space_group_name_H-M   'P 1'
_cell_length_a   10.80361187
_cell_length_b   10.80361187
_cell_length_c   10.80361187
_cell_angle_alpha   90.00000000
_cell_angle_beta   90.00000000
_cell_angle_gamma   90.00000000
_symmetry_Int_Tables_number   1
_chemical_formula_structural   Rb2Y2(PO4)3
_chemical_formula_sum   'Rb8 Y8 P12 O48'
_cell_volume   1260.97628828
_cell_formula_units_Z   4
loop_
 _symmetry_equiv_pos_site_id
 _symmetry_equiv_pos_as_xyz
  1  'x, y, z'
loop_
 _atom_site_type_symbol
 _atom_site_label
 _atom_site_symmetry_multiplicity
 _atom_site_fract_x
 _atom_site_fract_y
 _atom_site_fract_z
 _atom_site_occupancy
  Rb  Rb0  1  0.04605406  0.04605406  0.04605406  1
  Rb  Rb1  1  0.45394594  0.95394594  0.54605406  1
  Rb  Rb2  1  0.95394594  0.54605406  0.45394594  1
  Rb  Rb3  1  0.54605406  0.45394594  0.95394594  1
  Rb  Rb4  1  0.81887739  0.81887739  0.81887739  1
  Rb  Rb5  1  0.68112261  0.18112261  0.31887739  1
  Rb  Rb6  1  0.18112261  0.31887739  0.68112261  1
  Rb  Rb7  1  0.31887739  0.68112261  0.18112261  1
  Y  Y8  1  0.60339648  0.60339648  0.60339648  1
  Y  Y9  1  0.89660352  0.39660352  0.10339648  1
  Y  Y10  1  0.39660352  0.10339648  0.89660352  1
  Y  Y11  1  0.10339648  0.89660352  0.39660352  1
  Y  Y12  1  0.33229518  0.33229518  0.33229518  1
  Y  Y13  1  0.16770482  0.66770482  0.83229518  1
  Y  Y14  1  0.66770482  0.83229518  0.16770482  1
  Y  Y15  1  0.83229518  0.16770482  0.66770482  1
  P  P16  1  0.01441064  0.21175097  0.37435183  1
  P  P17  1  0.48558936  0.78824903  0.87435183  1
  P  P18  1  0.98558936  0.71175097  0.12564817  1
  P  P19  1  0.37435183  0.01441064  0.21175097  1
  P  P20  1  0.51441064  0.28824903  0.62564817  1
  P  P21  1  0.87435183  0.48558936  0.78824903  1
  P  P22  1  0.12564817  0.98558936  0.71175097  1
  P  P23  1  0.62564817  0.51441064  0.28824903  1
  P  P24  1  0.21175097  0.37435183  0.01441064  1
  P  P25  1  0.71175097  0.12564817  0.98558936  1
  P  P26  1  0.28824903  0.62564817  0.51441064  1
  P  P27  1  0.78824903  0.87435183  0.48558936  1
  O  O28  1  0.14706222  0.26006981  0.39941645  1
  O  O29  1  0.35293778  0.73993019  0.89941645  1
  O  O30  1  0.85293778  0.76006981  0.10058355  1
  O  O31  1  0.39941645  0.14706222  0.26006981  1
  O  O32  1  0.64706222  0.23993019  0.60058355  1
  O  O33  1  0.89941645  0.35293778  0.73993019  1
  O  O34  1  0.10058355  0.85293778  0.76006981  1
  O  O35  1  0.60058355  0.64706222  0.23993019  1
  O  O36  1  0.26006981  0.39941645  0.14706222  1
  O  O37  1  0.76006981  0.10058355  0.85293778  1
  O  O38  1  0.23993019  0.60058355  0.64706222  1
  O  O39  1  0.73993019  0.89941645  0.35293778  1
  O  O40  1  0.04687887  0.79081002  0.22846935  1
  O  O41  1  0.45312113  0.20918998  0.72846935  1
  O  O42  1  0.95312113  0.29081002  0.27153065  1
  O  O43  1  0.22846935  0.04687887  0.79081002  1
  O  O44  1  0.54687887  0.70918998  0.77153065  1
  O  O45  1  0.72846935  0.45312113  0.20918998  1
  O  O46  1  0.27153065  0.95312113  0.29081002  1
  O  O47  1  0.77153065  0.54687887  0.70918998  1
  O  O48  1  0.79081002  0.22846935  0.04687887  1
  O  O49  1  0.29081002  0.27153065  0.95312113  1
  O  O50  1  0.70918998  0.77153065  0.54687887  1
  O  O51  1  0.20918998  0.72846935  0.45312113  1
  O  O52  1  0.01580545  0.07480533  0.33215851  1
  O  O53  1  0.48419455  0.92519467  0.83215851  1
  O  O54  1  0.98419455  0.57480533  0.16784149  1
  O  O55  1  0.33215851  0.01580545  0.07480533  1
  O  O56  1  0.51580545  0.42519467  0.66784149  1
  O  O57  1  0.83215851  0.48419455  0.92519467  1
  O  O58  1  0.16784149  0.98419455  0.57480533  1
  O  O59  1  0.66784149  0.51580545  0.42519467  1
  O  O60  1  0.07480533  0.33215851  0.01580545  1
  O  O61  1  0.57480533  0.16784149  0.98419455  1
  O  O62  1  0.42519467  0.66784149  0.51580545  1
  O  O63  1  0.92519467  0.83215851  0.48419455  1
  O  O64  1  0.27426862  0.50697012  0.43424830  1
  O  O65  1  0.22573138  0.49302988  0.93424830  1
  O  O66  1  0.72573138  0.00697012  0.06575170  1
  O  O67  1  0.43424830  0.27426862  0.50697012  1
  O  O68  1  0.77426862  0.99302988  0.56575170  1
  O  O69  1  0.93424830  0.22573138  0.49302988  1
  O  O70  1  0.06575170  0.72573138  0.00697012  1
  O  O71  1  0.56575170  0.77426862  0.99302988  1
  O  O72  1  0.50697012  0.43424830  0.27426862  1
  O  O73  1  0.00697012  0.06575170  0.72573138  1
  O  O74  1  0.99302988  0.56575170  0.77426862  1
  O  O75  1  0.49302988  0.93424830  0.22573138  1
