# generated using pymatgen
data_Rb2ZnGeO4
_symmetry_space_group_name_H-M   'P 1'
_cell_length_a   5.79597962
_cell_length_b   11.55537498
_cell_length_c   16.39272245
_cell_angle_alpha   90.00000000
_cell_angle_beta   90.00000000
_cell_angle_gamma   90.00000000
_symmetry_Int_Tables_number   1
_chemical_formula_structural   Rb2ZnGeO4
_chemical_formula_sum   'Rb16 Zn8 Ge8 O32'
_cell_volume   1097.89796146
_cell_formula_units_Z   8
loop_
 _symmetry_equiv_pos_site_id
 _symmetry_equiv_pos_as_xyz
  1  'x, y, z'
loop_
 _atom_site_type_symbol
 _atom_site_label
 _atom_site_symmetry_multiplicity
 _atom_site_fract_x
 _atom_site_fract_y
 _atom_site_fract_z
 _atom_site_occupancy
  Rb  Rb0  1  0.96682014  0.76821138  0.62935382  1
  Rb  Rb1  1  0.03317986  0.23178862  0.12935382  1
  Rb  Rb2  1  0.03317986  0.26821138  0.62935382  1
  Rb  Rb3  1  0.96682014  0.73178862  0.12935382  1
  Rb  Rb4  1  0.98648684  0.50506668  0.75525547  1
  Rb  Rb5  1  0.01351316  0.49493332  0.25525547  1
  Rb  Rb6  1  0.01351316  0.00506668  0.75525547  1
  Rb  Rb7  1  0.98648684  0.99493332  0.25525547  1
  Rb  Rb8  1  0.46366566  0.73516834  0.99995139  1
  Rb  Rb9  1  0.53633434  0.26483166  0.49995139  1
  Rb  Rb10  1  0.53633434  0.23516834  0.99995139  1
  Rb  Rb11  1  0.46366566  0.76483166  0.49995139  1
  Rb  Rb12  1  0.49222177  0.98998976  0.87587528  1
  Rb  Rb13  1  0.50777823  0.01001024  0.37587528  1
  Rb  Rb14  1  0.50777823  0.48998976  0.87587528  1
  Rb  Rb15  1  0.49222177  0.51001024  0.37587528  1
  Zn  Zn16  1  0.98185202  0.98396976  0.00433506  1
  Zn  Zn17  1  0.01814798  0.01603024  0.50433506  1
  Zn  Zn18  1  0.01814798  0.48396976  0.00433506  1
  Zn  Zn19  1  0.98185202  0.51603024  0.50433506  1
  Zn  Zn20  1  0.48769564  0.76073431  0.75127747  1
  Zn  Zn21  1  0.51230436  0.23926569  0.25127747  1
  Zn  Zn22  1  0.51230436  0.26073431  0.75127747  1
  Zn  Zn23  1  0.48769564  0.73926569  0.25127747  1
  Ge  Ge24  1  0.47926274  0.51326822  0.62594977  1
  Ge  Ge25  1  0.52073726  0.48673178  0.12594977  1
  Ge  Ge26  1  0.52073726  0.01326822  0.62594977  1
  Ge  Ge27  1  0.47926274  0.98673178  0.12594977  1
  Ge  Ge28  1  0.98933348  0.73303115  0.88009491  1
  Ge  Ge29  1  0.01066652  0.26696885  0.38009491  1
  Ge  Ge30  1  0.01066652  0.23303115  0.88009491  1
  Ge  Ge31  1  0.98933348  0.76696885  0.38009491  1
  O  O32  1  0.41921361  0.65808580  0.65836329  1
  O  O33  1  0.58078639  0.34191420  0.15836329  1
  O  O34  1  0.58078639  0.15808580  0.65836329  1
  O  O35  1  0.41921361  0.84191420  0.15836329  1
  O  O36  1  0.74038031  0.69918108  0.82067961  1
  O  O37  1  0.25961969  0.30081892  0.32067961  1
  O  O38  1  0.25961969  0.19918108  0.82067961  1
  O  O39  1  0.74038031  0.80081892  0.32067961  1
  O  O40  1  0.90098013  0.40040917  0.41814060  1
  O  O41  1  0.09901987  0.59959083  0.91814060  1
  O  O42  1  0.09901987  0.90040917  0.41814060  1
  O  O43  1  0.90098013  0.09959083  0.91814060  1
  O  O44  1  0.77719915  0.49176073  0.60080844  1
  O  O45  1  0.22280085  0.50823927  0.10080844  1
  O  O46  1  0.22280085  0.99176073  0.60080844  1
  O  O47  1  0.77719915  0.00823927  0.10080844  1
  O  O48  1  0.79091190  0.29777904  0.81872828  1
  O  O49  1  0.20908810  0.70222096  0.31872828  1
  O  O50  1  0.20908810  0.79777904  0.81872828  1
  O  O51  1  0.79091190  0.20222096  0.31872828  1
  O  O52  1  0.69212905  0.98800389  0.53703045  1
  O  O53  1  0.30787095  0.01199611  0.03703045  1
  O  O54  1  0.30787095  0.48800389  0.53703045  1
  O  O55  1  0.69212905  0.51199611  0.03703045  1
  O  O56  1  0.91471906  0.82490266  0.96356489  1
  O  O57  1  0.08528094  0.17509734  0.46356489  1
  O  O58  1  0.08528094  0.32490266  0.96356489  1
  O  O59  1  0.91471906  0.67509734  0.46356489  1
  O  O60  1  0.59346641  0.91372364  0.70589128  1
  O  O61  1  0.40653359  0.08627636  0.20589128  1
  O  O62  1  0.40653359  0.41372364  0.70589128  1
  O  O63  1  0.59346641  0.58627636  0.20589128  1
