# generated using pymatgen
data_Pr23Mg4Rh7
_symmetry_space_group_name_H-M   'P 1'
_cell_length_a   10.11601913
_cell_length_b   10.11601913
_cell_length_c   22.84102343
_cell_angle_alpha   90.00000000
_cell_angle_beta   90.00000000
_cell_angle_gamma   119.99999629
_symmetry_Int_Tables_number   1
_chemical_formula_structural   Pr23Mg4Rh7
_chemical_formula_sum   'Pr46 Mg8 Rh14'
_cell_volume   2024.25626159
_cell_formula_units_Z   2
loop_
 _symmetry_equiv_pos_site_id
 _symmetry_equiv_pos_as_xyz
  1  'x, y, z'
loop_
 _atom_site_type_symbol
 _atom_site_label
 _atom_site_symmetry_multiplicity
 _atom_site_fract_x
 _atom_site_fract_y
 _atom_site_fract_z
 _atom_site_occupancy
  Pr  Pr0  1  0.20781429  0.41562858  0.71887710  1
  Pr  Pr1  1  0.20781429  0.79218571  0.71887710  1
  Pr  Pr2  1  0.79218571  0.58437142  0.21887710  1
  Pr  Pr3  1  0.58437142  0.79218571  0.71887710  1
  Pr  Pr4  1  0.79218571  0.20781429  0.21887710  1
  Pr  Pr5  1  0.41562858  0.20781429  0.21887710  1
  Pr  Pr6  1  0.79218501  0.58437003  0.94830488  1
  Pr  Pr7  1  0.79218501  0.20781499  0.94830488  1
  Pr  Pr8  1  0.20781499  0.41562997  0.44830488  1
  Pr  Pr9  1  0.41562997  0.20781499  0.94830488  1
  Pr  Pr10  1  0.20781499  0.79218501  0.44830488  1
  Pr  Pr11  1  0.58437003  0.79218501  0.44830488  1
  Pr  Pr12  1  0.21023078  0.42046155  0.99100785  1
  Pr  Pr13  1  0.21023078  0.78976922  0.99100785  1
  Pr  Pr14  1  0.78976922  0.57953845  0.49100785  1
  Pr  Pr15  1  0.57953845  0.78976922  0.99100785  1
  Pr  Pr16  1  0.78976922  0.21023078  0.49100785  1
  Pr  Pr17  1  0.42046155  0.21023078  0.49100785  1
  Pr  Pr18  1  0.87141849  0.74283697  0.63481563  1
  Pr  Pr19  1  0.87141849  0.12858151  0.63481563  1
  Pr  Pr20  1  0.12858151  0.25716303  0.13481563  1
  Pr  Pr21  1  0.25716303  0.12858151  0.63481563  1
  Pr  Pr22  1  0.12858151  0.87141849  0.13481563  1
  Pr  Pr23  1  0.74283697  0.87141849  0.13481563  1
  Pr  Pr24  1  0.45835085  0.91670170  0.85624675  1
  Pr  Pr25  1  0.45835085  0.54164915  0.85624675  1
  Pr  Pr26  1  0.54164915  0.08329830  0.35624675  1
  Pr  Pr27  1  0.08329830  0.54164915  0.85624675  1
  Pr  Pr28  1  0.54164915  0.45835085  0.35624675  1
  Pr  Pr29  1  0.91670170  0.45835085  0.35624675  1
  Pr  Pr30  1  0.00000000  0.00000000  0.00030348  1
  Pr  Pr31  1  0.00000000  0.00000000  0.50030348  1
  Pr  Pr32  1  0.45985757  0.91971514  0.58512348  1
  Pr  Pr33  1  0.45985757  0.54014243  0.58512348  1
  Pr  Pr34  1  0.54014243  0.08028486  0.08512348  1
  Pr  Pr35  1  0.08028486  0.54014243  0.58512348  1
  Pr  Pr36  1  0.54014243  0.45985757  0.08512348  1
  Pr  Pr37  1  0.91971514  0.45985757  0.08512348  1
  Pr  Pr38  1  0.79441431  0.58882862  0.78157718  1
  Pr  Pr39  1  0.79441431  0.20558569  0.78157718  1
  Pr  Pr40  1  0.20558569  0.41117138  0.28157718  1
  Pr  Pr41  1  0.41117138  0.20558569  0.78157718  1
  Pr  Pr42  1  0.20558569  0.79441431  0.28157718  1
  Pr  Pr43  1  0.58882862  0.79441431  0.28157718  1
  Pr  Pr44  1  0.66666700  0.33333300  0.64532639  1
  Pr  Pr45  1  0.33333300  0.66666700  0.14532639  1
  Mg  Mg46  1  0.00000000  0.00000000  0.75032246  1
  Mg  Mg47  1  0.00000000  0.00000000  0.25032246  1
  Mg  Mg48  1  0.10562647  0.21125295  0.86270696  1
  Mg  Mg49  1  0.10562647  0.89437353  0.86270696  1
  Mg  Mg50  1  0.89437353  0.78874705  0.36270696  1
  Mg  Mg51  1  0.78874705  0.89437353  0.86270696  1
  Mg  Mg52  1  0.89437353  0.10562647  0.36270696  1
  Mg  Mg53  1  0.21125295  0.10562647  0.36270696  1
  Rh  Rh54  1  0.52091353  0.04182706  0.70972403  1
  Rh  Rh55  1  0.52091353  0.47908647  0.70972403  1
  Rh  Rh56  1  0.47908647  0.95817294  0.20972403  1
  Rh  Rh57  1  0.95817294  0.47908647  0.70972403  1
  Rh  Rh58  1  0.47908647  0.52091353  0.20972403  1
  Rh  Rh59  1  0.04182706  0.52091353  0.20972403  1
  Rh  Rh60  1  0.66666700  0.33333300  0.86419354  1
  Rh  Rh61  1  0.33333300  0.66666700  0.36419354  1
  Rh  Rh62  1  0.14357626  0.28715252  0.56380754  1
  Rh  Rh63  1  0.14357626  0.85642374  0.56380754  1
  Rh  Rh64  1  0.85642374  0.71284748  0.06380754  1
  Rh  Rh65  1  0.71284748  0.85642374  0.56380754  1
  Rh  Rh66  1  0.85642374  0.14357626  0.06380754  1
  Rh  Rh67  1  0.28715252  0.14357626  0.06380754  1
