# generated using pymatgen
data_Sb4PtC4(O2F11)2
_symmetry_space_group_name_H-M   'P 1'
_cell_length_a   10.01309515
_cell_length_b   13.05179012
_cell_length_c   18.28908966
_cell_angle_alpha   103.51864111
_cell_angle_beta   90.00000000
_cell_angle_gamma   90.00000000
_symmetry_Int_Tables_number   1
_chemical_formula_structural   Sb4PtC4(O2F11)2
_chemical_formula_sum   'Sb16 Pt4 C16 O16 F88'
_cell_volume   2323.95697004
_cell_formula_units_Z   4
loop_
 _symmetry_equiv_pos_site_id
 _symmetry_equiv_pos_as_xyz
  1  'x, y, z'
loop_
 _atom_site_type_symbol
 _atom_site_label
 _atom_site_symmetry_multiplicity
 _atom_site_fract_x
 _atom_site_fract_y
 _atom_site_fract_z
 _atom_site_occupancy
  Sb  Sb0  1  0.25406007  0.05280559  0.33118327  1
  Sb  Sb1  1  0.25870750  0.93194929  0.51509680  1
  Sb  Sb2  1  0.75406007  0.94719441  0.16881673  1
  Sb  Sb3  1  0.74535547  0.37839025  0.86743534  1
  Sb  Sb4  1  0.75870750  0.06805071  0.98490320  1
  Sb  Sb5  1  0.74079212  0.48936221  0.17643574  1
  Sb  Sb6  1  0.75920788  0.48936221  0.67643574  1
  Sb  Sb7  1  0.74129250  0.06805071  0.48490320  1
  Sb  Sb8  1  0.25464453  0.62160975  0.13256466  1
  Sb  Sb9  1  0.24129250  0.93194929  0.01509680  1
  Sb  Sb10  1  0.24535547  0.62160975  0.63256466  1
  Sb  Sb11  1  0.24593993  0.05280559  0.83118327  1
  Sb  Sb12  1  0.24079212  0.51063779  0.32356426  1
  Sb  Sb13  1  0.74593993  0.94719441  0.66881673  1
  Sb  Sb14  1  0.25920788  0.51063779  0.82356426  1
  Sb  Sb15  1  0.75464453  0.37839025  0.36743534  1
  Pt  Pt16  1  0.74140468  0.72837234  0.41031027  1
  Pt  Pt17  1  0.24140468  0.27162766  0.08968973  1
  Pt  Pt18  1  0.75859532  0.72837234  0.91031027  1
  Pt  Pt19  1  0.25859532  0.27162766  0.58968973  1
  C  C20  1  0.40838716  0.23521832  0.65004836  1
  C  C21  1  0.38802139  0.32010674  0.52297906  1
  C  C22  1  0.62246199  0.77519122  0.84612407  1
  C  C23  1  0.38640132  0.30432105  0.02508472  1
  C  C24  1  0.12246199  0.22480878  0.65387593  1
  C  C25  1  0.61197861  0.67989326  0.47702094  1
  C  C26  1  0.11359868  0.30432105  0.52508472  1
  C  C27  1  0.87753801  0.77519122  0.34612407  1
  C  C28  1  0.59161284  0.76478168  0.34995164  1
  C  C29  1  0.88802139  0.67989326  0.97702094  1
  C  C30  1  0.37753801  0.22480878  0.15387593  1
  C  C31  1  0.09161284  0.23521832  0.15004836  1
  C  C32  1  0.90838716  0.76478168  0.84995164  1
  C  C33  1  0.88640132  0.69567895  0.47491528  1
  C  C34  1  0.61359868  0.69567895  0.97491528  1
  C  C35  1  0.11197861  0.32010674  0.02297906  1
  O  O36  1  0.03364320  0.32065295  0.48554779  1
  O  O37  1  -0.00332537  0.78671787  0.81807282  1
  O  O38  1  0.04092751  0.19783569  0.68798027  1
  O  O39  1  0.53364320  0.67934705  0.01445221  1
  O  O40  1  0.46635680  0.32065295  0.98554779  1
  O  O41  1  0.54313743  0.65202591  0.51750949  1
  O  O42  1  0.95686257  0.65202591  0.01750949  1
  O  O43  1  0.50332537  0.78671787  0.31807282  1
  O  O44  1  0.04313743  0.34797409  0.98249051  1
  O  O45  1  0.45907249  0.19783569  0.18798027  1
  O  O46  1  0.49667463  0.21328213  0.68192718  1
  O  O47  1  0.45686257  0.34797409  0.48249051  1
  O  O48  1  1.00332537  0.21328213  0.18192718  1
  O  O49  1  0.96635680  0.67934705  0.51445221  1
  O  O50  1  0.95907249  0.80216431  0.31201973  1
  O  O51  1  0.54092751  0.80216431  0.81201973  1
  F  F52  1  0.87932071  0.48649053  0.88949657  1
  F  F53  1  0.36674245  0.04619057  0.03464130  1
  F  F54  1  0.62067929  0.48649053  0.38949657  1
  F  F55  1  0.39733098  0.71487301  0.16769732  1
  F  F56  1  0.73292726  0.81884117  0.59120387  1
  F  F57  1  0.37777542  0.60323680  0.37146332  1
  F  F58  1  0.44118140  0.05836177  0.31790097  1
  F  F59  1  0.12222458  0.60323680  0.87146332  1
  F  F60  1  0.89733098  0.28512699  0.33230268  1
  F  F61  1  0.10266902  0.71487301  0.66769732  1
  F  F62  1  0.25136725  0.64681486  0.53477690  1
  F  F63  1  0.12067929  0.51350947  0.11050343  1
  F  F64  1  0.74863275  0.35318514  0.46522310  1
  F  F65  1  0.55881860  0.94163823  0.68209903  1
  F  F66  1  0.26188608  0.59039571  0.23906850  1
  F  F67  1  0.92685777  0.95508939  0.64038236  1
  F  F68  1  0.73811392  0.40960429  0.76093150  1
  F  F69  1  0.28260115  0.12602222  0.75446219  1
  F  F70  1  0.07314223  0.04491061  0.35961764  1
  F  F71  1  0.88865081  0.96591270  0.93839103  1
  F  F72  1  0.10968662  0.42622512  0.26134583  1
  F  F73  1  0.60968662  0.57377488  0.23865417  1
  F  F74  1  0.27926657  0.88871387  0.10409199  1
  F  F75  1  0.37932071  0.51350947  0.61050343  1
  F  F76  1  0.38865081  0.03408730  0.56160897  1
  F  F77  1  0.62222458  0.39676320  0.62853668  1
  F  F78  1  0.87902756  0.27937365  0.82672596  1
  F  F79  1  0.72073343  0.11128613  0.89590801  1
  F  F80  1  0.80302911  0.02100905  0.08221055  1
  F  F81  1  0.77926657  0.11128613  0.39590801  1
  F  F82  1  0.38057320  0.50829231  0.10367597  1
  F  F83  1  0.39751113  0.83172855  0.48237260  1
  F  F84  1  0.36945735  0.84130675  0.95611793  1
  F  F85  1  0.87777542  0.39676320  0.12853668  1
  F  F86  1  0.13054265  0.84130675  0.45611793  1
  F  F87  1  0.11134919  0.03408730  0.06160897  1
  F  F88  1  0.24573849  0.91497411  0.26980450  1
  F  F89  1  0.23811392  0.59039571  0.73906850  1
  F  F90  1  0.12924977  0.41483167  0.76993514  1
  F  F91  1  0.27444607  0.43965911  0.90275211  1
  F  F92  1  0.69697089  0.02100905  0.58221055  1
  F  F93  1  0.76188608  0.40960429  0.26093150  1
  F  F94  1  0.19697089  0.97899095  0.91778945  1
  F  F95  1  0.12097244  0.72062635  0.17327404  1
  F  F96  1  0.72555393  0.56034089  0.09724789  1
  F  F97  1  0.60248887  0.16827145  0.51762740  1
  F  F98  1  0.74573849  0.08502589  0.23019550  1
  F  F99  1  0.05881860  0.05836177  0.81790097  1
  F  F100  1  0.42685777  0.04491061  0.85961764  1
  F  F101  1  0.86674245  0.95380943  0.46535870  1
  F  F102  1  0.11942680  0.50829231  0.60367597  1
  F  F103  1  0.89105526  0.38612544  0.63771872  1
  F  F104  1  0.86945735  0.15869325  0.54388207  1
  F  F105  1  0.94118140  0.94163823  0.18209903  1
  F  F106  1  0.10894474  0.61387456  0.36228128  1
  F  F107  1  0.24863275  0.64681486  0.03477690  1
  F  F108  1  0.61134919  0.96591270  0.43839103  1
  F  F109  1  0.10248887  0.83172855  0.98237260  1
  F  F110  1  0.77444607  0.56034089  0.59724789  1
  F  F111  1  0.39105526  0.61387456  0.86228128  1
  F  F112  1  0.30302911  0.97899095  0.41778945  1
  F  F113  1  0.87075023  0.58516833  0.23006486  1
  F  F114  1  0.22073343  0.88871387  0.60409199  1
  F  F115  1  0.60894474  0.38612544  0.13771872  1
  F  F116  1  0.71739885  0.87397778  0.24553781  1
  F  F117  1  0.61942680  0.49170769  0.89632403  1
  F  F118  1  0.75136725  0.35318514  0.96522310  1
  F  F119  1  0.39031338  0.42622512  0.76134583  1
  F  F120  1  0.89031338  0.57377488  0.73865417  1
  F  F121  1  0.76707274  0.81884117  0.09120387  1
  F  F122  1  0.62924977  0.58516833  0.73006486  1
  F  F123  1  0.63325755  0.95380943  0.96535870  1
  F  F124  1  0.25426151  0.91497411  0.76980450  1
  F  F125  1  0.13325755  0.04619057  0.53464130  1
  F  F126  1  0.57314223  0.95508939  0.14038236  1
  F  F127  1  0.23292726  0.18115883  0.90879613  1
  F  F128  1  0.63054265  0.15869325  0.04388207  1
  F  F129  1  0.62097244  0.27937365  0.32672596  1
  F  F130  1  0.37902756  0.72062635  0.67327404  1
  F  F131  1  0.26707274  0.18115883  0.40879613  1
  F  F132  1  0.21739885  0.12602222  0.25446219  1
  F  F133  1  0.88057320  0.49170769  0.39632403  1
  F  F134  1  0.78260115  0.87397778  0.74553781  1
  F  F135  1  0.75426151  0.08502589  0.73019550  1
  F  F136  1  0.22555393  0.43965911  0.40275211  1
  F  F137  1  0.37075023  0.41483167  0.26993514  1
  F  F138  1  0.89751113  0.16827145  0.01762740  1
  F  F139  1  0.60266902  0.28512699  0.83230268  1
