# generated using pymatgen
data_Rb2LiMn3F12
_symmetry_space_group_name_H-M   'P 1'
_cell_length_a   7.02679285
_cell_length_b   7.59431768
_cell_length_c   10.39733498
_cell_angle_alpha   90.66840410
_cell_angle_beta   92.25431462
_cell_angle_gamma   90.44889527
_symmetry_Int_Tables_number   1
_chemical_formula_structural   Rb2LiMn3F12
_chemical_formula_sum   'Rb4 Li2 Mn6 F24'
_cell_volume   554.35400903
_cell_formula_units_Z   2
loop_
 _symmetry_equiv_pos_site_id
 _symmetry_equiv_pos_as_xyz
  1  'x, y, z'
loop_
 _atom_site_type_symbol
 _atom_site_label
 _atom_site_symmetry_multiplicity
 _atom_site_fract_x
 _atom_site_fract_y
 _atom_site_fract_z
 _atom_site_occupancy
  Rb  Rb0  1  0.01521278  0.25398787  0.87122180  1
  Rb  Rb1  1  0.98478722  0.74601213  0.12877820  1
  Rb  Rb2  1  0.49450284  0.25215425  0.61273396  1
  Rb  Rb3  1  0.50549716  0.74784575  0.38726604  1
  Li  Li4  1  0.71120706  0.23988499  0.26051092  1
  Li  Li5  1  0.28879294  0.76011501  0.73948908  1
  Mn  Mn6  1  0.00000000  0.00000000  0.50000000  1
  Mn  Mn7  1  0.50000000  0.00000000  0.00000000  1
  Mn  Mn8  1  0.20136264  0.25194685  0.22457689  1
  Mn  Mn9  1  0.79863736  0.74805315  0.77542311  1
  Mn  Mn10  1  0.50000000  0.50000000  0.00000000  1
  Mn  Mn11  1  0.00000000  0.50000000  0.50000000  1
  F  F12  1  0.76904728  0.05534920  0.41697723  1
  F  F13  1  0.23095272  0.94465080  0.58302277  1
  F  F14  1  0.12843696  0.03690086  0.34610290  1
  F  F15  1  0.87156304  0.96309914  0.65389710  1
  F  F16  1  0.15886311  0.44818161  0.33438876  1
  F  F17  1  0.84113689  0.55181839  0.66561124  1
  F  F18  1  0.94758802  0.26001169  0.16653980  1
  F  F19  1  0.05241198  0.73998831  0.83346020  1
  F  F20  1  0.26535351  0.44037843  0.07859151  1
  F  F21  1  0.73464649  0.55962157  0.92140849  1
  F  F22  1  0.59281707  0.23493079  0.00612776  1
  F  F23  1  0.40718293  0.76506921  0.99387224  1
  F  F24  1  0.61878189  0.53630260  0.16014777  1
  F  F25  1  0.38121811  0.46369740  0.83985223  1
  F  F26  1  0.36558996  0.04106917  0.84602476  1
  F  F27  1  0.63441004  0.95893083  0.15397524  1
  F  F28  1  0.24524126  0.07219881  0.09985074  1
  F  F29  1  0.75475874  0.92780119  0.90014926  1
  F  F30  1  0.22573697  0.57600279  0.58269185  1
  F  F31  1  0.77426303  0.42399721  0.41730815  1
  F  F32  1  0.44537545  0.23761898  0.29572619  1
  F  F33  1  0.55462455  0.76238102  0.70427381  1
  F  F34  1  0.04887856  0.26905990  0.56391535  1
  F  F35  1  0.95112144  0.73094010  0.43608465  1
