# generated using pymatgen
data_P3Pb5BrO12
_symmetry_space_group_name_H-M   'P 1'
_cell_length_a   7.36138315
_cell_length_b   10.24810365
_cell_length_c   10.24810364
_cell_angle_alpha   119.99999726
_cell_angle_beta   90.00000000
_cell_angle_gamma   90.00000000
_symmetry_Int_Tables_number   1
_chemical_formula_structural   P3Pb5BrO12
_chemical_formula_sum   'P6 Pb10 Br2 O24'
_cell_volume   669.54085807
_cell_formula_units_Z   2
loop_
 _symmetry_equiv_pos_site_id
 _symmetry_equiv_pos_as_xyz
  1  'x, y, z'
loop_
 _atom_site_type_symbol
 _atom_site_label
 _atom_site_symmetry_multiplicity
 _atom_site_fract_x
 _atom_site_fract_y
 _atom_site_fract_z
 _atom_site_occupancy
  P  P0  1  0.75000000  0.96584853  0.37487470  1
  P  P1  1  0.25000000  0.03415147  0.62512530  1
  P  P2  1  0.75000000  0.40902617  0.03415147  1
  P  P3  1  0.25000000  0.59097383  0.96584853  1
  P  P4  1  0.75000000  0.62512530  0.59097383  1
  P  P5  1  0.25000000  0.37487470  0.40902617  1
  Pb  Pb6  1  0.75000000  0.74715692  0.00926544  1
  Pb  Pb7  1  0.25000000  0.25284308  0.99073456  1
  Pb  Pb8  1  0.75000000  0.26210853  0.25284308  1
  Pb  Pb9  1  0.25000000  0.73789147  0.74715692  1
  Pb  Pb10  1  0.75000000  0.99073456  0.73789147  1
  Pb  Pb11  1  0.25000000  0.00926544  0.26210853  1
  Pb  Pb12  1  0.00303127  0.66666700  0.33333300  1
  Pb  Pb13  1  0.99696873  0.33333300  0.66666700  1
  Pb  Pb14  1  0.50303127  0.33333300  0.66666700  1
  Pb  Pb15  1  0.49696873  0.66666700  0.33333300  1
  Br  Br16  1  -0.00000000  -0.00000000  -0.00000000  1
  Br  Br17  1  0.50000000  -0.00000000  -0.00000000  1
  O  O18  1  0.75000000  0.51831988  0.65765756  1
  O  O19  1  0.25000000  0.48168012  0.34234244  1
  O  O20  1  0.75000000  0.13933768  0.48168012  1
  O  O21  1  0.25000000  0.86066232  0.51831988  1
  O  O22  1  0.75000000  0.34234244  0.86066232  1
  O  O23  1  0.25000000  0.65765756  0.13933768  1
  O  O24  1  0.75000000  0.88072301  0.46800122  1
  O  O25  1  0.25000000  0.11927699  0.53199878  1
  O  O26  1  0.75000000  0.58727821  0.11927699  1
  O  O27  1  0.25000000  0.41272179  0.88072301  1
  O  O28  1  0.75000000  0.53199878  0.41272179  1
  O  O29  1  0.25000000  0.46800122  0.58727821  1
  O  O30  1  0.92143222  0.90938915  0.27127432  1
  O  O31  1  0.07856778  0.09061085  0.72872568  1
  O  O32  1  0.92143222  0.36188517  0.09061085  1
  O  O33  1  0.42143222  0.09061085  0.72872568  1
  O  O34  1  0.07856778  0.63811483  0.90938915  1
  O  O35  1  0.57856778  0.90938915  0.27127432  1
  O  O36  1  0.92143222  0.72872568  0.63811483  1
  O  O37  1  0.42143222  0.63811483  0.90938915  1
  O  O38  1  0.07856778  0.27127432  0.36188517  1
  O  O39  1  0.57856778  0.36188517  0.09061085  1
  O  O40  1  0.42143222  0.27127432  0.36188517  1
  O  O41  1  0.57856778  0.72872568  0.63811483  1
