# generated using pymatgen
data_Na3Np6FeF30
_symmetry_space_group_name_H-M   'P 1'
_cell_length_a   9.93053097
_cell_length_b   9.93053097
_cell_length_c   12.96721483
_cell_angle_alpha   90.00000000
_cell_angle_beta   90.00000000
_cell_angle_gamma   119.99999698
_symmetry_Int_Tables_number   1
_chemical_formula_structural   Na3Np6FeF30
_chemical_formula_sum   'Na6 Np12 Fe2 F60'
_cell_volume   1107.44531679
_cell_formula_units_Z   2
loop_
 _symmetry_equiv_pos_site_id
 _symmetry_equiv_pos_as_xyz
  1  'x, y, z'
loop_
 _atom_site_type_symbol
 _atom_site_label
 _atom_site_symmetry_multiplicity
 _atom_site_fract_x
 _atom_site_fract_y
 _atom_site_fract_z
 _atom_site_occupancy
  Na  Na0  1  0.66666700  0.33333300  0.84187175  1
  Na  Na1  1  0.33333300  0.66666700  0.15812825  1
  Na  Na2  1  0.33333300  0.66666700  0.65812825  1
  Na  Na3  1  0.66666700  0.33333300  0.34187175  1
  Na  Na4  1  -0.00000000  -0.00000000  0.00000000  1
  Na  Na5  1  -0.00000000  -0.00000000  0.50000000  1
  Np  Np6  1  0.59801047  0.67644912  0.89838580  1
  Np  Np7  1  0.40198953  0.32355088  0.10161420  1
  Np  Np8  1  0.07843865  0.40198953  0.89838580  1
  Np  Np9  1  0.92156135  0.32355088  0.60161420  1
  Np  Np10  1  0.92156135  0.59801047  0.10161420  1
  Np  Np11  1  0.07843865  0.67644912  0.39838580  1
  Np  Np12  1  0.32355088  0.92156135  0.89838580  1
  Np  Np13  1  0.67644912  0.59801047  0.60161420  1
  Np  Np14  1  0.67644912  0.07843865  0.10161420  1
  Np  Np15  1  0.32355088  0.40198953  0.39838580  1
  Np  Np16  1  0.40198953  0.07843865  0.60161420  1
  Np  Np17  1  0.59801047  0.92156135  0.39838580  1
  Fe  Fe18  1  -0.00000000  -0.00000000  0.75000000  1
  Fe  Fe19  1  -0.00000000  -0.00000000  0.25000000  1
  F  F20  1  0.81820520  0.89807954  0.83861858  1
  F  F21  1  0.18179480  0.10192046  0.16138142  1
  F  F22  1  0.07987433  0.18179480  0.83861858  1
  F  F23  1  0.92012567  0.10192046  0.66138142  1
  F  F24  1  0.92012567  0.81820520  0.16138142  1
  F  F25  1  0.07987433  0.89807954  0.33861858  1
  F  F26  1  0.10192046  0.92012567  0.83861858  1
  F  F27  1  0.89807954  0.81820520  0.66138142  1
  F  F28  1  0.89807954  0.07987433  0.16138142  1
  F  F29  1  0.10192046  0.18179480  0.33861858  1
  F  F30  1  0.18179480  0.07987433  0.66138142  1
  F  F31  1  0.81820520  0.92012567  0.33861858  1
  F  F32  1  0.87022744  0.30774328  0.78446094  1
  F  F33  1  0.12977256  0.69225672  0.21553906  1
  F  F34  1  0.43751584  0.12977256  0.78446094  1
  F  F35  1  0.56248416  0.69225672  0.71553906  1
  F  F36  1  0.56248416  0.87022744  0.21553906  1
  F  F37  1  0.43751584  0.30774328  0.28446094  1
  F  F38  1  0.69225672  0.56248416  0.78446094  1
  F  F39  1  0.30774328  0.87022744  0.71553906  1
  F  F40  1  0.30774328  0.43751584  0.21553906  1
  F  F41  1  0.69225672  0.12977256  0.28446094  1
  F  F42  1  0.12977256  0.43751584  0.71553906  1
  F  F43  1  0.87022744  0.56248416  0.28446094  1
  F  F44  1  0.88139048  0.19271542  0.98026827  1
  F  F45  1  0.11860952  0.80728458  0.01973173  1
  F  F46  1  0.31132495  0.11860952  0.98026827  1
  F  F47  1  0.68867505  0.80728458  0.51973173  1
  F  F48  1  0.68867505  0.88139048  0.01973173  1
  F  F49  1  0.31132495  0.19271542  0.48026827  1
  F  F50  1  0.80728458  0.68867505  0.98026827  1
  F  F51  1  0.19271542  0.88139048  0.51973173  1
  F  F52  1  0.19271542  0.31132495  0.01973173  1
  F  F53  1  0.80728458  0.11860952  0.48026827  1
  F  F54  1  0.11860952  0.31132495  0.51973173  1
  F  F55  1  0.88139048  0.68867505  0.48026827  1
  F  F56  1  0.48776735  0.82701875  0.86320857  1
  F  F57  1  0.51223265  0.17298125  0.13679143  1
  F  F58  1  0.33925140  0.51223265  0.86320857  1
  F  F59  1  0.66074860  0.17298125  0.63679143  1
  F  F60  1  0.66074860  0.48776735  0.13679143  1
  F  F61  1  0.33925140  0.82701875  0.36320857  1
  F  F62  1  0.17298125  0.66074860  0.86320857  1
  F  F63  1  0.82701875  0.48776735  0.63679143  1
  F  F64  1  0.82701875  0.33925140  0.13679143  1
  F  F65  1  0.17298125  0.51223265  0.36320857  1
  F  F66  1  0.51223265  0.33925140  0.63679143  1
  F  F67  1  0.48776735  0.66074860  0.36320857  1
  F  F68  1  0.88223934  0.46845691  0.94961200  1
  F  F69  1  0.11776066  0.53154309  0.05038800  1
  F  F70  1  0.58621757  0.11776066  0.94961200  1
  F  F71  1  0.41378243  0.53154309  0.55038800  1
  F  F72  1  0.41378243  0.88223934  0.05038800  1
  F  F73  1  0.58621757  0.46845691  0.44961200  1
  F  F74  1  0.53154309  0.41378243  0.94961200  1
  F  F75  1  0.46845691  0.88223934  0.55038800  1
  F  F76  1  0.46845691  0.58621757  0.05038800  1
  F  F77  1  0.53154309  0.11776066  0.44961200  1
  F  F78  1  0.11776066  0.58621757  0.55038800  1
  F  F79  1  0.88223934  0.41378243  0.44961200  1
