# generated using pymatgen
data_NdGa4Os
_symmetry_space_group_name_H-M   'P 1'
_cell_length_a   7.69679827
_cell_length_b   8.83300026
_cell_length_c   9.75134750
_cell_angle_alpha   90.00000000
_cell_angle_beta   90.00000000
_cell_angle_gamma   90.00000000
_symmetry_Int_Tables_number   1
_chemical_formula_structural   NdGa4Os
_chemical_formula_sum   'Nd6 Ga24 Os6'
_cell_volume   662.95336681
_cell_formula_units_Z   6
loop_
 _symmetry_equiv_pos_site_id
 _symmetry_equiv_pos_as_xyz
  1  'x, y, z'
loop_
 _atom_site_type_symbol
 _atom_site_label
 _atom_site_symmetry_multiplicity
 _atom_site_fract_x
 _atom_site_fract_y
 _atom_site_fract_z
 _atom_site_occupancy
  Nd  Nd0  1  0.67923276  0.50000000  0.75000000  1
  Nd  Nd1  1  0.32076724  0.50000000  0.25000000  1
  Nd  Nd2  1  0.16116175  0.75094480  0.75000000  1
  Nd  Nd3  1  0.83883825  0.24905520  0.25000000  1
  Nd  Nd4  1  0.16116175  0.24905520  0.75000000  1
  Nd  Nd5  1  0.83883825  0.75094480  0.25000000  1
  Ga  Ga6  1  0.82156795  0.76331300  0.92456295  1
  Ga  Ga7  1  0.17843205  0.23668700  0.07543705  1
  Ga  Ga8  1  0.82156795  0.23668700  0.57543705  1
  Ga  Ga9  1  0.17843205  0.76331300  0.07543705  1
  Ga  Ga10  1  0.17843205  0.76331300  0.42456295  1
  Ga  Ga11  1  0.82156795  0.23668700  0.92456295  1
  Ga  Ga12  1  0.17843205  0.23668700  0.42456295  1
  Ga  Ga13  1  0.82156795  0.76331300  0.57543705  1
  Ga  Ga14  1  0.86989076  -0.00000000  0.75000000  1
  Ga  Ga15  1  0.13010924  -0.00000000  0.25000000  1
  Ga  Ga16  1  0.66189775  -0.00000000  0.43874025  1
  Ga  Ga17  1  0.33810225  -0.00000000  0.56125975  1
  Ga  Ga18  1  0.66189775  -0.00000000  0.06125975  1
  Ga  Ga19  1  0.33810225  -0.00000000  0.93874025  1
  Ga  Ga20  1  0.54734326  0.84364133  0.75000000  1
  Ga  Ga21  1  0.45265674  0.15635867  0.25000000  1
  Ga  Ga22  1  0.54734326  0.15635867  0.75000000  1
  Ga  Ga23  1  0.45265674  0.84364133  0.25000000  1
  Ga  Ga24  1  0.34326430  0.50000000  0.91451892  1
  Ga  Ga25  1  0.65673570  0.50000000  0.08548108  1
  Ga  Ga26  1  0.34326430  0.50000000  0.58548108  1
  Ga  Ga27  1  0.65673570  0.50000000  0.41451892  1
  Ga  Ga28  1  -0.00000000  0.50000000  0.00000000  1
  Ga  Ga29  1  -0.00000000  0.50000000  0.50000000  1
  Os  Os30  1  0.50000000  0.74087289  -0.00000000  1
  Os  Os31  1  0.50000000  0.25912711  0.00000000  1
  Os  Os32  1  0.50000000  0.25912711  0.50000000  1
  Os  Os33  1  0.50000000  0.74087289  0.50000000  1
  Os  Os34  1  -0.00000000  -0.00000000  0.00000000  1
  Os  Os35  1  -0.00000000  -0.00000000  0.50000000  1
