# generated using pymatgen
data_In5CuSe8
_symmetry_space_group_name_H-M   'P 1'
_cell_length_a   5.88274004
_cell_length_b   5.88274004
_cell_length_c   11.76904996
_cell_angle_alpha   90.00000000
_cell_angle_beta   90.00000000
_cell_angle_gamma   90.00000000
_symmetry_Int_Tables_number   1
_chemical_formula_structural   In5CuSe8
_chemical_formula_sum   'In5 Cu1 Se8'
_cell_volume   407.28716187
_cell_formula_units_Z   1
loop_
 _symmetry_equiv_pos_site_id
 _symmetry_equiv_pos_as_xyz
  1  'x, y, z'
loop_
 _atom_site_type_symbol
 _atom_site_label
 _atom_site_symmetry_multiplicity
 _atom_site_fract_x
 _atom_site_fract_y
 _atom_site_fract_z
 _atom_site_occupancy
  In  In0  1  -0.00000000  0.50000000  0.25907111  1
  In  In1  1  0.50000000  0.00000000  0.74092889  1
  In  In2  1  -0.00000000  0.50000000  0.74092889  1
  In  In3  1  0.50000000  0.00000000  0.25907111  1
  In  In4  1  -0.00000000  0.00000000  -0.00000000  1
  Cu  Cu5  1  0.50000000  0.50000000  0.50000000  1
  Se  Se6  1  0.27298957  0.27298957  0.11434797  1
  Se  Se7  1  0.72701043  0.72701043  0.11434797  1
  Se  Se8  1  0.27298957  0.72701043  0.88565203  1
  Se  Se9  1  0.72701043  0.27298957  0.88565203  1
  Se  Se10  1  0.24565463  0.24565463  0.60754167  1
  Se  Se11  1  0.75434537  0.75434537  0.60754167  1
  Se  Se12  1  0.24565463  0.75434537  0.39245833  1
  Se  Se13  1  0.75434537  0.24565463  0.39245833  1
