# generated using pymatgen
data_K2Be3Ni2F12
_symmetry_space_group_name_H-M   'P 1'
_cell_length_a   10.03274037
_cell_length_b   10.03274037
_cell_length_c   10.03274037
_cell_angle_alpha   90.00000000
_cell_angle_beta   90.00000000
_cell_angle_gamma   90.00000000
_symmetry_Int_Tables_number   1
_chemical_formula_structural   K2Be3Ni2F12
_chemical_formula_sum   'K8 Be12 Ni8 F48'
_cell_volume   1009.85430405
_cell_formula_units_Z   4
loop_
 _symmetry_equiv_pos_site_id
 _symmetry_equiv_pos_as_xyz
  1  'x, y, z'
loop_
 _atom_site_type_symbol
 _atom_site_label
 _atom_site_symmetry_multiplicity
 _atom_site_fract_x
 _atom_site_fract_y
 _atom_site_fract_z
 _atom_site_occupancy
  K  K0  1  0.04971228  0.04971228  0.04971228  1
  K  K1  1  0.45028772  0.95028772  0.54971228  1
  K  K2  1  0.95028772  0.54971228  0.45028772  1
  K  K3  1  0.54971228  0.45028772  0.95028772  1
  K  K4  1  0.81565564  0.81565564  0.81565564  1
  K  K5  1  0.68434436  0.18434436  0.31565564  1
  K  K6  1  0.18434436  0.31565564  0.68434436  1
  K  K7  1  0.31565564  0.68434436  0.18434436  1
  Be  Be8  1  0.02009666  0.21394004  0.37560965  1
  Be  Be9  1  0.47990334  0.78605996  0.87560965  1
  Be  Be10  1  0.97990334  0.71394004  0.12439035  1
  Be  Be11  1  0.37560965  0.02009666  0.21394004  1
  Be  Be12  1  0.52009666  0.28605996  0.62439035  1
  Be  Be13  1  0.87560965  0.47990334  0.78605996  1
  Be  Be14  1  0.12439035  0.97990334  0.71394004  1
  Be  Be15  1  0.62439035  0.52009666  0.28605996  1
  Be  Be16  1  0.21394004  0.37560965  0.02009666  1
  Be  Be17  1  0.71394004  0.12439035  0.97990334  1
  Be  Be18  1  0.28605996  0.62439035  0.52009666  1
  Be  Be19  1  0.78605996  0.87560965  0.47990334  1
  Ni  Ni20  1  0.33579543  0.33579543  0.33579543  1
  Ni  Ni21  1  0.16420457  0.66420457  0.83579543  1
  Ni  Ni22  1  0.66420457  0.83579543  0.16420457  1
  Ni  Ni23  1  0.83579543  0.16420457  0.66420457  1
  Ni  Ni24  1  0.59922986  0.59922986  0.59922986  1
  Ni  Ni25  1  0.90077014  0.40077014  0.09922986  1
  Ni  Ni26  1  0.40077014  0.09922986  0.90077014  1
  Ni  Ni27  1  0.09922986  0.90077014  0.40077014  1
  F  F28  1  0.01196823  0.06736869  0.32734489  1
  F  F29  1  0.48803177  0.93263131  0.82734489  1
  F  F30  1  0.98803177  0.56736869  0.17265511  1
  F  F31  1  0.32734489  0.01196823  0.06736869  1
  F  F32  1  0.51196823  0.43263131  0.67265511  1
  F  F33  1  0.82734489  0.48803177  0.93263131  1
  F  F34  1  0.17265511  0.98803177  0.56736869  1
  F  F35  1  0.67265511  0.51196823  0.43263131  1
  F  F36  1  0.06736869  0.32734489  0.01196823  1
  F  F37  1  0.56736869  0.17265511  0.98803177  1
  F  F38  1  0.43263131  0.67265511  0.51196823  1
  F  F39  1  0.93263131  0.82734489  0.48803177  1
  F  F40  1  0.26533833  0.49571239  0.43644165  1
  F  F41  1  0.23466167  0.50428761  0.93644165  1
  F  F42  1  0.73466167  0.99571239  0.06355835  1
  F  F43  1  0.43644165  0.26533833  0.49571239  1
  F  F44  1  0.76533833  0.00428761  0.56355835  1
  F  F45  1  0.93644165  0.23466167  0.50428761  1
  F  F46  1  0.06355835  0.73466167  0.99571239  1
  F  F47  1  0.56355835  0.76533833  0.00428761  1
  F  F48  1  0.49571239  0.43644165  0.26533833  1
  F  F49  1  0.99571239  0.06355835  0.73466167  1
  F  F50  1  0.00428761  0.56355835  0.76533833  1
  F  F51  1  0.50428761  0.93644165  0.23466167  1
  F  F52  1  0.04696354  0.80671078  0.22931854  1
  F  F53  1  0.45303646  0.19328922  0.72931854  1
  F  F54  1  0.95303646  0.30671078  0.27068146  1
  F  F55  1  0.22931854  0.04696354  0.80671078  1
  F  F56  1  0.54696354  0.69328922  0.77068146  1
  F  F57  1  0.72931854  0.45303646  0.19328922  1
  F  F58  1  0.27068146  0.95303646  0.30671078  1
  F  F59  1  0.77068146  0.54696354  0.69328922  1
  F  F60  1  0.80671078  0.22931854  0.04696354  1
  F  F61  1  0.30671078  0.27068146  0.95303646  1
  F  F62  1  0.69328922  0.77068146  0.54696354  1
  F  F63  1  0.19328922  0.72931854  0.45303646  1
  F  F64  1  0.16494739  0.25516045  0.40459983  1
  F  F65  1  0.33505261  0.74483955  0.90459983  1
  F  F66  1  0.83505261  0.75516045  0.09540017  1
  F  F67  1  0.40459983  0.16494739  0.25516045  1
  F  F68  1  0.66494739  0.24483955  0.59540017  1
  F  F69  1  0.90459983  0.33505261  0.74483955  1
  F  F70  1  0.09540017  0.83505261  0.75516045  1
  F  F71  1  0.59540017  0.66494739  0.24483955  1
  F  F72  1  0.25516045  0.40459983  0.16494739  1
  F  F73  1  0.75516045  0.09540017  0.83505261  1
  F  F74  1  0.24483955  0.59540017  0.66494739  1
  F  F75  1  0.74483955  0.90459983  0.33505261  1
