# generated using pymatgen
data_KPr(MoO4)2
_symmetry_space_group_name_H-M   'P 1'
_cell_length_a   7.67351557
_cell_length_b   7.67351557
_cell_length_c   8.01706645
_cell_angle_alpha   116.63238530
_cell_angle_beta   118.95485860
_cell_angle_gamma   91.48248771
_symmetry_Int_Tables_number   1
_chemical_formula_structural   KPr(MoO4)2
_chemical_formula_sum   'K2 Pr2 Mo4 O16'
_cell_volume   350.98101944
_cell_formula_units_Z   2
loop_
 _symmetry_equiv_pos_site_id
 _symmetry_equiv_pos_as_xyz
  1  'x, y, z'
loop_
 _atom_site_type_symbol
 _atom_site_label
 _atom_site_symmetry_multiplicity
 _atom_site_fract_x
 _atom_site_fract_y
 _atom_site_fract_z
 _atom_site_occupancy
  K  K0  1  0.45041146  0.20041146  0.25000000  1
  K  K1  1  0.54958854  0.79958854  0.75000000  1
  Pr  Pr2  1  0.02031450  0.77031450  0.25000000  1
  Pr  Pr3  1  0.97968550  0.22968550  0.75000000  1
  Mo  Mo4  1  0.95243705  0.30367247  0.26054420  1
  Mo  Mo5  1  0.04756295  0.69632753  0.73945580  1
  Mo  Mo6  1  0.54312826  0.69189284  0.23945580  1
  Mo  Mo7  1  0.45687174  0.30810716  0.76054420  1
  O  O8  1  0.67837309  0.23349789  0.06394994  1
  O  O9  1  0.32162691  0.76650211  0.93605006  1
  O  O10  1  0.66954796  0.61442315  0.43605006  1
  O  O11  1  0.33045204  0.38557685  0.56394994  1
  O  O12  1  0.75272631  0.92547984  0.36762337  1
  O  O13  1  0.24727369  0.07452016  0.63237663  1
  O  O14  1  0.05785647  0.38510294  0.13237663  1
  O  O15  1  0.94214353  0.61489706  0.86762337  1
  O  O16  1  0.05698948  0.63064600  0.47580993  1
  O  O17  1  0.94301052  0.36935400  0.52419007  1
  O  O18  1  0.65483607  0.58117955  0.02419007  1
  O  O19  1  0.34516393  0.41882045  0.97580993  1
  O  O20  1  0.98429249  0.05427054  0.19033898  1
  O  O21  1  0.01570751  0.94572946  0.80966102  1
  O  O22  1  0.36393157  0.79395351  0.30966102  1
  O  O23  1  0.63606843  0.20604649  0.69033898  1
