# generated using pymatgen
data_Ho6InCo2
_symmetry_space_group_name_H-M   'P 1'
_cell_length_a   8.33947221
_cell_length_b   8.33947221
_cell_length_c   8.33947221
_cell_angle_alpha   106.75093068
_cell_angle_beta   110.00695305
_cell_angle_gamma   111.69428026
_symmetry_Int_Tables_number   1
_chemical_formula_structural   Ho6InCo2
_chemical_formula_sum   'Ho12 In2 Co4'
_cell_volume   445.61955731
_cell_formula_units_Z   2
loop_
 _symmetry_equiv_pos_site_id
 _symmetry_equiv_pos_as_xyz
  1  'x, y, z'
loop_
 _atom_site_type_symbol
 _atom_site_label
 _atom_site_symmetry_multiplicity
 _atom_site_fract_x
 _atom_site_fract_y
 _atom_site_fract_z
 _atom_site_occupancy
  Ho  Ho0  1  0.69585461  0.38053278  0.68467817  1
  Ho  Ho1  1  0.30414539  0.61946722  0.31532183  1
  Ho  Ho2  1  0.30414539  0.98882356  0.68467817  1
  Ho  Ho3  1  0.69585461  0.01117644  0.31532183  1
  Ho  Ho4  1  0.52533451  0.71214254  0.81319197  1
  Ho  Ho5  1  0.47466549  0.28785746  0.18680803  1
  Ho  Ho6  1  0.10104943  0.28785746  0.81319197  1
  Ho  Ho7  1  0.89895057  0.71214254  0.18680803  1
  Ho  Ho8  1  0.78919279  0.76819515  0.55738794  1
  Ho  Ho9  1  0.21080721  0.23180485  0.44261206  1
  Ho  Ho10  1  0.21080721  0.76819515  0.97900236  1
  Ho  Ho11  1  0.78919279  0.23180485  0.02099764  1
  In  In12  1  0.00000000  0.50000000  0.50000000  1
  In  In13  1  0.00000000  -0.00000000  -0.00000000  1
  Co  Co14  1  0.50000000  0.38742303  0.88742303  1
  Co  Co15  1  0.50000000  0.61257697  0.11257697  1
  Co  Co16  1  0.62378151  -0.00000000  0.62378151  1
  Co  Co17  1  0.37621849  0.00000000  0.37621849  1
