# generated using pymatgen
data_Ho5BiPt2
_symmetry_space_group_name_H-M   'P 1'
_cell_length_a   7.75818984
_cell_length_b   7.75818984
_cell_length_c   8.85340667
_cell_angle_alpha   115.98571814
_cell_angle_beta   115.98571814
_cell_angle_gamma   90.00000000
_symmetry_Int_Tables_number   1
_chemical_formula_structural   Ho5BiPt2
_chemical_formula_sum   'Ho10 Bi2 Pt4'
_cell_volume   418.25457103
_cell_formula_units_Z   2
loop_
 _symmetry_equiv_pos_site_id
 _symmetry_equiv_pos_as_xyz
  1  'x, y, z'
loop_
 _atom_site_type_symbol
 _atom_site_label
 _atom_site_symmetry_multiplicity
 _atom_site_fract_x
 _atom_site_fract_y
 _atom_site_fract_z
 _atom_site_occupancy
  Ho  Ho0  1  0.00000000  -0.00000000  -0.00000000  1
  Ho  Ho1  1  0.50000000  0.50000000  -0.00000000  1
  Ho  Ho2  1  0.29268923  0.79268923  0.27081883  1
  Ho  Ho3  1  0.70731077  0.20731077  0.72918117  1
  Ho  Ho4  1  0.97812960  0.47812960  0.27081883  1
  Ho  Ho5  1  0.47812960  0.29268923  0.27081883  1
  Ho  Ho6  1  0.20731077  0.02187040  0.72918117  1
  Ho  Ho7  1  0.02187040  0.52187040  0.72918117  1
  Ho  Ho8  1  0.52187040  0.70731077  0.72918117  1
  Ho  Ho9  1  0.79268923  0.97812960  0.27081883  1
  Bi  Bi10  1  0.25000000  0.25000000  0.50000000  1
  Bi  Bi11  1  0.75000000  0.75000000  0.50000000  1
  Pt  Pt12  1  0.63756415  0.13756415  0.00000000  1
  Pt  Pt13  1  0.36243585  0.86243585  1.00000000  1
  Pt  Pt14  1  0.86243585  0.63756415  -0.00000000  1
  Pt  Pt15  1  0.13756415  0.36243585  0.00000000  1
