# generated using pymatgen
data_HoCu5Sn
_symmetry_space_group_name_H-M   'P 1'
_cell_length_a   4.99688839
_cell_length_b   8.21311893
_cell_length_c   10.57952889
_cell_angle_alpha   90.00000000
_cell_angle_beta   90.00000000
_cell_angle_gamma   90.00000000
_symmetry_Int_Tables_number   1
_chemical_formula_structural   HoCu5Sn
_chemical_formula_sum   'Ho4 Cu20 Sn4'
_cell_volume   434.18427430
_cell_formula_units_Z   4
loop_
 _symmetry_equiv_pos_site_id
 _symmetry_equiv_pos_as_xyz
  1  'x, y, z'
loop_
 _atom_site_type_symbol
 _atom_site_label
 _atom_site_symmetry_multiplicity
 _atom_site_fract_x
 _atom_site_fract_y
 _atom_site_fract_z
 _atom_site_occupancy
  Ho  Ho0  1  0.75000000  0.74896752  0.43721885  1
  Ho  Ho1  1  0.25000000  0.25103248  0.56278115  1
  Ho  Ho2  1  0.25000000  0.75103248  0.93721885  1
  Ho  Ho3  1  0.75000000  0.24896752  0.06278115  1
  Cu  Cu4  1  0.75000000  0.68601038  0.75542764  1
  Cu  Cu5  1  0.25000000  0.31398962  0.24457236  1
  Cu  Cu6  1  0.25000000  0.81398962  0.25542764  1
  Cu  Cu7  1  0.75000000  0.18601038  0.74457236  1
  Cu  Cu8  1  0.49824396  0.93415194  0.68697707  1
  Cu  Cu9  1  0.50175604  0.06584806  0.31302293  1
  Cu  Cu10  1  0.50175604  0.56584806  0.18697707  1
  Cu  Cu11  1  0.99824396  0.06584806  0.31302293  1
  Cu  Cu12  1  0.49824396  0.43415194  0.81302293  1
  Cu  Cu13  1  0.00175604  0.93415194  0.68697707  1
  Cu  Cu14  1  0.00175604  0.43415194  0.81302293  1
  Cu  Cu15  1  0.99824396  0.56584806  0.18697707  1
  Cu  Cu16  1  0.75000000  0.58667713  0.98244246  1
  Cu  Cu17  1  0.25000000  0.41332287  0.01755754  1
  Cu  Cu18  1  0.25000000  0.91332287  0.48244246  1
  Cu  Cu19  1  0.75000000  0.08667713  0.51755754  1
  Cu  Cu20  1  0.75000000  0.94129147  0.89827985  1
  Cu  Cu21  1  0.25000000  0.05870853  0.10172015  1
  Cu  Cu22  1  0.25000000  0.55870853  0.39827985  1
  Cu  Cu23  1  0.75000000  0.44129147  0.60172015  1
  Sn  Sn24  1  0.75000000  0.86038109  0.13894943  1
  Sn  Sn25  1  0.25000000  0.13961891  0.86105057  1
  Sn  Sn26  1  0.25000000  0.63961891  0.63894943  1
  Sn  Sn27  1  0.75000000  0.36038109  0.36105057  1
