# generated using pymatgen
data_KHg5Cl11
_symmetry_space_group_name_H-M   'P 1'
_cell_length_a   6.65513281
_cell_length_b   9.65537768
_cell_length_c   9.65537768
_cell_angle_alpha   100.26595500
_cell_angle_beta   108.19609442
_cell_angle_gamma   108.19609442
_symmetry_Int_Tables_number   1
_chemical_formula_structural   KHg5Cl11
_chemical_formula_sum   'K1 Hg5 Cl11'
_cell_volume   533.16010687
_cell_formula_units_Z   1
loop_
 _symmetry_equiv_pos_site_id
 _symmetry_equiv_pos_as_xyz
  1  'x, y, z'
loop_
 _atom_site_type_symbol
 _atom_site_label
 _atom_site_symmetry_multiplicity
 _atom_site_fract_x
 _atom_site_fract_y
 _atom_site_fract_z
 _atom_site_occupancy
  K  K0  1  -0.00000000  -0.00000000  0.00000000  1
  Hg  Hg1  1  0.68675248  0.35285656  0.01558695  1
  Hg  Hg2  1  0.31324752  0.64714344  0.98441305  1
  Hg  Hg3  1  0.31324752  0.98441305  0.64714344  1
  Hg  Hg4  1  0.68675248  0.01558695  0.35285656  1
  Hg  Hg5  1  -0.00000000  0.50000000  0.50000000  1
  Cl  Cl6  1  0.38998129  0.64933008  0.64933008  1
  Cl  Cl7  1  0.61001871  0.35066992  0.35066992  1
  Cl  Cl8  1  0.69531582  0.70238031  0.13971210  1
  Cl  Cl9  1  0.30468418  0.29761969  0.86028790  1
  Cl  Cl10  1  0.30468418  0.86028790  0.29761969  1
  Cl  Cl11  1  0.69531582  0.13971210  0.70238031  1
  Cl  Cl12  1  0.50000000  -0.00000000  0.00000000  1
  Cl  Cl13  1  0.92898725  0.58261243  0.83194405  1
  Cl  Cl14  1  0.07101275  0.41738757  0.16805595  1
  Cl  Cl15  1  0.07101275  0.16805595  0.41738757  1
  Cl  Cl16  1  0.92898725  0.83194405  0.58261243  1
