# generated using pymatgen
data_Ho2B6Rh
_symmetry_space_group_name_H-M   'P 1'
_cell_length_a   3.65620554
_cell_length_b   9.17164226
_cell_length_c   11.49246352
_cell_angle_alpha   90.00000000
_cell_angle_beta   90.00000000
_cell_angle_gamma   90.00000000
_symmetry_Int_Tables_number   1
_chemical_formula_structural   Ho2B6Rh
_chemical_formula_sum   'Ho8 B24 Rh4'
_cell_volume   385.38148241
_cell_formula_units_Z   4
loop_
 _symmetry_equiv_pos_site_id
 _symmetry_equiv_pos_as_xyz
  1  'x, y, z'
loop_
 _atom_site_type_symbol
 _atom_site_label
 _atom_site_symmetry_multiplicity
 _atom_site_fract_x
 _atom_site_fract_y
 _atom_site_fract_z
 _atom_site_occupancy
  Ho  Ho0  1  0.50000000  0.32271523  0.41317087  1
  Ho  Ho1  1  0.50000000  0.67728477  0.58682913  1
  Ho  Ho2  1  0.50000000  0.17728477  0.91317087  1
  Ho  Ho3  1  0.50000000  0.82271523  0.08682913  1
  Ho  Ho4  1  0.50000000  0.44489121  0.12606408  1
  Ho  Ho5  1  0.50000000  0.55510879  0.87393592  1
  Ho  Ho6  1  0.50000000  0.05510879  0.62606408  1
  Ho  Ho7  1  0.50000000  0.94489121  0.37393592  1
  B  B8  1  0.00000000  0.11134031  0.46950239  1
  B  B9  1  0.00000000  0.88865969  0.53049761  1
  B  B10  1  0.00000000  0.38865969  0.96950239  1
  B  B11  1  0.00000000  0.61134031  0.03049761  1
  B  B12  1  -0.00000000  0.13374992  0.31553742  1
  B  B13  1  -0.00000000  0.86625008  0.68446258  1
  B  B14  1  0.00000000  0.36625008  0.81553742  1
  B  B15  1  -0.00000000  0.63374992  0.18446258  1
  B  B16  1  0.00000000  0.05337569  0.06617151  1
  B  B17  1  0.00000000  0.94662431  0.93382849  1
  B  B18  1  0.00000000  0.44662431  0.56617151  1
  B  B19  1  0.00000000  0.55337569  0.43382849  1
  B  B20  1  0.00000000  0.48360367  0.28788823  1
  B  B21  1  0.00000000  0.51639633  0.71211177  1
  B  B22  1  0.00000000  0.01639633  0.78788823  1
  B  B23  1  0.00000000  0.98360367  0.21211177  1
  B  B24  1  0.00000000  0.25016484  0.07932014  1
  B  B25  1  0.00000000  0.74983516  0.92067986  1
  B  B26  1  0.00000000  0.24983516  0.57932014  1
  B  B27  1  0.00000000  0.75016484  0.42067986  1
  B  B28  1  -0.00000000  0.29458046  0.23465856  1
  B  B29  1  0.00000000  0.70541954  0.76534144  1
  B  B30  1  0.00000000  0.20541954  0.73465856  1
  B  B31  1  0.00000000  0.79458046  0.26534144  1
  Rh  Rh32  1  0.50000000  0.13976680  0.17830635  1
  Rh  Rh33  1  0.50000000  0.86023320  0.82169365  1
  Rh  Rh34  1  0.50000000  0.36023320  0.67830635  1
  Rh  Rh35  1  0.50000000  0.63976680  0.32169365  1
