# generated using pymatgen
data_EuAl3(BO3)4
_symmetry_space_group_name_H-M   'P 1'
_cell_length_a   5.96691792
_cell_length_b   5.96691792
_cell_length_c   11.28548137
_cell_angle_alpha   98.49656939
_cell_angle_beta   98.49656939
_cell_angle_gamma   104.10646646
_symmetry_Int_Tables_number   1
_chemical_formula_structural   EuAl3(BO3)4
_chemical_formula_sum   'Eu2 Al6 B8 O24'
_cell_volume   378.27694531
_cell_formula_units_Z   2
loop_
 _symmetry_equiv_pos_site_id
 _symmetry_equiv_pos_as_xyz
  1  'x, y, z'
loop_
 _atom_site_type_symbol
 _atom_site_label
 _atom_site_symmetry_multiplicity
 _atom_site_fract_x
 _atom_site_fract_y
 _atom_site_fract_z
 _atom_site_occupancy
  Eu  Eu0  1  0.96359175  0.03640825  0.75000000  1
  Eu  Eu1  1  0.03640825  0.96359175  0.25000000  1
  Al  Al2  1  0.69492927  0.19444331  0.47165865  1
  Al  Al3  1  0.30507073  0.80555669  0.52834135  1
  Al  Al4  1  0.80555669  0.30507073  0.02834135  1
  Al  Al5  1  0.19444331  0.69492927  0.97165865  1
  Al  Al6  1  0.41167455  0.58832545  0.75000000  1
  Al  Al7  1  0.58832545  0.41167455  0.25000000  1
  B  B8  1  0.49298653  0.12123842  0.77784464  1
  B  B9  1  0.50701347  0.87876158  0.22215536  1
  B  B10  1  0.87876158  0.50701347  0.72215536  1
  B  B11  1  0.12123842  0.49298653  0.27784464  1
  B  B12  1  0.71983501  0.77741068  0.99464520  1
  B  B13  1  0.28016499  0.22258932  0.00535480  1
  B  B14  1  0.22258932  0.28016499  0.50535480  1
  B  B15  1  0.77741068  0.71983501  0.49464520  1
  O  O16  1  0.19464771  0.99671241  0.93876652  1
  O  O17  1  0.80535229  0.00328759  0.06123348  1
  O  O18  1  0.00328759  0.80535229  0.56123348  1
  O  O19  1  0.99671241  0.19464771  0.43876652  1
  O  O20  1  0.42301330  0.89609937  0.70493918  1
  O  O21  1  0.57698670  0.10390063  0.29506082  1
  O  O22  1  0.10390063  0.57698670  0.79506082  1
  O  O23  1  0.89609937  0.42301330  0.20493918  1
  O  O24  1  0.69655743  0.18111858  0.86317765  1
  O  O25  1  0.30344257  0.81888142  0.13682235  1
  O  O26  1  0.81888142  0.30344257  0.63682235  1
  O  O27  1  0.18111858  0.69655743  0.36317765  1
  O  O28  1  0.63058088  0.86927788  0.50277080  1
  O  O29  1  0.36941912  0.13072212  0.49722920  1
  O  O30  1  0.13072212  0.36941912  0.99722920  1
  O  O31  1  0.86927788  0.63058088  0.00277080  1
  O  O32  1  0.35604466  0.27096403  0.75853405  1
  O  O33  1  0.64395534  0.72903597  0.24146595  1
  O  O34  1  0.72903597  0.64395534  0.74146595  1
  O  O35  1  0.27096403  0.35604466  0.25853405  1
  O  O36  1  0.49305443  0.69745015  0.92599872  1
  O  O37  1  0.50694557  0.30254985  0.07400128  1
  O  O38  1  0.30254985  0.50694557  0.57400128  1
  O  O39  1  0.69745015  0.49305443  0.42599872  1
