# generated using pymatgen
data_Na2BeSiO4
_symmetry_space_group_name_H-M   'P 1'
_cell_length_a   4.98793451
_cell_length_b   9.97274737
_cell_length_c   14.21488747
_cell_angle_alpha   90.00000000
_cell_angle_beta   90.00000000
_cell_angle_gamma   90.00000000
_symmetry_Int_Tables_number   1
_chemical_formula_structural   Na2BeSiO4
_chemical_formula_sum   'Na16 Be8 Si8 O32'
_cell_volume   707.09698642
_cell_formula_units_Z   8
loop_
 _symmetry_equiv_pos_site_id
 _symmetry_equiv_pos_as_xyz
  1  'x, y, z'
loop_
 _atom_site_type_symbol
 _atom_site_label
 _atom_site_symmetry_multiplicity
 _atom_site_fract_x
 _atom_site_fract_y
 _atom_site_fract_z
 _atom_site_occupancy
  Na  Na0  1  0.00867267  0.00703920  0.95802683  1
  Na  Na1  1  0.97884642  0.77987133  0.78616721  1
  Na  Na2  1  0.50966954  0.49204351  0.07285978  1
  Na  Na3  1  0.49033046  0.50795649  0.57285978  1
  Na  Na4  1  0.97884642  0.72012867  0.28616721  1
  Na  Na5  1  0.00867267  0.49296080  0.45802683  1
  Na  Na6  1  0.50966954  0.00795649  0.57285978  1
  Na  Na7  1  0.49033046  0.99204351  0.07285978  1
  Na  Na8  1  0.47182576  0.76479249  0.66352799  1
  Na  Na9  1  0.02115358  0.27987133  0.78616721  1
  Na  Na10  1  0.02115358  0.22012867  0.28616721  1
  Na  Na11  1  0.47182576  0.73520751  0.16352799  1
  Na  Na12  1  0.52817424  0.26479249  0.66352799  1
  Na  Na13  1  0.52817424  0.23520751  0.16352799  1
  Na  Na14  1  0.99132733  0.99296080  0.45802683  1
  Na  Na15  1  0.99132733  0.50703920  0.95802683  1
  Be  Be16  1  0.98950634  0.76612033  0.57404607  1
  Be  Be17  1  0.01049366  0.26612033  0.57404607  1
  Be  Be18  1  0.04381668  0.01601125  0.68272962  1
  Be  Be19  1  0.95618332  0.98398875  0.18272962  1
  Be  Be20  1  0.04381668  0.48398875  0.18272962  1
  Be  Be21  1  0.01049366  0.23387967  0.07404607  1
  Be  Be22  1  0.98950634  0.73387967  0.07404607  1
  Be  Be23  1  0.95618332  0.51601125  0.68272962  1
  Si  Si24  1  0.52380860  0.48797718  0.30836423  1
  Si  Si25  1  0.50872185  0.26336814  0.94037305  1
  Si  Si26  1  0.47619140  0.51202282  0.80836423  1
  Si  Si27  1  0.52380860  0.01202282  0.80836423  1
  Si  Si28  1  0.47619140  0.98797718  0.30836423  1
  Si  Si29  1  0.49127815  0.76336814  0.94037305  1
  Si  Si30  1  0.49127815  0.73663186  0.44037305  1
  Si  Si31  1  0.50872185  0.23663186  0.44037305  1
  O  O32  1  0.29264027  0.48846514  0.71646973  1
  O  O33  1  0.27744913  0.31328835  0.49869278  1
  O  O34  1  0.70735973  0.98846514  0.71646973  1
  O  O35  1  0.11555644  0.33691443  0.15024409  1
  O  O36  1  0.87655120  0.40038378  0.61072435  1
  O  O37  1  0.62913847  0.90277599  0.89240367  1
  O  O38  1  0.70735973  0.51153486  0.21646973  1
  O  O39  1  0.20528820  0.50878620  0.29518084  1
  O  O40  1  0.37086153  0.40277599  0.89240367  1
  O  O41  1  0.12344880  0.59961622  0.11072435  1
  O  O42  1  0.88444356  0.83691443  0.15024409  1
  O  O43  1  0.27744913  0.18671165  0.99869278  1
  O  O44  1  0.72255087  0.81328835  0.49869278  1
  O  O45  1  0.60484792  0.33347318  0.34921544  1
  O  O46  1  0.72255087  0.68671165  0.99869278  1
  O  O47  1  0.79471180  0.49121380  0.79518084  1
  O  O48  1  0.60484792  0.16652682  0.84921544  1
  O  O49  1  0.12344880  0.90038378  0.61072435  1
  O  O50  1  0.11555644  0.16308557  0.65024409  1
  O  O51  1  0.39515208  0.83347318  0.34921544  1
  O  O52  1  0.39515208  0.66652682  0.84921544  1
  O  O53  1  0.79471180  0.00878620  0.29518084  1
  O  O54  1  0.62913847  0.59722401  0.39240367  1
  O  O55  1  0.23533523  0.81243108  1.00097432  1
  O  O56  1  0.88444356  0.66308557  0.65024409  1
  O  O57  1  0.29264027  0.01153486  0.21646973  1
  O  O58  1  0.37086153  0.09722401  0.39240367  1
  O  O59  1  0.23533523  0.68756892  0.50097432  1
  O  O60  1  0.20528820  0.99121380  0.79518084  1
  O  O61  1  0.76466477  0.31243108  1.00097432  1
  O  O62  1  0.76466477  0.18756892  0.50097432  1
  O  O63  1  0.87655120  0.09961622  0.11072435  1
