# generated using pymatgen
data_Hf7Au10
_symmetry_space_group_name_H-M   'P 1'
_cell_length_a   8.32359965
_cell_length_b   8.32359965
_cell_length_c   9.89672872
_cell_angle_alpha   90.00000000
_cell_angle_beta   90.00000000
_cell_angle_gamma   107.16606885
_symmetry_Int_Tables_number   1
_chemical_formula_structural   Hf7Au10
_chemical_formula_sum   'Hf14 Au20'
_cell_volume   655.12399195
_cell_formula_units_Z   2
loop_
 _symmetry_equiv_pos_site_id
 _symmetry_equiv_pos_as_xyz
  1  'x, y, z'
loop_
 _atom_site_type_symbol
 _atom_site_label
 _atom_site_symmetry_multiplicity
 _atom_site_fract_x
 _atom_site_fract_y
 _atom_site_fract_z
 _atom_site_occupancy
  Hf  Hf0  1  0.31024964  0.68975036  -0.00000000  1
  Hf  Hf1  1  0.68975036  0.31024964  -0.00000000  1
  Hf  Hf2  1  0.18975036  0.81024964  0.50000000  1
  Hf  Hf3  1  0.81024964  0.18975036  0.50000000  1
  Hf  Hf4  1  0.00000000  0.00000000  -0.00000000  1
  Hf  Hf5  1  0.50000000  0.50000000  0.50000000  1
  Hf  Hf6  1  0.50685402  0.00685402  0.25000000  1
  Hf  Hf7  1  0.49314598  0.99314598  0.75000000  1
  Hf  Hf8  1  0.99314598  0.49314598  0.75000000  1
  Hf  Hf9  1  0.00685402  0.50685402  0.25000000  1
  Hf  Hf10  1  0.31346223  0.31346223  0.18879358  1
  Hf  Hf11  1  0.68653777  0.68653777  0.81120642  1
  Hf  Hf12  1  0.18653777  0.18653777  0.68879358  1
  Hf  Hf13  1  0.81346223  0.81346223  0.31120642  1
  Au  Au14  1  0.15032030  0.85817741  0.20794975  1
  Au  Au15  1  0.84967970  0.14182259  0.79205025  1
  Au  Au16  1  0.34967970  0.64182259  0.70794975  1
  Au  Au17  1  0.35817741  0.65032030  0.29205025  1
  Au  Au18  1  0.65032030  0.35817741  0.29205025  1
  Au  Au19  1  0.64182259  0.34967970  0.70794975  1
  Au  Au20  1  0.14182259  0.84967970  0.79205025  1
  Au  Au21  1  0.85817741  0.15032030  0.20794975  1
  Au  Au22  1  0.64714523  0.94069906  0.00027452  1
  Au  Au23  1  0.35285477  0.05930094  0.99972548  1
  Au  Au24  1  0.85285477  0.55930094  0.50027452  1
  Au  Au25  1  0.44069906  0.14714523  0.49972548  1
  Au  Au26  1  0.14714523  0.44069906  0.49972548  1
  Au  Au27  1  0.55930094  0.85285477  0.50027452  1
  Au  Au28  1  0.05930094  0.35285477  0.99972548  1
  Au  Au29  1  0.94069906  0.64714523  0.00027452  1
  Au  Au30  1  0.10477952  0.10477952  0.39768766  1
  Au  Au31  1  0.89522048  0.89522048  0.60231234  1
  Au  Au32  1  0.39522048  0.39522048  0.89768766  1
  Au  Au33  1  0.60477952  0.60477952  0.10231234  1
