# generated using pymatgen
data_Dy5Ni2Bi
_symmetry_space_group_name_H-M   'P 1'
_cell_length_a   7.66233305
_cell_length_b   7.66233305
_cell_length_c   8.68952192
_cell_angle_alpha   116.16099410
_cell_angle_beta   116.16099410
_cell_angle_gamma   90.00000000
_symmetry_Int_Tables_number   1
_chemical_formula_structural   Dy5Ni2Bi
_chemical_formula_sum   'Dy10 Ni4 Bi2'
_cell_volume   398.85762767
_cell_formula_units_Z   2
loop_
 _symmetry_equiv_pos_site_id
 _symmetry_equiv_pos_as_xyz
  1  'x, y, z'
loop_
 _atom_site_type_symbol
 _atom_site_label
 _atom_site_symmetry_multiplicity
 _atom_site_fract_x
 _atom_site_fract_y
 _atom_site_fract_z
 _atom_site_occupancy
  Dy  Dy0  1  0.00000000  -0.00000000  0.00000000  1
  Dy  Dy1  1  0.50000000  0.50000000  0.00000000  1
  Dy  Dy2  1  0.29054151  0.79054151  0.26710854  1
  Dy  Dy3  1  0.70945849  0.20945849  0.73289146  1
  Dy  Dy4  1  0.97656703  0.47656703  0.26710854  1
  Dy  Dy5  1  0.47656703  0.29054151  0.26710854  1
  Dy  Dy6  1  0.20945849  0.02343297  0.73289146  1
  Dy  Dy7  1  0.02343297  0.52343297  0.73289146  1
  Dy  Dy8  1  0.52343297  0.70945849  0.73289146  1
  Dy  Dy9  1  0.79054151  0.97656703  0.26710854  1
  Ni  Ni10  1  0.63095391  0.13095391  0.00000000  1
  Ni  Ni11  1  0.36904609  0.86904609  1.00000000  1
  Ni  Ni12  1  0.86904609  0.63095391  0.00000000  1
  Ni  Ni13  1  0.13095391  0.36904609  -0.00000000  1
  Bi  Bi14  1  0.25000000  0.25000000  0.50000000  1
  Bi  Bi15  1  0.75000000  0.75000000  0.50000000  1
