# generated using pymatgen
data_Eu3SbO7
_symmetry_space_group_name_H-M   'P 1'
_cell_length_a   6.61706344
_cell_length_b   6.61706344
_cell_length_c   7.71273087
_cell_angle_alpha   90.00000000
_cell_angle_beta   90.00000000
_cell_angle_gamma   110.14100900
_symmetry_Int_Tables_number   1
_chemical_formula_structural   Eu3SbO7
_chemical_formula_sum   'Eu6 Sb2 O14'
_cell_volume   317.05461366
_cell_formula_units_Z   2
loop_
 _symmetry_equiv_pos_site_id
 _symmetry_equiv_pos_as_xyz
  1  'x, y, z'
loop_
 _atom_site_type_symbol
 _atom_site_label
 _atom_site_symmetry_multiplicity
 _atom_site_fract_x
 _atom_site_fract_y
 _atom_site_fract_z
 _atom_site_occupancy
  Eu  Eu0  1  0.52818449  0.99732311  0.75089423  1
  Eu  Eu1  1  0.47181551  0.00267689  0.25089423  1
  Eu  Eu2  1  0.00267689  0.47181551  0.74910577  1
  Eu  Eu3  1  0.99732311  0.52818449  0.24910577  1
  Eu  Eu4  1  0.49685036  0.49685036  0.00000000  1
  Eu  Eu5  1  0.50314964  0.50314964  0.50000000  1
  Sb  Sb6  1  0.00216635  0.00216635  0.00000000  1
  Sb  Sb7  1  0.99783365  0.99783365  0.50000000  1
  O  O8  1  0.63762528  0.36237472  0.75000000  1
  O  O9  1  0.36237472  0.63762528  0.25000000  1
  O  O10  1  0.93694905  0.06305095  0.75000000  1
  O  O11  1  0.06305095  0.93694905  0.25000000  1
  O  O12  1  0.32085544  0.07662428  0.97256403  1
  O  O13  1  0.67914456  0.92337572  0.47256403  1
  O  O14  1  0.92337572  0.67914456  0.52743597  1
  O  O15  1  0.07662428  0.32085544  0.02743597  1
  O  O16  1  0.37157522  0.62842478  0.75000000  1
  O  O17  1  0.62842478  0.37157522  0.25000000  1
  O  O18  1  0.31371530  0.06472643  0.53062891  1
  O  O19  1  0.68628470  0.93527357  0.03062891  1
  O  O20  1  0.93527357  0.68628470  0.96937109  1
  O  O21  1  0.06472643  0.31371530  0.46937109  1
