# generated using pymatgen
data_Er2Be2SiO7
_symmetry_space_group_name_H-M   'P 1'
_cell_length_a   4.75942883
_cell_length_b   7.28211452
_cell_length_c   7.28211452
_cell_angle_alpha   90.00000000
_cell_angle_beta   90.00000000
_cell_angle_gamma   90.00000000
_symmetry_Int_Tables_number   1
_chemical_formula_structural   Er2Be2SiO7
_chemical_formula_sum   'Er4 Be4 Si2 O14'
_cell_volume   252.38866468
_cell_formula_units_Z   2
loop_
 _symmetry_equiv_pos_site_id
 _symmetry_equiv_pos_as_xyz
  1  'x, y, z'
loop_
 _atom_site_type_symbol
 _atom_site_label
 _atom_site_symmetry_multiplicity
 _atom_site_fract_x
 _atom_site_fract_y
 _atom_site_fract_z
 _atom_site_occupancy
  Er  Er0  1  0.50857569  0.15946556  0.65946556  1
  Er  Er1  1  0.50857569  0.84053444  0.34053444  1
  Er  Er2  1  0.49142431  0.65946556  0.84053444  1
  Er  Er3  1  0.49142431  0.34053444  0.15946556  1
  Be  Be4  1  0.95508195  0.63625785  0.13625785  1
  Be  Be5  1  0.95508195  0.36374215  0.86374215  1
  Be  Be6  1  0.04491805  0.13625785  0.36374215  1
  Be  Be7  1  0.04491805  0.86374215  0.63625785  1
  Si  Si8  1  0.00000000  0.00000000  -0.00000000  1
  Si  Si9  1  0.00000000  0.50000000  0.50000000  1
  O  O10  1  0.18952499  0.00000000  0.50000000  1
  O  O11  1  0.81047501  0.50000000  -0.00000000  1
  O  O12  1  0.28845488  0.64102015  0.14102015  1
  O  O13  1  0.28845488  0.35897985  0.85897985  1
  O  O14  1  0.71154512  0.14102015  0.35897985  1
  O  O15  1  0.71154512  0.85897985  0.64102015  1
  O  O16  1  0.20400427  0.08039413  0.16317784  1
  O  O17  1  0.20400427  0.91960587  0.83682216  1
  O  O18  1  0.79599573  0.16317784  0.91960587  1
  O  O19  1  0.79599573  0.41960587  0.66317784  1
  O  O20  1  0.79599573  0.83682216  0.08039413  1
  O  O21  1  0.79599573  0.58039413  0.33682216  1
  O  O22  1  0.20400427  0.33682216  0.41960587  1
  O  O23  1  0.20400427  0.66317784  0.58039413  1
