# generated using pymatgen
data_DyCu5Sn
_symmetry_space_group_name_H-M   'P 1'
_cell_length_a   4.99477124
_cell_length_b   8.20186451
_cell_length_c   10.55292151
_cell_angle_alpha   90.00000000
_cell_angle_beta   90.00000000
_cell_angle_gamma   90.00000000
_symmetry_Int_Tables_number   1
_chemical_formula_structural   DyCu5Sn
_chemical_formula_sum   'Dy4 Cu20 Sn4'
_cell_volume   432.31559388
_cell_formula_units_Z   4
loop_
 _symmetry_equiv_pos_site_id
 _symmetry_equiv_pos_as_xyz
  1  'x, y, z'
loop_
 _atom_site_type_symbol
 _atom_site_label
 _atom_site_symmetry_multiplicity
 _atom_site_fract_x
 _atom_site_fract_y
 _atom_site_fract_z
 _atom_site_occupancy
  Dy  Dy0  1  0.75000000  0.74784850  0.43712671  1
  Dy  Dy1  1  0.25000000  0.25215150  0.56287329  1
  Dy  Dy2  1  0.25000000  0.75215150  0.93712671  1
  Dy  Dy3  1  0.75000000  0.24784850  0.06287329  1
  Cu  Cu4  1  0.75000000  0.68634034  0.75503576  1
  Cu  Cu5  1  0.25000000  0.31365966  0.24496424  1
  Cu  Cu6  1  0.25000000  0.81365966  0.25503576  1
  Cu  Cu7  1  0.75000000  0.18634034  0.74496424  1
  Cu  Cu8  1  0.49861794  0.93469745  0.68683822  1
  Cu  Cu9  1  0.50138206  0.06530255  0.31316178  1
  Cu  Cu10  1  0.50138206  0.56530255  0.18683822  1
  Cu  Cu11  1  0.99861794  0.06530255  0.31316178  1
  Cu  Cu12  1  0.49861794  0.43469745  0.81316178  1
  Cu  Cu13  1  0.00138206  0.93469745  0.68683822  1
  Cu  Cu14  1  0.00138206  0.43469745  0.81316178  1
  Cu  Cu15  1  0.99861794  0.56530255  0.18683822  1
  Cu  Cu16  1  0.75000000  0.58649452  0.98205926  1
  Cu  Cu17  1  0.25000000  0.41350548  0.01794074  1
  Cu  Cu18  1  0.25000000  0.91350548  0.48205926  1
  Cu  Cu19  1  0.75000000  0.08649452  0.51794074  1
  Cu  Cu20  1  0.75000000  0.94120393  0.89804251  1
  Cu  Cu21  1  0.25000000  0.05879607  0.10195749  1
  Cu  Cu22  1  0.25000000  0.55879607  0.39804251  1
  Cu  Cu23  1  0.75000000  0.44120393  0.60195749  1
  Sn  Sn24  1  0.75000000  0.85986897  0.13909074  1
  Sn  Sn25  1  0.25000000  0.14013103  0.86090926  1
  Sn  Sn26  1  0.25000000  0.64013103  0.63909074  1
  Sn  Sn27  1  0.75000000  0.35986897  0.36090926  1
