# generated using pymatgen
data_BaCrCdF7
_symmetry_space_group_name_H-M   'P 1'
_cell_length_a   5.47968069
_cell_length_b   7.61718507
_cell_length_c   15.29790787
_cell_angle_alpha   91.43523867
_cell_angle_beta   90.00000000
_cell_angle_gamma   111.08128404
_symmetry_Int_Tables_number   1
_chemical_formula_structural   BaCrCdF7
_chemical_formula_sum   'Ba4 Cr4 Cd4 F28'
_cell_volume   595.57985675
_cell_formula_units_Z   4
loop_
 _symmetry_equiv_pos_site_id
 _symmetry_equiv_pos_as_xyz
  1  'x, y, z'
loop_
 _atom_site_type_symbol
 _atom_site_label
 _atom_site_symmetry_multiplicity
 _atom_site_fract_x
 _atom_site_fract_y
 _atom_site_fract_z
 _atom_site_occupancy
  Ba  Ba0  1  0.64796692  0.37801785  0.62351978  1
  Ba  Ba1  1  0.35203308  0.62198215  0.37648022  1
  Ba  Ba2  1  0.26994907  0.62198215  0.87648022  1
  Ba  Ba3  1  0.73005093  0.37801785  0.12351978  1
  Cr  Cr4  1  0.38588033  0.75530352  0.62470067  1
  Cr  Cr5  1  0.61411967  0.24469648  0.37529933  1
  Cr  Cr6  1  0.63057680  0.24469648  0.87529933  1
  Cr  Cr7  1  0.36942320  0.75530352  0.12470067  1
  Cd  Cd8  1  -0.00000000  -0.00000000  -0.00000000  1
  Cd  Cd9  1  -0.00000000  -0.00000000  0.50000000  1
  Cd  Cd10  1  0.95294655  1.00000000  0.75000000  1
  Cd  Cd11  1  0.04705345  0.00000000  0.25000000  1
  F  F12  1  0.42444504  0.17244700  0.98118143  1
  F  F13  1  0.57555496  0.82755300  0.01881857  1
  F  F14  1  0.25199803  0.82755300  0.51881857  1
  F  F15  1  0.74800197  0.17244700  0.48118143  1
  F  F16  1  0.68708485  0.50074545  0.90871236  1
  F  F17  1  0.31291515  0.49925455  0.09128764  1
  F  F18  1  0.18633940  0.49925455  0.59128764  1
  F  F19  1  0.81366060  0.50074545  0.40871236  1
  F  F20  1  0.54534827  0.66950951  0.72162886  1
  F  F21  1  0.45465173  0.33049049  0.27837114  1
  F  F22  1  0.87583876  0.33049049  0.77837114  1
  F  F23  1  0.12416124  0.66950951  0.22162886  1
  F  F24  1  0.60360906  0.98756269  0.84353066  1
  F  F25  1  0.39639094  0.01243731  0.15646934  1
  F  F26  1  0.61604637  0.01243731  0.65646934  1
  F  F27  1  0.38395363  0.98756269  0.34353066  1
  F  F28  1  0.34726601  0.24390423  0.79879678  1
  F  F29  1  0.65273399  0.75609577  0.20120322  1
  F  F30  1  0.10336178  0.75609577  0.70120322  1
  F  F31  1  0.89663822  0.24390423  0.29879678  1
  F  F32  1  0.66237292  0.73062951  0.54849896  1
  F  F33  1  0.33762708  0.26937049  0.45150104  1
  F  F34  1  0.93174341  0.26937049  0.95150104  1
  F  F35  1  0.06825659  0.73062951  0.04849896  1
  F  F36  1  0.84245203  0.87448055  0.37134920  1
  F  F37  1  0.15754797  0.12551945  0.62865080  1
  F  F38  1  0.96797147  0.12551945  0.12865080  1
  F  F39  1  0.03202853  0.87448055  0.87134920  1
