# generated using pymatgen
data_Ba3Sr2As3ClO12
_symmetry_space_group_name_H-M   'P 1'
_cell_length_a   7.68522588
_cell_length_b   10.58221084
_cell_length_c   10.58221084
_cell_angle_alpha   119.99999735
_cell_angle_beta   90.00000000
_cell_angle_gamma   90.00000000
_symmetry_Int_Tables_number   1
_chemical_formula_structural   Ba3Sr2As3ClO12
_chemical_formula_sum   'Ba6 Sr4 As6 Cl2 O24'
_cell_volume   745.31540858
_cell_formula_units_Z   2
loop_
 _symmetry_equiv_pos_site_id
 _symmetry_equiv_pos_as_xyz
  1  'x, y, z'
loop_
 _atom_site_type_symbol
 _atom_site_label
 _atom_site_symmetry_multiplicity
 _atom_site_fract_x
 _atom_site_fract_y
 _atom_site_fract_z
 _atom_site_occupancy
  Ba  Ba0  1  0.75000000  0.74233986  0.98919710  1
  Ba  Ba1  1  0.25000000  0.25766014  0.01080290  1
  Ba  Ba2  1  0.75000000  0.24685724  0.25766014  1
  Ba  Ba3  1  0.25000000  0.75314276  0.74233986  1
  Ba  Ba4  1  0.75000000  0.01080290  0.75314276  1
  Ba  Ba5  1  0.25000000  0.98919710  0.24685724  1
  Sr  Sr6  1  0.00011037  0.66666700  0.33333300  1
  Sr  Sr7  1  0.99988963  0.33333300  0.66666700  1
  Sr  Sr8  1  0.50011037  0.33333300  0.66666700  1
  Sr  Sr9  1  0.49988963  0.66666700  0.33333300  1
  As  As10  1  0.75000000  0.96643373  0.37983181  1
  As  As11  1  0.25000000  0.03356627  0.62016819  1
  As  As12  1  0.75000000  0.41339808  0.03356627  1
  As  As13  1  0.25000000  0.58660192  0.96643373  1
  As  As14  1  0.75000000  0.62016819  0.58660192  1
  As  As15  1  0.25000000  0.37983181  0.41339808  1
  Cl  Cl16  1  -0.00000000  0.00000000  -0.00000000  1
  Cl  Cl17  1  0.50000000  0.00000000  -0.00000000  1
  O  O18  1  0.75000000  0.49778347  0.64957312  1
  O  O19  1  0.25000000  0.50221653  0.35042688  1
  O  O20  1  0.75000000  0.15178965  0.50221653  1
  O  O21  1  0.25000000  0.84821035  0.49778347  1
  O  O22  1  0.75000000  0.35042688  0.84821035  1
  O  O23  1  0.25000000  0.64957312  0.15178965  1
  O  O24  1  0.92951861  0.91183797  0.26836967  1
  O  O25  1  0.07048139  0.08816203  0.73163033  1
  O  O26  1  0.92951861  0.35653170  0.08816203  1
  O  O27  1  0.42951861  0.08816203  0.73163033  1
  O  O28  1  0.07048139  0.64346830  0.91183797  1
  O  O29  1  0.57048139  0.91183797  0.26836967  1
  O  O30  1  0.92951861  0.73163033  0.64346830  1
  O  O31  1  0.42951861  0.64346830  0.91183797  1
  O  O32  1  0.07048139  0.26836967  0.35653170  1
  O  O33  1  0.57048139  0.35653170  0.08816203  1
  O  O34  1  0.42951861  0.26836967  0.35653170  1
  O  O35  1  0.57048139  0.73163033  0.64346830  1
  O  O36  1  0.75000000  0.86384961  0.46626745  1
  O  O37  1  0.25000000  0.13615039  0.53373255  1
  O  O38  1  0.75000000  0.60241784  0.13615039  1
  O  O39  1  0.25000000  0.39758216  0.86384961  1
  O  O40  1  0.75000000  0.53373255  0.39758216  1
  O  O41  1  0.25000000  0.46626745  0.60241784  1
