# generated using pymatgen
data_Cs3PrCl6
_symmetry_space_group_name_H-M   'P 1'
_cell_length_a   8.59094778
_cell_length_b   13.64740814
_cell_length_c   14.37776468
_cell_angle_alpha   99.08010593
_cell_angle_beta   107.38302797
_cell_angle_gamma   90.00000000
_symmetry_Int_Tables_number   1
_chemical_formula_structural   Cs3PrCl6
_chemical_formula_sum   'Cs12 Pr4 Cl24'
_cell_volume   1586.57194508
_cell_formula_units_Z   4
loop_
 _symmetry_equiv_pos_site_id
 _symmetry_equiv_pos_as_xyz
  1  'x, y, z'
loop_
 _atom_site_type_symbol
 _atom_site_label
 _atom_site_symmetry_multiplicity
 _atom_site_fract_x
 _atom_site_fract_y
 _atom_site_fract_z
 _atom_site_occupancy
  Cs  Cs0  1  0.69760721  0.06734907  0.90151699  1
  Cs  Cs1  1  0.30239279  0.93265093  0.09848301  1
  Cs  Cs2  1  0.79609022  0.43265093  0.09848301  1
  Cs  Cs3  1  0.20390978  0.56734907  0.90151699  1
  Cs  Cs4  1  0.53519982  0.35591733  0.69325818  1
  Cs  Cs5  1  0.46480018  0.64408267  0.30674182  1
  Cs  Cs6  1  0.84194164  0.14408267  0.30674182  1
  Cs  Cs7  1  0.15805836  0.85591733  0.69325818  1
  Cs  Cs8  1  0.35018588  0.29928718  0.32427151  1
  Cs  Cs9  1  0.64981412  0.70071282  0.67572849  1
  Cs  Cs10  1  0.02591437  0.20071282  0.67572849  1
  Cs  Cs11  1  0.97408563  0.79928718  0.32427151  1
  Pr  Pr12  1  0.21779012  0.25000000  -0.00000000  1
  Pr  Pr13  1  0.78220988  0.75000000  -0.00000000  1
  Pr  Pr14  1  0.50000000  -0.00000000  0.50000000  1
  Pr  Pr15  1  0.00000000  0.50000000  0.50000000  1
  Cl  Cl16  1  0.37992957  0.08149212  0.65428230  1
  Cl  Cl17  1  0.62007043  0.91850788  0.34571770  1
  Cl  Cl18  1  0.72564727  0.41850788  0.34571770  1
  Cl  Cl19  1  0.27435273  0.58149212  0.65428230  1
  Cl  Cl20  1  0.50138351  0.17996806  0.11649078  1
  Cl  Cl21  1  0.49861649  0.82003194  0.88350922  1
  Cl  Cl22  1  0.38489273  0.32003194  0.88350922  1
  Cl  Cl23  1  0.61510727  0.67996806  0.11649078  1
  Cl  Cl24  1  0.22023313  0.03504433  0.35414218  1
  Cl  Cl25  1  0.77976687  0.96495567  0.64585782  1
  Cl  Cl26  1  0.86609095  0.46495567  0.64585782  1
  Cl  Cl27  1  0.13390905  0.53504433  0.35414218  1
  Cl  Cl28  1  0.08244228  0.69609211  0.11587821  1
  Cl  Cl29  1  0.91755772  0.30390789  0.88412179  1
  Cl  Cl30  1  0.96656407  0.80390789  0.88412179  1
  Cl  Cl31  1  0.03343593  0.19609211  0.11587821  1
  Cl  Cl32  1  0.28305992  0.43420794  0.11658196  1
  Cl  Cl33  1  0.71694008  0.56579206  0.88341804  1
  Cl  Cl34  1  0.16647795  0.06579206  0.88341804  1
  Cl  Cl35  1  0.83352205  0.93420794  0.11658196  1
  Cl  Cl36  1  0.63833865  0.18433875  0.49916215  1
  Cl  Cl37  1  0.36166135  0.81566125  0.50083785  1
  Cl  Cl38  1  0.13917650  0.31566125  0.50083785  1
  Cl  Cl39  1  0.86082350  0.68433875  0.49916215  1
