# generated using pymatgen
data_Ca4MgSn3
_symmetry_space_group_name_H-M   'P 1'
_cell_length_a   6.05160496
_cell_length_b   9.25624691
_cell_length_c   9.25624691
_cell_angle_alpha   83.86571532
_cell_angle_beta   70.91969762
_cell_angle_gamma   70.91969762
_symmetry_Int_Tables_number   1
_chemical_formula_structural   Ca4MgSn3
_chemical_formula_sum   'Ca8 Mg2 Sn6'
_cell_volume   463.08470415
_cell_formula_units_Z   2
loop_
 _symmetry_equiv_pos_site_id
 _symmetry_equiv_pos_as_xyz
  1  'x, y, z'
loop_
 _atom_site_type_symbol
 _atom_site_label
 _atom_site_symmetry_multiplicity
 _atom_site_fract_x
 _atom_site_fract_y
 _atom_site_fract_z
 _atom_site_occupancy
  Ca  Ca0  1  0.08277391  0.13437819  0.70007398  1
  Ca  Ca1  1  0.91722609  0.86562181  0.29992602  1
  Ca  Ca2  1  0.78284790  0.29992602  0.13437819  1
  Ca  Ca3  1  0.41722609  0.29992602  0.86562181  1
  Ca  Ca4  1  0.21715210  0.70007398  0.86562181  1
  Ca  Ca5  1  0.58277391  0.70007398  0.13437819  1
  Ca  Ca6  1  0.71715210  0.86562181  0.70007398  1
  Ca  Ca7  1  0.28284790  0.13437819  0.29992602  1
  Mg  Mg8  1  0.25000000  0.50000000  0.50000000  1
  Mg  Mg9  1  0.75000000  0.50000000  0.50000000  1
  Sn  Sn10  1  0.15295368  0.50000000  0.19409264  1
  Sn  Sn11  1  0.84704632  0.50000000  0.80590736  1
  Sn  Sn12  1  0.34704632  0.80590736  0.50000000  1
  Sn  Sn13  1  0.65295368  0.19409264  0.50000000  1
  Sn  Sn14  1  0.25000000  0.00000000  0.00000000  1
  Sn  Sn15  1  0.75000000  0.00000000  -0.00000000  1
