# generated using pymatgen
data_Ca2TaInO6
_symmetry_space_group_name_H-M   'P 1'
_cell_length_a   5.57417975
_cell_length_b   5.77576519
_cell_length_c   8.01146156
_cell_angle_alpha   90.00000000
_cell_angle_beta   90.02872828
_cell_angle_gamma   90.00000000
_symmetry_Int_Tables_number   1
_chemical_formula_structural   Ca2TaInO6
_chemical_formula_sum   'Ca4 Ta2 In2 O12'
_cell_volume   257.93020105
_cell_formula_units_Z   2
loop_
 _symmetry_equiv_pos_site_id
 _symmetry_equiv_pos_as_xyz
  1  'x, y, z'
loop_
 _atom_site_type_symbol
 _atom_site_label
 _atom_site_symmetry_multiplicity
 _atom_site_fract_x
 _atom_site_fract_y
 _atom_site_fract_z
 _atom_site_occupancy
  Ca  Ca0  1  0.01441981  0.44473849  0.24999385  1
  Ca  Ca1  1  0.98558019  0.55526151  0.75000615  1
  Ca  Ca2  1  0.48558019  0.94473849  0.25000615  1
  Ca  Ca3  1  0.51441981  0.05526151  0.74999385  1
  Ta  Ta4  1  -0.00000000  -0.00000000  0.50000000  1
  Ta  Ta5  1  0.50000000  0.50000000  0.00000000  1
  In  In6  1  -0.00000000  -0.00000000  0.00000000  1
  In  In7  1  0.50000000  0.50000000  0.50000000  1
  O  O8  1  0.89326557  0.03895719  0.26182074  1
  O  O9  1  0.10673443  0.96104281  0.73817926  1
  O  O10  1  0.60673443  0.53895719  0.23817926  1
  O  O11  1  0.39326557  0.46104281  0.76182074  1
  O  O12  1  0.20900541  0.68913550  0.05357262  1
  O  O13  1  0.79099459  0.31086450  0.94642738  1
  O  O14  1  0.29099459  0.18913550  0.44642738  1
  O  O15  1  0.70900541  0.81086450  0.55357262  1
  O  O16  1  0.31599650  0.21145456  0.05860011  1
  O  O17  1  0.68400350  0.78854544  0.94139989  1
  O  O18  1  0.18400350  0.71145456  0.44139989  1
  O  O19  1  0.81599650  0.28854544  0.55860011  1
