# generated using pymatgen
data_Ca2AsH4F13
_symmetry_space_group_name_H-M   'P 1'
_cell_length_a   7.31816152
_cell_length_b   7.31816152
_cell_length_c   17.75092810
_cell_angle_alpha   90.00000000
_cell_angle_beta   90.00000000
_cell_angle_gamma   90.00000000
_symmetry_Int_Tables_number   1
_chemical_formula_structural   Ca2AsH4F13
_chemical_formula_sum   'Ca8 As4 H16 F52'
_cell_volume   950.65961743
_cell_formula_units_Z   4
loop_
 _symmetry_equiv_pos_site_id
 _symmetry_equiv_pos_as_xyz
  1  'x, y, z'
loop_
 _atom_site_type_symbol
 _atom_site_label
 _atom_site_symmetry_multiplicity
 _atom_site_fract_x
 _atom_site_fract_y
 _atom_site_fract_z
 _atom_site_occupancy
  Ca  Ca0  1  0.24304030  0.22136051  0.03509777  1
  Ca  Ca1  1  0.75695970  0.77863949  0.53509777  1
  Ca  Ca2  1  0.77863949  0.24304030  0.28509777  1
  Ca  Ca3  1  0.75695970  0.22136051  0.96490223  1
  Ca  Ca4  1  0.22136051  0.75695970  0.78509777  1
  Ca  Ca5  1  0.24304030  0.77863949  0.46490223  1
  Ca  Ca6  1  0.22136051  0.24304030  0.71490223  1
  Ca  Ca7  1  0.77863949  0.75695970  0.21490223  1
  As  As8  1  0.50000000  0.71683428  -0.00000000  1
  As  As9  1  0.50000000  0.28316572  0.50000000  1
  As  As10  1  0.28316572  0.50000000  0.25000000  1
  As  As11  1  0.71683428  0.50000000  0.75000000  1
  H  H12  1  0.11634636  0.03453754  0.18932127  1
  H  H13  1  0.88365364  0.96546246  0.68932127  1
  H  H14  1  0.96546246  0.11634636  0.43932127  1
  H  H15  1  0.88365364  0.03453754  0.81067873  1
  H  H16  1  0.03453754  0.88365364  0.93932127  1
  H  H17  1  0.11634636  0.96546246  0.31067873  1
  H  H18  1  0.03453754  0.11634636  0.56067873  1
  H  H19  1  0.96546246  0.88365364  0.06067873  1
  H  H20  1  0.61277605  0.12838999  0.12767606  1
  H  H21  1  0.38722395  0.87161001  0.62767606  1
  H  H22  1  0.87161001  0.61277605  0.37767606  1
  H  H23  1  0.38722395  0.12838999  0.87232394  1
  H  H24  1  0.12838999  0.38722395  0.87767606  1
  H  H25  1  0.61277605  0.87161001  0.37232394  1
  H  H26  1  0.12838999  0.61277605  0.62232394  1
  H  H27  1  0.87161001  0.38722395  0.12232394  1
  F  F28  1  0.11331298  0.33296676  0.26680767  1
  F  F29  1  0.88668702  0.66703324  0.76680767  1
  F  F30  1  0.66703324  0.11331298  0.51680767  1
  F  F31  1  0.88668702  0.33296676  0.73319233  1
  F  F32  1  0.33296676  0.88668702  0.01680767  1
  F  F33  1  0.11331298  0.66703324  0.23319233  1
  F  F34  1  0.33296676  0.11331298  0.48319233  1
  F  F35  1  0.66703324  0.88668702  0.98319233  1
  F  F36  1  0.00000000  0.00606594  -0.00000000  1
  F  F37  1  0.00000000  0.99393406  0.50000000  1
  F  F38  1  0.99393406  -0.00000000  0.25000000  1
  F  F39  1  0.00606594  -0.00000000  0.75000000  1
  F  F40  1  0.67178204  0.06374791  0.17992345  1
  F  F41  1  0.32821796  0.93625209  0.67992345  1
  F  F42  1  0.93625209  0.67178204  0.42992345  1
  F  F43  1  0.32821796  0.06374791  0.82007655  1
  F  F44  1  0.06374791  0.32821796  0.92992345  1
  F  F45  1  0.67178204  0.93625209  0.32007655  1
  F  F46  1  0.06374791  0.67178204  0.57007655  1
  F  F47  1  0.93625209  0.32821796  0.07007655  1
  F  F48  1  0.55795068  0.19683216  0.07152584  1
  F  F49  1  0.44204932  0.80316784  0.57152584  1
  F  F50  1  0.80316784  0.55795068  0.32152584  1
  F  F51  1  0.44204932  0.19683216  0.92847416  1
  F  F52  1  0.19683216  0.44204932  0.82152584  1
  F  F53  1  0.55795068  0.80316784  0.42847416  1
  F  F54  1  0.19683216  0.55795068  0.67847416  1
  F  F55  1  0.80316784  0.44204932  0.17847416  1
  F  F56  1  0.45607051  0.33262175  0.26426907  1
  F  F57  1  0.54392949  0.66737825  0.76426907  1
  F  F58  1  0.66737825  0.45607051  0.51426907  1
  F  F59  1  0.54392949  0.33262175  0.73573093  1
  F  F60  1  0.33262175  0.54392949  0.01426907  1
  F  F61  1  0.45607051  0.66737825  0.23573093  1
  F  F62  1  0.33262175  0.45607051  0.48573093  1
  F  F63  1  0.66737825  0.54392949  0.98573093  1
  F  F64  1  0.28189719  0.44527638  0.15321212  1
  F  F65  1  0.71810281  0.55472362  0.65321212  1
  F  F66  1  0.55472362  0.28189719  0.40321212  1
  F  F67  1  0.71810281  0.44527638  0.84678788  1
  F  F68  1  0.44527638  0.71810281  0.90321212  1
  F  F69  1  0.28189719  0.55472362  0.34678788  1
  F  F70  1  0.44527638  0.28189719  0.59678788  1
  F  F71  1  0.55472362  0.71810281  0.09678788  1
  F  F72  1  0.20481575  0.06212583  0.14810498  1
  F  F73  1  0.79518425  0.93787417  0.64810498  1
  F  F74  1  0.93787417  0.20481575  0.39810498  1
  F  F75  1  0.79518425  0.06212583  0.85189502  1
  F  F76  1  0.06212583  0.79518425  0.89810498  1
  F  F77  1  0.20481575  0.93787417  0.35189502  1
  F  F78  1  0.06212583  0.20481575  0.60189502  1
  F  F79  1  0.93787417  0.79518425  0.10189502  1
