# generated using pymatgen
data_Co2CuP2H2O9
_symmetry_space_group_name_H-M   'P 1'
_cell_length_a   8.25832271
_cell_length_b   9.19904041
_cell_length_c   9.87735618
_cell_angle_alpha   90.00000000
_cell_angle_beta   90.00000000
_cell_angle_gamma   115.58447490
_symmetry_Int_Tables_number   1
_chemical_formula_structural   Co2CuP2H2O9
_chemical_formula_sum   'Co8 Cu4 P8 H8 O36'
_cell_volume   676.79532206
_cell_formula_units_Z   4
loop_
 _symmetry_equiv_pos_site_id
 _symmetry_equiv_pos_as_xyz
  1  'x, y, z'
loop_
 _atom_site_type_symbol
 _atom_site_label
 _atom_site_symmetry_multiplicity
 _atom_site_fract_x
 _atom_site_fract_y
 _atom_site_fract_z
 _atom_site_occupancy
  Co  Co0  1  0.38324368  0.97084205  0.36738088  1
  Co  Co1  1  0.61675632  0.02915795  0.63261912  1
  Co  Co2  1  0.11675632  0.52915795  0.86738088  1
  Co  Co3  1  0.88324368  0.47084205  0.13261912  1
  Co  Co4  1  0.98567622  0.72588912  0.36986915  1
  Co  Co5  1  0.01432378  0.27411088  0.63013085  1
  Co  Co6  1  0.51432378  0.77411088  0.86986915  1
  Co  Co7  1  0.48567622  0.22588912  0.13013085  1
  Cu  Cu8  1  0.65261208  0.56062409  0.62891590  1
  Cu  Cu9  1  0.34738792  0.43937591  0.37108410  1
  Cu  Cu10  1  0.84738792  0.93937591  0.12891590  1
  Cu  Cu11  1  0.15261208  0.06062409  0.87108410  1
  P  P12  1  0.88445803  0.86200515  0.66183736  1
  P  P13  1  0.11554197  0.13799485  0.33816264  1
  P  P14  1  0.61554197  0.63799485  0.16183736  1
  P  P15  1  0.38445803  0.36200515  0.83816264  1
  P  P16  1  0.20977651  0.83214458  0.07913704  1
  P  P17  1  0.79022349  0.16785542  0.92086296  1
  P  P18  1  0.29022349  0.66785542  0.57913704  1
  P  P19  1  0.70977651  0.33214458  0.42086296  1
  H  H20  1  0.27390474  0.99643404  0.63100641  1
  H  H21  1  0.72609526  0.00356596  0.36899359  1
  H  H22  1  0.22609526  0.50356596  0.13100641  1
  H  H23  1  0.77390474  0.49643404  0.86899359  1
  H  H24  1  0.59442376  0.82258793  0.41157059  1
  H  H25  1  0.40557624  0.17741207  0.58842941  1
  H  H26  1  0.90557624  0.67741207  0.91157059  1
  H  H27  1  0.09442376  0.32258793  0.08842941  1
  O  O28  1  0.08611757  0.90164735  0.01305983  1
  O  O29  1  0.91388243  0.09835265  0.98694017  1
  O  O30  1  0.41388243  0.59835265  0.51305983  1
  O  O31  1  0.58611757  0.40164735  0.48694017  1
  O  O32  1  0.07226170  0.90458948  0.72191407  1
  O  O33  1  0.92773830  0.09541052  0.27808593  1
  O  O34  1  0.42773830  0.59541052  0.22191407  1
  O  O35  1  0.57226170  0.40458948  0.77808593  1
  O  O36  1  0.37026244  0.96574114  0.15514783  1
  O  O37  1  0.62973756  0.03425886  0.84485217  1
  O  O38  1  0.12973756  0.53425886  0.65514783  1
  O  O39  1  0.87026244  0.46574114  0.34485217  1
  O  O40  1  0.85119018  0.74688118  0.53642756  1
  O  O41  1  0.14880982  0.25311882  0.46357244  1
  O  O42  1  0.64880982  0.75311882  0.03642756  1
  O  O43  1  0.35119018  0.24688118  0.96357244  1
  O  O44  1  0.60876867  0.93406194  0.41381552  1
  O  O45  1  0.39123133  0.06593806  0.58618448  1
  O  O46  1  0.89123133  0.56593806  0.91381552  1
  O  O47  1  0.10876867  0.43406194  0.08618448  1
  O  O48  1  0.08786451  0.70343623  0.18206311  1
  O  O49  1  0.91213549  0.29656377  0.81793689  1
  O  O50  1  0.41213549  0.79656377  0.68206311  1
  O  O51  1  0.58786451  0.20343623  0.31793689  1
  O  O52  1  0.77094866  0.75119817  0.25765696  1
  O  O53  1  0.22905134  0.24880183  0.74234304  1
  O  O54  1  0.72905134  0.74880183  0.75765696  1
  O  O55  1  0.27094866  0.25119817  0.24234304  1
  O  O56  1  0.22306480  0.74955823  0.46910142  1
  O  O57  1  0.77693520  0.25044177  0.53089858  1
  O  O58  1  0.27693520  0.75044177  0.96910142  1
  O  O59  1  0.72306480  0.24955823  0.03089858  1
  O  O60  1  0.13970150  0.98509035  0.37113819  1
  O  O61  1  0.86029850  0.01490965  0.62886181  1
  O  O62  1  0.36029850  0.51490965  0.87113819  1
  O  O63  1  0.63970150  0.48509035  0.12886181  1
