# generated using pymatgen
data_VH16C6N6O7F2
_symmetry_space_group_name_H-M   'P 1'
_cell_length_a   7.75222306
_cell_length_b   10.82608170
_cell_length_c   10.95988396
_cell_angle_alpha   63.09343896
_cell_angle_beta   71.42994004
_cell_angle_gamma   84.68901374
_symmetry_Int_Tables_number   1
_chemical_formula_structural   VH16C6N6O7F2
_chemical_formula_sum   'V2 H32 C12 N12 O14 F4'
_cell_volume   776.09316946
_cell_formula_units_Z   2
loop_
 _symmetry_equiv_pos_site_id
 _symmetry_equiv_pos_as_xyz
  1  'x, y, z'
loop_
 _atom_site_type_symbol
 _atom_site_label
 _atom_site_symmetry_multiplicity
 _atom_site_fract_x
 _atom_site_fract_y
 _atom_site_fract_z
 _atom_site_occupancy
  V  V0  1  0.62774866  0.04030872  0.32822646  1
  V  V1  1  0.37225134  0.95969128  0.67177354  1
  H  H2  1  0.09958332  0.82456736  0.40683767  1
  H  H3  1  0.04822835  0.46302822  0.71324230  1
  H  H4  1  0.78553509  0.95857886  0.97252870  1
  H  H5  1  0.26815659  0.29857226  0.82776704  1
  H  H6  1  0.76955214  0.31132896  0.60886879  1
  H  H7  1  0.43050237  0.72292749  0.16128685  1
  H  H8  1  0.03855791  0.37166734  0.33060514  1
  H  H9  1  0.04810783  0.70243795  0.04385249  1
  H  H10  1  0.39570809  0.86214564  0.00753978  1
  H  H11  1  0.76013684  0.68144546  0.82881109  1
  H  H12  1  0.68462215  0.56727286  0.01393551  1
  H  H13  1  0.79956556  0.79457685  0.22451052  1
  H  H14  1  0.73184341  0.70142774  0.17223296  1
  H  H15  1  0.78059804  0.33277086  0.08629069  1
  H  H16  1  0.90041668  0.17543264  0.59316233  1
  H  H17  1  0.99926156  0.13320899  0.36269096  1
  H  H18  1  0.95177165  0.53697178  0.28675770  1
  H  H19  1  0.16829951  0.10857560  0.42077950  1
  H  H20  1  0.23986316  0.31855454  0.17118891  1
  H  H21  1  0.20043444  0.20542315  0.77548948  1
  H  H22  1  0.00073844  0.86679101  0.63730904  1
  H  H23  1  0.83170049  0.89142440  0.57922050  1
  H  H24  1  0.96144209  0.62833266  0.66939486  1
  H  H25  1  0.31537785  0.43272714  0.98606449  1
  H  H26  1  0.93764555  0.98711738  0.80483187  1
  H  H27  1  0.23044786  0.68867104  0.39113121  1
  H  H28  1  0.21940196  0.66722914  0.91370931  1
  H  H29  1  0.06235445  0.01288262  0.19516813  1
  H  H30  1  0.60429191  0.13785436  0.99246022  1
  H  H31  1  0.95189217  0.29756205  0.95614751  1
  H  H32  1  0.21446491  0.04142114  0.02747130  1
  H  H33  1  0.56949763  0.27707251  0.83871315  1
  C  C34  1  0.63905580  0.57347005  0.54965897  1
  C  C35  1  0.50169429  0.54177071  0.69261461  1
  C  C36  1  0.36094420  0.42652995  0.45034103  1
  C  C37  1  0.85883617  0.49123250  0.87977698  1
  C  C38  1  0.61259164  0.72340194  0.50734801  1
  C  C39  1  0.51742235  0.30992279  0.35133613  1
  C  C40  1  0.49830571  0.45822929  0.30738539  1
  C  C41  1  0.38740836  0.27659806  0.49265199  1
  C  C42  1  0.48257765  0.69007721  0.64866387  1
  C  C43  1  0.75531463  0.13881055  0.80145933  1
  C  C44  1  0.24468537  0.86118945  0.19854067  1
  C  C45  1  0.14116383  0.50876750  0.12022302  1
  N  N46  1  0.62650942  0.18460984  0.88318589  1
  N  N47  1  0.25329573  0.41684254  0.09042478  1
  N  N48  1  0.81134424  0.21307988  0.65763047  1
  N  N49  1  0.82704517  0.01789903  0.86375890  1
  N  N50  1  0.13272546  0.63440849  0.01648466  1
  N  N51  1  0.17295483  0.98210097  0.13624110  1
  N  N52  1  0.04044412  0.47261915  0.25727789  1
  N  N53  1  0.18865576  0.78692012  0.34236953  1
  N  N54  1  0.86727454  0.36559151  0.98351534  1
  N  N55  1  0.74670427  0.58315746  0.90957522  1
  N  N56  1  0.95955588  0.52738085  0.74272211  1
  N  N57  1  0.37349058  0.81539016  0.11681411  1
  O  O58  1  0.83096049  0.76850678  0.14518063  1
  O  O59  1  0.73461092  0.50385224  0.49194337  1
  O  O60  1  0.68111438  0.83250696  0.39114968  1
  O  O61  1  0.56918435  0.56694741  0.19461504  1
  O  O62  1  0.43081565  0.43305259  0.80538496  1
  O  O63  1  0.31888562  0.16749304  0.60885032  1
  O  O64  1  0.38453043  0.75520363  0.71588050  1
  O  O65  1  0.16903951  0.23149322  0.85481937  1
  O  O66  1  0.92686541  0.82662085  0.60350804  1
  O  O67  1  0.59914574  0.06116674  0.17791381  1
  O  O68  1  0.61546957  0.24479637  0.28411950  1
  O  O69  1  0.26538908  0.49614776  0.50805663  1
  O  O70  1  0.40085426  0.93883326  0.82208619  1
  O  O71  1  0.07313459  0.17337915  0.39649196  1
  F  F72  1  0.11409381  0.92505488  0.71500017  1
  F  F73  1  0.88590619  0.07494512  0.28499983  1
  F  F74  1  0.36927202  0.00416159  0.45605172  1
  F  F75  1  0.63072798  0.99583841  0.54394828  1
