# generated using pymatgen
data_Be3Tl2Zn2F12
_symmetry_space_group_name_H-M   'P 1'
_cell_length_a   10.22472265
_cell_length_b   10.22472265
_cell_length_c   10.22472265
_cell_angle_alpha   90.00000000
_cell_angle_beta   90.00000000
_cell_angle_gamma   90.00000000
_symmetry_Int_Tables_number   1
_chemical_formula_structural   Be3Tl2Zn2F12
_chemical_formula_sum   'Be12 Tl8 Zn8 F48'
_cell_volume   1068.94315164
_cell_formula_units_Z   4
loop_
 _symmetry_equiv_pos_site_id
 _symmetry_equiv_pos_as_xyz
  1  'x, y, z'
loop_
 _atom_site_type_symbol
 _atom_site_label
 _atom_site_symmetry_multiplicity
 _atom_site_fract_x
 _atom_site_fract_y
 _atom_site_fract_z
 _atom_site_occupancy
  Be  Be0  1  0.01961091  0.21528234  0.37585562  1
  Be  Be1  1  0.48038909  0.78471766  0.87585562  1
  Be  Be2  1  0.98038909  0.71528234  0.12414438  1
  Be  Be3  1  0.37585562  0.01961091  0.21528234  1
  Be  Be4  1  0.51961091  0.28471766  0.62414438  1
  Be  Be5  1  0.87585562  0.48038909  0.78471766  1
  Be  Be6  1  0.12414438  0.98038909  0.71528234  1
  Be  Be7  1  0.62414438  0.51961091  0.28471766  1
  Be  Be8  1  0.21528234  0.37585562  0.01961091  1
  Be  Be9  1  0.71528234  0.12414438  0.98038909  1
  Be  Be10  1  0.28471766  0.62414438  0.51961091  1
  Be  Be11  1  0.78471766  0.87585562  0.48038909  1
  Tl  Tl12  1  0.04893954  0.04893954  0.04893954  1
  Tl  Tl13  1  0.45106046  0.95106046  0.54893954  1
  Tl  Tl14  1  0.95106046  0.54893954  0.45106046  1
  Tl  Tl15  1  0.54893954  0.45106046  0.95106046  1
  Tl  Tl16  1  0.81670811  0.81670811  0.81670811  1
  Tl  Tl17  1  0.68329189  0.18329189  0.31670811  1
  Tl  Tl18  1  0.18329189  0.31670811  0.68329189  1
  Tl  Tl19  1  0.31670811  0.68329189  0.18329189  1
  Zn  Zn20  1  0.33471716  0.33471716  0.33471716  1
  Zn  Zn21  1  0.16528284  0.66528284  0.83471716  1
  Zn  Zn22  1  0.66528284  0.83471716  0.16528284  1
  Zn  Zn23  1  0.83471716  0.16528284  0.66528284  1
  Zn  Zn24  1  0.59801696  0.59801696  0.59801696  1
  Zn  Zn25  1  0.90198304  0.40198304  0.09801696  1
  Zn  Zn26  1  0.40198304  0.09801696  0.90198304  1
  Zn  Zn27  1  0.09801696  0.90198304  0.40198304  1
  F  F28  1  0.01259313  0.06906692  0.32978991  1
  F  F29  1  0.48740687  0.93093308  0.82978991  1
  F  F30  1  0.98740687  0.56906692  0.17021009  1
  F  F31  1  0.32978991  0.01259313  0.06906692  1
  F  F32  1  0.51259313  0.43093308  0.67021009  1
  F  F33  1  0.82978991  0.48740687  0.93093308  1
  F  F34  1  0.17021009  0.98740687  0.56906692  1
  F  F35  1  0.67021009  0.51259313  0.43093308  1
  F  F36  1  0.06906692  0.32978991  0.01259313  1
  F  F37  1  0.56906692  0.17021009  0.98740687  1
  F  F38  1  0.43093308  0.67021009  0.51259313  1
  F  F39  1  0.93093308  0.82978991  0.48740687  1
  F  F40  1  0.26681749  0.49591188  0.43779473  1
  F  F41  1  0.23318251  0.50408812  0.93779473  1
  F  F42  1  0.73318251  0.99591188  0.06220527  1
  F  F43  1  0.43779473  0.26681749  0.49591188  1
  F  F44  1  0.76681749  0.00408812  0.56220527  1
  F  F45  1  0.93779473  0.23318251  0.50408812  1
  F  F46  1  0.06220527  0.73318251  0.99591188  1
  F  F47  1  0.56220527  0.76681749  0.00408812  1
  F  F48  1  0.49591188  0.43779473  0.26681749  1
  F  F49  1  0.99591188  0.06220527  0.73318251  1
  F  F50  1  0.00408812  0.56220527  0.76681749  1
  F  F51  1  0.50408812  0.93779473  0.23318251  1
  F  F52  1  0.04511054  0.80604274  0.23005416  1
  F  F53  1  0.45488946  0.19395726  0.73005416  1
  F  F54  1  0.95488946  0.30604274  0.26994584  1
  F  F55  1  0.23005416  0.04511054  0.80604274  1
  F  F56  1  0.54511054  0.69395726  0.76994584  1
  F  F57  1  0.73005416  0.45488946  0.19395726  1
  F  F58  1  0.26994584  0.95488946  0.30604274  1
  F  F59  1  0.76994584  0.54511054  0.69395726  1
  F  F60  1  0.80604274  0.23005416  0.04511054  1
  F  F61  1  0.30604274  0.26994584  0.95488946  1
  F  F62  1  0.69395726  0.76994584  0.54511054  1
  F  F63  1  0.19395726  0.73005416  0.45488946  1
  F  F64  1  0.16339792  0.25617797  0.40160826  1
  F  F65  1  0.33660208  0.74382203  0.90160826  1
  F  F66  1  0.83660208  0.75617797  0.09839174  1
  F  F67  1  0.40160826  0.16339792  0.25617797  1
  F  F68  1  0.66339792  0.24382203  0.59839174  1
  F  F69  1  0.90160826  0.33660208  0.74382203  1
  F  F70  1  0.09839174  0.83660208  0.75617797  1
  F  F71  1  0.59839174  0.66339792  0.24382203  1
  F  F72  1  0.25617797  0.40160826  0.16339792  1
  F  F73  1  0.75617797  0.09839174  0.83660208  1
  F  F74  1  0.24382203  0.59839174  0.66339792  1
  F  F75  1  0.74382203  0.90160826  0.33660208  1
