# generated using pymatgen
data_YEr3V4O16
_symmetry_space_group_name_H-M   'P 1'
_cell_length_a   5.98130683
_cell_length_b   5.98130683
_cell_length_c   10.15116500
_cell_angle_alpha   90.00000000
_cell_angle_beta   90.00000000
_cell_angle_gamma   116.06641650
_symmetry_Int_Tables_number   1
_chemical_formula_structural   YEr3V4O16
_chemical_formula_sum   'Y1 Er3 V4 O16'
_cell_volume   326.22882851
_cell_formula_units_Z   1
loop_
 _symmetry_equiv_pos_site_id
 _symmetry_equiv_pos_as_xyz
  1  'x, y, z'
loop_
 _atom_site_type_symbol
 _atom_site_label
 _atom_site_symmetry_multiplicity
 _atom_site_fract_x
 _atom_site_fract_y
 _atom_site_fract_z
 _atom_site_occupancy
  Y  Y0  1  0.50000000  0.00000000  0.25000000  1
  Er  Er1  1  -0.00000000  0.50000000  0.75000000  1
  Er  Er2  1  -0.00000000  0.00000000  0.99910508  1
  Er  Er3  1  0.50000000  0.50000000  0.50089492  1
  V  V4  1  -0.00000000  0.50000000  0.25000000  1
  V  V5  1  0.50000000  0.00000000  0.75000000  1
  V  V6  1  0.50000000  0.50000000  0.99844322  1
  V  V7  1  -0.00000000  0.00000000  0.50155678  1
  O  O8  1  0.08144331  0.76833428  0.15657391  1
  O  O9  1  0.58318626  0.26919008  0.65698125  1
  O  O10  1  0.26833428  0.58144331  0.34342609  1
  O  O11  1  0.76919008  0.08318626  0.84301875  1
  O  O12  1  0.73064602  0.91467593  0.40865511  1
  O  O13  1  0.23048502  0.41713493  0.90601340  1
  O  O14  1  0.41467593  0.23064602  0.09134489  1
  O  O15  1  0.91713493  0.73048502  0.59398660  1
  O  O16  1  0.73166572  0.41855669  0.34342609  1
  O  O17  1  0.23080992  0.91681374  0.84301875  1
  O  O18  1  0.91855669  0.23166572  0.15657391  1
  O  O19  1  0.41681374  0.73080992  0.65698125  1
  O  O20  1  0.58532407  0.76935398  0.09134489  1
  O  O21  1  0.08286507  0.26951498  0.59398660  1
  O  O22  1  0.26935398  0.08532407  0.40865511  1
  O  O23  1  0.76951498  0.58286507  0.90601340  1
