# generated using pymatgen
data_Ba2MoO3F4
_symmetry_space_group_name_H-M   'P 1'
_cell_length_a   7.30957979
_cell_length_b   7.53776322
_cell_length_c   7.53776322
_cell_angle_alpha   78.88614083
_cell_angle_beta   63.06861090
_cell_angle_gamma   63.06861090
_symmetry_Int_Tables_number   1
_chemical_formula_structural   Ba2MoO3F4
_chemical_formula_sum   'Ba4 Mo2 O6 F8'
_cell_volume   330.07730403
_cell_formula_units_Z   2
loop_
 _symmetry_equiv_pos_site_id
 _symmetry_equiv_pos_as_xyz
  1  'x, y, z'
loop_
 _atom_site_type_symbol
 _atom_site_label
 _atom_site_symmetry_multiplicity
 _atom_site_fract_x
 _atom_site_fract_y
 _atom_site_fract_z
 _atom_site_occupancy
  Ba  Ba0  1  0.17888152  0.32335643  0.55873820  1
  Ba  Ba1  1  0.67888152  0.55873820  0.32335643  1
  Ba  Ba2  1  0.00642212  0.97190795  0.32317231  1
  Ba  Ba3  1  0.50642212  0.32317231  0.97190795  1
  Mo  Mo4  1  0.12180205  0.85432551  0.79447827  1
  Mo  Mo5  1  0.62180205  0.79447827  0.85432551  1
  O  O6  1  -0.00034347  0.08914135  0.90836577  1
  O  O7  1  0.49965653  0.90836577  0.08914135  1
  O  O8  1  0.28178620  0.90360182  0.54437259  1
  O  O9  1  0.78178620  0.54437259  0.90360182  1
  O  O10  1  0.38104217  0.74834906  0.87327178  1
  O  O11  1  0.88104217  0.87327178  0.74834906  1
  F  F12  1  0.30096494  0.59259573  0.29434146  1
  F  F13  1  0.80096494  0.29434146  0.59259573  1
  F  F14  1  0.78155736  0.72003469  0.54236592  1
  F  F15  1  0.28155736  0.54236592  0.72003469  1
  F  F16  1  0.47817178  0.07578292  0.74098399  1
  F  F17  1  0.97817178  0.74098399  0.07578292  1
  F  F18  1  0.12321534  0.29779519  0.22161907  1
  F  F19  1  0.62321534  0.22161907  0.29779519  1
