# generated using pymatgen
data_Y9Er3Al20O48
_symmetry_space_group_name_H-M   'P 1'
_cell_length_a   10.50045924
_cell_length_b   10.50106315
_cell_length_c   10.50045924
_cell_angle_alpha   70.55052620
_cell_angle_beta   70.53108562
_cell_angle_gamma   109.49294659
_symmetry_Int_Tables_number   1
_chemical_formula_structural   Y9Er3Al20O48
_chemical_formula_sum   'Y9 Er3 Al20 O48'
_cell_volume   891.33383334
_cell_formula_units_Z   1
loop_
 _symmetry_equiv_pos_site_id
 _symmetry_equiv_pos_as_xyz
  1  'x, y, z'
loop_
 _atom_site_type_symbol
 _atom_site_label
 _atom_site_symmetry_multiplicity
 _atom_site_fract_x
 _atom_site_fract_y
 _atom_site_fract_z
 _atom_site_occupancy
  Y  Y0  1  0.12513368  0.25000000  0.62486632  1
  Y  Y1  1  0.25009621  0.62527042  0.62504168  1
  Y  Y2  1  0.74968790  0.87472958  0.87517421  1
  Y  Y3  1  0.62492642  0.37496383  0.75003100  1
  Y  Y4  1  0.87500516  0.12503617  0.25003741  1
  Y  Y5  1  0.62492697  0.25000000  0.12507303  1
  Y  Y6  1  0.87507002  0.75000000  0.37492998  1
  Y  Y7  1  0.75001052  0.37502703  0.37495486  1
  Y  Y8  1  0.25001811  0.12497297  0.12501651  1
  Er  Er9  1  0.37503328  0.62511204  0.24967712  1
  Er  Er10  1  0.12521084  0.87488796  0.75007876  1
  Er  Er11  1  0.37483772  0.75000000  0.87516228  1
  Al  Al12  1  0.12576679  0.37591041  0.24961562  1
  Al  Al13  1  0.37447396  0.12408959  0.75014362  1
  Al  Al14  1  0.62443454  0.75000000  0.62556546  1
  Al  Al15  1  0.87507124  0.25000000  0.87492876  1
  Al  Al16  1  0.25001419  0.87484935  0.37519609  1
  Al  Al17  1  0.74995457  0.62515065  0.12483516  1
  Al  Al18  1  0.87558003  0.62551577  0.75001241  1
  Al  Al19  1  0.62447182  0.87448423  0.24993575  1
  Al  Al20  1  0.37483698  0.25000000  0.37516302  1
  Al  Al21  1  0.12574606  0.75000000  0.12425394  1
  Al  Al22  1  0.74963422  0.12463135  0.62524791  1
  Al  Al23  1  0.25012073  0.37536865  0.87499713  1
  Al  Al24  1  0.49954025  0.99915823  0.00016202  1
  Al  Al25  1  0.49978790  0.50008021  0.49966116  1
  Al  Al26  1  0.00067975  0.50084177  0.99961798  1
  Al  Al27  1  0.00025863  0.99991979  0.50029230  1
  Al  Al28  1  0.49963623  0.50040857  0.00027460  1
  Al  Al29  1  0.49931682  0.99959143  0.50077234  1
  Al  Al30  1  0.00059656  0.50028042  0.49955849  1
  Al  Al31  1  0.00016109  0.99971958  0.99968385  1
  O  O32  1  0.32043076  0.52165796  0.09850755  1
  O  O33  1  0.12024296  0.42000994  0.40040559  1
  O  O34  1  0.37983450  0.97834204  0.70122720  1
  O  O35  1  0.17958447  0.07999006  0.79976697  1
  O  O36  1  0.47937825  0.79982163  0.62002729  1
  O  O37  1  0.58015108  0.70017837  0.82044338  1
  O  O38  1  0.01975158  0.40156944  0.68018739  1
  O  O39  1  0.91824317  0.09843056  0.88181786  1
  O  O40  1  0.20112065  0.68040715  0.41726317  1
  O  O41  1  0.29898089  0.88157043  0.52071302  1
  O  O42  1  0.59771656  0.61842957  0.08258954  1
  O  O43  1  0.90232968  0.81959285  0.97928650  1
  O  O44  1  0.68030003  0.48076690  0.90129159  1
  O  O45  1  0.88196927  0.58172370  0.59858651  1
  O  O46  1  0.61794151  0.01923310  0.30046687  1
  O  O47  1  0.81968979  0.91827630  0.19975443  1
  O  O48  1  0.51961649  0.19981263  0.38185040  1
  O  O49  1  0.41833697  0.30018737  0.18019614  1
  O  O50  1  0.98045134  0.59866558  0.31959138  1
  O  O51  1  0.08174304  0.90133442  0.11821424  1
  O  O52  1  0.80034567  0.31983781  0.58147671  1
  O  O53  1  0.69958721  0.11820596  0.48037556  1
  O  O54  1  0.40141847  0.38179404  0.91861875  1
  O  O55  1  0.09868548  0.18016219  0.01949213  1
  O  O56  1  0.68001243  0.19947039  0.91855679  1
  O  O57  1  0.88197283  0.30052961  0.01945796  1
  O  O58  1  0.61809066  0.59873160  0.58152228  1
  O  O59  1  0.81974612  0.90126840  0.48064094  1
  O  O60  1  0.51937097  0.31953271  0.59865973  1
  O  O61  1  0.41828636  0.11807048  0.90143216  1
  O  O62  1  0.98049737  0.38192952  0.19978411  1
  O  O63  1  0.08180756  0.18046729  0.30016174  1
  O  O64  1  0.80030609  0.48045951  0.11822058  1
  O  O65  1  0.69989254  0.58161124  0.31984846  1
  O  O66  1  0.40131991  0.01954049  0.18015341  1
  O  O67  1  0.09854030  0.91838876  0.38171871  1
  O  O68  1  0.32032535  0.79870267  0.08099553  1
  O  O69  1  0.12030180  0.70129733  0.97837732  1
  O  O70  1  0.38156201  0.40229976  0.41739250  1
  O  O71  1  0.18030774  0.09770024  0.52073775  1
  O  O72  1  0.47933048  0.67955120  0.40062358  1
  O  O73  1  0.58002537  0.87990294  0.09943801  1
  O  O74  1  0.02065904  0.62009706  0.79987758  1
  O  O75  1  0.91982522  0.82044880  0.70022072  1
  O  O76  1  0.20102516  0.52074350  0.88174624  1
  O  O77  1  0.30000555  0.41831448  0.68029566  1
  O  O78  1  0.59751026  0.97925650  0.81971834  1
  O  O79  1  0.90138986  0.08168552  0.61830893  1
