# generated using pymatgen
data_Y6O5F8
_symmetry_space_group_name_H-M   'P 1'
_cell_length_a   5.48070640
_cell_length_b   5.60832975
_cell_length_c   33.48866908
_cell_angle_alpha   90.00000000
_cell_angle_beta   90.00000000
_cell_angle_gamma   90.00000000
_symmetry_Int_Tables_number   1
_chemical_formula_structural   Y6O5F8
_chemical_formula_sum   'Y24 O20 F32'
_cell_volume   1029.36160788
_cell_formula_units_Z   4
loop_
 _symmetry_equiv_pos_site_id
 _symmetry_equiv_pos_as_xyz
  1  'x, y, z'
loop_
 _atom_site_type_symbol
 _atom_site_label
 _atom_site_symmetry_multiplicity
 _atom_site_fract_x
 _atom_site_fract_y
 _atom_site_fract_z
 _atom_site_occupancy
  Y  Y0  1  0.29023418  0.75000000  0.50000000  1
  Y  Y1  1  0.70976582  0.25000000  -0.00000000  1
  Y  Y2  1  0.71043433  0.25000000  0.50000000  1
  Y  Y3  1  0.28956567  0.75000000  -0.00000000  1
  Y  Y4  1  0.70171806  0.77718923  0.41763019  1
  Y  Y5  1  0.29828194  0.22281077  0.91763019  1
  Y  Y6  1  0.70171806  0.72281077  0.58236981  1
  Y  Y7  1  0.29828194  0.27718923  0.08236981  1
  Y  Y8  1  0.29702527  0.22754676  0.58194803  1
  Y  Y9  1  0.70297473  0.77245324  0.08194803  1
  Y  Y10  1  0.29702527  0.27245324  0.41805197  1
  Y  Y11  1  0.70297473  0.72754676  0.91805197  1
  Y  Y12  1  0.29218317  0.71340651  0.33583780  1
  Y  Y13  1  0.70781683  0.28659349  0.83583780  1
  Y  Y14  1  0.29218317  0.78659349  0.66416220  1
  Y  Y15  1  0.70781683  0.21340651  0.16416220  1
  Y  Y16  1  0.71148640  0.26088826  0.66411341  1
  Y  Y17  1  0.28851360  0.73911174  0.16411341  1
  Y  Y18  1  0.71148640  0.23911174  0.33588659  1
  Y  Y19  1  0.28851360  0.76088826  0.83588659  1
  Y  Y20  1  0.72247706  0.78606562  0.25076524  1
  Y  Y21  1  0.27752294  0.21393438  0.75076524  1
  Y  Y22  1  0.72247706  0.71393438  0.74923476  1
  Y  Y23  1  0.27752294  0.28606562  0.24923476  1
  O  O24  1  0.51539807  0.52439661  0.45842437  1
  O  O25  1  0.48460193  0.47560339  0.95842437  1
  O  O26  1  0.51539807  0.97560339  0.54157563  1
  O  O27  1  0.48460193  0.02439661  0.04157563  1
  O  O28  1  0.48503960  0.47631040  0.54192809  1
  O  O29  1  0.51496040  0.52368960  0.04192809  1
  O  O30  1  0.48503960  0.02368960  0.45807191  1
  O  O31  1  0.51496040  0.97631040  0.95807191  1
  O  O32  1  0.53046882  0.49348047  0.37498253  1
  O  O33  1  0.46953118  0.50651953  0.87498253  1
  O  O34  1  0.53046882  0.00651953  0.62501747  1
  O  O35  1  0.46953118  0.99348047  0.12501747  1
  O  O36  1  0.47096964  0.50687093  0.62742407  1
  O  O37  1  0.52903036  0.49312907  0.12742407  1
  O  O38  1  0.47096964  0.99312907  0.37257593  1
  O  O39  1  0.52903036  0.00687093  0.87257593  1
  O  O40  1  0.53558089  0.50786510  0.28961756  1
  O  O41  1  0.46441911  0.49213490  0.78961756  1
  O  O42  1  0.53558089  0.99213490  0.71038244  1
  O  O43  1  0.46441911  0.00786510  0.21038244  1
  F  F44  1  0.90872436  0.86817714  0.31486903  1
  F  F45  1  0.09127564  0.13182286  0.81486903  1
  F  F46  1  0.90872436  0.63182286  0.68513097  1
  F  F47  1  0.09127564  0.36817714  0.18513097  1
  F  F48  1  0.09190598  0.14227526  0.68390164  1
  F  F49  1  0.90809402  0.85772474  0.18390164  1
  F  F50  1  0.09190598  0.35772474  0.31609836  1
  F  F51  1  0.90809402  0.64227526  0.81609836  1
  F  F52  1  0.10548158  0.65301877  0.24851819  1
  F  F53  1  0.89451842  0.34698123  0.74851819  1
  F  F54  1  0.10548158  0.84698123  0.75148181  1
  F  F55  1  0.89451842  0.15301877  0.25148181  1
  F  F56  1  0.97505874  0.91715728  0.46338968  1
  F  F57  1  0.02494126  0.08284272  0.96338968  1
  F  F58  1  0.97505874  0.58284272  0.53661032  1
  F  F59  1  0.02494126  0.41715728  0.03661032  1
  F  F60  1  0.02600997  0.08385809  0.53644296  1
  F  F61  1  0.97399003  0.91614191  0.03644296  1
  F  F62  1  0.02600997  0.41614191  0.46355704  1
  F  F63  1  0.97399003  0.58385809  0.96355704  1
  F  F64  1  0.05236435  0.61388589  0.38862860  1
  F  F65  1  0.94763565  0.38611411  0.88862860  1
  F  F66  1  0.05236435  0.88611411  0.61137140  1
  F  F67  1  0.94763565  0.11388589  0.11137140  1
  F  F68  1  0.94412696  0.37994607  0.61054218  1
  F  F69  1  0.05587304  0.62005393  0.11054218  1
  F  F70  1  0.94412696  0.12005393  0.38945782  1
  F  F71  1  0.05587304  0.87994607  0.88945782  1
  F  F72  1  0.45150990  0.49141960  0.70811650  1
  F  F73  1  0.54849010  0.50858040  0.20811650  1
  F  F74  1  0.45150990  0.00858040  0.29188350  1
  F  F75  1  0.54849010  0.99141960  0.79188350  1
