# generated using pymatgen
data_ZnFe4CoO8
_symmetry_space_group_name_H-M   'P 1'
_cell_length_a   6.04126049
_cell_length_b   6.04126049
_cell_length_c   6.04126049
_cell_angle_alpha   90.00000000
_cell_angle_beta   60.00000000
_cell_angle_gamma   120.00000000
_symmetry_Int_Tables_number   1
_chemical_formula_structural   ZnFe4CoO8
_chemical_formula_sum   'Zn1 Fe4 Co1 O8'
_cell_volume   155.90774465
_cell_formula_units_Z   1
loop_
 _symmetry_equiv_pos_site_id
 _symmetry_equiv_pos_as_xyz
  1  'x, y, z'
loop_
 _atom_site_type_symbol
 _atom_site_label
 _atom_site_symmetry_multiplicity
 _atom_site_fract_x
 _atom_site_fract_y
 _atom_site_fract_z
 _atom_site_occupancy
  Zn  Zn0  1  -0.00000000  0.00000000  0.00000000  1
  Fe  Fe1  1  0.74999362  0.37499681  0.87500957  1
  Fe  Fe2  1  0.25000638  0.37499681  0.37499681  1
  Fe  Fe3  1  0.25000638  0.87500957  0.37499681  1
  Fe  Fe4  1  0.74999362  0.37499681  0.37499681  1
  Co  Co5  1  0.50000000  0.75000000  0.75000000  1
  O  O6  1  0.27049208  0.13524604  0.59426188  1
  O  O7  1  0.72950792  0.13524604  0.13524604  1
  O  O8  1  0.72950792  0.59426188  0.13524604  1
  O  O9  1  0.27049208  0.13524604  0.13524604  1
  O  O10  1  0.22959525  0.61479763  0.15560712  1
  O  O11  1  0.77040475  0.61479763  0.61479763  1
  O  O12  1  0.77040475  0.15560712  0.61479763  1
  O  O13  1  0.22959525  0.61479763  0.61479763  1
