# generated using pymatgen
data_YbPr3Co34
_symmetry_space_group_name_H-M   'P 1'
_cell_length_a   6.31459385
_cell_length_b   6.31459385
_cell_length_c   12.63146557
_cell_angle_alpha   83.14570462
_cell_angle_beta   83.14570462
_cell_angle_gamma   83.12871020
_symmetry_Int_Tables_number   1
_chemical_formula_structural   YbPr3Co34
_chemical_formula_sum   'Yb1 Pr3 Co34'
_cell_volume   493.64837701
_cell_formula_units_Z   1
loop_
 _symmetry_equiv_pos_site_id
 _symmetry_equiv_pos_as_xyz
  1  'x, y, z'
loop_
 _atom_site_type_symbol
 _atom_site_label
 _atom_site_symmetry_multiplicity
 _atom_site_fract_x
 _atom_site_fract_y
 _atom_site_fract_z
 _atom_site_occupancy
  Yb  Yb0  1  0.65602618  0.65602618  0.32803427  1
  Pr  Pr1  1  0.65391778  0.65391778  0.82710386  1
  Pr  Pr2  1  0.34814693  0.34814693  0.17398276  1
  Pr  Pr3  1  0.34571418  0.34571418  0.67304753  1
  Co  Co4  1  0.28854924  0.71256924  0.49804933  1
  Co  Co5  1  0.28151405  0.71722388  0.00130757  1
  Co  Co6  1  0.71274477  0.99734508  0.14446730  1
  Co  Co7  1  0.71712241  0.00161649  0.64055119  1
  Co  Co8  1  0.99910591  0.28626403  0.35676828  1
  Co  Co9  1  0.99987110  0.28402194  0.85816260  1
  Co  Co10  1  0.28626403  0.99910591  0.35676828  1
  Co  Co11  1  0.28402194  0.99987110  0.85816260  1
  Co  Co12  1  0.99734508  0.71274477  0.14446730  1
  Co  Co13  1  0.00161649  0.71712241  0.64055119  1
  Co  Co14  1  0.71722388  0.28151405  0.00130757  1
  Co  Co15  1  0.71256924  0.28854924  0.49804933  1
  Co  Co16  1  0.34540827  0.34540827  0.42514220  1
  Co  Co17  1  0.34208386  0.34208386  0.92641079  1
  Co  Co18  1  0.34499088  0.85095879  0.17304503  1
  Co  Co19  1  0.34249389  0.85201644  0.67050883  1
  Co  Co20  1  0.85095879  0.34499088  0.17304503  1
  Co  Co21  1  0.85201644  0.34249389  0.67050883  1
  Co  Co22  1  0.65797156  0.65797156  0.07608090  1
  Co  Co23  1  0.65735171  0.65735171  0.57172711  1
  Co  Co24  1  0.65798036  0.14771766  0.32880483  1
  Co  Co25  1  0.65773731  0.14780496  0.82914606  1
  Co  Co26  1  0.14771766  0.65798036  0.32880483  1
  Co  Co27  1  0.14780496  0.65773731  0.82914606  1
  Co  Co28  1  0.99763936  0.99763936  0.25076778  1
  Co  Co29  1  0.00028700  0.00028700  0.74944650  1
  Co  Co30  1  0.99853139  0.50047704  0.49869793  1
  Co  Co31  1  0.99942409  0.49972882  0.00024279  1
  Co  Co32  1  0.49972882  0.99942409  0.00024279  1
  Co  Co33  1  0.50047704  0.99853139  0.49869793  1
  Co  Co34  1  0.90229703  0.90229703  0.45093487  1
  Co  Co35  1  0.90376519  0.90376519  0.95237928  1
  Co  Co36  1  0.09598034  0.09598034  0.04891123  1
  Co  Co37  1  0.09560086  0.09560086  0.54652746  1
