# generated using pymatgen
data_Y6Al2SiS14
_symmetry_space_group_name_H-M   'P 1'
_cell_length_a   5.96973630
_cell_length_b   9.71160490
_cell_length_c   9.71160489
_cell_angle_alpha   119.99980112
_cell_angle_beta   89.99980349
_cell_angle_gamma   89.99992146
_symmetry_Int_Tables_number   1
_chemical_formula_structural   Y6Al2SiS14
_chemical_formula_sum   'Y6 Al2 Si1 S14'
_cell_volume   487.60557273
_cell_formula_units_Z   1
loop_
 _symmetry_equiv_pos_site_id
 _symmetry_equiv_pos_as_xyz
  1  'x, y, z'
loop_
 _atom_site_type_symbol
 _atom_site_label
 _atom_site_symmetry_multiplicity
 _atom_site_fract_x
 _atom_site_fract_y
 _atom_site_fract_z
 _atom_site_occupancy
  Y  Y0  1  0.48438032  0.63222567  0.85600387  1
  Y  Y1  1  0.48438481  0.14400301  0.77621637  1
  Y  Y2  1  0.48438540  0.22378513  0.36778485  1
  Y  Y3  1  0.97173037  0.36886871  0.15076370  1
  Y  Y4  1  0.97173761  0.84922231  0.21810518  1
  Y  Y5  1  0.97173852  0.78188704  0.63111717  1
  Al  Al6  1  0.66069938  0.00000086  -0.00000029  1
  Al  Al7  1  0.55788452  0.66665893  0.33332998  1
  Si  Si8  1  0.06149705  0.33334665  0.66667588  1
  S  S9  1  0.70309716  0.33333550  0.66666709  1
  S  S10  1  0.18396294  0.66666402  0.33333288  1
  S  S11  1  0.20597052  0.47534956  0.57794265  1
  S  S12  1  0.20596596  0.42207148  0.89741272  1
  S  S13  1  0.20596683  0.10259619  0.52465789  1
  S  S14  1  0.71289126  0.52085209  0.43045181  1
  S  S15  1  0.71289078  0.56954276  0.09040075  1
  S  S16  1  0.71288626  0.90959331  0.47914068  1
  S  S17  1  0.42846243  0.85426418  0.75623119  1
  S  S18  1  0.42846637  0.24376820  0.09802955  1
  S  S19  1  0.42845831  0.90197342  0.14574604  1
  S  S20  1  0.89351352  0.13516448  0.23525081  1
  S  S21  1  0.89351277  0.76474920  0.89991790  1
  S  S22  1  0.89351690  0.10007727  0.86482133  1
