# generated using pymatgen
data_FeH14C4NOF4
_symmetry_space_group_name_H-M   'P 1'
_cell_length_a   7.03118346
_cell_length_b   8.33484328
_cell_length_c   9.21112110
_cell_angle_alpha   65.45322437
_cell_angle_beta   83.01488255
_cell_angle_gamma   72.48314757
_symmetry_Int_Tables_number   1
_chemical_formula_structural   FeH14C4NOF4
_chemical_formula_sum   'Fe2 H28 C8 N2 O2 F8'
_cell_volume   468.24734792
_cell_formula_units_Z   2
loop_
 _symmetry_equiv_pos_site_id
 _symmetry_equiv_pos_as_xyz
  1  'x, y, z'
loop_
 _atom_site_type_symbol
 _atom_site_label
 _atom_site_symmetry_multiplicity
 _atom_site_fract_x
 _atom_site_fract_y
 _atom_site_fract_z
 _atom_site_occupancy
  Fe  Fe0  1  0.17650160  0.00566835  0.87511274  1
  Fe  Fe1  1  0.82349840  0.99433165  0.12488726  1
  H  H2  1  0.73056962  0.49949944  0.65054597  1
  H  H3  1  0.59208558  0.67681927  0.88042699  1
  H  H4  1  0.53404422  0.70711212  0.62286352  1
  H  H5  1  0.79635928  0.47273615  0.91679948  1
  H  H6  1  0.11159916  0.66375762  0.74449743  1
  H  H7  1  0.26751136  0.29255634  0.52111791  1
  H  H8  1  0.78794799  0.95877414  0.50772124  1
  H  H9  1  0.45442406  0.83801109  0.12010243  1
  H  H10  1  0.06398900  0.67680836  0.55189893  1
  H  H11  1  0.93601100  0.32319164  0.44810107  1
  H  H12  1  0.88840084  0.33624238  0.25550257  1
  H  H13  1  0.54557594  0.16198891  0.87989757  1
  H  H14  1  0.26943038  0.50050056  0.34945403  1
  H  H15  1  0.06407161  0.47098642  0.72721986  1
  H  H16  1  0.20364072  0.52726385  0.08320052  1
  H  H17  1  0.23386576  0.81198446  0.17290903  1
  H  H18  1  0.16774421  0.33096428  0.06388175  1
  H  H19  1  0.85722069  0.93866454  0.69798027  1
  H  H20  1  0.21205201  0.04122586  0.49227876  1
  H  H21  1  0.46595578  0.29288788  0.37713648  1
  H  H22  1  0.93592839  0.52901358  0.27278014  1
  H  H23  1  0.14277931  0.06133546  0.30201973  1
  H  H24  1  0.40791442  0.32318073  0.11957301  1
  H  H25  1  0.73248864  0.70744366  0.47888209  1
  H  H26  1  0.39572994  0.04337864  0.33742736  1
  H  H27  1  0.76613424  0.18801554  0.82709097  1
  H  H28  1  0.83225579  0.66903572  0.93611825  1
  H  H29  1  0.60427006  0.95662136  0.66257264  1
  C  C30  1  0.30721519  0.35064785  0.39478411  1
  C  C31  1  0.75374232  0.62283540  0.87181586  1
  C  C32  1  0.76143996  0.90412651  0.63672646  1
  C  C33  1  0.97054635  0.37909002  0.32038354  1
  C  C34  1  0.23856004  0.09587349  0.36327354  1
  C  C35  1  0.24625768  0.37716460  0.12818414  1
  C  C36  1  0.69278481  0.64935215  0.60521589  1
  C  C37  1  0.02945365  0.62090998  0.67961646  1
  N  N38  1  0.80993004  0.69864493  0.69856930  1
  N  N39  1  0.19006996  0.30135507  0.30143070  1
  O  O40  1  0.66460148  0.18143770  0.91379063  1
  O  O41  1  0.33539852  0.81856230  0.08620937  1
  F  F42  1  0.97496559  0.86224381  0.98114792  1
  F  F43  1  0.70735751  0.13944404  0.24091203  1
  F  F44  1  0.02707322  0.81878748  0.28370068  1
  F  F45  1  0.29264249  0.86055596  0.75908797  1
  F  F46  1  0.64113277  0.84728985  0.19047850  1
  F  F47  1  0.97292678  0.18121252  0.71629932  1
  F  F48  1  0.02503441  0.13775619  0.01885208  1
  F  F49  1  0.35886723  0.15271015  0.80952150  1
