# generated using pymatgen
data_Zn3Fe8CoO16
_symmetry_space_group_name_H-M   'P 1'
_cell_length_a   6.04858121
_cell_length_b   8.55349872
_cell_length_c   6.04858121
_cell_angle_alpha   90.00000000
_cell_angle_beta   90.00000000
_cell_angle_gamma   90.00000000
_symmetry_Int_Tables_number   1
_chemical_formula_structural   Zn3Fe8CoO16
_chemical_formula_sum   'Zn3 Fe8 Co1 O16'
_cell_volume   312.93261311
_cell_formula_units_Z   1
loop_
 _symmetry_equiv_pos_site_id
 _symmetry_equiv_pos_as_xyz
  1  'x, y, z'
loop_
 _atom_site_type_symbol
 _atom_site_label
 _atom_site_symmetry_multiplicity
 _atom_site_fract_x
 _atom_site_fract_y
 _atom_site_fract_z
 _atom_site_occupancy
  Zn  Zn0  1  -0.00000000  0.25000000  0.50000000  1
  Zn  Zn1  1  -0.00000000  0.00013496  0.00000000  1
  Zn  Zn2  1  0.50000000  0.49986504  0.50000000  1
  Fe  Fe3  1  0.25001044  0.37504888  0.00000000  1
  Fe  Fe4  1  0.74999588  0.87494382  0.50000000  1
  Fe  Fe5  1  0.00000000  0.62505618  0.75000412  1
  Fe  Fe6  1  0.50000000  0.12495112  0.24998956  1
  Fe  Fe7  1  0.00000000  0.62505618  0.24999588  1
  Fe  Fe8  1  0.50000000  0.12495112  0.75001044  1
  Fe  Fe9  1  0.74998956  0.37504888  0.00000000  1
  Fe  Fe10  1  0.25000412  0.87494382  0.50000000  1
  Co  Co11  1  0.50000000  0.75000000  0.00000000  1
  O  O12  1  0.72929894  0.13530779  0.00000000  1
  O  O13  1  0.22939307  0.63537370  0.50000000  1
  O  O14  1  0.50000000  0.36469221  0.77070106  1
  O  O15  1  -0.00000000  0.86462630  0.27060693  1
  O  O16  1  0.50000000  0.36469221  0.22929894  1
  O  O17  1  0.00000000  0.86462630  0.72939307  1
  O  O18  1  0.27070106  0.13530779  -0.00000000  1
  O  O19  1  0.77060693  0.63537370  0.50000000  1
  O  O20  1  0.77075293  0.61466526  0.00000000  1
  O  O21  1  0.27073404  0.11455892  0.50000000  1
  O  O22  1  0.00000000  0.38544108  0.22926596  1
  O  O23  1  0.50000000  0.88533474  0.72924707  1
  O  O24  1  -0.00000000  0.38544108  0.77073404  1
  O  O25  1  0.50000000  0.88533474  0.27075293  1
  O  O26  1  0.22924707  0.61466526  -0.00000000  1
  O  O27  1  0.72926596  0.11455892  0.50000000  1
