# generated using pymatgen
data_ZnFe8Co3O16
_symmetry_space_group_name_H-M   'P 1'
_cell_length_a   6.04434193
_cell_length_b   8.54767922
_cell_length_c   6.04434193
_cell_angle_alpha   90.00000000
_cell_angle_beta   90.00000000
_cell_angle_gamma   90.00000000
_symmetry_Int_Tables_number   1
_chemical_formula_structural   ZnFe8Co3O16
_chemical_formula_sum   'Zn1 Fe8 Co3 O16'
_cell_volume   312.28150606
_cell_formula_units_Z   1
loop_
 _symmetry_equiv_pos_site_id
 _symmetry_equiv_pos_as_xyz
  1  'x, y, z'
loop_
 _atom_site_type_symbol
 _atom_site_label
 _atom_site_symmetry_multiplicity
 _atom_site_fract_x
 _atom_site_fract_y
 _atom_site_fract_z
 _atom_site_occupancy
  Zn  Zn0  1  0.50000000  0.75000000  -0.00000000  1
  Fe  Fe1  1  0.25010842  0.37508190  0.00000000  1
  Fe  Fe2  1  0.74989719  0.87491743  0.50000000  1
  Fe  Fe3  1  -0.00000000  0.62508257  0.75010281  1
  Fe  Fe4  1  0.50000000  0.12491810  0.24989158  1
  Fe  Fe5  1  0.00000000  0.62508257  0.24989719  1
  Fe  Fe6  1  0.50000000  0.12491810  0.75010842  1
  Fe  Fe7  1  0.74989158  0.37508190  -0.00000000  1
  Fe  Fe8  1  0.25010281  0.87491743  0.50000000  1
  Co  Co9  1  -0.00000000  0.25000000  0.50000000  1
  Co  Co10  1  -0.00000000  0.99981423  -0.00000000  1
  Co  Co11  1  0.50000000  0.50018577  0.50000000  1
  O  O12  1  0.72954988  0.13528462  0.00000000  1
  O  O13  1  0.22940156  0.63527068  0.50000000  1
  O  O14  1  0.50000000  0.36471538  0.77045012  1
  O  O15  1  0.00000000  0.86472932  0.27059844  1
  O  O16  1  0.50000000  0.36471538  0.22954988  1
  O  O17  1  -0.00000000  0.86472932  0.72940156  1
  O  O18  1  0.27045012  0.13528462  -0.00000000  1
  O  O19  1  0.77059844  0.63527068  0.50000000  1
  O  O20  1  0.77054345  0.61478217  0.00000000  1
  O  O21  1  0.27084719  0.11448696  0.50000000  1
  O  O22  1  0.00000000  0.38551304  0.22915281  1
  O  O23  1  0.50000000  0.88521783  0.72945655  1
  O  O24  1  -0.00000000  0.38551304  0.77084719  1
  O  O25  1  0.50000000  0.88521783  0.27054345  1
  O  O26  1  0.22945655  0.61478217  -0.00000000  1
  O  O27  1  0.72915281  0.11448696  0.50000000  1
