# generated using pymatgen
data_Zr2P3H3O13
_symmetry_space_group_name_H-M   'P 1'
_cell_length_a   8.88945748
_cell_length_b   8.94266110
_cell_length_c   9.49047803
_cell_angle_alpha   62.52019074
_cell_angle_beta   61.68424103
_cell_angle_gamma   59.88654948
_symmetry_Int_Tables_number   1
_chemical_formula_structural   Zr2P3H3O13
_chemical_formula_sum   'Zr4 P6 H6 O26'
_cell_volume   549.24439060
_cell_formula_units_Z   2
loop_
 _symmetry_equiv_pos_site_id
 _symmetry_equiv_pos_as_xyz
  1  'x, y, z'
loop_
 _atom_site_type_symbol
 _atom_site_label
 _atom_site_symmetry_multiplicity
 _atom_site_fract_x
 _atom_site_fract_y
 _atom_site_fract_z
 _atom_site_occupancy
  Zr  Zr0  1  0.63980102  0.65107512  0.05838031  1
  Zr  Zr1  1  0.14789937  0.14191601  0.55780362  1
  Zr  Zr2  1  0.34184636  0.35671923  0.94868870  1
  Zr  Zr3  1  0.84526319  0.84819203  0.44877770  1
  P  P4  1  0.45636730  0.03606017  0.75611203  1
  P  P5  1  0.03475714  0.74972861  0.75068373  1
  P  P6  1  0.74767134  0.46391827  0.75151779  1
  P  P7  1  0.95330723  0.25313591  0.25579969  1
  P  P8  1  0.24856100  0.52906563  0.25881840  1
  P  P9  1  0.53835989  0.96945839  0.24438451  1
  H  H10  1  0.40483391  0.51511229  0.53521824  1
  H  H11  1  0.55919286  0.47549092  0.61168444  1
  H  H12  1  0.92616314  0.98732883  0.02218503  1
  H  H13  1  0.99905952  0.04566302  0.11492609  1
  H  H14  1  0.62417637  0.45986895  0.40888380  1
  H  H15  1  0.12290990  0.03414909  0.90230584  1
  O  O16  1  0.72447157  0.48420633  0.91323994  1
  O  O17  1  0.49139488  0.86344424  0.90349091  1
  O  O18  1  0.86916810  0.72518460  0.90817546  1
  O  O19  1  0.24509962  0.35458920  0.40621253  1
  O  O20  1  0.37347978  0.98929704  0.40612779  1
  O  O21  1  0.98762908  0.22625616  0.41118629  1
  O  O22  1  0.26006907  0.50867395  0.10019148  1
  O  O23  1  0.50149901  0.14268677  0.09689739  1
  O  O24  1  0.11180300  0.28349922  0.09381552  1
  O  O25  1  0.75281430  0.63783277  0.60394785  1
  O  O26  1  0.61604069  0.01565496  0.59274706  1
  O  O27  1  0.00149951  0.77243067  0.59495153  1
  O  O28  1  0.52585429  0.51702894  0.50345121  1
  O  O29  1  0.03362615  0.99501304  0.01887862  1
  O  O30  1  0.56796882  0.80969036  0.19958309  1
  O  O31  1  0.77277383  0.41839629  0.24182484  1
  O  O32  1  0.41513777  0.56981921  0.22124587  1
  O  O33  1  0.06341559  0.91995189  0.72127208  1
  O  O34  1  0.92177883  0.30225341  0.70820420  1
  O  O35  1  0.27688775  0.06733070  0.73589848  1
  O  O36  1  0.42481474  0.19924972  0.79680168  1
  O  O37  1  0.20700824  0.57889280  0.77705345  1
  O  O38  1  0.57895222  0.43140987  0.77328255  1
  O  O39  1  0.93451170  0.07972924  0.27450285  1
  O  O40  1  0.07106146  0.68700049  0.30767613  1
  O  O41  1  0.71197046  0.93449566  0.27317131  1
