# generated using pymatgen
data_U5PS4
_symmetry_space_group_name_H-M   'P 1'
_cell_length_a   3.87580459
_cell_length_b   3.87580459
_cell_length_c   16.01896700
_cell_angle_alpha   83.05159610
_cell_angle_beta   90.00000000
_cell_angle_gamma   120.00000000
_symmetry_Int_Tables_number   1
_chemical_formula_structural   U5PS4
_chemical_formula_sum   'U5 P1 S4'
_cell_volume   206.35248840
_cell_formula_units_Z   1
loop_
 _symmetry_equiv_pos_site_id
 _symmetry_equiv_pos_as_xyz
  1  'x, y, z'
loop_
 _atom_site_type_symbol
 _atom_site_label
 _atom_site_symmetry_multiplicity
 _atom_site_fract_x
 _atom_site_fract_y
 _atom_site_fract_z
 _atom_site_occupancy
  U  U0  1  0.39999971  0.79999942  0.80000087  1
  U  U1  1  0.20000029  0.40000058  0.39999913  1
  U  U2  1  0.80000000  0.60000000  0.60000000  1
  U  U3  1  0.00012243  0.00024486  0.99963271  1
  U  U4  1  0.59987757  0.19975514  0.20036729  1
  P  P5  1  0.30000000  0.60000000  0.10000000  1
  S  S6  1  0.89967366  0.79934731  0.30097903  1
  S  S7  1  0.49995981  0.99991963  0.50012056  1
  S  S8  1  0.10004019  0.20008037  0.69987944  1
  S  S9  1  0.70032634  0.40065269  0.89902097  1
