# generated using pymatgen
data_Ti5InS8
_symmetry_space_group_name_H-M   'P 1'
_cell_length_a   3.40992904
_cell_length_b   8.86014964
_cell_length_c   9.10581716
_cell_angle_alpha   103.97386334
_cell_angle_beta   79.20829825
_cell_angle_gamma   90.00000000
_symmetry_Int_Tables_number   1
_chemical_formula_structural   Ti5InS8
_chemical_formula_sum   'Ti5 In1 S8'
_cell_volume   261.95108502
_cell_formula_units_Z   1
loop_
 _symmetry_equiv_pos_site_id
 _symmetry_equiv_pos_as_xyz
  1  'x, y, z'
loop_
 _atom_site_type_symbol
 _atom_site_label
 _atom_site_symmetry_multiplicity
 _atom_site_fract_x
 _atom_site_fract_y
 _atom_site_fract_z
 _atom_site_occupancy
  Ti  Ti0  1  0.79314257  0.84756716  0.41371485  1
  Ti  Ti1  1  0.20752749  0.15291785  0.58494502  1
  Ti  Ti2  1  0.49952717  0.49886138  0.00094566  1
  Ti  Ti3  1  0.16021467  0.50536106  0.67957067  1
  Ti  Ti4  1  0.84112820  0.49350078  0.31774359  1
  In  In5  1  0.01200062  0.97776286  0.97599877  1
  S  S6  1  0.25928282  0.66566870  0.48143436  1
  S  S7  1  0.74097832  0.33396251  0.51804337  1
  S  S8  1  0.92454298  0.66853925  0.15091403  1
  S  S9  1  0.07582654  0.33127666  0.84834692  1
  S  S10  1  0.58753654  0.67505959  0.82492691  1
  S  S11  1  0.41202998  0.32501447  0.17594003  1
  S  S12  1  0.66241499  0.00094377  0.67517001  1
  S  S13  1  0.33709710  0.99866394  0.32580581  1
