# generated using pymatgen
data_TmUTe4
_symmetry_space_group_name_H-M   'P 1'
_cell_length_a   4.18985401
_cell_length_b   6.09702841
_cell_length_c   7.96129111
_cell_angle_alpha   67.48551028
_cell_angle_beta   74.74359274
_cell_angle_gamma   90.00000000
_symmetry_Int_Tables_number   1
_chemical_formula_structural   TmUTe4
_chemical_formula_sum   'Tm1 U1 Te4'
_cell_volume   180.09236265
_cell_formula_units_Z   1
loop_
 _symmetry_equiv_pos_site_id
 _symmetry_equiv_pos_as_xyz
  1  'x, y, z'
loop_
 _atom_site_type_symbol
 _atom_site_label
 _atom_site_symmetry_multiplicity
 _atom_site_fract_x
 _atom_site_fract_y
 _atom_site_fract_z
 _atom_site_occupancy
  Tm  Tm0  1  0.86110730  0.86110730  0.27778540  1
  U  U1  1  0.13649543  0.13649543  0.72700915  1
  Te  Te2  1  0.79559377  0.29559377  0.40881246  1
  Te  Te3  1  0.20476331  0.70476331  0.59047338  1
  Te  Te4  1  0.50102010  0.75317305  0.99795981  1
  Te  Te5  1  0.50102010  0.24886714  0.99795981  1
