# generated using pymatgen
data_KWNClF5
_symmetry_space_group_name_H-M   'P 1'
_cell_length_a   7.92240752
_cell_length_b   7.93240868
_cell_length_c   11.61172670
_cell_angle_alpha   99.65072712
_cell_angle_beta   90.00000000
_cell_angle_gamma   90.00000000
_symmetry_Int_Tables_number   1
_chemical_formula_structural   KWNClF5
_chemical_formula_sum   'K4 W4 N4 Cl4 F20'
_cell_volume   719.39766640
_cell_formula_units_Z   4
loop_
 _symmetry_equiv_pos_site_id
 _symmetry_equiv_pos_as_xyz
  1  'x, y, z'
loop_
 _atom_site_type_symbol
 _atom_site_label
 _atom_site_symmetry_multiplicity
 _atom_site_fract_x
 _atom_site_fract_y
 _atom_site_fract_z
 _atom_site_occupancy
  K  K0  1  0.43259552  0.76209572  0.60311386  1
  K  K1  1  0.56740448  0.23790428  0.39688614  1
  K  K2  1  0.06740448  0.26209572  0.60311386  1
  K  K3  1  0.93259552  0.73790428  0.39688614  1
  W  W4  1  0.51725513  0.33848612  0.73592914  1
  W  W5  1  0.98274487  0.83848612  0.73592914  1
  W  W6  1  0.48274487  0.66151388  0.26407086  1
  W  W7  1  0.01725513  0.16151388  0.26407086  1
  N  N8  1  0.88918834  0.78064735  0.86323250  1
  N  N9  1  0.11081166  0.21935265  0.13676750  1
  N  N10  1  0.61081166  0.28064735  0.86323250  1
  N  N11  1  0.38918834  0.71935265  0.13676750  1
  Cl  Cl12  1  0.67868987  0.22675953  0.98222654  1
  Cl  Cl13  1  0.82131013  0.72675953  0.98222654  1
  Cl  Cl14  1  0.17868987  0.27324047  0.01777346  1
  Cl  Cl15  1  0.32131013  0.77324047  0.01777346  1
  F  F16  1  0.95366039  0.08352890  0.77584476  1
  F  F17  1  0.03506677  0.60748977  0.65528921  1
  F  F18  1  0.04633961  0.91647110  0.22415524  1
  F  F19  1  0.96493323  0.39251023  0.34471079  1
  F  F20  1  0.78759181  0.14518492  0.20354649  1
  F  F21  1  0.71838921  0.32724045  0.63722962  1
  F  F22  1  0.54633961  0.58352890  0.77584476  1
  F  F23  1  0.45366039  0.41647110  0.22415524  1
  F  F24  1  0.21240819  0.85481508  0.79645351  1
  F  F25  1  0.53506677  0.89251023  0.34471079  1
  F  F26  1  0.89964349  0.09715811  0.40684588  1
  F  F27  1  0.28759181  0.35481508  0.79645351  1
  F  F28  1  0.60035651  0.59715811  0.40684588  1
  F  F29  1  0.28161079  0.67275955  0.36277038  1
  F  F30  1  0.10035651  0.90284189  0.59315412  1
  F  F31  1  0.39964349  0.40284189  0.59315412  1
  F  F32  1  0.71240819  0.64518492  0.20354649  1
  F  F33  1  0.46493323  0.10748977  0.65528921  1
  F  F34  1  0.21838921  0.17275955  0.36277038  1
  F  F35  1  0.78161079  0.82724045  0.63722962  1
