# generated using pymatgen
data_TiNbBi5WO15
_symmetry_space_group_name_H-M   'P 1'
_cell_length_a   5.47807969
_cell_length_b   5.52669908
_cell_length_c   21.67240494
_cell_angle_alpha   82.67453634
_cell_angle_beta   82.46432573
_cell_angle_gamma   90.00000000
_symmetry_Int_Tables_number   1
_chemical_formula_structural   TiNbBi5WO15
_chemical_formula_sum   'Ti2 Nb2 Bi10 W2 O30'
_cell_volume   645.07770362
_cell_formula_units_Z   2
loop_
 _symmetry_equiv_pos_site_id
 _symmetry_equiv_pos_as_xyz
  1  'x, y, z'
loop_
 _atom_site_type_symbol
 _atom_site_label
 _atom_site_symmetry_multiplicity
 _atom_site_fract_x
 _atom_site_fract_y
 _atom_site_fract_z
 _atom_site_occupancy
  Ti  Ti0  1  0.69513701  0.20246950  0.60447322  1
  Ti  Ti1  1  0.30486299  0.80694272  0.39552678  1
  Nb  Nb2  1  0.80883656  0.31051532  0.39566156  1
  Nb  Nb3  1  0.19116344  0.70617688  0.60433844  1
  Bi  Bi4  1  0.61110060  0.57715827  0.74001563  1
  Bi  Bi5  1  0.38889940  0.31717390  0.25998437  1
  Bi  Bi6  1  0.83540956  0.81965112  0.26087094  1
  Bi  Bi7  1  0.16459044  0.08052206  0.73912906  1
  Bi  Bi8  1  0.75431818  0.70864719  0.49890392  1
  Bi  Bi9  1  0.24568182  0.20755111  0.50109608  1
  Bi  Bi10  1  0.59770143  0.01488802  0.86074357  1
  Bi  Bi11  1  0.40229857  0.87563159  0.13925643  1
  Bi  Bi12  1  0.95286899  0.37789958  0.13966025  1
  Bi  Bi13  1  0.04713101  0.51755982  0.86033975  1
  W  W14  1  0.50000000  0.49437181  1.00000000  1
  W  W15  1  0.00000000  0.99436488  1.00000000  1
  O  O16  1  0.36250813  0.81884155  0.80088086  1
  O  O17  1  0.63749187  0.61972241  0.19911914  1
  O  O18  1  0.65635207  0.11977853  0.19907353  1
  O  O19  1  0.34364793  0.31885206  0.80092647  1
  O  O20  1  0.49475521  0.96275995  0.57706129  1
  O  O21  1  0.50524479  0.53982124  0.42293871  1
  O  O22  1  0.57534995  0.03619979  0.42280832  1
  O  O23  1  0.42465005  0.45900812  0.57719168  1
  O  O24  1  0.73798939  0.26089324  0.01702555  1
  O  O25  1  0.26201061  0.27791879  0.98297445  1
  O  O26  1  0.25570632  0.77788518  0.98288385  1
  O  O27  1  0.74429368  0.76076902  0.01711615  1
  O  O28  1  0.84387874  0.32232919  0.79929435  1
  O  O29  1  0.15612126  0.12162355  0.20070565  1
  O  O30  1  0.13772640  0.62022540  0.20076055  1
  O  O31  1  0.86227360  0.82098595  0.79923945  1
  O  O32  1  0.83215385  0.30449410  0.49954941  1
  O  O33  1  0.16784615  0.80404351  0.50045059  1
  O  O34  1  0.58269862  0.17880602  0.68699419  1
  O  O35  1  0.41730138  0.86580021  0.31300581  1
  O  O36  1  0.77696063  0.36752631  0.30975827  1
  O  O37  1  0.22303937  0.67728459  0.69024173  1
  O  O38  1  0.89086011  0.52592693  0.60411700  1
  O  O39  1  0.10913989  0.13004392  0.39588300  1
  O  O40  1  0.00222576  0.63465635  0.39663950  1
  O  O41  1  0.99777424  0.03129586  0.60336050  1
  O  O42  1  0.62819914  0.58877540  0.91391096  1
  O  O43  1  0.37180086  0.50268636  0.08608904  1
  O  O44  1  0.03901688  0.00169627  0.08613015  1
  O  O45  1  0.96098312  0.08782642  0.91386985  1
