# generated using pymatgen
data_H10C5NO6
_symmetry_space_group_name_H-M   'P 1'
_cell_length_a   5.74054248
_cell_length_b   7.97451573
_cell_length_c   10.47145325
_cell_angle_alpha   75.92618774
_cell_angle_beta   89.71227247
_cell_angle_gamma   70.54209533
_symmetry_Int_Tables_number   1
_chemical_formula_structural   H10C5NO6
_chemical_formula_sum   'H20 C10 N2 O12'
_cell_volume   436.90187870
_cell_formula_units_Z   2
loop_
 _symmetry_equiv_pos_site_id
 _symmetry_equiv_pos_as_xyz
  1  'x, y, z'
loop_
 _atom_site_type_symbol
 _atom_site_label
 _atom_site_symmetry_multiplicity
 _atom_site_fract_x
 _atom_site_fract_y
 _atom_site_fract_z
 _atom_site_occupancy
  H  H0  1  0.00856979  0.64451210  0.58527340  1
  H  H1  1  0.99143021  0.35548790  0.41472660  1
  H  H2  1  0.61307473  0.60283294  0.83092058  1
  H  H3  1  0.38692527  0.39716706  0.16907942  1
  H  H4  1  0.68928032  0.21687388  0.65848521  1
  H  H5  1  0.31071968  0.78312612  0.34151479  1
  H  H6  1  0.83964230  0.25586570  0.78123570  1
  H  H7  1  0.16035770  0.74413430  0.21876430  1
  H  H8  1  0.69649056  0.06060291  0.94746281  1
  H  H9  1  0.30350944  0.93939709  0.05253719  1
  H  H10  1  0.44426778  0.24571824  0.84524133  1
  H  H11  1  0.55573222  0.75428176  0.15475867  1
  H  H12  1  0.53296021  0.01756201  0.82111637  1
  H  H13  1  0.46703979  0.98243799  0.17888363  1
  H  H14  1  0.08795288  0.93168319  0.84993416  1
  H  H15  1  0.91204712  0.06831681  0.15006584  1
  H  H16  1  0.92465557  0.89544055  0.72090611  1
  H  H17  1  0.07534443  0.10455945  0.27909389  1
  H  H18  1  0.11727139  0.03576275  0.67959318  1
  H  H19  1  0.88272861  0.96423725  0.32040682  1
  C  C20  1  0.42263519  0.65152829  0.61286133  1
  C  C21  1  0.57736481  0.34847171  0.38713867  1
  C  C22  1  0.64978747  0.69213706  0.54780277  1
  C  C23  1  0.35021253  0.30786294  0.45219723  1
  C  C24  1  0.91668110  0.48131629  0.95079057  1
  C  C25  1  0.08331890  0.51868371  0.04920943  1
  C  C26  1  0.59875828  0.11875680  0.84873290  1
  C  C27  1  0.40124172  0.88124320  0.15126710  1
  C  C28  1  0.99346834  0.99406891  0.75053248  1
  C  C29  1  0.00653166  0.00593109  0.24946752  1
  N  N30  1  0.77781625  0.16012117  0.75372651  1
  N  N31  1  0.22218375  0.83987883  0.24627349  1
  O  O32  1  0.24164192  0.67995807  0.53170576  1
  O  O33  1  0.75835808  0.32004193  0.46829424  1
  O  O34  1  0.43010859  0.59606311  0.73713540  1
  O  O35  1  0.56989141  0.40393689  0.26286460  1
  O  O36  1  0.85483097  0.61753536  0.62738101  1
  O  O37  1  0.14516903  0.38246464  0.37261899  1
  O  O38  1  0.62758853  0.78611647  0.43308087  1
  O  O39  1  0.37241147  0.21388353  0.56691913  1
  O  O40  1  0.71779487  0.62480600  0.90372985  1
  O  O41  1  0.28220513  0.37519400  0.09627015  1
  O  O42  1  0.97401269  0.33084532  0.92376959  1
  O  O43  1  0.02598731  0.66915468  0.07623041  1
