# generated using pymatgen
data_TaV(Cu3Se4)2
_symmetry_space_group_name_H-M   'P 1'
_cell_length_a   5.65562782
_cell_length_b   7.99832086
_cell_length_c   7.99832086
_cell_angle_alpha   90.00000000
_cell_angle_beta   90.00000000
_cell_angle_gamma   90.00000000
_symmetry_Int_Tables_number   1
_chemical_formula_structural   TaV(Cu3Se4)2
_chemical_formula_sum   'Ta1 V1 Cu6 Se8'
_cell_volume   361.80825120
_cell_formula_units_Z   1
loop_
 _symmetry_equiv_pos_site_id
 _symmetry_equiv_pos_as_xyz
  1  'x, y, z'
loop_
 _atom_site_type_symbol
 _atom_site_label
 _atom_site_symmetry_multiplicity
 _atom_site_fract_x
 _atom_site_fract_y
 _atom_site_fract_z
 _atom_site_occupancy
  Ta  Ta0  1  0.00000000  0.00000000  0.00000000  1
  V  V1  1  -0.00000000  0.50000000  0.50000000  1
  Cu  Cu2  1  0.00000000  0.25206214  0.25206214  1
  Cu  Cu3  1  -0.00000000  0.74793786  0.74793786  1
  Cu  Cu4  1  0.00000000  0.25206214  0.74793786  1
  Cu  Cu5  1  -0.00000000  0.74793786  0.25206214  1
  Cu  Cu6  1  0.50000000  0.00000000  0.00000000  1
  Cu  Cu7  1  0.50000000  0.50000000  0.50000000  1
  Se  Se8  1  0.75827170  0.50000000  0.74135198  1
  Se  Se9  1  0.74880704  0.00000000  0.25160602  1
  Se  Se10  1  0.75827170  0.50000000  0.25864802  1
  Se  Se11  1  0.74880704  0.00000000  0.74839398  1
  Se  Se12  1  0.25119296  0.74839398  0.00000000  1
  Se  Se13  1  0.24172830  0.25864802  0.50000000  1
  Se  Se14  1  0.25119296  0.25160602  0.00000000  1
  Se  Se15  1  0.24172830  0.74135198  0.50000000  1
