# generated using pymatgen
data_TbGd3(PO4)4
_symmetry_space_group_name_H-M   'P 1'
_cell_length_a   5.84119591
_cell_length_b   5.84119591
_cell_length_c   9.32937668
_cell_angle_alpha   83.76788550
_cell_angle_beta   83.76788550
_cell_angle_gamma   74.00719323
_symmetry_Int_Tables_number   1
_chemical_formula_structural   TbGd3(PO4)4
_chemical_formula_sum   'Tb1 Gd3 P4 O16'
_cell_volume   303.15410302
_cell_formula_units_Z   1
loop_
 _symmetry_equiv_pos_site_id
 _symmetry_equiv_pos_as_xyz
  1  'x, y, z'
loop_
 _atom_site_type_symbol
 _atom_site_label
 _atom_site_symmetry_multiplicity
 _atom_site_fract_x
 _atom_site_fract_y
 _atom_site_fract_z
 _atom_site_occupancy
  Tb  Tb0  1  0.68754036  0.18754036  0.06252244  1
  Gd  Gd1  1  0.18745828  0.68745828  0.56246737  1
  Gd  Gd2  1  0.31252696  0.81252696  0.93772908  1
  Gd  Gd3  1  0.81246725  0.31246725  0.43727514  1
  P  P4  1  0.06214331  0.56214331  0.18698555  1
  P  P5  1  0.56286083  0.06286083  0.68803782  1
  P  P6  1  0.93703393  0.43703393  0.81287339  1
  P  P7  1  0.43795594  0.93795594  0.31211165  1
  O  O8  1  0.89672213  0.39672213  0.17845066  1
  O  O9  1  0.39751090  0.89751090  0.67987465  1
  O  O10  1  0.03066682  0.18499637  0.89215196  1
  O  O11  1  0.53236627  0.68612727  0.39076922  1
  O  O12  1  0.68499637  0.53066682  0.89215196  1
  O  O13  1  0.18612727  0.03236627  0.39076922  1
  O  O14  1  0.07040662  0.57040662  0.35212954  1
  O  O15  1  0.57130426  0.07130426  0.85363718  1
  O  O16  1  0.10233890  0.60233890  0.82081599  1
  O  O17  1  0.60354865  0.10354865  0.31922600  1
  O  O18  1  0.96688085  0.81514768  0.10877556  1
  O  O19  1  0.46771490  0.31435391  0.60918402  1
  O  O20  1  0.31514768  0.46688085  0.10877556  1
  O  O21  1  0.81435391  0.96771490  0.60918402  1
  O  O22  1  0.92918062  0.42918062  0.64767936  1
  O  O23  1  0.43074701  0.93074701  0.14642266  1
