# generated using pymatgen
data_TbGd(PO4)2
_symmetry_space_group_name_H-M   'P 1'
_cell_length_a   5.82996352
_cell_length_b   5.82996352
_cell_length_c   5.82996352
_cell_angle_alpha   63.28824136
_cell_angle_beta   74.02315644
_cell_angle_gamma   105.97684356
_symmetry_Int_Tables_number   1
_chemical_formula_structural   TbGd(PO4)2
_chemical_formula_sum   'Tb1 Gd1 P2 O8'
_cell_volume   150.68817557
_cell_formula_units_Z   1
loop_
 _symmetry_equiv_pos_site_id
 _symmetry_equiv_pos_as_xyz
  1  'x, y, z'
loop_
 _atom_site_type_symbol
 _atom_site_label
 _atom_site_symmetry_multiplicity
 _atom_site_fract_x
 _atom_site_fract_y
 _atom_site_fract_z
 _atom_site_occupancy
  Tb  Tb0  1  0.75000000  0.62500000  0.12500000  1
  Gd  Gd1  1  0.25000000  0.37500000  0.87500000  1
  P  P2  1  0.75000000  0.12500000  0.62500000  1
  P  P3  1  0.25000000  0.87500000  0.37500000  1
  O  O4  1  0.92285143  0.28393305  0.29321553  1
  O  O5  1  0.07556202  0.85785720  0.21770482  1
  O  O6  1  0.42443798  0.20673316  0.21770482  1
  O  O7  1  0.57714857  0.28393305  0.63891838  1
  O  O8  1  0.07556202  0.71770482  0.70673316  1
  O  O9  1  0.92285143  0.13891838  0.78393305  1
  O  O10  1  0.57714857  0.79321553  0.78393305  1
  O  O11  1  0.42443798  0.71770482  0.35785720  1
