# generated using pymatgen
data_TbSc3(BO3)4
_symmetry_space_group_name_H-M   'P 1'
_cell_length_a   4.85289114
_cell_length_b   7.70594741
_cell_length_c   5.97110963
_cell_angle_alpha   74.70248009
_cell_angle_beta   89.99237977
_cell_angle_gamma   89.89715608
_symmetry_Int_Tables_number   1
_chemical_formula_structural   TbSc3(BO3)4
_chemical_formula_sum   'Tb1 Sc3 B4 O12'
_cell_volume   215.38434585
_cell_formula_units_Z   1
loop_
 _symmetry_equiv_pos_site_id
 _symmetry_equiv_pos_as_xyz
  1  'x, y, z'
loop_
 _atom_site_type_symbol
 _atom_site_label
 _atom_site_symmetry_multiplicity
 _atom_site_fract_x
 _atom_site_fract_y
 _atom_site_fract_z
 _atom_site_occupancy
  Tb  Tb0  1  -0.00000000  -0.00000000  0.00000000  1
  Sc  Sc1  1  0.50000000  0.50000000  0.50000000  1
  Sc  Sc2  1  -0.00000000  0.50000000  0.00000000  1
  Sc  Sc3  1  0.50000000  -0.00000000  0.50000000  1
  B  B4  1  0.50247070  0.25907264  0.00367807  1
  B  B5  1  0.99738617  0.74684125  0.50829791  1
  B  B6  1  0.49752930  0.74092736  0.99632193  1
  B  B7  1  0.00261383  0.25315875  0.49170209  1
  O  O8  1  0.78664836  0.26545059  0.00083833  1
  O  O9  1  0.28410581  0.74935167  0.49673711  1
  O  O10  1  0.85615305  0.60112256  0.64714272  1
  O  O11  1  0.37453625  0.11212237  0.15133265  1
  O  O12  1  0.34909493  0.39235311  0.85361993  1
  O  O13  1  0.84945738  0.89154902  0.37490332  1
  O  O14  1  0.21335164  0.73454941  0.99916167  1
  O  O15  1  0.71589419  0.25064833  0.50326289  1
  O  O16  1  0.14384695  0.39887744  0.35285728  1
  O  O17  1  0.62546375  0.88787763  0.84866735  1
  O  O18  1  0.65090507  0.60764689  0.14638007  1
  O  O19  1  0.15054262  0.10845098  0.62509668  1
