# generated using pymatgen
data_MnH11C5NO6
_symmetry_space_group_name_H-M   'P 1'
_cell_length_a   8.36258931
_cell_length_b   9.17263833
_cell_length_c   12.18007957
_cell_angle_alpha   90.00000000
_cell_angle_beta   90.00000000
_cell_angle_gamma   90.00000000
_symmetry_Int_Tables_number   1
_chemical_formula_structural   MnH11C5NO6
_chemical_formula_sum   'Mn4 H44 C20 N4 O24'
_cell_volume   934.29745180
_cell_formula_units_Z   4
loop_
 _symmetry_equiv_pos_site_id
 _symmetry_equiv_pos_as_xyz
  1  'x, y, z'
loop_
 _atom_site_type_symbol
 _atom_site_label
 _atom_site_symmetry_multiplicity
 _atom_site_fract_x
 _atom_site_fract_y
 _atom_site_fract_z
 _atom_site_occupancy
  Mn  Mn0  1  0.99619787  0.02965042  0.99975962  1
  Mn  Mn1  1  0.49619787  0.47034958  0.49975962  1
  Mn  Mn2  1  0.00380213  0.97034958  0.49975962  1
  Mn  Mn3  1  0.50380213  0.52965042  0.99975962  1
  H  H4  1  0.70811707  0.17343578  0.53522590  1
  H  H5  1  0.36830068  0.15146005  0.19578245  1
  H  H6  1  0.00554991  0.67004672  0.69399390  1
  H  H7  1  0.15207515  0.38390471  0.27545666  1
  H  H8  1  0.82542114  0.50541415  0.28549916  1
  H  H9  1  0.17457886  0.49458585  0.78549916  1
  H  H10  1  0.93587953  0.72731570  0.20084131  1
  H  H11  1  0.13169932  0.65146005  0.19578245  1
  H  H12  1  0.92943532  0.01533782  0.25701367  1
  H  H13  1  0.97607747  0.57943804  0.11187920  1
  H  H14  1  0.07056468  0.98466218  0.75701367  1
  H  H15  1  0.06412047  0.27268430  0.70084131  1
  H  H16  1  0.57056468  0.51533782  0.25701367  1
  H  H17  1  0.49445009  0.17004672  0.69399390  1
  H  H18  1  0.56412047  0.22731570  0.20084131  1
  H  H19  1  0.50554991  0.82995328  0.19399390  1
  H  H20  1  0.49133332  0.93737410  0.86462416  1
  H  H21  1  0.29188293  0.82656422  0.03522590  1
  H  H22  1  0.76976155  0.75387997  0.95334845  1
  H  H23  1  0.47607747  0.92056196  0.61187920  1
  H  H24  1  0.32542114  0.99458585  0.78549916  1
  H  H25  1  0.79188293  0.67343578  0.53522590  1
  H  H26  1  0.26976155  0.74612003  0.45334845  1
  H  H27  1  0.20811707  0.32656422  0.03522590  1
  H  H28  1  0.42943532  0.48466218  0.75701367  1
  H  H29  1  0.43587953  0.77268430  0.70084131  1
  H  H30  1  0.52392253  0.07943804  0.11187920  1
  H  H31  1  0.34792485  0.88390471  0.27545666  1
  H  H32  1  0.98629751  0.30416434  0.33188941  1
  H  H33  1  0.99445009  0.32995328  0.19399390  1
  H  H34  1  0.23023845  0.24612003  0.45334845  1
  H  H35  1  0.67457886  0.00541415  0.28549916  1
  H  H36  1  0.65207515  0.11609529  0.77545666  1
  H  H37  1  0.84792485  0.61609529  0.77545666  1
  H  H38  1  0.50866668  0.06262590  0.36462416  1
  H  H39  1  0.99133332  0.56262590  0.36462416  1
  H  H40  1  0.48629751  0.19583566  0.83188941  1
  H  H41  1  0.63169932  0.84853995  0.69578245  1
  H  H42  1  0.86830068  0.34853995  0.69578245  1
  H  H43  1  0.51370249  0.80416434  0.33188941  1
  H  H44  1  0.73023845  0.25387997  0.95334845  1
  H  H45  1  0.01370249  0.69583566  0.83188941  1
  H  H46  1  0.02392253  0.42056196  0.61187920  1
  H  H47  1  0.00866668  0.43737410  0.86462416  1
  C  C48  1  0.05770140  0.98575154  0.24994695  1
  C  C49  1  0.78310890  0.30525800  0.02745473  1
  C  C50  1  0.04518860  0.47752531  0.78353942  1
  C  C51  1  0.00378815  0.62577854  0.19274789  1
  C  C52  1  0.22972159  0.76339742  0.97045480  1
  C  C53  1  0.54518860  0.02247469  0.28353942  1
  C  C54  1  0.49621185  0.12577854  0.19274789  1
  C  C55  1  0.99621185  0.37422146  0.69274789  1
  C  C56  1  0.44229860  0.48575154  0.24994695  1
  C  C57  1  0.95481140  0.52247469  0.28353942  1
  C  C58  1  0.45481140  0.97752531  0.78353942  1
  C  C59  1  0.21689110  0.69474200  0.52745473  1
  C  C60  1  0.71689110  0.80525800  0.02745473  1
  C  C61  1  0.77027841  0.23660258  0.47045480  1
  C  C62  1  0.72972159  0.73660258  0.47045480  1
  C  C63  1  0.94229860  0.01424846  0.74994695  1
  C  C64  1  0.28310890  0.19474200  0.52745473  1
  C  C65  1  0.55770140  0.51424846  0.74994695  1
  C  C66  1  0.50378815  0.87422146  0.69274789  1
  C  C67  1  0.27027841  0.26339742  0.97045480  1
  N  N68  1  0.52837470  0.12533119  0.76983249  1
  N  N69  1  0.02837470  0.37466881  0.26983249  1
  N  N70  1  0.47162530  0.87466881  0.26983249  1
  N  N71  1  0.97162530  0.62533119  0.76983249  1
  O  O72  1  0.40573039  0.25765177  0.56844912  1
  O  O73  1  0.12176179  0.99046799  0.15595129  1
  O  O74  1  0.09426961  0.75765177  0.56844912  1
  O  O75  1  0.59721864  0.68442058  0.43536470  1
  O  O76  1  0.86925501  0.05055039  0.83776055  1
  O  O77  1  0.79266900  0.85311516  0.43612902  1
  O  O78  1  0.90278136  0.18442058  0.43536470  1
  O  O79  1  0.63074499  0.55055039  0.83776055  1
  O  O80  1  0.62176179  0.50953201  0.65595129  1
  O  O81  1  0.21935564  0.08020744  0.56453517  1
  O  O82  1  0.59426961  0.74234823  0.06844912  1
  O  O83  1  0.40278136  0.31557942  0.93536470  1
  O  O84  1  0.90573039  0.24234823  0.06844912  1
  O  O85  1  0.71935564  0.41979256  0.06453517  1
  O  O86  1  0.09721864  0.81557942  0.93536470  1
  O  O87  1  0.37823821  0.49046799  0.15595129  1
  O  O88  1  0.87823821  0.00953201  0.65595129  1
  O  O89  1  0.20733100  0.14688484  0.93612902  1
  O  O90  1  0.36925501  0.44944961  0.33776055  1
  O  O91  1  0.78064436  0.91979256  0.06453517  1
  O  O92  1  0.29266900  0.64688484  0.93612902  1
  O  O93  1  0.13074499  0.94944961  0.33776055  1
  O  O94  1  0.28064436  0.58020744  0.56453517  1
  O  O95  1  0.70733100  0.35311516  0.43612902  1
