# generated using pymatgen
data_Tb2GdGa5O12
_symmetry_space_group_name_H-M   'P 1'
_cell_length_a   10.79531952
_cell_length_b   10.79531952
_cell_length_c   10.79531952
_cell_angle_alpha   70.52237450
_cell_angle_beta   70.53198170
_cell_angle_gamma   109.46801830
_symmetry_Int_Tables_number   1
_chemical_formula_structural   Tb2GdGa5O12
_chemical_formula_sum   'Tb8 Gd4 Ga20 O48'
_cell_volume   968.46651238
_cell_formula_units_Z   4
loop_
 _symmetry_equiv_pos_site_id
 _symmetry_equiv_pos_as_xyz
  1  'x, y, z'
loop_
 _atom_site_type_symbol
 _atom_site_label
 _atom_site_symmetry_multiplicity
 _atom_site_fract_x
 _atom_site_fract_y
 _atom_site_fract_z
 _atom_site_occupancy
  Tb  Tb0  1  0.25000000  0.62500000  0.62500000  1
  Tb  Tb1  1  0.75000000  0.87500000  0.87500000  1
  Tb  Tb2  1  0.62504411  0.37504411  0.75000000  1
  Tb  Tb3  1  0.87495589  0.12495589  0.25000000  1
  Tb  Tb4  1  0.62504411  0.25000000  0.12495589  1
  Tb  Tb5  1  0.87495589  0.75000000  0.37504411  1
  Tb  Tb6  1  0.75000000  0.37500000  0.37500000  1
  Tb  Tb7  1  0.25000000  0.12500000  0.12500000  1
  Gd  Gd8  1  0.37512692  0.62512692  0.25000000  1
  Gd  Gd9  1  0.12487308  0.87487308  0.75000000  1
  Gd  Gd10  1  0.37512692  0.75000000  0.87487308  1
  Gd  Gd11  1  0.12487308  0.25000000  0.62512692  1
  Ga  Ga12  1  0.12456389  0.37456389  0.25000000  1
  Ga  Ga13  1  0.37543611  0.12543611  0.75000000  1
  Ga  Ga14  1  0.62522362  0.75000000  0.62477638  1
  Ga  Ga15  1  0.87477638  0.25000000  0.87522362  1
  Ga  Ga16  1  0.25000000  0.87518944  0.37481056  1
  Ga  Ga17  1  0.75000000  0.62481056  0.12518944  1
  Ga  Ga18  1  0.87477638  0.62477638  0.75000000  1
  Ga  Ga19  1  0.62522362  0.87522362  0.25000000  1
  Ga  Ga20  1  0.37543611  0.25000000  0.37456389  1
  Ga  Ga21  1  0.12456389  0.75000000  0.12543611  1
  Ga  Ga22  1  0.75000000  0.12518944  0.62481056  1
  Ga  Ga23  1  0.25000000  0.37481056  0.87518944  1
  Ga  Ga24  1  0.50025218  0.00051768  0.99985481  1
  Ga  Ga25  1  0.50037248  0.50010698  0.50014519  1
  Ga  Ga26  1  0.99962752  0.49948232  0.00026550  1
  Ga  Ga27  1  0.99974782  0.99989302  0.49973450  1
  Ga  Ga28  1  0.50025218  0.49973450  0.99989302  1
  Ga  Ga29  1  0.50037248  0.00026550  0.49948232  1
  Ga  Ga30  1  0.99962752  0.50014519  0.50010698  1
  Ga  Ga31  1  0.99974782  0.99985481  0.00051768  1
  O  O32  1  0.58407850  0.87851426  0.09404781  1
  O  O33  1  0.47256207  0.67812631  0.40595219  1
  O  O34  1  0.02743793  0.62148574  0.79443576  1
  O  O35  1  0.91592150  0.82187369  0.70556424  1
  O  O36  1  0.12133531  0.70455133  0.97356579  1
  O  O37  1  0.32188288  0.79544867  0.08321603  1
  O  O38  1  0.37866469  0.40509890  0.41678397  1
  O  O39  1  0.17811712  0.09490110  0.52643421  1
  O  O40  1  0.29531391  0.41833159  0.67758890  1
  O  O41  1  0.20468609  0.52709720  0.87698232  1
  O  O42  1  0.59592049  0.97290280  0.82241110  1
  O  O43  1  0.90407951  0.08166841  0.62301768  1
  O  O44  1  0.41737738  0.12310444  0.90507463  1
  O  O45  1  0.52817907  0.32245202  0.59492537  1
  O  O46  1  0.97182093  0.37689556  0.20572706  1
  O  O47  1  0.08262262  0.17754798  0.29427294  1
  O  O48  1  0.87683176  0.29413124  0.02823619  1
  O  O49  1  0.67763257  0.20586876  0.91729948  1
  O  O50  1  0.62316824  0.59493205  0.58270052  1
  O  O51  1  0.82236743  0.90506795  0.47176381  1
  O  O52  1  0.70577035  0.58268601  0.32237850  1
  O  O53  1  0.79422965  0.47185115  0.12308434  1
  O  O54  1  0.40506451  0.02814885  0.17762150  1
  O  O55  1  0.09493549  0.91731399  0.37691566  1
  O  O56  1  0.41737738  0.29427294  0.17754798  1
  O  O57  1  0.52817907  0.20572706  0.37689556  1
  O  O58  1  0.97182093  0.59492537  0.32245202  1
  O  O59  1  0.08262262  0.90507463  0.12310444  1
  O  O60  1  0.87683176  0.58270052  0.59493205  1
  O  O61  1  0.67763257  0.47176381  0.90506795  1
  O  O62  1  0.62316824  0.02823619  0.29413124  1
  O  O63  1  0.82236743  0.91729948  0.20586876  1
  O  O64  1  0.70577035  0.12308434  0.47185115  1
  O  O65  1  0.79422965  0.32237850  0.58268601  1
  O  O66  1  0.40506451  0.37691566  0.91731399  1
  O  O67  1  0.09493549  0.17762150  0.02814885  1
  O  O68  1  0.58407850  0.70556424  0.82187369  1
  O  O69  1  0.47256207  0.79443576  0.62148574  1
  O  O70  1  0.02743793  0.40595219  0.67812631  1
  O  O71  1  0.91592150  0.09404781  0.87851426  1
  O  O72  1  0.12133531  0.41678397  0.40509890  1
  O  O73  1  0.32188288  0.52643421  0.09490110  1
  O  O74  1  0.37866469  0.97356579  0.70455133  1
  O  O75  1  0.17811712  0.08321603  0.79544867  1
  O  O76  1  0.29531391  0.87698232  0.52709720  1
  O  O77  1  0.20468609  0.67758890  0.41833159  1
  O  O78  1  0.59592049  0.62301768  0.08166841  1
  O  O79  1  0.90407951  0.82241110  0.97290280  1
