# generated using pymatgen
data_TbY2Ni6(B2C)3
_symmetry_space_group_name_H-M   'P 1'
_cell_length_a   3.54736387
_cell_length_b   3.54736387
_cell_length_c   15.87160239
_cell_angle_alpha   83.58368267
_cell_angle_beta   83.58368267
_cell_angle_gamma   90.00000000
_symmetry_Int_Tables_number   1
_chemical_formula_structural   TbY2Ni6(B2C)3
_chemical_formula_sum   'Tb1 Y2 Ni6 B6 C3'
_cell_volume   197.21488175
_cell_formula_units_Z   1
loop_
 _symmetry_equiv_pos_site_id
 _symmetry_equiv_pos_as_xyz
  1  'x, y, z'
loop_
 _atom_site_type_symbol
 _atom_site_label
 _atom_site_symmetry_multiplicity
 _atom_site_fract_x
 _atom_site_fract_y
 _atom_site_fract_z
 _atom_site_occupancy
  Tb  Tb0  1  0.50000000  0.50000000  -0.00000000  1
  Y  Y1  1  0.83333369  0.83333369  0.33333163  1
  Y  Y2  1  0.16666631  0.16666631  0.66666837  1
  Ni  Ni3  1  0.91666270  0.41666270  0.16667561  1
  Ni  Ni4  1  0.25000000  0.75000000  0.50000000  1
  Ni  Ni5  1  0.58333730  0.08333730  0.83332439  1
  Ni  Ni6  1  0.41666270  0.91666270  0.16667561  1
  Ni  Ni7  1  0.75000000  0.25000000  0.50000000  1
  Ni  Ni8  1  0.08333730  0.58333730  0.83332439  1
  B  B9  1  0.38105587  0.38105587  0.23788726  1
  B  B10  1  0.71437089  0.71437089  0.57125922  1
  B  B11  1  0.04770417  0.04770417  0.90459166  1
  B  B12  1  0.95229583  0.95229583  0.09540834  1
  B  B13  1  0.28562911  0.28562911  0.42874078  1
  B  B14  1  0.61894413  0.61894413  0.76211274  1
  C  C15  1  0.00000000  0.00000000  -0.00000000  1
  C  C16  1  0.33333089  0.33333089  0.33333723  1
  C  C17  1  0.66666911  0.66666911  0.66666277  1
