# generated using pymatgen
data_Ti27CuP16
_symmetry_space_group_name_H-M   'P 1'
_cell_length_a   3.40769399
_cell_length_b   7.45023632
_cell_length_c   26.42939414
_cell_angle_alpha   88.37897110
_cell_angle_beta   86.30370028
_cell_angle_gamma   76.77963072
_symmetry_Int_Tables_number   1
_chemical_formula_structural   Ti27CuP16
_chemical_formula_sum   'Ti27 Cu1 P16'
_cell_volume   651.78771775
_cell_formula_units_Z   1
loop_
 _symmetry_equiv_pos_site_id
 _symmetry_equiv_pos_as_xyz
  1  'x, y, z'
loop_
 _atom_site_type_symbol
 _atom_site_label
 _atom_site_symmetry_multiplicity
 _atom_site_fract_x
 _atom_site_fract_y
 _atom_site_fract_z
 _atom_site_occupancy
  Ti  Ti0  1  0.99757495  0.67379996  0.33105013  1
  Ti  Ti1  1  0.99705580  0.17471376  0.83117464  1
  Ti  Ti2  1  0.00249533  0.82660386  0.16840547  1
  Ti  Ti3  1  0.00280001  0.32562020  0.66877978  1
  Ti  Ti4  1  0.66038839  0.66297381  0.01624941  1
  Ti  Ti5  1  0.65999219  0.16412561  0.51589000  1
  Ti  Ti6  1  0.33931701  0.83739442  0.48397157  1
  Ti  Ti7  1  0.33989756  0.33713147  0.98307341  1
  Ti  Ti8  1  0.82089469  0.08931463  0.26889599  1
  Ti  Ti9  1  0.82142546  0.58603510  0.77111398  1
  Ti  Ti10  1  0.17832008  0.41365766  0.22970219  1
  Ti  Ti11  1  0.17848244  0.91420133  0.72883379  1
  Ti  Ti12  1  0.79401116  0.01551265  0.39646503  1
  Ti  Ti13  1  0.79394421  0.51512961  0.89698197  1
  Ti  Ti14  1  0.20850621  0.47864990  0.10433769  1
  Ti  Ti15  1  0.20582686  0.98532897  0.60301730  1
  Ti  Ti16  1  0.99900266  0.00092459  0.00107009  1
  Ti  Ti17  1  0.99998097  0.50012879  0.49990926  1
  Ti  Ti18  1  0.56960712  0.44536959  0.41541617  1
  Ti  Ti19  1  0.57047281  0.94374139  0.91531299  1
  Ti  Ti20  1  0.42335546  0.06534389  0.08794519  1
  Ti  Ti21  1  0.42991161  0.55551580  0.58466098  1
  Ti  Ti22  1  0.50216633  0.74725834  0.24840901  1
  Ti  Ti23  1  0.49996952  0.25014379  0.74991718  1
  Ti  Ti24  1  0.80441208  0.73761083  0.65356500  1
  Ti  Ti25  1  0.19617329  0.26156148  0.34609193  1
  Ti  Ti26  1  0.19544994  0.76251133  0.84658879  1
  Cu  Cu27  1  0.80419739  0.23218996  0.15941527  1
  P  P28  1  0.63439590  0.56100106  0.17020714  1
  P  P29  1  0.63011405  0.06877390  0.67099800  1
  P  P30  1  0.37062292  0.93124686  0.32750731  1
  P  P31  1  0.36990259  0.43120552  0.82898930  1
  P  P32  1  0.82121689  0.30535096  0.05221526  1
  P  P33  1  0.82204386  0.80129057  0.55462171  1
  P  P34  1  0.17821455  0.19834682  0.44522409  1
  P  P35  1  0.17787079  0.69844152  0.94581690  1
  P  P36  1  0.93829637  0.69873913  0.42466813  1
  P  P37  1  0.93954361  0.19626107  0.92465171  1
  P  P38  1  0.06001143  0.80330673  0.07667041  1
  P  P39  1  0.06154232  0.30178084  0.57513452  1
  P  P40  1  0.62942419  0.44050668  0.30064495  1
  P  P41  1  0.62813889  0.94238494  0.80133728  1
  P  P42  1  0.37150905  0.06064117  0.19634072  1
  P  P43  1  0.37152107  0.55822949  0.69872836  1
