# generated using pymatgen
data_TbGd2Ga5O12
_symmetry_space_group_name_H-M   'P 1'
_cell_length_a   10.81442450
_cell_length_b   10.81442450
_cell_length_c   10.81442450
_cell_angle_alpha   70.54273082
_cell_angle_beta   70.52180319
_cell_angle_gamma   109.47819681
_symmetry_Int_Tables_number   1
_chemical_formula_structural   TbGd2Ga5O12
_chemical_formula_sum   'Tb4 Gd8 Ga20 O48'
_cell_volume   973.61740480
_cell_formula_units_Z   4
loop_
 _symmetry_equiv_pos_site_id
 _symmetry_equiv_pos_as_xyz
  1  'x, y, z'
loop_
 _atom_site_type_symbol
 _atom_site_label
 _atom_site_symmetry_multiplicity
 _atom_site_fract_x
 _atom_site_fract_y
 _atom_site_fract_z
 _atom_site_occupancy
  Tb  Tb0  1  0.37488427  0.62488427  0.25000000  1
  Tb  Tb1  1  0.12511573  0.87511573  0.75000000  1
  Tb  Tb2  1  0.37488427  0.75000000  0.87511573  1
  Tb  Tb3  1  0.12511573  0.25000000  0.62488427  1
  Gd  Gd4  1  0.25000000  0.62500000  0.62500000  1
  Gd  Gd5  1  0.75000000  0.87500000  0.87500000  1
  Gd  Gd6  1  0.62492982  0.37492982  0.75000000  1
  Gd  Gd7  1  0.87507018  0.12507018  0.25000000  1
  Gd  Gd8  1  0.62492982  0.25000000  0.12507018  1
  Gd  Gd9  1  0.87507018  0.75000000  0.37492982  1
  Gd  Gd10  1  0.75000000  0.37500000  0.37500000  1
  Gd  Gd11  1  0.25000000  0.12500000  0.12500000  1
  Ga  Ga12  1  0.12545022  0.37545022  0.25000000  1
  Ga  Ga13  1  0.37454978  0.12454978  0.75000000  1
  Ga  Ga14  1  0.62475572  0.75000000  0.62524428  1
  Ga  Ga15  1  0.87524428  0.25000000  0.87475572  1
  Ga  Ga16  1  0.25000000  0.87480167  0.37519833  1
  Ga  Ga17  1  0.75000000  0.62519833  0.12480167  1
  Ga  Ga18  1  0.87524428  0.62524428  0.75000000  1
  Ga  Ga19  1  0.62475572  0.87475572  0.25000000  1
  Ga  Ga20  1  0.37454978  0.25000000  0.37545022  1
  Ga  Ga21  1  0.12545022  0.75000000  0.12454978  1
  Ga  Ga22  1  0.75000000  0.12480167  0.62519833  1
  Ga  Ga23  1  0.25000000  0.37519833  0.87480167  1
  Ga  Ga24  1  0.49973814  0.99946296  0.00014108  1
  Ga  Ga25  1  0.49960403  0.49987922  0.49985892  1
  Ga  Ga26  1  0.00039597  0.50053704  0.99972481  1
  Ga  Ga27  1  0.00026186  0.00012078  0.50027519  1
  Ga  Ga28  1  0.49973814  0.50027519  0.00012078  1
  Ga  Ga29  1  0.49960403  0.99972481  0.50053704  1
  Ga  Ga30  1  0.00039597  0.49985892  0.49987922  1
  Ga  Ga31  1  0.00026186  0.00014108  0.99946296  1
  O  O32  1  0.58152003  0.87676784  0.09577773  1
  O  O33  1  0.47254557  0.67729776  0.40422227  1
  O  O34  1  0.02745443  0.62323216  0.79524780  1
  O  O35  1  0.91847997  0.82270224  0.70475220  1
  O  O36  1  0.12339151  0.70579230  0.97154348  1
  O  O37  1  0.32266422  0.79420770  0.08240079  1
  O  O38  1  0.37660849  0.40506501  0.41759921  1
  O  O39  1  0.17733578  0.09493499  0.52845652  1
  O  O40  1  0.29431833  0.41599953  0.67788899  1
  O  O41  1  0.20568167  0.52779268  0.87831880  1
  O  O42  1  0.59388852  0.97220732  0.82211101  1
  O  O43  1  0.90611148  0.08400047  0.62168120  1
  O  O44  1  0.41697652  0.12155195  0.90509731  1
  O  O45  1  0.52664925  0.32207383  0.59490269  1
  O  O46  1  0.97335075  0.37844805  0.20457543  1
  O  O47  1  0.08302348  0.17792617  0.29542457  1
  O  O48  1  0.87852097  0.29558918  0.02659295  1
  O  O49  1  0.67781787  0.20441082  0.91706821  1
  O  O50  1  0.62147903  0.59488608  0.58293179  1
  O  O51  1  0.82218213  0.90511392  0.47340705  1
  O  O52  1  0.70452851  0.58294264  0.32216561  1
  O  O53  1  0.79547149  0.47330589  0.12158587  1
  O  O54  1  0.40510825  0.02669411  0.17783439  1
  O  O55  1  0.09489175  0.91705736  0.37841413  1
  O  O56  1  0.41697652  0.29542457  0.17792617  1
  O  O57  1  0.52664925  0.20457543  0.37844805  1
  O  O58  1  0.97335075  0.59490269  0.32207383  1
  O  O59  1  0.08302348  0.90509731  0.12155195  1
  O  O60  1  0.87852097  0.58293179  0.59488608  1
  O  O61  1  0.67781787  0.47340705  0.90511392  1
  O  O62  1  0.62147903  0.02659295  0.29558918  1
  O  O63  1  0.82218213  0.91706821  0.20441082  1
  O  O64  1  0.70452851  0.12158587  0.47330589  1
  O  O65  1  0.79547149  0.32216561  0.58294264  1
  O  O66  1  0.40510825  0.37841413  0.91705736  1
  O  O67  1  0.09489175  0.17783439  0.02669411  1
  O  O68  1  0.58152003  0.70475220  0.82270224  1
  O  O69  1  0.47254557  0.79524780  0.62323216  1
  O  O70  1  0.02745443  0.40422227  0.67729776  1
  O  O71  1  0.91847997  0.09577773  0.87676784  1
  O  O72  1  0.12339151  0.41759921  0.40506501  1
  O  O73  1  0.32266422  0.52845652  0.09493499  1
  O  O74  1  0.37660849  0.97154348  0.70579230  1
  O  O75  1  0.17733578  0.08240079  0.79420770  1
  O  O76  1  0.29431833  0.87831880  0.52779268  1
  O  O77  1  0.20568167  0.67788899  0.41599953  1
  O  O78  1  0.59388852  0.62168120  0.08400047  1
  O  O79  1  0.90611148  0.82211101  0.97220732  1
