# generated using pymatgen
data_Sr4BrN2Cl
_symmetry_space_group_name_H-M   'P 1'
_cell_length_a   3.93552493
_cell_length_b   3.93552580
_cell_length_c   14.71444891
_cell_angle_alpha   82.31481496
_cell_angle_beta   89.99999863
_cell_angle_gamma   119.99999921
_symmetry_Int_Tables_number   1
_chemical_formula_structural   Sr4BrN2Cl
_chemical_formula_sum   'Sr4 Br1 N2 Cl1'
_cell_volume   195.00218368
_cell_formula_units_Z   1
loop_
 _symmetry_equiv_pos_site_id
 _symmetry_equiv_pos_as_xyz
  1  'x, y, z'
loop_
 _atom_site_type_symbol
 _atom_site_label
 _atom_site_symmetry_multiplicity
 _atom_site_fract_x
 _atom_site_fract_y
 _atom_site_fract_z
 _atom_site_occupancy
  Sr  Sr0  1  0.61593985  0.23187970  0.15218045  1
  Sr  Sr1  1  0.11249934  0.22499868  0.66250198  1
  Sr  Sr2  1  0.88750066  0.77500132  0.33749802  1
  Sr  Sr3  1  0.38406015  0.76812030  0.84781955  1
  Br  Br4  1  0.50000000  0.00000000  0.50000000  1
  N  N5  1  0.25169328  0.50338655  0.24492017  1
  N  N6  1  0.74830672  0.49661345  0.75507983  1
  Cl  Cl7  1  0.00000000  0.00000000  -0.00000000  1
