# generated using pymatgen
data_SrNdNiO4
_symmetry_space_group_name_H-M   'P 1'
_cell_length_a   3.83194985
_cell_length_b   3.83194985
_cell_length_c   6.75916545
_cell_angle_alpha   73.53298924
_cell_angle_beta   73.53298924
_cell_angle_gamma   90.00000000
_symmetry_Int_Tables_number   1
_chemical_formula_structural   SrNdNiO4
_chemical_formula_sum   'Sr1 Nd1 Ni1 O4'
_cell_volume   90.92652516
_cell_formula_units_Z   1
loop_
 _symmetry_equiv_pos_site_id
 _symmetry_equiv_pos_as_xyz
  1  'x, y, z'
loop_
 _atom_site_type_symbol
 _atom_site_label
 _atom_site_symmetry_multiplicity
 _atom_site_fract_x
 _atom_site_fract_y
 _atom_site_fract_z
 _atom_site_occupancy
  Sr  Sr0  1  0.35874835  0.35874835  0.28250329  1
  Nd  Nd1  1  0.63815759  0.63815759  0.72368482  1
  Ni  Ni2  1  0.99656532  0.99656532  0.00686936  1
  O  O3  1  0.16270879  0.16270879  0.67458242  1
  O  O4  1  0.82727380  0.82727380  0.34545239  1
  O  O5  1  0.50827307  0.00827307  0.98345385  1
  O  O6  1  0.00827307  0.50827307  0.98345385  1
