# generated using pymatgen
data_Sr8Mn6Cu4Se4O15
_symmetry_space_group_name_H-M   'P 1'
_cell_length_a   5.62717763
_cell_length_b   5.62668131
_cell_length_c   17.96139855
_cell_angle_alpha   89.91743129
_cell_angle_beta   80.98770184
_cell_angle_gamma   89.47289047
_symmetry_Int_Tables_number   1
_chemical_formula_structural   Sr8Mn6Cu4Se4O15
_chemical_formula_sum   'Sr8 Mn6 Cu4 Se4 O15'
_cell_volume   561.65530512
_cell_formula_units_Z   1
loop_
 _symmetry_equiv_pos_site_id
 _symmetry_equiv_pos_as_xyz
  1  'x, y, z'
loop_
 _atom_site_type_symbol
 _atom_site_label
 _atom_site_symmetry_multiplicity
 _atom_site_fract_x
 _atom_site_fract_y
 _atom_site_fract_z
 _atom_site_occupancy
  Sr  Sr0  1  0.15742478  0.49656281  0.67827964  1
  Sr  Sr1  1  0.66429558  0.00343719  0.67827964  1
  Sr  Sr2  1  0.34257522  0.00343719  0.32172036  1
  Sr  Sr3  1  0.83570442  0.49656281  0.32172036  1
  Sr  Sr4  1  0.04843519  0.49295097  0.88894439  1
  Sr  Sr5  1  0.56262041  0.00704903  0.88894439  1
  Sr  Sr6  1  0.45156481  0.00704903  0.11105561  1
  Sr  Sr7  1  0.93737959  0.49295097  0.11105561  1
  Mn  Mn8  1  0.11495311  0.99521318  0.77966096  1
  Mn  Mn9  1  0.60538593  0.50478682  0.77966096  1
  Mn  Mn10  1  0.38504689  0.50478682  0.22033904  1
  Mn  Mn11  1  0.89461407  0.99521318  0.22033904  1
  Mn  Mn12  1  0.50563245  0.49435091  1.00000000  1
  Mn  Mn13  1  0.99436755  0.00564909  0.00000000  1
  Cu  Cu14  1  0.00009202  0.25000000  0.49981597  1
  Cu  Cu15  1  0.50009227  0.75000000  0.49981545  1
  Cu  Cu16  1  0.49990798  0.25000000  0.50018403  1
  Cu  Cu17  1  0.99990773  0.75000000  0.50018455  1
  Se  Se18  1  0.20690292  0.00009197  0.58537897  1
  Se  Se19  1  0.70771811  0.49990803  0.58537897  1
  Se  Se20  1  0.29309708  0.49990803  0.41462103  1
  Se  Se21  1  0.79228189  0.00009197  0.41462103  1
  O  O22  1  0.09180657  0.96112271  0.89397405  1
  O  O23  1  0.51421939  0.53887729  0.89397405  1
  O  O24  1  0.40819343  0.53887729  0.10602595  1
  O  O25  1  0.98578061  0.96112271  0.10602595  1
  O  O26  1  0.86238917  0.25000000  0.77522166  1
  O  O27  1  0.37208134  0.75000000  0.75583731  1
  O  O28  1  0.36774364  0.25000000  0.76451271  1
  O  O29  1  0.86773823  0.75000000  0.76452355  1
  O  O30  1  0.63761083  0.25000000  0.22477834  1
  O  O31  1  0.12791866  0.75000000  0.24416269  1
  O  O32  1  0.13225636  0.25000000  0.23548729  1
  O  O33  1  0.63226177  0.75000000  0.23547645  1
  O  O34  1  0.75000000  0.25000000  -0.00000000  1
  O  O35  1  0.75000000  0.75000000  -0.00000000  1
  O  O36  1  0.25000000  0.25000000  -0.00000000  1
