# generated using pymatgen
data_Sr2La(FeO3)3
_symmetry_space_group_name_H-M   'P 1'
_cell_length_a   5.54136710
_cell_length_b   5.54136729
_cell_length_c   6.76984770
_cell_angle_alpha   90.00000000
_cell_angle_beta   90.00000000
_cell_angle_gamma   59.99999879
_symmetry_Int_Tables_number   1
_chemical_formula_structural   Sr2La(FeO3)3
_chemical_formula_sum   'Sr2 La1 Fe3 O9'
_cell_volume   180.02937903
_cell_formula_units_Z   1
loop_
 _symmetry_equiv_pos_site_id
 _symmetry_equiv_pos_as_xyz
  1  'x, y, z'
loop_
 _atom_site_type_symbol
 _atom_site_label
 _atom_site_symmetry_multiplicity
 _atom_site_fract_x
 _atom_site_fract_y
 _atom_site_fract_z
 _atom_site_occupancy
  Sr  Sr0  1  -0.00000000  -0.00000000  0.50166968  1
  Sr  Sr1  1  0.33333300  0.33333300  0.83166332  1
  La  La2  1  0.66666700  0.66666700  0.16666700  1
  Fe  Fe3  1  0.66666700  0.66666700  0.66666700  1
  Fe  Fe4  1  -0.00000000  -0.00000000  0.99823471  1
  Fe  Fe5  1  0.33333300  0.33333300  0.33509829  1
  O  O6  1  0.33858597  0.83070652  0.83968607  1
  O  O7  1  0.66666700  0.16666700  0.16666700  1
  O  O8  1  0.99474703  0.50262648  0.49364693  1
  O  O9  1  0.83070652  0.83070652  0.83968607  1
  O  O10  1  0.16666700  0.16666700  0.16666700  1
  O  O11  1  0.50262648  0.50262648  0.49364693  1
  O  O12  1  0.16666700  0.66666700  0.16666700  1
  O  O13  1  0.50262648  0.99474703  0.49364693  1
  O  O14  1  0.83070652  0.33858597  0.83968607  1
