# generated using pymatgen
data_Ta4MoSe10
_symmetry_space_group_name_H-M   'P 1'
_cell_length_a   3.44014135
_cell_length_b   10.51197080
_cell_length_c   9.92156711
_cell_angle_alpha   85.41570667
_cell_angle_beta   100.04479060
_cell_angle_gamma   89.98676010
_symmetry_Int_Tables_number   1
_chemical_formula_structural   Ta4MoSe10
_chemical_formula_sum   'Ta4 Mo1 Se10'
_cell_volume   352.12372024
_cell_formula_units_Z   1
loop_
 _symmetry_equiv_pos_site_id
 _symmetry_equiv_pos_as_xyz
  1  'x, y, z'
loop_
 _atom_site_type_symbol
 _atom_site_label
 _atom_site_symmetry_multiplicity
 _atom_site_fract_x
 _atom_site_fract_y
 _atom_site_fract_z
 _atom_site_occupancy
  Ta  Ta0  1  0.13384117  0.27181040  0.26657582  1
  Ta  Ta1  1  0.33603529  0.67769725  0.67152369  1
  Ta  Ta2  1  0.52577579  0.05767412  0.05177780  1
  Ta  Ta3  1  0.72980432  0.46697498  0.46104584  1
  Mo  Mo4  1  0.93216701  0.87097927  0.86461314  1
  Se  Se5  1  0.39567762  0.04801868  0.79217996  1
  Se  Se6  1  0.59739016  0.45211168  0.19601355  1
  Se  Se7  1  0.00000723  0.24532254  0.00135234  1
  Se  Se8  1  0.80121683  0.85587726  0.60242036  1
  Se  Se9  1  0.20176755  0.65186631  0.40495522  1
  Se  Se10  1  0.73232420  0.21881178  0.46387417  1
  Se  Se11  1  0.93417205  0.62542480  0.86632251  1
  Se  Se12  1  0.12801770  0.02298355  0.25568704  1
  Se  Se13  1  0.33128618  0.42767621  0.66200629  1
  Se  Se14  1  0.52971690  0.81517117  0.05855228  1
