# generated using pymatgen
data_SrCaTi2(GeO5)2
_symmetry_space_group_name_H-M   'P 1'
_cell_length_a   6.82132734
_cell_length_b   7.30368225
_cell_length_c   9.06532094
_cell_angle_alpha   90.00000000
_cell_angle_beta   90.00000000
_cell_angle_gamma   114.03507826
_symmetry_Int_Tables_number   1
_chemical_formula_structural   SrCaTi2(GeO5)2
_chemical_formula_sum   'Sr2 Ca2 Ti4 Ge4 O20'
_cell_volume   412.48259624
_cell_formula_units_Z   2
loop_
 _symmetry_equiv_pos_site_id
 _symmetry_equiv_pos_as_xyz
  1  'x, y, z'
loop_
 _atom_site_type_symbol
 _atom_site_label
 _atom_site_symmetry_multiplicity
 _atom_site_fract_x
 _atom_site_fract_y
 _atom_site_fract_z
 _atom_site_occupancy
  Sr  Sr0  1  0.25074209  0.74277028  0.07765448  1
  Sr  Sr1  1  0.74925791  0.75722972  0.57765448  1
  Ca  Ca2  1  0.75004117  0.25489809  0.92447421  1
  Ca  Ca3  1  0.24995883  0.24510191  0.42447421  1
  Ti  Ti4  1  0.75350852  0.01669636  0.24658088  1
  Ti  Ti5  1  0.24649148  0.48330364  0.74658088  1
  Ti  Ti6  1  0.25567749  0.99041193  0.75218339  1
  Ti  Ti7  1  0.74432251  0.50958807  0.25218339  1
  Ge  Ge8  1  0.24769240  0.24505706  0.06625009  1
  Ge  Ge9  1  0.75230760  0.25494294  0.56625009  1
  Ge  Ge10  1  0.75192440  0.75410583  0.93517619  1
  Ge  Ge11  1  0.24807560  0.74589417  0.43517619  1
  O  O12  1  0.04976843  0.57819094  0.31558184  1
  O  O13  1  0.95023157  0.92180906  0.81558184  1
  O  O14  1  0.93979218  0.42164488  0.69282424  1
  O  O15  1  0.06020782  0.07835512  0.19282424  1
  O  O16  1  0.75335417  0.25010018  0.18175527  1
  O  O17  1  0.24664583  0.24989982  0.68175527  1
  O  O18  1  0.24743468  0.75090155  0.80631407  1
  O  O19  1  0.75256532  0.74909845  0.30631407  1
  O  O20  1  0.65659726  0.90512297  0.04056870  1
  O  O21  1  0.34340274  0.59487703  0.54056870  1
  O  O22  1  0.35979494  0.11027626  0.95640572  1
  O  O23  1  0.64020506  0.38972374  0.45640572  1
  O  O24  1  0.43546282  0.41279044  0.19249563  1
  O  O25  1  0.56453718  0.08720956  0.69249563  1
  O  O26  1  0.55135078  0.58708731  0.81556149  1
  O  O27  1  0.44864922  0.91291269  0.31556149  1
  O  O28  1  0.85995026  0.11621807  0.45532212  1
  O  O29  1  0.14004974  0.38378193  0.95532212  1
  O  O30  1  0.15747251  0.90177840  0.54085168  1
  O  O31  1  0.84252749  0.59822160  0.04085168  1
