# generated using pymatgen
data_Sr5Fe4MoO15
_symmetry_space_group_name_H-M   'P 1'
_cell_length_a   5.58782393
_cell_length_b   6.85450141
_cell_length_c   8.85185901
_cell_angle_alpha   104.93261009
_cell_angle_beta   71.60115153
_cell_angle_gamma   90.00000000
_symmetry_Int_Tables_number   1
_chemical_formula_structural   Sr5Fe4MoO15
_chemical_formula_sum   'Sr5 Fe4 Mo1 O15'
_cell_volume   309.62084412
_cell_formula_units_Z   1
loop_
 _symmetry_equiv_pos_site_id
 _symmetry_equiv_pos_as_xyz
  1  'x, y, z'
loop_
 _atom_site_type_symbol
 _atom_site_label
 _atom_site_symmetry_multiplicity
 _atom_site_fract_x
 _atom_site_fract_y
 _atom_site_fract_z
 _atom_site_occupancy
  Sr  Sr0  1  0.20554479  0.20366073  0.58891042  1
  Sr  Sr1  1  0.60000000  0.60000000  0.80000000  1
  Sr  Sr2  1  0.99445521  0.99633927  0.01108958  1
  Sr  Sr3  1  0.39544945  0.40716243  0.20910110  1
  Sr  Sr4  1  0.80455055  0.79283757  0.39089890  1
  Fe  Fe5  1  0.99871093  0.50903336  0.00257815  1
  Fe  Fe6  1  0.39698407  0.89875719  0.20603186  1
  Fe  Fe7  1  0.80301593  0.30124281  0.39396814  1
  Fe  Fe8  1  0.20128907  0.69096664  0.59742185  1
  Mo  Mo9  1  0.60000000  0.10000000  0.80000000  1
  O  O10  1  0.50352344  0.49716762  0.50006678  1
  O  O11  1  0.89377178  0.90454871  0.70352009  1
  O  O12  1  0.30622822  0.29545129  0.89647991  1
  O  O13  1  0.69647656  0.70283238  0.09993322  1
  O  O14  1  0.10000000  0.10000000  0.30000000  1
  O  O15  1  0.60000000  0.10000000  0.30000000  1
  O  O16  1  0.99640978  0.49716762  0.50006678  1
  O  O17  1  0.40270813  0.90454871  0.70352009  1
  O  O18  1  0.79729187  0.29545129  0.89647991  1
  O  O19  1  0.20359022  0.70283238  0.09993322  1
  O  O20  1  0.69781336  0.19688450  0.60437328  1
  O  O21  1  0.10000000  0.60000000  0.80000000  1
  O  O22  1  0.50218664  0.00311550  0.99562672  1
  O  O23  1  0.90292917  0.40091236  0.19414167  1
  O  O24  1  0.29707083  0.79908764  0.40585833  1
