# generated using pymatgen
data_Ta3NbV4O20
_symmetry_space_group_name_H-M   'P 1'
_cell_length_a   5.62817641
_cell_length_b   7.07110986
_cell_length_c   12.06098942
_cell_angle_alpha   89.92179477
_cell_angle_beta   90.00000000
_cell_angle_gamma   90.00000000
_symmetry_Int_Tables_number   1
_chemical_formula_structural   Ta3NbV4O20
_chemical_formula_sum   'Ta3 Nb1 V4 O20'
_cell_volume   479.99622087
_cell_formula_units_Z   1
loop_
 _symmetry_equiv_pos_site_id
 _symmetry_equiv_pos_as_xyz
  1  'x, y, z'
loop_
 _atom_site_type_symbol
 _atom_site_label
 _atom_site_symmetry_multiplicity
 _atom_site_fract_x
 _atom_site_fract_y
 _atom_site_fract_z
 _atom_site_occupancy
  Ta  Ta0  1  0.25000000  0.34217930  0.05718755  1
  Ta  Ta1  1  0.75000000  0.83895328  0.44140781  1
  Ta  Ta2  1  0.75000000  0.65683324  0.94258008  1
  Nb  Nb3  1  0.25000000  0.15411660  0.55692523  1
  V  V4  1  0.25000000  0.96767757  0.84518575  1
  V  V5  1  0.25000000  0.53209545  0.34385613  1
  V  V6  1  0.75000000  0.03227687  0.15546241  1
  V  V7  1  0.75000000  0.46887916  0.65598192  1
  O  O8  1  0.25000000  0.02582325  0.70352616  1
  O  O9  1  0.25000000  0.47336280  0.20245632  1
  O  O10  1  0.75000000  0.97335997  0.29713905  1
  O  O11  1  0.75000000  0.52766971  0.79833865  1
  O  O12  1  0.00070205  0.34162880  0.62565372  1
  O  O13  1  0.49817307  0.16023069  0.12482989  1
  O  O14  1  0.50186102  0.66035172  0.37473941  1
  O  O15  1  0.99818477  0.83998381  0.87562515  1
  O  O16  1  0.99813898  0.66035172  0.37473941  1
  O  O17  1  0.50181523  0.83998381  0.87562515  1
  O  O18  1  0.49929795  0.34162880  0.62565372  1
  O  O19  1  0.00182693  0.16023069  0.12482989  1
  O  O20  1  0.99921902  0.99974223  0.49948293  1
  O  O21  1  0.49988696  0.50007846  0.00035288  1
  O  O22  1  0.50078098  0.99974223  0.49948293  1
  O  O23  1  0.00011304  0.50007846  0.00035288  1
  O  O24  1  0.25000000  0.17564719  0.92406920  1
  O  O25  1  0.25000000  0.32538254  0.42259494  1
  O  O26  1  0.75000000  0.82480993  0.07613477  1
  O  O27  1  0.75000000  0.67690172  0.57578608  1
