# generated using pymatgen
data_TaNb3V4O20
_symmetry_space_group_name_H-M   'P 1'
_cell_length_a   5.65737347
_cell_length_b   7.06982884
_cell_length_c   12.07391636
_cell_angle_alpha   90.07085405
_cell_angle_beta   90.00000000
_cell_angle_gamma   90.00000000
_symmetry_Int_Tables_number   1
_chemical_formula_structural   TaNb3V4O20
_chemical_formula_sum   'Ta1 Nb3 V4 O20'
_cell_volume   482.91598384
_cell_formula_units_Z   1
loop_
 _symmetry_equiv_pos_site_id
 _symmetry_equiv_pos_as_xyz
  1  'x, y, z'
loop_
 _atom_site_type_symbol
 _atom_site_label
 _atom_site_symmetry_multiplicity
 _atom_site_fract_x
 _atom_site_fract_y
 _atom_site_fract_z
 _atom_site_occupancy
  Ta  Ta0  1  0.25000000  0.16104345  0.55787886  1
  Nb  Nb1  1  0.25000000  0.34248531  0.05743456  1
  Nb  Nb2  1  0.75000000  0.84576588  0.44397709  1
  Nb  Nb3  1  0.75000000  0.65823546  0.94322191  1
  V  V4  1  0.25000000  0.96812580  0.84329999  1
  V  V5  1  0.25000000  0.53185406  0.34464988  1
  V  V6  1  0.75000000  0.03224472  0.15610852  1
  V  V7  1  0.75000000  0.46694482  0.65550994  1
  O  O8  1  0.25000000  0.17703172  0.92186914  1
  O  O9  1  0.25000000  0.32179113  0.42342623  1
  O  O10  1  0.75000000  0.82237535  0.07783782  1
  O  O11  1  0.75000000  0.67573534  0.57848063  1
  O  O12  1  0.25000000  0.02537387  0.70165866  1
  O  O13  1  0.25000000  0.47512572  0.20245629  1
  O  O14  1  0.75000000  0.97541935  0.29744282  1
  O  O15  1  0.75000000  0.52375229  0.79645299  1
  O  O16  1  0.00072049  0.00021686  0.50033478  1
  O  O17  1  0.50024235  0.50007565  0.99974713  1
  O  O18  1  0.49927951  0.00021686  0.50033478  1
  O  O19  1  0.99975765  0.50007565  0.99974713  1
  O  O20  1  0.00142656  0.33804991  0.62418905  1
  O  O21  1  0.50007963  0.16036160  0.12495883  1
  O  O22  1  0.49952178  0.66001072  0.37515651  1
  O  O23  1  0.00019397  0.83963312  0.87476104  1
  O  O24  1  0.00047822  0.66001072  0.37515651  1
  O  O25  1  0.49980603  0.83963312  0.87476104  1
  O  O26  1  0.49857344  0.33804991  0.62418905  1
  O  O27  1  -0.00007963  0.16036160  0.12495883  1
