# generated using pymatgen
data_Sr10Mg5Mo2(WO10)3
_symmetry_space_group_name_H-M   'P 1'
_cell_length_a   5.66141996
_cell_length_b   5.65015702
_cell_length_c   20.50650232
_cell_angle_alpha   97.90462140
_cell_angle_beta   97.68573551
_cell_angle_gamma   89.88529133
_symmetry_Int_Tables_number   1
_chemical_formula_structural   Sr10Mg5Mo2(WO10)3
_chemical_formula_sum   'Sr10 Mg5 Mo2 W3 O30'
_cell_volume   643.80091961
_cell_formula_units_Z   1
loop_
 _symmetry_equiv_pos_site_id
 _symmetry_equiv_pos_as_xyz
  1  'x, y, z'
loop_
 _atom_site_type_symbol
 _atom_site_label
 _atom_site_symmetry_multiplicity
 _atom_site_fract_x
 _atom_site_fract_y
 _atom_site_fract_z
 _atom_site_occupancy
  Sr  Sr0  1  0.55111024  0.05062671  0.09989042  1
  Sr  Sr1  1  0.15085295  0.65054090  0.29916598  1
  Sr  Sr2  1  0.75098713  0.25071050  0.49985992  1
  Sr  Sr3  1  0.35106992  0.85076765  0.70003707  1
  Sr  Sr4  1  0.95125406  0.45081037  0.90067223  1
  Sr  Sr5  1  0.04888787  0.54937185  0.10010963  1
  Sr  Sr6  1  0.64874723  0.14918844  0.29932710  1
  Sr  Sr7  1  0.24893312  0.74923612  0.49996255  1
  Sr  Sr8  1  0.84901297  0.34928933  0.70014042  1
  Sr  Sr9  1  0.44914760  0.94946252  0.90083334  1
  Mg  Mg10  1  0.10001862  0.10000453  0.19998962  1
  Mg  Mg11  1  0.70003992  0.70002928  0.39999613  1
  Mg  Mg12  1  0.29999916  0.30000235  0.59999764  1
  Mg  Mg13  1  0.89996503  0.89997223  0.80000752  1
  Mg  Mg14  1  0.49997833  0.49999476  0.00000914  1
  Mo  Mo15  1  0.00006415  0.00001347  0.00010150  1
  Mo  Mo16  1  0.59992587  0.59997035  0.19989782  1
  W  W17  1  0.19993783  0.19999841  0.39986815  1
  W  W18  1  0.79999476  0.80000388  0.60000333  1
  W  W19  1  0.40005480  0.39998480  0.80012885  1
  O  O20  1  0.79077033  0.72727638  0.00089215  1
  O  O21  1  0.39065254  0.32722359  0.20066541  1
  O  O22  1  0.99063319  0.92642234  0.40068519  1
  O  O23  1  0.59063202  0.52644401  0.60080097  1
  O  O24  1  0.19074286  0.12643613  0.80093662  1
  O  O25  1  0.80922971  0.87272782  0.19910867  1
  O  O26  1  0.40925729  0.47355962  0.39906406  1
  O  O27  1  0.00936942  0.07356216  0.59919918  1
  O  O28  1  0.60937371  0.67357387  0.79931429  1
  O  O29  1  0.20934751  0.27277903  0.99933456  1
  O  O30  1  0.03489262  0.06314834  0.09675999  1
  O  O31  1  0.63479559  0.66312680  0.29647952  1
  O  O32  1  0.23480798  0.26350605  0.49680918  1
  O  O33  1  0.83483810  0.86348058  0.69690926  1
  O  O34  1  0.43489967  0.46349121  0.89710585  1
  O  O35  1  0.56510959  0.53685952  0.10324139  1
  O  O36  1  0.16509511  0.13650725  0.30289410  1
  O  O37  1  0.76516468  0.73652149  0.50308985  1
  O  O38  1  0.36519244  0.33649763  0.70318990  1
  O  O39  1  0.96521118  0.93687054  0.90352153  1
  O  O40  1  0.27497015  0.79228011  0.00513928  1
  O  O41  1  0.87475122  0.39208421  0.20490388  1
  O  O42  1  0.47563822  0.99210456  0.40499517  1
  O  O43  1  0.07571599  0.59211787  0.60511316  1
  O  O44  1  0.67586309  0.19228264  0.80525523  1
  O  O45  1  0.32503235  0.80771687  0.19485998  1
  O  O46  1  0.92413643  0.40772169  0.39474449  1
  O  O47  1  0.52428622  0.00787840  0.59488826  1
  O  O48  1  0.12435696  0.60789952  0.79500493  1
  O  O49  1  0.72525229  0.20792133  0.99509560  1
