# generated using pymatgen
data_Sr10Mg5Mo(W2O15)2
_symmetry_space_group_name_H-M   'P 1'
_cell_length_a   5.66083278
_cell_length_b   5.67196953
_cell_length_c   23.35786417
_cell_angle_alpha   89.77404550
_cell_angle_beta   83.13310962
_cell_angle_gamma   60.27648380
_symmetry_Int_Tables_number   1
_chemical_formula_structural   Sr10Mg5Mo(W2O15)2
_chemical_formula_sum   'Sr10 Mg5 Mo1 W4 O30'
_cell_volume   645.29494531
_cell_formula_units_Z   1
loop_
 _symmetry_equiv_pos_site_id
 _symmetry_equiv_pos_as_xyz
  1  'x, y, z'
loop_
 _atom_site_type_symbol
 _atom_site_label
 _atom_site_symmetry_multiplicity
 _atom_site_fract_x
 _atom_site_fract_y
 _atom_site_fract_z
 _atom_site_occupancy
  Sr  Sr0  1  0.49940175  0.75051561  0.25017341  1
  Sr  Sr1  1  0.69943776  0.15049126  0.45018279  1
  Sr  Sr2  1  0.89944592  0.55049411  0.65018905  1
  Sr  Sr3  1  0.09921158  0.95058311  0.85083295  1
  Sr  Sr4  1  0.29983033  0.35014343  0.04956852  1
  Sr  Sr5  1  0.90078842  0.04941689  0.14916705  1
  Sr  Sr6  1  0.10055408  0.44950589  0.34981095  1
  Sr  Sr7  1  0.30056224  0.84950874  0.54981721  1
  Sr  Sr8  1  0.50059825  0.24948439  0.74982659  1
  Sr  Sr9  1  0.70016967  0.64985657  0.95043148  1
  Mg  Mg10  1  0.59991638  0.69998928  0.10020815  1
  Mg  Mg11  1  0.80001355  0.09999592  0.29993270  1
  Mg  Mg12  1  -0.00000000  0.50000000  0.50000000  1
  Mg  Mg13  1  0.19998645  0.90000408  0.70006730  1
  Mg  Mg14  1  0.40008362  0.30001072  0.89979185  1
  Mo  Mo15  1  -0.00000000  0.00000000  -0.00000000  1
  W  W16  1  0.20001129  0.40002100  0.20005491  1
  W  W17  1  0.39992806  0.80004870  0.40003972  1
  W  W18  1  0.60007194  0.19995130  0.59996028  1
  W  W19  1  0.79998871  0.59997900  0.79994509  1
  O  O20  1  0.01414746  0.74822096  0.24522525  1
  O  O21  1  0.21405837  0.14834238  0.44530869  1
  O  O22  1  0.41401826  0.54846307  0.64533836  1
  O  O23  1  0.61392732  0.94860204  0.84542287  1
  O  O24  1  0.81439027  0.34753932  0.04521984  1
  O  O25  1  0.38607268  0.05139796  0.15457713  1
  O  O26  1  0.58598174  0.45153693  0.35466164  1
  O  O27  1  0.78594163  0.85165762  0.55469131  1
  O  O28  1  0.98585254  0.25177904  0.75477475  1
  O  O29  1  0.18560973  0.65246068  0.95478016  1
  O  O30  1  0.13824086  0.95955076  0.34443954  1
  O  O31  1  0.33834097  0.35951638  0.54448617  1
  O  O32  1  0.53852683  0.75939242  0.74453918  1
  O  O33  1  0.73849898  0.15923442  0.94473849  1
  O  O34  1  0.93833994  0.55949395  0.14430135  1
  O  O35  1  0.26150102  0.84076558  0.05526151  1
  O  O36  1  0.46147317  0.24060758  0.25546082  1
  O  O37  1  0.66165903  0.64048362  0.45551383  1
  O  O38  1  0.86175914  0.04044924  0.65556046  1
  O  O39  1  0.06166006  0.44050605  0.85569865  1
  O  O40  1  0.64111678  0.90901699  0.35548183  1
  O  O41  1  0.84107092  0.30897058  0.55550638  1
  O  O42  1  0.04099671  0.70892117  0.75557896  1
  O  O43  1  0.24031343  0.10898816  0.95562357  1
  O  O44  1  0.44118876  0.50897821  0.15539335  1
  O  O45  1  0.75968657  0.89101184  0.04437643  1
  O  O46  1  0.95900329  0.29107883  0.24442104  1
  O  O47  1  0.15892908  0.69102942  0.44449362  1
  O  O48  1  0.35888322  0.09098301  0.64451817  1
  O  O49  1  0.55881124  0.49102179  0.84460665  1
