# generated using pymatgen
data_Sm3SOF5
_symmetry_space_group_name_H-M   'P 1'
_cell_length_a   3.78271022
_cell_length_b   9.69115413
_cell_length_c   9.60917424
_cell_angle_alpha   119.95452467
_cell_angle_beta   90.00000000
_cell_angle_gamma   90.00000000
_symmetry_Int_Tables_number   1
_chemical_formula_structural   Sm3SOF5
_chemical_formula_sum   'Sm6 S2 O2 F10'
_cell_volume   305.20672764
_cell_formula_units_Z   2
loop_
 _symmetry_equiv_pos_site_id
 _symmetry_equiv_pos_as_xyz
  1  'x, y, z'
loop_
 _atom_site_type_symbol
 _atom_site_label
 _atom_site_symmetry_multiplicity
 _atom_site_fract_x
 _atom_site_fract_y
 _atom_site_fract_z
 _atom_site_occupancy
  Sm  Sm0  1  0.75000000  0.13319336  0.71603085  1
  Sm  Sm1  1  0.75000000  0.27225404  0.40424724  1
  Sm  Sm2  1  0.75000000  0.58532497  0.88411807  1
  Sm  Sm3  1  0.25000000  0.89583117  0.30092074  1
  Sm  Sm4  1  0.25000000  0.71424276  0.59128443  1
  Sm  Sm5  1  0.25000000  0.40314285  0.10727695  1
  S  S6  1  0.75000000  0.66716535  0.33855152  1
  S  S7  1  0.25000000  0.33864411  0.66513133  1
  O  O8  1  0.75000000  0.38740268  0.95110854  1
  O  O9  1  0.75000000  0.05202602  0.43572149  1
  F  F10  1  0.75000000  0.87936328  0.72011541  1
  F  F11  1  0.75000000  0.27355156  0.16075876  1
  F  F12  1  0.75000000  0.83763224  0.11350054  1
  F  F13  1  0.25000000  0.11871456  0.26437844  1
  F  F14  1  0.25000000  0.71484567  0.83661766  1
  F  F15  1  0.25000000  0.14921154  0.87632493  1
  F  F16  1  0.75000000  0.56615579  0.61402302  1
  F  F17  1  0.25000000  0.62559558  0.05676312  1
  F  F18  1  0.25000000  0.95241860  0.57483297  1
  F  F19  1  0.25000000  0.43328387  0.38829399  1
