# generated using pymatgen
data_Sr10Mg2Fe3(MoO6)5
_symmetry_space_group_name_H-M   'P 1'
_cell_length_a   7.93815744
_cell_length_b   9.79048973
_cell_length_c   9.85691612
_cell_angle_alpha   81.19636840
_cell_angle_beta   66.30850458
_cell_angle_gamma   66.09301870
_symmetry_Int_Tables_number   1
_chemical_formula_structural   Sr10Mg2Fe3(MoO6)5
_chemical_formula_sum   'Sr10 Mg2 Fe3 Mo5 O30'
_cell_volume   641.27256953
_cell_formula_units_Z   1
loop_
 _symmetry_equiv_pos_site_id
 _symmetry_equiv_pos_as_xyz
  1  'x, y, z'
loop_
 _atom_site_type_symbol
 _atom_site_label
 _atom_site_symmetry_multiplicity
 _atom_site_fract_x
 _atom_site_fract_y
 _atom_site_fract_z
 _atom_site_occupancy
  Sr  Sr0  1  0.75004276  0.49491146  0.49836966  1
  Sr  Sr1  1  0.14789345  0.30112724  0.89934207  1
  Sr  Sr2  1  0.54637079  0.10068638  0.29981241  1
  Sr  Sr3  1  0.94363102  0.90307840  0.70185959  1
  Sr  Sr4  1  0.36213102  0.70123296  0.09980393  1
  Sr  Sr5  1  0.25636898  0.49692160  0.49814041  1
  Sr  Sr6  1  0.65362921  0.29931362  0.90018759  1
  Sr  Sr7  1  0.05210655  0.09887276  0.30065793  1
  Sr  Sr8  1  0.44995724  0.90508854  0.70163034  1
  Sr  Sr9  1  0.83786898  0.69876704  0.10019607  1
  Mg  Mg10  1  0.80022824  0.59900398  0.79950069  1
  Mg  Mg11  1  0.39977176  0.80099602  0.40049931  1
  Fe  Fe12  1  0.99773747  0.00234663  0.00015722  1
  Fe  Fe13  1  0.60000000  0.20000000  0.60000000  1
  Fe  Fe14  1  0.20226253  0.39765337  0.19984278  1
  Mo  Mo15  1  0.70057894  0.39991803  0.20064305  1
  Mo  Mo16  1  0.10000000  0.20000000  0.60000000  1
  Mo  Mo17  1  0.49942106  0.00008197  -0.00064305  1
  Mo  Mo18  1  0.90228921  0.79618466  0.39814140  1
  Mo  Mo19  1  0.29771079  0.60381534  0.80185860  1
  O  O20  1  0.34163369  0.70359981  0.61358640  1
  O  O21  1  0.75383298  0.49461057  0.00181943  1
  O  O22  1  0.14771901  0.30281310  0.39897502  1
  O  O23  1  0.55099578  0.09955935  0.79760250  1
  O  O24  1  0.95391765  0.89280030  0.20264702  1
  O  O25  1  0.64900422  0.30044065  0.40239750  1
  O  O26  1  0.05228099  0.09718690  0.80102498  1
  O  O27  1  0.44616702  0.90538943  0.19818057  1
  O  O28  1  0.85836631  0.69640019  0.58641360  1
  O  O29  1  0.24608235  0.50719970  -0.00264702  1
  O  O30  1  0.19218261  0.79626814  0.90275279  1
  O  O31  1  0.79637978  0.99148758  0.49530594  1
  O  O32  1  0.38749678  0.20704169  0.09534808  1
  O  O33  1  0.99372873  0.39129698  0.69536868  1
  O  O34  1  0.58590294  0.59611306  0.30283584  1
  O  O35  1  0.00781739  0.60373186  0.29724721  1
  O  O36  1  0.61409706  0.80388694  0.89716416  1
  O  O37  1  0.20627127  0.00870302  0.50463132  1
  O  O38  1  0.81250322  0.19295831  0.10465192  1
  O  O39  1  0.40362022  0.40851242  0.70469406  1
  O  O40  1  0.63710944  0.83179450  0.41525713  1
  O  O41  1  0.23270653  0.03176200  0.01587073  1
  O  O42  1  0.82500988  0.23045928  0.61697798  1
  O  O43  1  0.43418955  0.42970957  0.21410721  1
  O  O44  1  0.03665685  0.63140057  0.81485568  1
  O  O45  1  0.56289056  0.56820550  0.78474287  1
  O  O46  1  0.16334315  0.76859943  0.38514432  1
  O  O47  1  0.76581045  0.97029043  0.98589279  1
  O  O48  1  0.37499012  0.16954072  0.58302202  1
  O  O49  1  0.96729347  0.36823800  0.18412927  1
