# generated using pymatgen
data_RhN2
_symmetry_space_group_name_H-M   'P 1'
_cell_length_a   4.93515358
_cell_length_b   4.91313322
_cell_length_c   4.96059558
_cell_angle_alpha   90.00000000
_cell_angle_beta   109.02871111
_cell_angle_gamma   90.00000000
_symmetry_Int_Tables_number   1
_chemical_formula_structural   RhN2
_chemical_formula_sum   'Rh4 N8'
_cell_volume   113.70723632
_cell_formula_units_Z   4
loop_
 _symmetry_equiv_pos_site_id
 _symmetry_equiv_pos_as_xyz
  1  'x, y, z'
loop_
 _atom_site_type_symbol
 _atom_site_label
 _atom_site_symmetry_multiplicity
 _atom_site_fract_x
 _atom_site_fract_y
 _atom_site_fract_z
 _atom_site_occupancy
  Rh  Rh0  1  0.23989163  0.99837685  0.23032093  1
  Rh  Rh1  1  0.23989163  0.50162315  0.73032093  1
  Rh  Rh2  1  0.76010837  0.49837685  0.26967907  1
  Rh  Rh3  1  0.76010837  0.00162315  0.76967907  1
  N  N4  1  0.19027343  0.58565993  0.30009470  1
  N  N5  1  0.31467831  0.08440824  0.67497852  1
  N  N6  1  0.68532169  0.91559176  0.32502148  1
  N  N7  1  0.19027343  0.91434007  0.80009470  1
  N  N8  1  0.80972657  0.08565993  0.19990530  1
  N  N9  1  0.80972657  0.41434007  0.69990530  1
  N  N10  1  0.68532169  0.58440824  0.82502148  1
  N  N11  1  0.31467831  0.41559176  0.17497852  1
