# generated using pymatgen
data_PrNdSb4
_symmetry_space_group_name_H-M   'P 1'
_cell_length_a   4.43125972
_cell_length_b   4.43125972
_cell_length_c   18.27429919
_cell_angle_alpha   90.20847069
_cell_angle_beta   90.20847069
_cell_angle_gamma   90.08435651
_symmetry_Int_Tables_number   1
_chemical_formula_structural   PrNdSb4
_chemical_formula_sum   'Pr2 Nd2 Sb8'
_cell_volume   358.83013858
_cell_formula_units_Z   2
loop_
 _symmetry_equiv_pos_site_id
 _symmetry_equiv_pos_as_xyz
  1  'x, y, z'
loop_
 _atom_site_type_symbol
 _atom_site_label
 _atom_site_symmetry_multiplicity
 _atom_site_fract_x
 _atom_site_fract_y
 _atom_site_fract_z
 _atom_site_occupancy
  Pr  Pr0  1  0.13586991  0.13586991  0.38933626  1
  Pr  Pr1  1  0.86413009  0.86413009  0.61066374  1
  Nd  Nd2  1  0.36124068  0.36124068  0.88948859  1
  Nd  Nd3  1  0.63875932  0.63875932  0.11051141  1
  Sb  Sb4  1  0.87165841  0.37833401  0.75064300  1
  Sb  Sb5  1  0.62166599  0.12834159  0.24935700  1
  Sb  Sb6  1  0.12834159  0.62166599  0.24935700  1
  Sb  Sb7  1  0.37833401  0.87165841  0.75064300  1
  Sb  Sb8  1  0.36688384  0.36688384  0.56315139  1
  Sb  Sb9  1  0.63311616  0.63311616  0.43684861  1
  Sb  Sb10  1  0.13363544  0.13363544  0.06370865  1
  Sb  Sb11  1  0.86636456  0.86636456  0.93629135  1
