# generated using pymatgen
data_SmV2BiO8
_symmetry_space_group_name_H-M   'P 1'
_cell_length_a   6.14471675
_cell_length_b   6.14471675
_cell_length_c   6.14471675
_cell_angle_alpha   63.60463053
_cell_angle_beta   73.87590894
_cell_angle_gamma   106.12409106
_symmetry_Int_Tables_number   1
_chemical_formula_structural   SmV2BiO8
_chemical_formula_sum   'Sm1 V2 Bi1 O8'
_cell_volume   176.62188524
_cell_formula_units_Z   1
loop_
 _symmetry_equiv_pos_site_id
 _symmetry_equiv_pos_as_xyz
  1  'x, y, z'
loop_
 _atom_site_type_symbol
 _atom_site_label
 _atom_site_symmetry_multiplicity
 _atom_site_fract_x
 _atom_site_fract_y
 _atom_site_fract_z
 _atom_site_occupancy
  Sm  Sm0  1  0.75000000  0.62500000  0.12500000  1
  V  V1  1  0.75000000  0.12500000  0.62500000  1
  V  V2  1  0.25000000  0.87500000  0.37500000  1
  Bi  Bi3  1  0.25000000  0.37500000  0.87500000  1
  O  O4  1  0.93013069  0.29903955  0.27082976  1
  O  O5  1  0.06716684  0.86325704  0.20390980  1
  O  O6  1  0.43283316  0.22892336  0.20390980  1
  O  O7  1  0.56986931  0.29903955  0.63109114  1
  O  O8  1  0.06716684  0.70390980  0.72892336  1
  O  O9  1  0.93013069  0.13109114  0.79903955  1
  O  O10  1  0.56986931  0.77082976  0.79903955  1
  O  O11  1  0.43283316  0.70390980  0.36325704  1
