# generated using pymatgen
data_SmYCo17
_symmetry_space_group_name_H-M   'P 1'
_cell_length_a   6.28925878
_cell_length_b   6.28925878
_cell_length_c   6.28925858
_cell_angle_alpha   83.09786420
_cell_angle_beta   83.09786420
_cell_angle_gamma   83.09785644
_symmetry_Int_Tables_number   1
_chemical_formula_structural   SmYCo17
_chemical_formula_sum   'Sm1 Y1 Co17'
_cell_volume   243.76253780
_cell_formula_units_Z   1
loop_
 _symmetry_equiv_pos_site_id
 _symmetry_equiv_pos_as_xyz
  1  'x, y, z'
loop_
 _atom_site_type_symbol
 _atom_site_label
 _atom_site_symmetry_multiplicity
 _atom_site_fract_x
 _atom_site_fract_y
 _atom_site_fract_z
 _atom_site_occupancy
  Sm  Sm0  1  0.34432815  0.34432815  0.34432815  1
  Y  Y1  1  0.65670623  0.65670623  0.65670623  1
  Co  Co2  1  0.34552058  0.34552058  0.84941192  1
  Co  Co3  1  0.34552058  0.84941192  0.34552058  1
  Co  Co4  1  0.84941192  0.34552058  0.34552058  1
  Co  Co5  1  0.65529755  0.65529755  0.15044644  1
  Co  Co6  1  0.65529755  0.15044644  0.65529755  1
  Co  Co7  1  0.15044644  0.65529755  0.65529755  1
  Co  Co8  1  0.28721485  0.71295824  0.99938272  1
  Co  Co9  1  0.71295824  0.99938272  0.28721485  1
  Co  Co10  1  0.99938272  0.28721485  0.71295824  1
  Co  Co11  1  0.28721485  0.99938272  0.71295824  1
  Co  Co12  1  0.99938272  0.71295824  0.28721485  1
  Co  Co13  1  0.71295824  0.28721485  0.99938272  1
  Co  Co14  1  0.99922676  0.99922676  0.50042092  1
  Co  Co15  1  0.99922676  0.50042092  0.99922676  1
  Co  Co16  1  0.50042092  0.99922676  0.99922676  1
  Co  Co17  1  0.90375777  0.90375777  0.90375777  1
  Co  Co18  1  0.09572720  0.09572720  0.09572720  1
