# generated using pymatgen
data_Sr2CdSb2
_symmetry_space_group_name_H-M   'P 1'
_cell_length_a   4.92255710
_cell_length_b   13.22737892
_cell_length_c   23.44566774
_cell_angle_alpha   89.69012851
_cell_angle_beta   90.00000000
_cell_angle_gamma   90.00000000
_symmetry_Int_Tables_number   1
_chemical_formula_structural   Sr2CdSb2
_chemical_formula_sum   'Sr18 Cd9 Sb18'
_cell_volume   1526.58437083
_cell_formula_units_Z   9
loop_
 _symmetry_equiv_pos_site_id
 _symmetry_equiv_pos_as_xyz
  1  'x, y, z'
loop_
 _atom_site_type_symbol
 _atom_site_label
 _atom_site_symmetry_multiplicity
 _atom_site_fract_x
 _atom_site_fract_y
 _atom_site_fract_z
 _atom_site_occupancy
  Sr  Sr0  1  -0.00000000  0.94389523  0.41240391  1
  Sr  Sr1  1  0.00000000  0.05575114  0.59122741  1
  Sr  Sr2  1  -0.00000000  0.55052548  0.90724978  1
  Sr  Sr3  1  0.00000000  0.44210855  0.09038522  1
  Sr  Sr4  1  0.50000000  0.50023230  0.50086102  1
  Sr  Sr5  1  0.50000000  0.00606927  0.99393787  1
  Sr  Sr6  1  0.00000000  0.87892478  0.24890251  1
  Sr  Sr7  1  0.00000000  0.11957999  0.76242632  1
  Sr  Sr8  1  -0.00000000  0.61669504  0.73661141  1
  Sr  Sr9  1  -0.00000000  0.38375137  0.26421443  1
  Sr  Sr10  1  -0.00000000  0.63358752  0.36720651  1
  Sr  Sr11  1  -0.00000000  0.36401404  0.63528901  1
  Sr  Sr12  1  0.00000000  0.86487604  0.85933385  1
  Sr  Sr13  1  -0.00000000  0.15059950  0.13758467  1
  Sr  Sr14  1  0.50000000  0.69809729  0.10153538  1
  Sr  Sr15  1  0.50000000  0.27757841  0.89431654  1
  Sr  Sr16  1  0.50000000  0.77841959  0.60436381  1
  Sr  Sr17  1  0.50000000  0.22160648  0.39761578  1
  Cd  Cd18  1  0.50000000  0.62382007  0.26053447  1
  Cd  Cd19  1  0.50000000  0.37793141  0.73941453  1
  Cd  Cd20  1  0.50000000  0.88027600  0.75906971  1
  Cd  Cd21  1  0.50000000  0.13182286  0.24215903  1
  Cd  Cd22  1  0.50000000  0.77724398  0.45648859  1
  Cd  Cd23  1  0.50000000  0.22263310  0.54565882  1
  Cd  Cd24  1  0.50000000  0.71484444  0.95446188  1
  Cd  Cd25  1  0.50000000  0.27715840  0.04435113  1
  Cd  Cd26  1  -0.00000000  0.88997487  0.10569863  1
  Sb  Sb27  1  -0.00000000  0.63411022  0.19146087  1
  Sb  Sb28  1  -0.00000000  0.37116801  0.80694403  1
  Sb  Sb29  1  -0.00000000  0.87185800  0.69337501  1
  Sb  Sb30  1  -0.00000000  0.12428878  0.30599149  1
  Sb  Sb31  1  -0.00000000  0.80562130  0.99800833  1
  Sb  Sb32  1  0.00000000  0.19254327  0.99439379  1
  Sb  Sb33  1  -0.00000000  0.69261704  0.50773515  1
  Sb  Sb34  1  -0.00000000  0.30796972  0.49232366  1
  Sb  Sb35  1  0.50000000  0.00094887  0.49991903  1
  Sb  Sb36  1  0.50000000  0.50086821  0.00141114  1
  Sb  Sb37  1  0.50000000  0.81227359  0.33531746  1
  Sb  Sb38  1  0.50000000  0.18566965  0.66689170  1
  Sb  Sb39  1  0.50000000  0.68620369  0.83412466  1
  Sb  Sb40  1  0.50000000  0.31726639  0.16690084  1
  Sb  Sb41  1  0.50000000  0.96335424  0.14988508  1
  Sb  Sb42  1  0.50000000  0.03648451  0.85078594  1
  Sb  Sb43  1  0.50000000  0.53560832  0.64843015  1
  Sb  Sb44  1  0.50000000  0.46442905  0.35042946  1
