# generated using pymatgen
data_Sr20P12Br3ClO48
_symmetry_space_group_name_H-M   'P 1'
_cell_length_a   10.10610206
_cell_length_b   12.43762661
_cell_length_c   12.43761362
_cell_angle_alpha   71.31579630
_cell_angle_beta   66.03116600
_cell_angle_gamma   66.03114321
_symmetry_Int_Tables_number   1
_chemical_formula_structural   Sr20P12Br3ClO48
_chemical_formula_sum   'Sr20 P12 Br3 Cl1 O48'
_cell_volume   1282.57146724
_cell_formula_units_Z   1
loop_
 _symmetry_equiv_pos_site_id
 _symmetry_equiv_pos_as_xyz
  1  'x, y, z'
loop_
 _atom_site_type_symbol
 _atom_site_label
 _atom_site_symmetry_multiplicity
 _atom_site_fract_x
 _atom_site_fract_y
 _atom_site_fract_z
 _atom_site_occupancy
  Sr  Sr0  1  0.33313049  0.91571692  0.41762127  1
  Sr  Sr1  1  0.33352052  0.41566655  0.91764237  1
  Sr  Sr2  1  0.66656699  0.33241589  0.33435262  1
  Sr  Sr3  1  0.66678335  0.83230098  0.83428401  1
  Sr  Sr4  1  0.66686951  0.08428308  0.58237873  1
  Sr  Sr5  1  0.66647948  0.58433345  0.08235763  1
  Sr  Sr6  1  0.33343301  0.66758411  0.66564738  1
  Sr  Sr7  1  0.33321665  0.16769902  0.16571599  1
  Sr  Sr8  1  0.00403499  0.99341225  0.74545947  1
  Sr  Sr9  1  0.00444876  0.49323288  0.24329426  1
  Sr  Sr10  1  0.25908283  0.62719910  0.37718632  1
  Sr  Sr11  1  0.25703231  0.12598046  0.87809920  1
  Sr  Sr12  1  0.73655629  0.75450186  0.50457402  1
  Sr  Sr13  1  0.73880337  0.25252129  0.00455800  1
  Sr  Sr14  1  0.99596501  0.00658775  0.25454053  1
  Sr  Sr15  1  0.99555124  0.50676712  0.75670574  1
  Sr  Sr16  1  0.74091717  0.37280090  0.62281368  1
  Sr  Sr17  1  0.74296769  0.87401954  0.12190080  1
  Sr  Sr18  1  0.26344371  0.24549814  0.49542598  1
  Sr  Sr19  1  0.26119663  0.74747871  0.99544200  1
  P  P20  1  0.40917640  0.93863968  0.68854931  1
  P  P21  1  0.40941729  0.43859573  0.18838956  1
  P  P22  1  0.96358884  0.82981557  0.57959851  1
  P  P23  1  0.96362304  0.32962873  0.07954371  1
  P  P24  1  0.62695426  0.10687648  0.85680405  1
  P  P25  1  0.62719301  0.60690147  0.35667717  1
  P  P26  1  0.59082360  0.06136032  0.31145069  1
  P  P27  1  0.59058271  0.56140427  0.81161044  1
  P  P28  1  0.03641116  0.17018443  0.42040149  1
  P  P29  1  0.03637696  0.67037127  0.92045629  1
  P  P30  1  0.37304574  0.89312352  0.14319595  1
  P  P31  1  0.37280699  0.39309853  0.64332283  1
  Br  Br32  1  -0.00000000  0.50000000  0.50000000  1
  Br  Br33  1  0.99998945  0.75078122  0.24921730  1
  Br  Br34  1  0.00001055  0.24921878  0.75078270  1
  Cl  Cl35  1  -0.00000000  0.00000000  0.00000000  1
  O  O36  1  0.35849794  0.07759704  0.65344064  1
  O  O37  1  0.35850094  0.57763301  0.15331670  1
  O  O38  1  0.91054038  0.89138969  0.46708594  1
  O  O39  1  0.91052280  0.39129525  0.96714940  1
  O  O40  1  0.73094907  0.16727599  0.74321182  1
  O  O41  1  0.73100377  0.66749435  0.24310826  1
  O  O42  1  0.64230845  0.09609418  0.17233241  1
  O  O43  1  0.64135375  0.59650705  0.67254861  1
  O  O44  1  0.08957747  0.28266411  0.35872793  1
  O  O45  1  0.08923070  0.78305846  0.85929540  1
  O  O46  1  0.26851712  0.00649362  0.08275685  1
  O  O47  1  0.26899250  0.50675023  0.58278469  1
  O  O48  1  0.64150206  0.92240296  0.34655936  1
  O  O49  1  0.64149906  0.42236699  0.84668330  1
  O  O50  1  0.08945962  0.10861031  0.53291406  1
  O  O51  1  0.08947720  0.60870475  0.03285060  1
  O  O52  1  0.26905093  0.83272401  0.25678818  1
  O  O53  1  0.26899623  0.33250565  0.75689174  1
  O  O54  1  0.35769155  0.90390582  0.82766759  1
  O  O55  1  0.35864625  0.40349295  0.32745139  1
  O  O56  1  0.91042253  0.71733589  0.64127207  1
  O  O57  1  0.91076930  0.21694154  0.14070460  1
  O  O58  1  0.73148288  0.99350638  0.91724315  1
  O  O59  1  0.73100750  0.49324977  0.41721531  1
  O  O60  1  0.58799104  0.89317555  0.64346945  1
  O  O61  1  0.58832866  0.39298092  0.14300262  1
  O  O62  1  0.87568411  0.91914611  0.66917174  1
  O  O63  1  0.87539163  0.41885059  0.16913493  1
  O  O64  1  0.53612495  0.06266234  0.81301695  1
  O  O65  1  0.53649676  0.56271288  0.31266988  1
  O  O66  1  0.41200896  0.10682445  0.35653055  1
  O  O67  1  0.41167134  0.60701908  0.85699738  1
  O  O68  1  0.12431589  0.08085389  0.33082826  1
  O  O69  1  0.12460837  0.58114941  0.83086507  1
  O  O70  1  0.46387505  0.93733766  0.18698305  1
  O  O71  1  0.46350324  0.43728712  0.68733012  1
  O  O72  1  0.34527463  0.88271380  0.63282239  1
  O  O73  1  0.34514597  0.38274302  0.13281172  1
  O  O74  1  0.13928751  0.79754593  0.54759912  1
  O  O75  1  0.13919648  0.29756343  0.04768548  1
  O  O76  1  0.51548119  0.69461532  0.44461613  1
  O  O77  1  0.51557046  0.19455763  0.94473339  1
  O  O78  1  0.65472537  0.11728620  0.36717761  1
  O  O79  1  0.65485403  0.61725698  0.86718828  1
  O  O80  1  0.86071249  0.20245407  0.45240088  1
  O  O81  1  0.86080352  0.70243657  0.95231452  1
  O  O82  1  0.48451881  0.30538468  0.55538387  1
  O  O83  1  0.48442954  0.80544237  0.05526661  1
