# generated using pymatgen
data_PrSmCo17
_symmetry_space_group_name_H-M   'P 1'
_cell_length_a   6.30374711
_cell_length_b   6.30374711
_cell_length_c   6.30374693
_cell_angle_alpha   83.24392185
_cell_angle_beta   83.24392185
_cell_angle_gamma   83.24392543
_symmetry_Int_Tables_number   1
_chemical_formula_structural   PrSmCo17
_chemical_formula_sum   'Pr1 Sm1 Co17'
_cell_volume   245.65435499
_cell_formula_units_Z   1
loop_
 _symmetry_equiv_pos_site_id
 _symmetry_equiv_pos_as_xyz
  1  'x, y, z'
loop_
 _atom_site_type_symbol
 _atom_site_label
 _atom_site_symmetry_multiplicity
 _atom_site_fract_x
 _atom_site_fract_y
 _atom_site_fract_z
 _atom_site_occupancy
  Pr  Pr0  1  0.65459801  0.65459801  0.65459801  1
  Sm  Sm1  1  0.34407492  0.34407492  0.34407492  1
  Co  Co2  1  0.28423884  0.71549223  0.00072181  1
  Co  Co3  1  0.71549223  0.00072181  0.28423884  1
  Co  Co4  1  0.00072181  0.28423884  0.71549223  1
  Co  Co5  1  0.28423884  0.00072181  0.71549223  1
  Co  Co6  1  0.00072181  0.71549223  0.28423884  1
  Co  Co7  1  0.71549223  0.28423884  0.00072181  1
  Co  Co8  1  0.34329581  0.34329581  0.85164011  1
  Co  Co9  1  0.34329581  0.85164011  0.34329581  1
  Co  Co10  1  0.85164011  0.34329581  0.34329581  1
  Co  Co11  1  0.65568536  0.65568536  0.14852255  1
  Co  Co12  1  0.65568536  0.14852255  0.65568536  1
  Co  Co13  1  0.14852255  0.65568536  0.65568536  1
  Co  Co14  1  0.00097797  0.00097797  0.49952533  1
  Co  Co15  1  0.00097797  0.49952533  0.00097797  1
  Co  Co16  1  0.49952533  0.00097797  0.00097797  1
  Co  Co17  1  0.90437562  0.90437562  0.90437562  1
  Co  Co18  1  0.09643943  0.09643943  0.09643943  1
