# generated using pymatgen
data_Na8Al6Si6BrClO24
_symmetry_space_group_name_H-M   'P 1'
_cell_length_a   8.98899108
_cell_length_b   8.98899108
_cell_length_c   8.98899108
_cell_angle_alpha   90.00000000
_cell_angle_beta   90.00000000
_cell_angle_gamma   90.00000000
_symmetry_Int_Tables_number   1
_chemical_formula_structural   Na8Al6Si6BrClO24
_chemical_formula_sum   'Na8 Al6 Si6 Br1 Cl1 O24'
_cell_volume   726.32810341
_cell_formula_units_Z   1
loop_
 _symmetry_equiv_pos_site_id
 _symmetry_equiv_pos_as_xyz
  1  'x, y, z'
loop_
 _atom_site_type_symbol
 _atom_site_label
 _atom_site_symmetry_multiplicity
 _atom_site_fract_x
 _atom_site_fract_y
 _atom_site_fract_z
 _atom_site_occupancy
  Na  Na0  1  0.68108878  0.31891122  0.31891122  1
  Na  Na1  1  0.31891122  0.31891122  0.68108878  1
  Na  Na2  1  0.31891122  0.68108878  0.31891122  1
  Na  Na3  1  0.68108878  0.68108878  0.68108878  1
  Na  Na4  1  0.81725387  0.18274613  0.81725387  1
  Na  Na5  1  0.81725387  0.81725387  0.18274613  1
  Na  Na6  1  0.18274613  0.81725387  0.81725387  1
  Na  Na7  1  0.18274613  0.18274613  0.18274613  1
  Al  Al8  1  -0.00000000  0.24999145  0.50000000  1
  Al  Al9  1  0.75000855  0.50000000  -0.00000000  1
  Al  Al10  1  0.50000000  0.00000000  0.24999145  1
  Al  Al11  1  0.24999145  0.50000000  -0.00000000  1
  Al  Al12  1  0.50000000  0.00000000  0.75000855  1
  Al  Al13  1  -0.00000000  0.75000855  0.50000000  1
  Si  Si14  1  0.50000000  0.25001431  -0.00000000  1
  Si  Si15  1  0.74998569  0.00000000  0.50000000  1
  Si  Si16  1  -0.00000000  0.50000000  0.25001431  1
  Si  Si17  1  0.25001431  0.00000000  0.50000000  1
  Si  Si18  1  -0.00000000  0.50000000  0.74998569  1
  Si  Si19  1  0.50000000  0.74998569  -0.00000000  1
  Br  Br20  1  -0.00000000  0.00000000  -0.00000000  1
  Cl  Cl21  1  0.50000000  0.50000000  0.50000000  1
  O  O22  1  0.93980627  0.35984922  0.35001646  1
  O  O23  1  0.64015078  0.35001646  0.06019373  1
  O  O24  1  0.64998354  0.06019373  0.35984922  1
  O  O25  1  0.06019373  0.35984922  0.64998354  1
  O  O26  1  0.35984922  0.35001646  0.93980627  1
  O  O27  1  0.35001646  0.06019373  0.64015078  1
  O  O28  1  0.06019373  0.64015078  0.35001646  1
  O  O29  1  0.35984922  0.64998354  0.06019373  1
  O  O30  1  0.35001646  0.93980627  0.35984922  1
  O  O31  1  0.93980627  0.64015078  0.64998354  1
  O  O32  1  0.64015078  0.64998354  0.93980627  1
  O  O33  1  0.64998354  0.93980627  0.64015078  1
  O  O34  1  0.85980491  0.43987264  0.84997957  1
  O  O35  1  0.84997957  0.14019509  0.56012736  1
  O  O36  1  0.56012736  0.15002043  0.85980491  1
  O  O37  1  0.85980491  0.56012736  0.15002043  1
  O  O38  1  0.84997957  0.85980491  0.43987264  1
  O  O39  1  0.56012736  0.84997957  0.14019509  1
  O  O40  1  0.14019509  0.56012736  0.84997957  1
  O  O41  1  0.15002043  0.85980491  0.56012736  1
  O  O42  1  0.43987264  0.84997957  0.85980491  1
  O  O43  1  0.14019509  0.43987264  0.15002043  1
  O  O44  1  0.15002043  0.14019509  0.43987264  1
  O  O45  1  0.43987264  0.15002043  0.14019509  1
