# generated using pymatgen
data_Cr3InO8
_symmetry_space_group_name_H-M   'P 1'
_cell_length_a   5.14548465
_cell_length_b   5.14548483
_cell_length_c   6.53413253
_cell_angle_alpha   89.48294391
_cell_angle_beta   89.48294391
_cell_angle_gamma   66.62818547
_symmetry_Int_Tables_number   1
_chemical_formula_structural   Cr3InO8
_chemical_formula_sum   'Cr3 In1 O8'
_cell_volume   158.79403167
_cell_formula_units_Z   1
loop_
 _symmetry_equiv_pos_site_id
 _symmetry_equiv_pos_as_xyz
  1  'x, y, z'
loop_
 _atom_site_type_symbol
 _atom_site_label
 _atom_site_symmetry_multiplicity
 _atom_site_fract_x
 _atom_site_fract_y
 _atom_site_fract_z
 _atom_site_occupancy
  Cr  Cr0  1  0.35684744  0.35684744  0.73485012  1
  Cr  Cr1  1  0.64315256  0.64315256  0.26514988  1
  Cr  Cr2  1  0.00000000  0.00000000  0.50000000  1
  In  In3  1  0.00000000  0.00000000  0.00000000  1
  O  O4  1  0.73392876  0.21135636  0.73185174  1
  O  O5  1  0.24776380  0.24776380  0.95108385  1
  O  O6  1  0.78864364  0.26607124  0.26814826  1
  O  O7  1  0.22670276  0.22670276  0.54530147  1
  O  O8  1  0.26607124  0.78864364  0.26814826  1
  O  O9  1  0.21135636  0.73392876  0.73185174  1
  O  O10  1  0.77329724  0.77329724  0.45469853  1
  O  O11  1  0.75223620  0.75223620  0.04891615  1
