# generated using pymatgen
data_Nd2Fe4Co13
_symmetry_space_group_name_H-M   'P 1'
_cell_length_a   6.35681039
_cell_length_b   6.35681050
_cell_length_c   6.35681039
_cell_angle_alpha   82.78488167
_cell_angle_beta   82.78489039
_cell_angle_gamma   82.78488167
_symmetry_Int_Tables_number   1
_chemical_formula_structural   Nd2Fe4Co13
_chemical_formula_sum   'Nd2 Fe4 Co13'
_cell_volume   251.24188944
_cell_formula_units_Z   1
loop_
 _symmetry_equiv_pos_site_id
 _symmetry_equiv_pos_as_xyz
  1  'x, y, z'
loop_
 _atom_site_type_symbol
 _atom_site_label
 _atom_site_symmetry_multiplicity
 _atom_site_fract_x
 _atom_site_fract_y
 _atom_site_fract_z
 _atom_site_occupancy
  Nd  Nd0  1  0.65696140  0.65696140  0.65696140  1
  Nd  Nd1  1  0.34315928  0.34315928  0.34315928  1
  Fe  Fe2  1  0.99785394  0.50413896  0.99785394  1
  Fe  Fe3  1  0.50413896  0.99785394  0.99785394  1
  Fe  Fe4  1  0.99785394  0.99785394  0.50413896  1
  Fe  Fe5  1  0.09404419  0.09404419  0.09404419  1
  Co  Co6  1  0.71449248  0.00004490  0.28534013  1
  Co  Co7  1  0.00004490  0.28534013  0.71449248  1
  Co  Co8  1  0.28534013  0.71449248  0.00004490  1
  Co  Co9  1  0.00004490  0.71449248  0.28534013  1
  Co  Co10  1  0.71449248  0.28534013  0.00004490  1
  Co  Co11  1  0.28534013  0.00004490  0.71449248  1
  Co  Co12  1  0.34346130  0.84784284  0.34346130  1
  Co  Co13  1  0.84784284  0.34346130  0.34346130  1
  Co  Co14  1  0.34346130  0.34346130  0.84784284  1
  Co  Co15  1  0.65615041  0.15633776  0.65615041  1
  Co  Co16  1  0.15633776  0.65615041  0.65615041  1
  Co  Co17  1  0.65615041  0.65615041  0.15633776  1
  Co  Co18  1  0.90282926  0.90282926  0.90282926  1
