# generated using pymatgen
data_NaSm9Si6(SO12)2
_symmetry_space_group_name_H-M   'P 1'
_cell_length_a   6.77186266
_cell_length_b   9.89193704
_cell_length_c   9.89194295
_cell_angle_alpha   59.99963251
_cell_angle_beta   90.00014230
_cell_angle_gamma   89.99990373
_symmetry_Int_Tables_number   1
_chemical_formula_structural   NaSm9Si6(SO12)2
_chemical_formula_sum   'Na1 Sm9 Si6 S2 O24'
_cell_volume   573.85228012
_cell_formula_units_Z   1
loop_
 _symmetry_equiv_pos_site_id
 _symmetry_equiv_pos_as_xyz
  1  'x, y, z'
loop_
 _atom_site_type_symbol
 _atom_site_label
 _atom_site_symmetry_multiplicity
 _atom_site_fract_x
 _atom_site_fract_y
 _atom_site_fract_z
 _atom_site_occupancy
  Na  Na0  1  0.50664411  0.66664180  0.66667816  1
  Sm  Sm1  1  0.00369144  0.33333174  0.33333410  1
  Sm  Sm2  1  0.49677889  0.33333135  0.33333437  1
  Sm  Sm3  1  0.99205429  0.66667466  0.66666250  1
  Sm  Sm4  1  0.74920773  0.24098719  0.74758136  1
  Sm  Sm5  1  0.74920628  0.01143264  0.24098691  1
  Sm  Sm6  1  0.74920871  0.74758191  0.01143125  1
  Sm  Sm7  1  0.25220813  0.76439526  0.25486558  1
  Sm  Sm8  1  0.25220929  0.98073945  0.76439632  1
  Sm  Sm9  1  0.25220609  0.25486376  0.98073967  1
  Si  Si10  1  0.75286769  0.03159519  0.58976990  1
  Si  Si11  1  0.75286650  0.37863638  0.03159509  1
  Si  Si12  1  0.75286663  0.58976878  0.37863460  1
  Si  Si13  1  0.24930582  0.96959407  0.41360862  1
  Si  Si14  1  0.24930429  0.61680009  0.96959138  1
  Si  Si15  1  0.24930244  0.41360914  0.61679815  1
  S  S16  1  0.50768538  -0.00000005  0.00000135  1
  S  S17  1  0.99899794  0.99999965  0.00000088  1
  O  O18  1  0.75013067  0.13344561  0.39489944  1
  O  O19  1  0.75012891  0.47166123  0.13343994  1
  O  O20  1  0.75012947  0.39489814  0.47165775  1
  O  O21  1  0.24078976  0.87298469  0.60481264  1
  O  O22  1  0.24079347  0.52220017  0.87298761  1
  O  O23  1  0.24079217  0.60481458  0.52220283  1
  O  O24  1  0.76049290  0.84526543  0.66444987  1
  O  O25  1  0.76049158  0.49027514  0.84526430  1
  O  O26  1  0.76049189  0.66445982  0.49027354  1
  O  O27  1  0.25019103  0.15874570  0.34490738  1
  O  O28  1  0.25019314  0.49635532  0.15874589  1
  O  O29  1  0.25019006  0.34490265  0.49635394  1
  O  O30  1  0.55642580  0.09811519  0.63777534  1
  O  O31  1  0.55642387  0.26410709  0.09812337  1
  O  O32  1  0.55642164  0.63777484  0.26410766  1
  O  O33  1  0.05573014  0.90725689  0.35797873  1
  O  O34  1  0.05573264  0.73476946  0.90724600  1
  O  O35  1  0.05573121  0.35797925  0.73476770  1
  O  O36  1  0.43597606  0.91771058  0.34377449  1
  O  O37  1  0.43597794  0.73852069  0.91769900  1
  O  O38  1  0.43597759  0.34377566  0.73851752  1
  O  O39  1  0.94472650  0.10375339  0.63704332  1
  O  O40  1  0.94472623  0.25920317  0.10375846  1
  O  O41  1  0.94472370  0.63704229  0.25920311  1
