# generated using pymatgen
data_Rb2YbTi(PO4)3
_symmetry_space_group_name_H-M   'P 1'
_cell_length_a   10.37016778
_cell_length_b   10.37016778
_cell_length_c   10.37016778
_cell_angle_alpha   90.00000000
_cell_angle_beta   90.00000000
_cell_angle_gamma   90.00000000
_symmetry_Int_Tables_number   1
_chemical_formula_structural   Rb2YbTi(PO4)3
_chemical_formula_sum   'Rb8 Yb4 Ti4 P12 O48'
_cell_volume   1115.21178150
_cell_formula_units_Z   4
loop_
 _symmetry_equiv_pos_site_id
 _symmetry_equiv_pos_as_xyz
  1  'x, y, z'
loop_
 _atom_site_type_symbol
 _atom_site_label
 _atom_site_symmetry_multiplicity
 _atom_site_fract_x
 _atom_site_fract_y
 _atom_site_fract_z
 _atom_site_occupancy
  Rb  Rb0  1  0.57678841  0.07678841  0.42321159  1
  Rb  Rb1  1  0.92321159  0.92321159  0.92321159  1
  Rb  Rb2  1  0.42321159  0.57678841  0.07678841  1
  Rb  Rb3  1  0.07678841  0.42321159  0.57678841  1
  Rb  Rb4  1  0.78988939  0.28988939  0.21011061  1
  Rb  Rb5  1  0.71011061  0.71011061  0.71011061  1
  Rb  Rb6  1  0.21011061  0.78988939  0.28988939  1
  Rb  Rb7  1  0.28988939  0.21011061  0.78988939  1
  Yb  Yb8  1  0.91629248  0.08370752  0.58370752  1
  Yb  Yb9  1  0.08370752  0.58370752  0.91629248  1
  Yb  Yb10  1  0.41629248  0.41629248  0.41629248  1
  Yb  Yb11  1  0.58370752  0.91629248  0.08370752  1
  Ti  Ti12  1  0.64352268  0.35647732  0.85647732  1
  Ti  Ti13  1  0.35647732  0.85647732  0.64352268  1
  Ti  Ti14  1  0.14352268  0.14352268  0.14352268  1
  Ti  Ti15  1  0.85647732  0.64352268  0.35647732  1
  P  P16  1  0.74186719  0.38727902  0.54739818  1
  P  P17  1  0.04739818  0.75813281  0.61272098  1
  P  P18  1  0.11272098  0.45260182  0.24186719  1
  P  P19  1  0.75813281  0.61272098  0.04739818  1
  P  P20  1  0.45260182  0.24186719  0.11272098  1
  P  P21  1  0.38727902  0.54739818  0.74186719  1
  P  P22  1  0.24186719  0.11272098  0.45260182  1
  P  P23  1  0.54739818  0.74186719  0.38727902  1
  P  P24  1  0.61272098  0.04739818  0.75813281  1
  P  P25  1  0.25813281  0.88727902  0.95260182  1
  P  P26  1  0.95260182  0.25813281  0.88727902  1
  P  P27  1  0.88727902  0.95260182  0.25813281  1
  O  O28  1  0.79592218  0.51349963  0.48186546  1
  O  O29  1  0.98186546  0.70407782  0.48650037  1
  O  O30  1  0.98650037  0.51813454  0.29592218  1
  O  O31  1  0.70407782  0.48650037  0.98186546  1
  O  O32  1  0.51813454  0.29592218  0.98650037  1
  O  O33  1  0.51349963  0.48186546  0.79592218  1
  O  O34  1  0.29592218  0.98650037  0.51813454  1
  O  O35  1  0.48186546  0.79592218  0.51349963  1
  O  O36  1  0.48650037  0.98186546  0.70407782  1
  O  O37  1  0.20407782  0.01349963  0.01813454  1
  O  O38  1  0.01813454  0.20407782  0.01349963  1
  O  O39  1  0.01349963  0.01813454  0.20407782  1
  O  O40  1  0.83873260  0.27988756  0.52059233  1
  O  O41  1  0.02059233  0.66126740  0.72011244  1
  O  O42  1  0.22011244  0.47940767  0.33873260  1
  O  O43  1  0.66126740  0.72011244  0.02059233  1
  O  O44  1  0.47940767  0.33873260  0.22011244  1
  O  O45  1  0.27988756  0.52059233  0.83873260  1
  O  O46  1  0.33873260  0.22011244  0.47940767  1
  O  O47  1  0.52059233  0.83873260  0.27988756  1
  O  O48  1  0.72011244  0.02059233  0.66126740  1
  O  O49  1  0.16126740  0.77988756  0.97940767  1
  O  O50  1  0.97940767  0.16126740  0.77988756  1
  O  O51  1  0.77988756  0.97940767  0.16126740  1
  O  O52  1  0.61008950  0.35530321  0.49224695  1
  O  O53  1  0.99224695  0.88991050  0.64469679  1
  O  O54  1  0.14469679  0.50775305  0.11008950  1
  O  O55  1  0.88991050  0.64469679  0.99224695  1
  O  O56  1  0.50775305  0.11008950  0.14469679  1
  O  O57  1  0.35530321  0.49224695  0.61008950  1
  O  O58  1  0.11008950  0.14469679  0.50775305  1
  O  O59  1  0.49224695  0.61008950  0.35530321  1
  O  O60  1  0.64469679  0.99224695  0.88991050  1
  O  O61  1  0.38991050  0.85530321  0.00775305  1
  O  O62  1  0.00775305  0.38991050  0.85530321  1
  O  O63  1  0.85530321  0.00775305  0.38991050  1
  O  O64  1  0.73477308  0.41433918  0.69688113  1
  O  O65  1  0.19688113  0.76522692  0.58566082  1
  O  O66  1  0.08566082  0.30311887  0.23477308  1
  O  O67  1  0.76522692  0.58566082  0.19688113  1
  O  O68  1  0.30311887  0.23477308  0.08566082  1
  O  O69  1  0.41433918  0.69688113  0.73477308  1
  O  O70  1  0.23477308  0.08566082  0.30311887  1
  O  O71  1  0.69688113  0.73477308  0.41433918  1
  O  O72  1  0.58566082  0.19688113  0.76522692  1
  O  O73  1  0.26522692  0.91433918  0.80311887  1
  O  O74  1  0.80311887  0.26522692  0.91433918  1
  O  O75  1  0.91433918  0.80311887  0.26522692  1
