# generated using pymatgen
data_Pb12Br7ClO8
_symmetry_space_group_name_H-M   'P 1'
_cell_length_a   5.97865936
_cell_length_b   10.10362039
_cell_length_c   12.47091409
_cell_angle_alpha   89.54165588
_cell_angle_beta   90.00000000
_cell_angle_gamma   90.00000000
_symmetry_Int_Tables_number   1
_chemical_formula_structural   Pb12Br7ClO8
_chemical_formula_sum   'Pb12 Br7 Cl1 O8'
_cell_volume   753.29523740
_cell_formula_units_Z   1
loop_
 _symmetry_equiv_pos_site_id
 _symmetry_equiv_pos_as_xyz
  1  'x, y, z'
loop_
 _atom_site_type_symbol
 _atom_site_label
 _atom_site_symmetry_multiplicity
 _atom_site_fract_x
 _atom_site_fract_y
 _atom_site_fract_z
 _atom_site_occupancy
  Pb  Pb0  1  0.25000000  0.71583106  0.94456270  1
  Pb  Pb1  1  0.25000000  0.78595589  0.43466007  1
  Pb  Pb2  1  0.75000000  0.28473918  0.06009142  1
  Pb  Pb3  1  0.75000000  0.21481149  0.56009185  1
  Pb  Pb4  1  0.25000000  0.07578479  0.92232224  1
  Pb  Pb5  1  0.25000000  0.42411482  0.42202337  1
  Pb  Pb6  1  0.75000000  0.92319865  0.07893376  1
  Pb  Pb7  1  0.75000000  0.57602948  0.57720953  1
  Pb  Pb8  1  0.25000000  0.12910620  0.21079116  1
  Pb  Pb9  1  0.25000000  0.36675346  0.71069871  1
  Pb  Pb10  1  0.75000000  0.86559212  0.79017255  1
  Pb  Pb11  1  0.75000000  0.63422875  0.28810965  1
  Br  Br12  1  0.25000000  0.42062013  0.13115943  1
  Br  Br13  1  0.25000000  0.07873146  0.63039604  1
  Br  Br14  1  0.75000000  0.57884002  0.86988901  1
  Br  Br15  1  0.75000000  0.92136407  0.36802223  1
  Br  Br16  1  0.25000000  0.69528783  0.68971935  1
  Br  Br17  1  0.75000000  0.19512819  0.81117847  1
  Br  Br18  1  0.75000000  0.30490335  0.31097339  1
  Cl  Cl19  1  0.25000000  0.81008996  0.18971943  1
  O  O20  1  0.99576540  0.10959004  0.07826856  1
  O  O21  1  0.50445504  0.38955931  0.57796975  1
  O  O22  1  0.49593446  0.88902293  0.92316810  1
  O  O23  1  0.00433919  0.61127226  0.42023141  1
  O  O24  1  0.00406554  0.88902293  0.92316810  1
  O  O25  1  0.49566081  0.61127226  0.42023141  1
  O  O26  1  0.50423460  0.10959004  0.07826856  1
  O  O27  1  0.99554496  0.38955931  0.57796975  1
