# generated using pymatgen
data_NaCaMgFe(SiO3)4
_symmetry_space_group_name_H-M   'P 1'
_cell_length_a   5.31588544
_cell_length_b   6.64693309
_cell_length_c   6.64693309
_cell_angle_alpha   84.70671017
_cell_angle_beta   77.95691476
_cell_angle_gamma   77.95691476
_symmetry_Int_Tables_number   1
_chemical_formula_structural   NaCaMgFe(SiO3)4
_chemical_formula_sum   'Na1 Ca1 Mg1 Fe1 Si4 O12'
_cell_volume   224.34880892
_cell_formula_units_Z   1
loop_
 _symmetry_equiv_pos_site_id
 _symmetry_equiv_pos_as_xyz
  1  'x, y, z'
loop_
 _atom_site_type_symbol
 _atom_site_label
 _atom_site_symmetry_multiplicity
 _atom_site_fract_x
 _atom_site_fract_y
 _atom_site_fract_z
 _atom_site_occupancy
  Na  Na0  1  0.75000000  0.69805335  0.30194665  1
  Ca  Ca1  1  0.25000000  0.30352976  0.69647024  1
  Mg  Mg2  1  0.75000000  0.09282718  0.90717282  1
  Fe  Fe3  1  0.25000000  0.89914657  0.10085343  1
  Si  Si4  1  0.72829607  0.62085642  0.80498542  1
  Si  Si5  1  0.77170393  0.19501458  0.37914358  1
  Si  Si6  1  0.26779720  0.38068857  0.19566872  1
  Si  Si7  1  0.23220280  0.80433128  0.61931143  1
  O  O8  1  0.49332668  0.63042514  0.66841140  1
  O  O9  1  0.00667332  0.33158860  0.36957486  1
  O  O10  1  0.50172449  0.36408351  0.33288770  1
  O  O11  1  0.99827551  0.66711230  0.63591649  1
  O  O12  1  0.81942975  0.38813287  0.88640686  1
  O  O13  1  0.68057025  0.11359314  0.61186713  1
  O  O14  1  0.18717591  0.61514308  0.10832566  1
  O  O15  1  0.31282409  0.89167434  0.38485692  1
  O  O16  1  0.63188244  0.80235321  0.96937674  1
  O  O17  1  0.86811756  0.03062326  0.19764679  1
  O  O18  1  0.35376042  0.20072837  0.02990554  1
  O  O19  1  0.14623958  0.97009446  0.79927163  1
