# generated using pymatgen
data_Na4Ca7MnSi12(HO9)4
_symmetry_space_group_name_H-M   'P 1'
_cell_length_a   7.06763270
_cell_length_b   8.04745516
_cell_length_c   14.15240017
_cell_angle_alpha   95.03102753
_cell_angle_beta   90.72080810
_cell_angle_gamma   102.48771540
_symmetry_Int_Tables_number   1
_chemical_formula_structural   Na4Ca7MnSi12(HO9)4
_chemical_formula_sum   'Na4 Ca7 Mn1 Si12 H4 O36'
_cell_volume   782.45586350
_cell_formula_units_Z   1
loop_
 _symmetry_equiv_pos_site_id
 _symmetry_equiv_pos_as_xyz
  1  'x, y, z'
loop_
 _atom_site_type_symbol
 _atom_site_label
 _atom_site_symmetry_multiplicity
 _atom_site_fract_x
 _atom_site_fract_y
 _atom_site_fract_z
 _atom_site_occupancy
  Na  Na0  1  0.25100888  0.55198752  0.17040174  1
  Na  Na1  1  0.25272707  0.55103047  0.67109257  1
  Na  Na2  1  0.74721164  0.44896974  0.32893456  1
  Na  Na3  1  0.74720628  0.44888435  0.82908523  1
  Ca  Ca4  1  0.59502258  0.85302990  0.07179690  1
  Ca  Ca5  1  0.59384154  0.85279541  0.57181482  1
  Ca  Ca6  1  0.40618742  0.14730730  0.42808880  1
  Ca  Ca7  1  0.40509948  0.14625005  0.92890226  1
  Ca  Ca8  1  0.08438099  0.84835624  0.57010429  1
  Ca  Ca9  1  0.91570483  0.15147218  0.42976565  1
  Ca  Ca10  1  0.91636016  0.15061030  0.93057521  1
  Mn  Mn11  1  0.08447064  0.84620376  0.07112740  1
  Si  Si12  1  0.95572018  0.21070031  0.17332508  1
  Si  Si13  1  0.95403571  0.21316386  0.67366604  1
  Si  Si14  1  0.04580163  0.78737801  0.32430247  1
  Si  Si15  1  0.04560973  0.78647452  0.82773606  1
  Si  Si16  1  0.40290100  0.21945192  0.16775116  1
  Si  Si17  1  0.40360248  0.21987749  0.66836256  1
  Si  Si18  1  0.59618239  0.78007594  0.33173048  1
  Si  Si19  1  0.59628701  0.78033973  0.83204339  1
  Si  Si20  1  0.74055298  0.45236444  0.07246978  1
  Si  Si21  1  0.73726691  0.45058275  0.57240678  1
  Si  Si22  1  0.26253536  0.54975535  0.42731754  1
  Si  Si23  1  0.26023365  0.55132398  0.92834402  1
  H  H24  1  0.64757790  0.16970752  0.26619817  1
  H  H25  1  0.64754487  0.16961702  0.76650094  1
  H  H26  1  0.35243517  0.83065183  0.23246481  1
  H  H27  1  0.35221704  0.83044158  0.73382495  1
  O  O28  1  0.79965111  0.65674245  0.06367076  1
  O  O29  1  0.78990454  0.65349380  0.56297531  1
  O  O30  1  0.20986300  0.34685790  0.43695133  1
  O  O31  1  0.21063047  0.34830290  0.93795138  1
  O  O32  1  0.28477417  0.67597501  0.02746505  1
  O  O33  1  0.29264431  0.67055246  0.52710479  1
  O  O34  1  0.70713684  0.32943800  0.47277705  1
  O  O35  1  0.70767047  0.33060123  0.97300901  1
  O  O36  1  0.19335777  0.26505898  0.19443192  1
  O  O37  1  0.19242299  0.26349694  0.69401315  1
  O  O38  1  0.80698914  0.73630989  0.30577292  1
  O  O39  1  0.80737490  0.73671221  0.80617261  1
  O  O40  1  0.53460708  0.40166983  0.13368221  1
  O  O41  1  0.53354781  0.40152160  0.63448601  1
  O  O42  1  0.46664343  0.59848801  0.36558186  1
  O  O43  1  0.46592441  0.59974649  0.86710545  1
  O  O44  1  0.90934439  0.39290399  0.13918895  1
  O  O45  1  0.90925333  0.39571735  0.63954312  1
  O  O46  1  0.09182078  0.60551299  0.35942012  1
  O  O47  1  0.08996805  0.60264585  0.85925338  1
  O  O48  1  0.84581587  0.17481189  0.27157410  1
  O  O49  1  0.84613405  0.17549739  0.77207072  1
  O  O50  1  0.15053177  0.82442806  0.22438704  1
  O  O51  1  0.15387221  0.82580836  0.72920825  1
  O  O52  1  0.38373757  0.06128055  0.08658764  1
  O  O53  1  0.38851983  0.06373991  0.58644203  1
  O  O54  1  0.61138678  0.93631391  0.41352440  1
  O  O55  1  0.61147170  0.93677412  0.91364693  1
  O  O56  1  0.90291369  0.05447803  0.08907609  1
  O  O57  1  0.89651755  0.05953437  0.58871232  1
  O  O58  1  0.10434415  0.94015361  0.40979565  1
  O  O59  1  0.10280435  0.93708832  0.91448216  1
  O  O60  1  0.50172007  0.19127826  0.26998660  1
  O  O61  1  0.50154966  0.19121294  0.77048419  1
  O  O62  1  0.49735550  0.80869373  0.22963101  1
  O  O63  1  0.49807072  0.80835519  0.72970082  1
