# generated using pymatgen
data_Mn2P2O7
_symmetry_space_group_name_H-M   'P 1'
_cell_length_a   4.62200733
_cell_length_b   5.47718703
_cell_length_c   5.47718703
_cell_angle_alpha   104.53240411
_cell_angle_beta   97.67707742
_cell_angle_gamma   97.67707742
_symmetry_Int_Tables_number   1
_chemical_formula_structural   Mn2P2O7
_chemical_formula_sum   'Mn2 P2 O7'
_cell_volume   130.98523106
_cell_formula_units_Z   1
loop_
 _symmetry_equiv_pos_site_id
 _symmetry_equiv_pos_as_xyz
  1  'x, y, z'
loop_
 _atom_site_type_symbol
 _atom_site_label
 _atom_site_symmetry_multiplicity
 _atom_site_fract_x
 _atom_site_fract_y
 _atom_site_fract_z
 _atom_site_occupancy
  Mn  Mn0  1  0.50000000  0.69113794  0.30886206  1
  Mn  Mn1  1  0.50000000  0.30975523  0.69024477  1
  P  P2  1  0.90929048  0.21397451  0.21878805  1
  P  P3  1  0.09070952  0.78121195  0.78602549  1
  O  O4  1  0.72457588  0.08154168  0.37859803  1
  O  O5  1  0.73050148  0.36721243  0.07489475  1
  O  O6  1  0.26949852  0.92510525  0.63278757  1
  O  O7  1  0.27542412  0.62140197  0.91845832  1
  O  O8  1  0.20683478  0.37279652  0.37136189  1
  O  O9  1  0.79316522  0.62863811  0.62720348  1
  O  O10  1  0.00000000  0.98462441  0.01537559  1
