# generated using pymatgen
data_NaCa3Mg3Fe(SiO3)8
_symmetry_space_group_name_H-M   'P 1'
_cell_length_a   5.31974440
_cell_length_b   9.78793426
_cell_length_c   8.99289483
_cell_angle_alpha   90.00000000
_cell_angle_beta   90.00000000
_cell_angle_gamma   105.08477924
_symmetry_Int_Tables_number   1
_chemical_formula_structural   NaCa3Mg3Fe(SiO3)8
_chemical_formula_sum   'Na1 Ca3 Mg3 Fe1 Si8 O24'
_cell_volume   452.11863111
_cell_formula_units_Z   1
loop_
 _symmetry_equiv_pos_site_id
 _symmetry_equiv_pos_as_xyz
  1  'x, y, z'
loop_
 _atom_site_type_symbol
 _atom_site_label
 _atom_site_symmetry_multiplicity
 _atom_site_fract_x
 _atom_site_fract_y
 _atom_site_fract_z
 _atom_site_occupancy
  Na  Na0  1  0.75000000  0.00000000  0.30289421  1
  Ca  Ca1  1  0.25000000  0.50000000  0.79799549  1
  Ca  Ca2  1  0.75000000  0.50000000  0.20156360  1
  Ca  Ca3  1  0.25000000  0.00000000  0.69597196  1
  Mg  Mg4  1  0.25000000  0.50000000  0.40820490  1
  Mg  Mg5  1  0.75000000  0.00000000  0.90620916  1
  Mg  Mg6  1  0.75000000  0.50000000  0.59121152  1
  Fe  Fe7  1  0.25000000  0.00000000  0.10246571  1
  Si  Si8  1  0.44251471  0.71418724  0.09385758  1
  Si  Si9  1  0.94240292  0.21238681  0.59097066  1
  Si  Si10  1  0.05748529  0.28581276  0.09385758  1
  Si  Si11  1  0.55759708  0.78761319  0.59097066  1
  Si  Si12  1  0.55602211  0.28686684  0.90778876  1
  Si  Si13  1  0.05661992  0.78794854  0.40747793  1
  Si  Si14  1  0.94397789  0.71313316  0.90778876  1
  Si  Si15  1  0.44338008  0.21205146  0.40747793  1
  O  O16  1  0.14647052  0.64863583  0.01695062  1
  O  O17  1  0.64511929  0.14994764  0.51735287  1
  O  O18  1  0.35352948  0.35136417  0.01695062  1
  O  O19  1  0.85488071  0.85005236  0.51735287  1
  O  O20  1  0.85178514  0.34889670  0.98368681  1
  O  O21  1  0.34900959  0.85044170  0.48512790  1
  O  O22  1  0.64821486  0.65110330  0.98368681  1
  O  O23  1  0.15099041  0.14955830  0.48512790  1
  O  O24  1  0.51798240  0.88566008  0.08299432  1
  O  O25  1  0.02619317  0.38426744  0.58704750  1
  O  O26  1  0.98201760  0.11433992  0.08299432  1
  O  O27  1  0.47380683  0.61573256  0.58704750  1
  O  O28  1  0.46982265  0.11441759  0.91692426  1
  O  O29  1  0.97299085  0.61639322  0.41073510  1
  O  O30  1  0.03017735  0.88558241  0.91692426  1
  O  O31  1  0.52700915  0.38360678  0.41073510  1
  O  O32  1  0.45744107  0.63801766  0.24941388  1
  O  O33  1  0.95575222  0.13799629  0.74935742  1
  O  O34  1  0.04255893  0.36198234  0.24941388  1
  O  O35  1  0.54424778  0.86200371  0.74935742  1
  O  O36  1  0.54290600  0.36124915  0.75058989  1
  O  O37  1  0.05013858  0.86151616  0.24646623  1
  O  O38  1  0.95709400  0.63875085  0.75058989  1
  O  O39  1  0.44986142  0.13848384  0.24646623  1
