# generated using pymatgen
data_Mg30Al24Ag19
_symmetry_space_group_name_H-M   'P 1'
_cell_length_a   14.14645998
_cell_length_b   14.14645998
_cell_length_c   14.14645998
_cell_angle_alpha   90.00000000
_cell_angle_beta   90.00000000
_cell_angle_gamma   90.00000000
_symmetry_Int_Tables_number   1
_chemical_formula_structural   Mg30Al24Ag19
_chemical_formula_sum   'Mg60 Al48 Ag38'
_cell_volume   2831.02253196
_cell_formula_units_Z   2
loop_
 _symmetry_equiv_pos_site_id
 _symmetry_equiv_pos_as_xyz
  1  'x, y, z'
loop_
 _atom_site_type_symbol
 _atom_site_label
 _atom_site_symmetry_multiplicity
 _atom_site_fract_x
 _atom_site_fract_y
 _atom_site_fract_z
 _atom_site_occupancy
  Mg  Mg0  1  0.30808278  0.87903618  0.18773469  1
  Mg  Mg1  1  0.87903618  0.81226531  0.30808278  1
  Mg  Mg2  1  0.18773469  0.30808278  0.12096382  1
  Mg  Mg3  1  0.89174715  0.00000000  0.17716245  1
  Mg  Mg4  1  0.12096382  0.81226531  0.69191722  1
  Mg  Mg5  1  0.32474576  0.38648639  0.50000000  1
  Mg  Mg6  1  0.12096382  0.18773469  0.69191722  1
  Mg  Mg7  1  0.81226531  0.30808278  0.12096382  1
  Mg  Mg8  1  0.50000000  0.32474576  0.38648639  1
  Mg  Mg9  1  0.00000000  0.82283755  0.10825285  1
  Mg  Mg10  1  0.50000000  0.32474576  0.61351361  1
  Mg  Mg11  1  0.00000000  0.38242396  0.00000000  1
  Mg  Mg12  1  0.30808278  0.12096382  0.18773469  1
  Mg  Mg13  1  0.87903618  0.81226531  0.69191722  1
  Mg  Mg14  1  0.10825285  0.00000000  0.82283755  1
  Mg  Mg15  1  0.82283755  0.10825285  0.00000000  1
  Mg  Mg16  1  0.81226531  0.30808278  0.87903618  1
  Mg  Mg17  1  0.18773469  0.69191722  0.12096382  1
  Mg  Mg18  1  0.50000000  0.50000000  0.11691298  1
  Mg  Mg19  1  0.00000000  0.00000000  0.38242396  1
  Mg  Mg20  1  0.18773469  0.69191722  0.87903618  1
  Mg  Mg21  1  0.00000000  0.17716245  0.89174715  1
  Mg  Mg22  1  0.69191722  0.87903618  0.81226531  1
  Mg  Mg23  1  0.50000000  0.67525424  0.38648639  1
  Mg  Mg24  1  0.00000000  0.17716245  0.10825285  1
  Mg  Mg25  1  0.89174715  0.00000000  0.82283755  1
  Mg  Mg26  1  0.38242396  0.00000000  0.00000000  1
  Mg  Mg27  1  0.88308702  0.50000000  0.50000000  1
  Mg  Mg28  1  0.17716245  0.89174715  0.00000000  1
  Mg  Mg29  1  0.61757604  0.00000000  0.00000000  1
  Mg  Mg30  1  0.18773469  0.30808278  0.87903618  1
  Mg  Mg31  1  0.00000000  0.82283755  0.89174715  1
  Mg  Mg32  1  0.10825285  0.00000000  0.17716245  1
  Mg  Mg33  1  0.32474576  0.61351361  0.50000000  1
  Mg  Mg34  1  0.50000000  0.50000000  0.88308702  1
  Mg  Mg35  1  0.87903618  0.18773469  0.30808278  1
  Mg  Mg36  1  0.67525424  0.38648639  0.50000000  1
  Mg  Mg37  1  0.61351361  0.50000000  0.67525424  1
  Mg  Mg38  1  0.30808278  0.12096382  0.81226531  1
  Mg  Mg39  1  0.12096382  0.81226531  0.30808278  1
  Mg  Mg40  1  0.30808278  0.87903618  0.81226531  1
  Mg  Mg41  1  0.17716245  0.10825285  0.00000000  1
  Mg  Mg42  1  0.67525424  0.61351361  0.50000000  1
  Mg  Mg43  1  0.81226531  0.69191722  0.87903618  1
  Mg  Mg44  1  0.00000000  0.61757604  0.00000000  1
  Mg  Mg45  1  0.87903618  0.18773469  0.69191722  1
  Mg  Mg46  1  0.69191722  0.87903618  0.18773469  1
  Mg  Mg47  1  0.50000000  0.67525424  0.61351361  1
  Mg  Mg48  1  0.12096382  0.18773469  0.30808278  1
  Mg  Mg49  1  0.00000000  0.00000000  0.61757604  1
  Mg  Mg50  1  0.38648639  0.50000000  0.67525424  1
  Mg  Mg51  1  0.50000000  0.88308702  0.50000000  1
  Mg  Mg52  1  0.50000000  0.11691298  0.50000000  1
  Mg  Mg53  1  0.61351361  0.50000000  0.32474576  1
  Mg  Mg54  1  0.69191722  0.12096382  0.18773469  1
  Mg  Mg55  1  0.11691298  0.50000000  0.50000000  1
  Mg  Mg56  1  0.82283755  0.89174715  0.00000000  1
  Mg  Mg57  1  0.38648639  0.50000000  0.32474576  1
  Mg  Mg58  1  0.81226531  0.69191722  0.12096382  1
  Mg  Mg59  1  0.69191722  0.12096382  0.81226531  1
  Al  Al60  1  0.60343911  0.67681158  0.80896081  1
  Al  Al61  1  0.32318842  0.19103919  0.39656089  1
  Al  Al62  1  0.66571641  0.59486950  0.00000000  1
  Al  Al63  1  0.67681158  0.19103919  0.39656089  1
  Al  Al64  1  0.19103919  0.39656089  0.67681158  1
  Al  Al65  1  0.39656089  0.67681158  0.80896081  1
  Al  Al66  1  0.40513050  0.00000000  0.66571641  1
  Al  Al67  1  0.32318842  0.19103919  0.60343911  1
  Al  Al68  1  0.80896081  0.39656089  0.67681158  1
  Al  Al69  1  0.19103919  0.39656089  0.32318842  1
  Al  Al70  1  0.80896081  0.39656089  0.32318842  1
  Al  Al71  1  0.67681158  0.19103919  0.60343911  1
  Al  Al72  1  0.32318842  0.80896081  0.39656089  1
  Al  Al73  1  0.50000000  0.83014053  0.09670456  1
  Al  Al74  1  0.66571641  0.40513050  0.00000000  1
  Al  Al75  1  0.33428359  0.59486950  0.00000000  1
  Al  Al76  1  0.60343911  0.67681158  0.19103919  1
  Al  Al77  1  0.09670456  0.50000000  0.16985947  1
  Al  Al78  1  0.39656089  0.32318842  0.19103919  1
  Al  Al79  1  0.00000000  0.66571641  0.40513050  1
  Al  Al80  1  0.00000000  0.66571641  0.59486950  1
  Al  Al81  1  0.50000000  0.83014053  0.90329544  1
  Al  Al82  1  0.09670456  0.50000000  0.83014053  1
  Al  Al83  1  0.80896081  0.60343911  0.32318842  1
  Al  Al84  1  0.50000000  0.16985947  0.90329544  1
  Al  Al85  1  0.90329544  0.50000000  0.83014053  1
  Al  Al86  1  0.50000000  0.16985947  0.09670456  1
  Al  Al87  1  0.67681158  0.80896081  0.60343911  1
  Al  Al88  1  0.00000000  0.33428359  0.40513050  1
  Al  Al89  1  0.39656089  0.32318842  0.80896081  1
  Al  Al90  1  0.33428359  0.40513050  0.00000000  1
  Al  Al91  1  0.60343911  0.32318842  0.19103919  1
  Al  Al92  1  0.19103919  0.60343911  0.32318842  1
  Al  Al93  1  0.00000000  0.33428359  0.59486950  1
  Al  Al94  1  0.83014053  0.90329544  0.50000000  1
  Al  Al95  1  0.59486950  0.00000000  0.66571641  1
  Al  Al96  1  0.39656089  0.67681158  0.19103919  1
  Al  Al97  1  0.80896081  0.60343911  0.67681158  1
  Al  Al98  1  0.60343911  0.32318842  0.80896081  1
  Al  Al99  1  0.59486950  0.00000000  0.33428359  1
  Al  Al100  1  0.19103919  0.60343911  0.67681158  1
  Al  Al101  1  0.16985947  0.90329544  0.50000000  1
  Al  Al102  1  0.67681158  0.80896081  0.39656089  1
  Al  Al103  1  0.90329544  0.50000000  0.16985947  1
  Al  Al104  1  0.16985947  0.09670456  0.50000000  1
  Al  Al105  1  0.32318842  0.80896081  0.60343911  1
  Al  Al106  1  0.40513050  0.00000000  0.33428359  1
  Al  Al107  1  0.83014053  0.09670456  0.50000000  1
  Ag  Ag108  1  0.50000000  0.00000000  0.83519826  1
  Ag  Ag109  1  0.00000000  0.33294859  0.78574858  1
  Ag  Ag110  1  0.50000000  0.83599301  0.28795856  1
  Ag  Ag111  1  0.66705141  0.78574858  0.00000000  1
  Ag  Ag112  1  0.28795856  0.50000000  0.16400699  1
  Ag  Ag113  1  0.50000000  0.00000000  0.16480174  1
  Ag  Ag114  1  0.00000000  0.66705141  0.21425142  1
  Ag  Ag115  1  0.78574858  0.00000000  0.33294859  1
  Ag  Ag116  1  0.00000000  0.83519826  0.50000000  1
  Ag  Ag117  1  0.33294859  0.21425142  0.00000000  1
  Ag  Ag118  1  0.50000000  0.33358547  0.00000000  1
  Ag  Ag119  1  0.78574858  0.00000000  0.66705141  1
  Ag  Ag120  1  0.28795856  0.50000000  0.83599301  1
  Ag  Ag121  1  0.83599301  0.28795856  0.50000000  1
  Ag  Ag122  1  0.16400699  0.28795856  0.50000000  1
  Ag  Ag123  1  0.50000000  0.66641453  0.00000000  1
  Ag  Ag124  1  0.66705141  0.21425142  0.00000000  1
  Ag  Ag125  1  0.50000000  0.50000000  0.50000000  1
  Ag  Ag126  1  0.83519826  0.50000000  0.00000000  1
  Ag  Ag127  1  0.50000000  0.83599301  0.71204144  1
  Ag  Ag128  1  0.66641453  0.00000000  0.50000000  1
  Ag  Ag129  1  0.00000000  0.33294859  0.21425142  1
  Ag  Ag130  1  0.21425142  0.00000000  0.66705141  1
  Ag  Ag131  1  0.00000000  0.16480174  0.50000000  1
  Ag  Ag132  1  0.21425142  0.00000000  0.33294859  1
  Ag  Ag133  1  0.16480174  0.50000000  0.00000000  1
  Ag  Ag134  1  0.71204144  0.50000000  0.83599301  1
  Ag  Ag135  1  0.50000000  0.16400699  0.28795856  1
  Ag  Ag136  1  0.71204144  0.50000000  0.16400699  1
  Ag  Ag137  1  0.00000000  0.50000000  0.66641453  1
  Ag  Ag138  1  0.33294859  0.78574858  0.00000000  1
  Ag  Ag139  1  0.50000000  0.16400699  0.71204144  1
  Ag  Ag140  1  0.83599301  0.71204144  0.50000000  1
  Ag  Ag141  1  0.16400699  0.71204144  0.50000000  1
  Ag  Ag142  1  0.00000000  0.00000000  0.00000000  1
  Ag  Ag143  1  0.00000000  0.50000000  0.33358547  1
  Ag  Ag144  1  0.33358547  0.00000000  0.50000000  1
  Ag  Ag145  1  0.00000000  0.66705141  0.78574858  1
