# generated using pymatgen
data_Mn3Nb8FeO24
_symmetry_space_group_name_H-M   'P 1'
_cell_length_a   5.14354528
_cell_length_b   5.88630539
_cell_length_c   14.59176328
_cell_angle_alpha   90.00000000
_cell_angle_beta   89.84528431
_cell_angle_gamma   90.00000000
_symmetry_Int_Tables_number   1
_chemical_formula_structural   Mn3Nb8FeO24
_chemical_formula_sum   'Mn3 Nb8 Fe1 O24'
_cell_volume   441.78559390
_cell_formula_units_Z   1
loop_
 _symmetry_equiv_pos_site_id
 _symmetry_equiv_pos_as_xyz
  1  'x, y, z'
loop_
 _atom_site_type_symbol
 _atom_site_label
 _atom_site_symmetry_multiplicity
 _atom_site_fract_x
 _atom_site_fract_y
 _atom_site_fract_z
 _atom_site_occupancy
  Mn  Mn0  1  0.75000000  0.17622209  0.50000000  1
  Mn  Mn1  1  0.75000000  0.67288811  0.00000000  1
  Mn  Mn2  1  0.25000000  0.82379234  0.50000000  1
  Nb  Nb3  1  0.25817282  0.31847808  0.66265386  1
  Nb  Nb4  1  0.75699483  0.18132232  0.83923300  1
  Nb  Nb5  1  0.74300517  0.18132232  0.16076700  1
  Nb  Nb6  1  0.24182718  0.31847808  0.33734614  1
  Nb  Nb7  1  0.74161654  0.68111166  0.33758224  1
  Nb  Nb8  1  0.24142343  0.81916020  0.16151479  1
  Nb  Nb9  1  0.25857657  0.81916020  0.83848521  1
  Nb  Nb10  1  0.75838346  0.68111166  0.66241776  1
  Fe  Fe11  1  0.25000000  0.33082380  0.00000000  1
  O  O12  1  0.41215231  0.12807821  0.24411816  1
  O  O13  1  0.91088955  0.37195000  0.25494885  1
  O  O14  1  0.58911045  0.37195000  0.74505115  1
  O  O15  1  0.08784769  0.12807821  0.75588184  1
  O  O16  1  0.58811330  0.87245064  0.75649300  1
  O  O17  1  0.08901793  0.62905565  0.74483836  1
  O  O18  1  0.41098207  0.62905565  0.25516164  1
  O  O19  1  0.91188670  0.87245064  0.24350700  1
  O  O20  1  0.43569832  0.10199905  0.90289109  1
  O  O21  1  0.93955392  0.39989312  0.59868026  1
  O  O22  1  0.56044608  0.39989312  0.40131974  1
  O  O23  1  0.06430168  0.10199905  0.09710891  1
  O  O24  1  0.56251086  0.89786091  0.09836504  1
  O  O25  1  0.06026564  0.60089288  0.40123372  1
  O  O26  1  0.43973436  0.60089288  0.59876628  1
  O  O27  1  0.93748914  0.89786091  0.90163496  1
  O  O28  1  0.40441532  0.11784567  0.58124462  1
  O  O29  1  0.90865649  0.37990153  0.91937952  1
  O  O30  1  0.59134351  0.37990153  0.08062048  1
  O  O31  1  0.09558468  0.11784567  0.41875538  1
  O  O32  1  0.59572573  0.88224636  0.41879019  1
  O  O33  1  0.09783152  0.61589052  0.08061115  1
  O  O34  1  0.40216848  0.61589052  0.91938885  1
  O  O35  1  0.90427427  0.88224636  0.58120981  1
