# generated using pymatgen
data_MoWSe4
_symmetry_space_group_name_H-M   'P 1'
_cell_length_a   3.32769334
_cell_length_b   3.32756189
_cell_length_c   14.32333029
_cell_angle_alpha   90.00000000
_cell_angle_beta   90.00000000
_cell_angle_gamma   60.00129688
_symmetry_Int_Tables_number   1
_chemical_formula_structural   MoWSe4
_chemical_formula_sum   'Mo1 W1 Se4'
_cell_volume   137.35666990
_cell_formula_units_Z   1
loop_
 _symmetry_equiv_pos_site_id
 _symmetry_equiv_pos_as_xyz
  1  'x, y, z'
loop_
 _atom_site_type_symbol
 _atom_site_label
 _atom_site_symmetry_multiplicity
 _atom_site_fract_x
 _atom_site_fract_y
 _atom_site_fract_z
 _atom_site_occupancy
  Mo  Mo0  1  0.33339018  0.33330491  0.75000000  1
  W  W1  1  0.66661656  0.66669172  0.25000000  1
  Se  Se2  1  0.33327045  0.33336478  0.13256921  1
  Se  Se3  1  0.66672618  0.66663691  0.86681695  1
  Se  Se4  1  0.66672618  0.66663691  0.63318305  1
  Se  Se5  1  0.33327045  0.33336478  0.36743079  1
