# generated using pymatgen
data_NaSr4(FeAs)10
_symmetry_space_group_name_H-M   'P 1'
_cell_length_a   8.85812110
_cell_length_b   8.55280935
_cell_length_c   8.85812110
_cell_angle_alpha   58.81194824
_cell_angle_beta   90.00000000
_cell_angle_gamma   58.81194817
_symmetry_Int_Tables_number   1
_chemical_formula_structural   NaSr4(FeAs)10
_chemical_formula_sum   'Na1 Sr4 Fe10 As10'
_cell_volume   456.97712206
_cell_formula_units_Z   1
loop_
 _symmetry_equiv_pos_site_id
 _symmetry_equiv_pos_as_xyz
  1  'x, y, z'
loop_
 _atom_site_type_symbol
 _atom_site_label
 _atom_site_symmetry_multiplicity
 _atom_site_fract_x
 _atom_site_fract_y
 _atom_site_fract_z
 _atom_site_occupancy
  Na  Na0  1  0.00000000  -0.00000000  0.00000000  1
  Sr  Sr1  1  0.19802644  -0.00000000  0.60498319  1
  Sr  Sr2  1  0.39501681  -0.00000000  0.19802644  1
  Sr  Sr3  1  0.60498319  -0.00000000  0.80197356  1
  Sr  Sr4  1  0.80197356  -0.00000000  0.39501681  1
  Fe  Fe5  1  0.94952623  0.50091363  0.84947695  1
  Fe  Fe6  1  0.15052305  0.49908637  0.45043986  1
  Fe  Fe7  1  0.35039058  0.49908637  0.05047377  1
  Fe  Fe8  1  0.54956014  0.50091363  0.64960942  1
  Fe  Fe9  1  0.75000000  0.50000000  0.25000000  1
  Fe  Fe10  1  0.84947695  0.50091363  0.54956014  1
  Fe  Fe11  1  0.05047377  0.49908637  0.15052305  1
  Fe  Fe12  1  0.25000000  0.50000000  0.75000000  1
  Fe  Fe13  1  0.45043986  0.49908637  0.35039058  1
  Fe  Fe14  1  0.64960942  0.50091363  0.94952623  1
  As  As15  1  0.15275845  0.29327038  0.75345613  1
  As  As16  1  0.35347778  0.29304444  0.35347778  1
  As  As17  1  0.55397117  0.29327038  0.95327350  1
  As  As18  1  0.75345613  0.29327038  0.55397117  1
  As  As19  1  0.95327350  0.29327038  0.15275845  1
  As  As20  1  0.64652222  0.70695556  0.64652222  1
  As  As21  1  0.84724155  0.70672962  0.24654387  1
  As  As22  1  0.04672650  0.70672962  0.84724155  1
  As  As23  1  0.24654387  0.70672962  0.44602883  1
  As  As24  1  0.44602883  0.70672962  0.04672650  1
