# generated using pymatgen
data_Mn3Cr3P2
_symmetry_space_group_name_H-M   'P 1'
_cell_length_a   4.42688559
_cell_length_b   6.75724449
_cell_length_c   6.73805571
_cell_angle_alpha   95.96583893
_cell_angle_beta   109.17767619
_cell_angle_gamma   70.87890283
_symmetry_Int_Tables_number   1
_chemical_formula_structural   Mn3Cr3P2
_chemical_formula_sum   'Mn6 Cr6 P4'
_cell_volume   179.86877566
_cell_formula_units_Z   2
loop_
 _symmetry_equiv_pos_site_id
 _symmetry_equiv_pos_as_xyz
  1  'x, y, z'
loop_
 _atom_site_type_symbol
 _atom_site_label
 _atom_site_symmetry_multiplicity
 _atom_site_fract_x
 _atom_site_fract_y
 _atom_site_fract_z
 _atom_site_occupancy
  Mn  Mn0  1  0.98486920  0.94746024  0.39125237  1
  Mn  Mn1  1  0.54107707  0.05253976  0.60874763  1
  Mn  Mn2  1  0.65679766  0.39020224  0.67899131  1
  Mn  Mn3  1  0.36800858  0.60979776  0.32100869  1
  Mn  Mn4  1  0.01775723  0.32463930  0.37995066  1
  Mn  Mn5  1  0.96244587  0.67536070  0.62004934  1
  Cr  Cr6  1  0.69036854  0.18012147  0.02562427  1
  Cr  Cr7  1  0.84486574  0.81987853  0.97437573  1
  Cr  Cr8  1  0.33033563  0.97218526  0.18290057  1
  Cr  Cr9  1  0.11962032  0.02781474  0.81709943  1
  Cr  Cr10  1  0.06768251  0.39334214  0.05089587  1
  Cr  Cr11  1  0.41012878  0.60665786  0.94910413  1
  P  P12  1  0.21041607  0.33442945  0.74445263  1
  P  P13  1  0.80039289  0.66557055  0.25554737  1
  P  P14  1  0.54538952  0.24658457  0.34212969  1
  P  P15  1  0.44984440  0.75341543  0.65787031  1
