# generated using pymatgen
data_Na22CaFe6P12(O8F)6
_symmetry_space_group_name_H-M   'P 1'
_cell_length_a   6.91848315
_cell_length_b   13.90272254
_cell_length_c   13.90264347
_cell_angle_alpha   60.00021708
_cell_angle_beta   90.00006245
_cell_angle_gamma   89.99987904
_symmetry_Int_Tables_number   1
_chemical_formula_structural   Na22CaFe6P12(O8F)6
_chemical_formula_sum   'Na22 Ca1 Fe6 P12 O48 F6'
_cell_volume   1158.08306337
_cell_formula_units_Z   1
loop_
 _symmetry_equiv_pos_site_id
 _symmetry_equiv_pos_as_xyz
  1  'x, y, z'
loop_
 _atom_site_type_symbol
 _atom_site_label
 _atom_site_symmetry_multiplicity
 _atom_site_fract_x
 _atom_site_fract_y
 _atom_site_fract_z
 _atom_site_occupancy
  Na  Na0  1  0.27181642  0.74910218  0.05997448  1
  Na  Na1  1  0.27181062  0.19091680  0.74911575  1
  Na  Na2  1  0.27180650  0.05997354  0.19091070  1
  Na  Na3  1  0.72883150  0.25145103  0.93800978  1
  Na  Na4  1  0.72883522  0.81055270  0.25144715  1
  Na  Na5  1  0.72882483  0.93799458  0.81055011  1
  Na  Na6  1  0.97377173  0.33335636  0.33332154  1
  Na  Na7  1  0.03771967  0.66665635  0.66667153  1
  Na  Na8  1  0.50016265  0.00000183  0.00000097  1
  Na  Na9  1  0.98394904  0.71008892  0.87132113  1
  Na  Na10  1  0.98401320  0.41859306  0.71009650  1
  Na  Na11  1  0.98396484  0.87130686  0.41860099  1
  Na  Na12  1  0.01483314  0.29081020  0.12658254  1
  Na  Na13  1  0.01484092  0.58260325  0.29080044  1
  Na  Na14  1  0.01482844  0.12659415  0.58260317  1
  Na  Na15  1  0.51040120  0.33336190  0.33332608  1
  Na  Na16  1  0.76927883  0.10199706  0.39148915  1
  Na  Na17  1  0.76926555  0.50653491  0.10197538  1
  Na  Na18  1  0.76928188  0.39148688  0.50651824  1
  Na  Na19  1  0.23484644  0.89015041  0.61100425  1
  Na  Na20  1  0.23486675  0.49883299  0.89014590  1
  Na  Na21  1  0.23486849  0.61100828  0.49885696  1
  Ca  Ca22  1  0.99946730  0.99997178  0.00000292  1
  Fe  Fe23  1  0.51385373  0.12421741  0.58403738  1
  Fe  Fe24  1  0.51387403  0.29174885  0.12424504  1
  Fe  Fe25  1  0.51387722  0.58403078  0.29176091  1
  Fe  Fe26  1  0.48587349  0.86946157  0.42166194  1
  Fe  Fe27  1  0.48586231  0.70889532  0.86944347  1
  Fe  Fe28  1  0.48590172  0.42166768  0.70889694  1
  P  P29  1  0.24115020  0.94106353  0.80639127  1
  P  P30  1  0.24117578  0.25253904  0.94106672  1
  P  P31  1  0.24115177  0.80639943  0.25253770  1
  P  P32  1  0.75863643  0.05817064  0.19454256  1
  P  P33  1  0.75862572  0.74729019  0.05816958  1
  P  P34  1  0.75864964  0.19453677  0.74728927  1
  P  P35  1  0.71947933  0.88294483  0.62625467  1
  P  P36  1  0.71948615  0.49079336  0.88294918  1
  P  P37  1  0.71949236  0.62626443  0.49079582  1
  P  P38  1  0.28003177  0.11742291  0.37333467  1
  P  P39  1  0.28003957  0.50924606  0.11742630  1
  P  P40  1  0.28003731  0.37332438  0.50924651  1
  O  O41  1  0.23605007  0.00508339  0.87071997  1
  O  O42  1  0.23605688  0.12418793  0.00509069  1
  O  O43  1  0.23604426  0.87071545  0.12419328  1
  O  O44  1  0.76464510  0.99516132  0.12921654  1
  O  O45  1  0.76462479  0.87562332  0.99515617  1
  O  O46  1  0.76463331  0.12920988  0.87562652  1
  O  O47  1  0.39962812  0.84833331  0.86538255  1
  O  O48  1  0.39965078  0.28626878  0.84833426  1
  O  O49  1  0.39964868  0.86540200  0.28626707  1
  O  O50  1  0.60020864  0.15131665  0.13503601  1
  O  O51  1  0.60021421  0.71365363  0.15131954  1
  O  O52  1  0.60021365  0.13502804  0.71365035  1
  O  O53  1  0.55036755  0.87993779  0.55432203  1
  O  O54  1  0.55035678  0.56574417  0.87991740  1
  O  O55  1  0.55037002  0.55433083  0.56573890  1
  O  O56  1  0.45026914  0.12674285  0.44223235  1
  O  O57  1  0.45025947  0.43102643  0.12674079  1
  O  O58  1  0.45026535  0.44224141  0.43101847  1
  O  O59  1  0.04607902  0.89181867  0.80433430  1
  O  O60  1  0.04609292  0.30384182  0.89181874  1
  O  O61  1  0.04608084  0.80434123  0.30384707  1
  O  O62  1  0.95288809  0.10845004  0.19669287  1
  O  O63  1  0.95288344  0.69486279  0.10844083  1
  O  O64  1  0.95290462  0.19667403  0.69487131  1
  O  O65  1  0.91414481  0.86164058  0.58766927  1
  O  O66  1  0.91414592  0.55068952  0.86163491  1
  O  O67  1  0.91415338  0.58767979  0.55069144  1
  O  O68  1  0.08592395  0.14013503  0.41171108  1
  O  O69  1  0.08593156  0.44816069  0.14013280  1
  O  O70  1  0.08593216  0.41170891  0.44815662  1
  O  O71  1  0.71811320  0.00237412  0.61445241  1
  O  O72  1  0.71809689  0.38316921  0.00237496  1
  O  O73  1  0.71812925  0.61447099  0.38317285  1
  O  O74  1  0.28343072  0.99934943  0.38528044  1
  O  O75  1  0.28343674  0.61536363  0.99934777  1
  O  O76  1  0.28345874  0.38527354  0.61537146  1
  O  O77  1  0.68395506  0.79529771  0.75056005  1
  O  O78  1  0.68399976  0.45413628  0.79529688  1
  O  O79  1  0.68397007  0.75057485  0.45413805  1
  O  O80  1  0.31756246  0.20813010  0.24974347  1
  O  O81  1  0.31759474  0.54213714  0.20812612  1
  O  O82  1  0.31757650  0.24974455  0.54211943  1
  O  O83  1  0.30492383  0.01799301  0.68037186  1
  O  O84  1  0.30494691  0.30162990  0.01799844  1
  O  O85  1  0.30492782  0.68037794  0.30164100  1
  O  O86  1  0.69404888  0.98101024  0.31974966  1
  O  O87  1  0.69402905  0.69924766  0.98100118  1
  O  O88  1  0.69407492  0.31974488  0.69923695  1
  F  F89  1  0.72818139  0.23518947  0.48317833  1
  F  F90  1  0.72818937  0.28162860  0.23519818  1
  F  F91  1  0.72820930  0.48318248  0.28163777  1
  F  F92  1  0.26446143  0.77026159  0.51043141  1
  F  F93  1  0.26441921  0.71931887  0.77022694  1
  F  F94  1  0.26451254  0.51042037  0.71930467  1
