# generated using pymatgen
data_LuZr3F15
_symmetry_space_group_name_H-M   'P 1'
_cell_length_a   8.15547058
_cell_length_b   8.16464459
_cell_length_c   8.15547058
_cell_angle_alpha   100.18830405
_cell_angle_beta   100.08268026
_cell_angle_gamma   100.18830405
_symmetry_Int_Tables_number   1
_chemical_formula_structural   LuZr3F15
_chemical_formula_sum   'Lu2 Zr6 F30'
_cell_volume   513.97938213
_cell_formula_units_Z   2
loop_
 _symmetry_equiv_pos_site_id
 _symmetry_equiv_pos_as_xyz
  1  'x, y, z'
loop_
 _atom_site_type_symbol
 _atom_site_label
 _atom_site_symmetry_multiplicity
 _atom_site_fract_x
 _atom_site_fract_y
 _atom_site_fract_z
 _atom_site_occupancy
  Lu  Lu0  1  0.82229425  0.25000000  0.67770575  1
  Lu  Lu1  1  0.17770575  0.75000000  0.32229425  1
  Zr  Zr2  1  0.24977101  0.25000000  0.25022899  1
  Zr  Zr3  1  0.75022899  0.75000000  0.74977101  1
  Zr  Zr4  1  0.24793152  0.67508946  0.82160284  1
  Zr  Zr5  1  0.67839716  0.82491054  0.25206848  1
  Zr  Zr6  1  0.75206848  0.32491054  0.17839716  1
  Zr  Zr7  1  0.32160284  0.17508946  0.74793152  1
  F  F8  1  0.68564201  0.05181928  0.15136232  1
  F  F9  1  0.05941760  0.15143270  0.68693816  1
  F  F10  1  0.15300113  0.68499638  0.04334235  1
  F  F11  1  0.54334235  0.18499638  0.65300113  1
  F  F12  1  0.18693816  0.65143270  0.55941760  1
  F  F13  1  0.65136232  0.55181928  0.18564201  1
  F  F14  1  0.31435799  0.94818072  0.84863768  1
  F  F15  1  0.94058240  0.84856730  0.31306184  1
  F  F16  1  0.84699887  0.31500362  0.95665765  1
  F  F17  1  0.45665765  0.81500362  0.34699887  1
  F  F18  1  0.81306184  0.34856730  0.44058240  1
  F  F19  1  0.34863768  0.44818072  0.81435799  1
  F  F20  1  0.53415686  0.25000000  0.96584314  1
  F  F21  1  0.25177809  0.96978308  0.54070233  1
  F  F22  1  0.95929767  0.53021692  0.24822191  1
  F  F23  1  0.74822191  0.03021692  0.45929767  1
  F  F24  1  0.04070233  0.46978308  0.75177809  1
  F  F25  1  0.46584314  0.75000000  0.03415686  1
  F  F26  1  0.22702062  0.99508138  0.22048484  1
  F  F27  1  0.99176591  0.22038626  0.22646586  1
  F  F28  1  0.22249194  0.22620724  0.99140741  1
  F  F29  1  0.49140741  0.72620724  0.72249194  1
  F  F30  1  0.72646586  0.72038626  0.49176591  1
  F  F31  1  0.72048484  0.49508138  0.72702062  1
  F  F32  1  0.77297938  0.00491862  0.77951516  1
  F  F33  1  0.00823409  0.77961374  0.77353414  1
  F  F34  1  0.77750806  0.77379276  0.00859259  1
  F  F35  1  0.50859259  0.27379276  0.27750806  1
  F  F36  1  0.27353414  0.27961374  0.50823409  1
  F  F37  1  0.27951516  0.50491862  0.27297938  1
