# generated using pymatgen
data_Mg3InAg4
_symmetry_space_group_name_H-M   'P 1'
_cell_length_a   4.74936143
_cell_length_b   4.74936143
_cell_length_c   8.27767042
_cell_angle_alpha   73.32886239
_cell_angle_beta   90.00000000
_cell_angle_gamma   120.00000000
_symmetry_Int_Tables_number   1
_chemical_formula_structural   Mg3InAg4
_chemical_formula_sum   'Mg3 In1 Ag4'
_cell_volume   152.57015650
_cell_formula_units_Z   1
loop_
 _symmetry_equiv_pos_site_id
 _symmetry_equiv_pos_as_xyz
  1  'x, y, z'
loop_
 _atom_site_type_symbol
 _atom_site_label
 _atom_site_symmetry_multiplicity
 _atom_site_fract_x
 _atom_site_fract_y
 _atom_site_fract_z
 _atom_site_occupancy
  Mg  Mg0  1  0.99915661  0.99831323  0.00253016  1
  Mg  Mg1  1  0.50084339  0.00168677  0.49746984  1
  Mg  Mg2  1  0.25000000  0.50000000  0.25000000  1
  In  In3  1  0.75000000  0.50000000  0.75000000  1
  Ag  Ag4  1  0.62342772  0.24685545  0.12971683  1
  Ag  Ag5  1  0.12638984  0.25277967  0.62083049  1
  Ag  Ag6  1  0.87657228  0.75314455  0.37028317  1
  Ag  Ag7  1  0.37361016  0.74722033  0.87916951  1
