# generated using pymatgen
data_MgTi4FeO10
_symmetry_space_group_name_H-M   'P 1'
_cell_length_a   3.76726831
_cell_length_b   5.27793881
_cell_length_c   10.18845055
_cell_angle_alpha   90.00000000
_cell_angle_beta   90.00000000
_cell_angle_gamma   69.09079305
_symmetry_Int_Tables_number   1
_chemical_formula_structural   MgTi4FeO10
_chemical_formula_sum   'Mg1 Ti4 Fe1 O10'
_cell_volume   189.24060719
_cell_formula_units_Z   1
loop_
 _symmetry_equiv_pos_site_id
 _symmetry_equiv_pos_as_xyz
  1  'x, y, z'
loop_
 _atom_site_type_symbol
 _atom_site_label
 _atom_site_symmetry_multiplicity
 _atom_site_fract_x
 _atom_site_fract_y
 _atom_site_fract_z
 _atom_site_occupancy
  Mg  Mg0  1  0.19581790  0.60836420  0.75000000  1
  Ti  Ti1  1  0.86840495  0.26319009  0.93140542  1
  Ti  Ti2  1  0.13428438  0.73143123  0.06582193  1
  Ti  Ti3  1  0.86840495  0.26319009  0.56859458  1
  Ti  Ti4  1  0.13428438  0.73143123  0.43417807  1
  Fe  Fe5  1  0.80754951  0.38490098  0.25000000  1
  O  O6  1  0.95509866  0.08980268  0.38923357  1
  O  O7  1  0.04590134  0.90819731  0.61391025  1
  O  O8  1  0.95509866  0.08980268  0.11076643  1
  O  O9  1  0.04590134  0.90819731  0.88608975  1
  O  O10  1  0.68534676  0.62930649  0.44172664  1
  O  O11  1  0.31398413  0.37203174  0.56230071  1
  O  O12  1  0.68534676  0.62930649  0.05827336  1
  O  O13  1  0.31398413  0.37203174  0.93769929  1
  O  O14  1  0.20656934  0.58686131  0.25000000  1
  O  O15  1  0.78402279  0.43195441  0.75000000  1
