# generated using pymatgen
data_LaUTe6
_symmetry_space_group_name_H-M   'P 1'
_cell_length_a   4.41496227
_cell_length_b   4.42417565
_cell_length_c   13.11803786
_cell_angle_alpha   90.00000000
_cell_angle_beta   80.31226906
_cell_angle_gamma   90.00000000
_symmetry_Int_Tables_number   1
_chemical_formula_structural   LaUTe6
_chemical_formula_sum   'La1 U1 Te6'
_cell_volume   252.57502735
_cell_formula_units_Z   1
loop_
 _symmetry_equiv_pos_site_id
 _symmetry_equiv_pos_as_xyz
  1  'x, y, z'
loop_
 _atom_site_type_symbol
 _atom_site_label
 _atom_site_symmetry_multiplicity
 _atom_site_fract_x
 _atom_site_fract_y
 _atom_site_fract_z
 _atom_site_occupancy
  La  La0  1  0.16873772  0.25000000  0.66252457  1
  U  U1  1  0.83434029  0.75000000  0.33131942  1
  Te  Te2  1  0.42407794  0.75000000  0.15184413  1
  Te  Te3  1  0.56991859  0.25000000  0.86016283  1
  Te  Te4  1  0.70900106  0.75000000  0.58199788  1
  Te  Te5  1  0.30008188  0.25000000  0.39983624  1
  Te  Te6  1  0.06967007  0.75000000  0.86065986  1
  Te  Te7  1  0.92417246  0.25000000  0.15165507  1
