# generated using pymatgen
data_Mg3Al8Fe(Si5O18)2
_symmetry_space_group_name_H-M   'P 1'
_cell_length_a   9.43981038
_cell_length_b   9.85219764
_cell_length_c   9.96782002
_cell_angle_alpha   60.38295234
_cell_angle_beta   89.98514645
_cell_angle_gamma   89.97005354
_symmetry_Int_Tables_number   1
_chemical_formula_structural   Mg3Al8Fe(Si5O18)2
_chemical_formula_sum   'Mg3 Al8 Fe1 Si10 O36'
_cell_volume   805.91666468
_cell_formula_units_Z   1
loop_
 _symmetry_equiv_pos_site_id
 _symmetry_equiv_pos_as_xyz
  1  'x, y, z'
loop_
 _atom_site_type_symbol
 _atom_site_label
 _atom_site_symmetry_multiplicity
 _atom_site_fract_x
 _atom_site_fract_y
 _atom_site_fract_z
 _atom_site_occupancy
  Mg  Mg0  1  0.25000038  0.66252666  0.67494554  1
  Mg  Mg1  1  0.24999937  0.33749791  0.32500565  1
  Mg  Mg2  1  0.74999981  0.33746935  0.32506280  1
  Al  Al3  1  0.49988290  0.64214988  0.10022431  1
  Al  Al4  1  0.49948525  0.35742799  0.89991274  1
  Al  Al5  1  0.00051453  0.74265860  0.89991313  1
  Al  Al6  1  0.00011682  0.25762550  0.10022456  1
  Al  Al7  1  0.25002753  0.50008413  0.49987891  1
  Al  Al8  1  0.24997226  0.00003650  0.49987905  1
  Al  Al9  1  0.74987253  0.49985433  0.49929757  1
  Al  Al10  1  0.75012727  0.00084784  0.49929751  1
  Fe  Fe11  1  0.75000467  0.66176980  0.67647517  1
  Si  Si12  1  0.24999991  0.49997086  0.00005788  1
  Si  Si13  1  0.75000012  0.49936430  0.00127077  1
  Si  Si14  1  0.49998155  0.10120482  0.27039545  1
  Si  Si15  1  0.49947365  0.89899985  0.72981492  1
  Si  Si16  1  0.00052582  0.37118486  0.72981511  1
  Si  Si17  1  0.00001828  0.62840007  0.27039583  1
  Si  Si18  1  0.49947533  0.72962600  0.38287427  1
  Si  Si19  1  0.50002462  0.27066424  0.61648549  1
  Si  Si20  1  0.99997498  0.11285060  0.61648520  1
  Si  Si21  1  0.00052469  0.88749978  0.38287375  1
  O  O22  1  0.49956977  0.69334747  0.24295001  1
  O  O23  1  0.50001872  0.30677165  0.75663634  1
  O  O24  1  0.99998110  0.93659284  0.75663607  1
  O  O25  1  0.00043003  0.06370127  0.24295000  1
  O  O26  1  0.14174071  0.85651490  0.49321295  1
  O  O27  1  0.14159672  0.14346798  0.50677255  1
  O  O28  1  0.35840296  0.34976003  0.50677178  1
  O  O29  1  0.35825961  0.65027231  0.49321234  1
  O  O30  1  0.85844503  0.14370828  0.50676782  1
  O  O31  1  0.85851174  0.85961365  0.49033215  1
  O  O32  1  0.64148805  0.65005366  0.49033209  1
  O  O33  1  0.64155420  0.34952389  0.50676724  1
  O  O34  1  0.49993104  0.91448646  0.32794533  1
  O  O35  1  0.49992179  0.08564289  0.67212624  1
  O  O36  1  0.00007782  0.24223091  0.67212604  1
  O  O37  1  0.00006847  0.75756712  0.32794552  1
  O  O38  1  0.14198648  0.48284697  0.65293175  1
  O  O39  1  0.14197039  0.51710240  0.34708812  1
  O  O40  1  0.35803004  0.13580806  0.34708783  1
  O  O41  1  0.35801288  0.86422167  0.65293182  1
  O  O42  1  0.85823986  0.51707339  0.34689292  1
  O  O43  1  0.85796500  0.48120380  0.65263359  1
  O  O44  1  0.64203522  0.86616265  0.65263396  1
  O  O45  1  0.64175972  0.13603276  0.34689337  1
  O  O46  1  0.49989627  0.20528688  0.08771768  1
  O  O47  1  0.50004462  0.79450815  0.91237110  1
  O  O48  1  0.99995563  0.29312034  0.91237090  1
  O  O49  1  0.00010305  0.70699507  0.08771738  1
  O  O50  1  0.15121030  0.35376405  0.12437905  1
  O  O51  1  0.15127404  0.64632344  0.87553421  1
  O  O52  1  0.34872548  0.47814211  0.87553363  1
  O  O53  1  0.34878983  0.52185626  0.12437950  1
  O  O54  1  0.84905851  0.64586014  0.87856089  1
  O  O55  1  0.84901946  0.35336503  0.12485529  1
  O  O56  1  0.65098164  0.52177877  0.12485567  1
  O  O57  1  0.65094158  0.47557885  0.87856125  1
