# generated using pymatgen
data_SnH18C6Br3N
_symmetry_space_group_name_H-M   'P 1'
_cell_length_a   6.59160826
_cell_length_b   12.04673796
_cell_length_c   19.24545480
_cell_angle_alpha   90.00000000
_cell_angle_beta   90.00000000
_cell_angle_gamma   90.00000000
_symmetry_Int_Tables_number   1
_chemical_formula_structural   SnH18C6Br3N
_chemical_formula_sum   'Sn4 H72 C24 Br12 N4'
_cell_volume   1528.23109337
_cell_formula_units_Z   4
loop_
 _symmetry_equiv_pos_site_id
 _symmetry_equiv_pos_as_xyz
  1  'x, y, z'
loop_
 _atom_site_type_symbol
 _atom_site_label
 _atom_site_symmetry_multiplicity
 _atom_site_fract_x
 _atom_site_fract_y
 _atom_site_fract_z
 _atom_site_occupancy
  Sn  Sn0  1  0.58146634  0.99951977  0.75000000  1
  Sn  Sn1  1  0.41853366  0.49951977  0.75000000  1
  Sn  Sn2  1  0.58146634  0.50048023  0.25000000  1
  Sn  Sn3  1  0.41853366  0.00048023  0.25000000  1
  H  H4  1  0.66702650  0.71697037  0.25000000  1
  H  H5  1  0.78678812  0.73857306  0.91979382  1
  H  H6  1  0.77365931  0.27504515  0.92070527  1
  H  H7  1  0.96004577  0.11656032  0.42911058  1
  H  H8  1  0.78360701  0.92943708  0.20316486  1
  H  H9  1  0.02752538  0.12867733  0.57894578  1
  H  H10  1  0.02752538  0.37132267  0.07894578  1
  H  H11  1  0.75973552  0.37113935  0.99221577  1
  H  H12  1  0.77143516  0.63153961  0.51539017  1
  H  H13  1  0.96004577  0.38343968  0.57088942  1
  H  H14  1  0.97247462  0.62867733  0.92105422  1
  H  H15  1  0.86361285  0.64564851  0.29705599  1
  H  H16  1  0.75973552  0.12886065  0.00778423  1
  H  H17  1  0.03995423  0.61656032  0.07088942  1
  H  H18  1  0.24026448  0.87113935  0.99221577  1
  H  H19  1  0.24026448  0.87113935  0.50778423  1
  H  H20  1  0.77365931  0.22495485  0.07929473  1
  H  H21  1  0.75973552  0.12886065  0.49221577  1
  H  H22  1  0.22634069  0.72495485  0.07929473  1
  H  H23  1  0.97247462  0.62867733  0.57894578  1
  H  H24  1  0.96004577  0.38343968  0.92911058  1
  H  H25  1  0.77143516  0.63153961  0.98460983  1
  H  H26  1  0.13638715  0.14564851  0.29705599  1
  H  H27  1  0.18803851  0.55756022  0.25000000  1
  H  H28  1  0.03995423  0.61656032  0.42911058  1
  H  H29  1  0.18803851  0.94243978  0.75000000  1
  H  H30  1  0.86361285  0.64564851  0.20294401  1
  H  H31  1  0.02752538  0.37132267  0.42105422  1
  H  H32  1  0.78678812  0.76142694  0.08020618  1
  H  H33  1  0.81196149  0.44243978  0.75000000  1
  H  H34  1  0.78678812  0.73857306  0.58020618  1
  H  H35  1  0.33297350  0.21697037  0.25000000  1
  H  H36  1  0.78360701  0.92943708  0.29683514  1
  H  H37  1  0.77365931  0.22495485  0.42070527  1
  H  H38  1  0.78360701  0.57056292  0.70316486  1
  H  H39  1  0.33297350  0.28302963  0.75000000  1
  H  H40  1  0.13638715  0.14564851  0.20294401  1
  H  H41  1  0.21321188  0.23857306  0.91979382  1
  H  H42  1  0.21639299  0.07056292  0.70316486  1
  H  H43  1  0.66702650  0.78302963  0.75000000  1
  H  H44  1  0.21321188  0.26142694  0.41979382  1
  H  H45  1  0.03995423  0.88343968  0.92911058  1
  H  H46  1  0.13638715  0.35435149  0.70294401  1
  H  H47  1  0.86361285  0.85435149  0.79705599  1
  H  H48  1  0.97247462  0.87132267  0.07894578  1
  H  H49  1  0.22634069  0.77504515  0.57929473  1
  H  H50  1  0.22856484  0.13153961  0.51539017  1
  H  H51  1  0.22856484  0.13153961  0.98460983  1
  H  H52  1  0.22634069  0.77504515  0.92070527  1
  H  H53  1  0.86361285  0.85435149  0.70294401  1
  H  H54  1  0.13638715  0.35435149  0.79705599  1
  H  H55  1  0.03995423  0.88343968  0.57088942  1
  H  H56  1  0.75973552  0.37113935  0.50778423  1
  H  H57  1  0.21639299  0.42943708  0.20316486  1
  H  H58  1  0.21639299  0.42943708  0.29683514  1
  H  H59  1  0.22634069  0.72495485  0.42070527  1
  H  H60  1  0.81196149  0.05756022  0.25000000  1
  H  H61  1  0.22856484  0.36846039  0.48460983  1
  H  H62  1  0.21639299  0.07056292  0.79683514  1
  H  H63  1  0.21321188  0.23857306  0.58020618  1
  H  H64  1  0.78678812  0.76142694  0.41979382  1
  H  H65  1  0.02752538  0.12867733  0.92105422  1
  H  H66  1  0.96004577  0.11656032  0.07088942  1
  H  H67  1  0.78360701  0.57056292  0.79683514  1
  H  H68  1  0.77143516  0.86846039  0.48460983  1
  H  H69  1  0.24026448  0.62886065  0.00778423  1
  H  H70  1  0.22856484  0.36846039  0.01539017  1
  H  H71  1  0.24026448  0.62886065  0.49221577  1
  H  H72  1  0.77143516  0.86846039  0.01539017  1
  H  H73  1  0.21321188  0.26142694  0.08020618  1
  H  H74  1  0.97247462  0.87132267  0.42105422  1
  H  H75  1  0.77365931  0.27504515  0.57929473  1
  C  C76  1  0.77080142  0.64577185  0.25000000  1
  C  C77  1  0.74106738  0.97527468  0.25000000  1
  C  C78  1  0.13855173  0.67441815  0.04271288  1
  C  C79  1  0.87425234  0.68186128  0.54723493  1
  C  C80  1  0.87425234  0.68186128  0.95276507  1
  C  C81  1  0.13855173  0.82558185  0.95728712  1
  C  C82  1  0.12574766  0.31813872  0.45276507  1
  C  C83  1  0.87425234  0.81813872  0.45276507  1
  C  C84  1  0.87425234  0.81813872  0.04723493  1
  C  C85  1  0.12574766  0.31813872  0.04723493  1
  C  C86  1  0.12574766  0.18186128  0.54723493  1
  C  C87  1  0.22919858  0.35422815  0.75000000  1
  C  C88  1  0.74106738  0.52472532  0.75000000  1
  C  C89  1  0.77080142  0.85422815  0.75000000  1
  C  C90  1  0.86144827  0.32558185  0.95728712  1
  C  C91  1  0.13855173  0.82558185  0.54271288  1
  C  C92  1  0.86144827  0.17441815  0.45728712  1
  C  C93  1  0.13855173  0.67441815  0.45728712  1
  C  C94  1  0.25893262  0.47527468  0.25000000  1
  C  C95  1  0.25893262  0.02472532  0.75000000  1
  C  C96  1  0.86144827  0.17441815  0.04271288  1
  C  C97  1  0.86144827  0.32558185  0.54271288  1
  C  C98  1  0.22919858  0.14577185  0.25000000  1
  C  C99  1  0.12574766  0.18186128  0.95276507  1
  Br  Br100  1  0.59245550  0.99652021  0.89509732  1
  Br  Br101  1  0.76280581  0.31181587  0.25000000  1
  Br  Br102  1  0.59245550  0.50347979  0.10490268  1
  Br  Br103  1  0.40754450  0.00347979  0.10490268  1
  Br  Br104  1  0.59245550  0.50347979  0.39509732  1
  Br  Br105  1  0.59245550  0.99652021  0.60490268  1
  Br  Br106  1  0.76280581  0.18818413  0.75000000  1
  Br  Br107  1  0.40754450  0.00347979  0.39509732  1
  Br  Br108  1  0.40754450  0.49652021  0.60490268  1
  Br  Br109  1  0.23719419  0.68818413  0.75000000  1
  Br  Br110  1  0.40754450  0.49652021  0.89509732  1
  Br  Br111  1  0.23719419  0.81181587  0.25000000  1
  N  N112  1  0.99353308  0.25000000  0.00000000  1
  N  N113  1  0.00646692  0.75000000  0.50000000  1
  N  N114  1  0.00646692  0.75000000  0.00000000  1
  N  N115  1  0.99353308  0.25000000  0.50000000  1
