# generated using pymatgen
data_MgCr8Fe3O16
_symmetry_space_group_name_H-M   'P 1'
_cell_length_a   6.05259599
_cell_length_b   8.51046942
_cell_length_c   6.05259599
_cell_angle_alpha   90.00000000
_cell_angle_beta   90.00000000
_cell_angle_gamma   90.00000000
_symmetry_Int_Tables_number   1
_chemical_formula_structural   MgCr8Fe3O16
_chemical_formula_sum   'Mg1 Cr8 Fe3 O16'
_cell_volume   311.77184098
_cell_formula_units_Z   1
loop_
 _symmetry_equiv_pos_site_id
 _symmetry_equiv_pos_as_xyz
  1  'x, y, z'
loop_
 _atom_site_type_symbol
 _atom_site_label
 _atom_site_symmetry_multiplicity
 _atom_site_fract_x
 _atom_site_fract_y
 _atom_site_fract_z
 _atom_site_occupancy
  Mg  Mg0  1  0.25000000  0.12500000  -0.00000000  1
  Cr  Cr1  1  0.75000000  0.24981688  0.75092355  1
  Cr  Cr2  1  0.25000000  0.75029957  0.24981807  1
  Cr  Cr3  1  0.75000000  0.24981688  0.24907645  1
  Cr  Cr4  1  0.25000000  0.75029957  0.75018193  1
  Cr  Cr5  1  0.49981807  0.49970043  0.00000000  1
  Cr  Cr6  1  0.00092355  0.00018312  0.50000000  1
  Cr  Cr7  1  0.00018193  0.49970043  0.00000000  1
  Cr  Cr8  1  0.49907645  0.00018312  0.50000000  1
  Fe  Fe9  1  0.75000000  0.62500000  0.50000000  1
  Fe  Fe10  1  0.75000000  0.87504558  -0.00000000  1
  Fe  Fe11  1  0.25000000  0.37495442  0.50000000  1
  O  O12  1  0.75000000  0.48734370  0.22359861  1
  O  O13  1  0.25000000  0.98903437  0.72734405  1
  O  O14  1  0.75000000  0.48734370  0.77640139  1
  O  O15  1  0.25000000  0.98903437  0.27265595  1
  O  O16  1  0.97734405  0.26096563  0.00000000  1
  O  O17  1  0.47359861  0.76265630  0.50000000  1
  O  O18  1  0.52265595  0.26096563  -0.00000000  1
  O  O19  1  0.02640139  0.76265630  0.50000000  1
  O  O20  1  0.25000000  0.51210219  0.77660335  1
  O  O21  1  0.75000000  0.01183474  0.27676308  1
  O  O22  1  0.25000000  0.51210219  0.22339665  1
  O  O23  1  0.75000000  0.01183474  0.72323692  1
  O  O24  1  0.02660335  0.73789781  -0.00000000  1
  O  O25  1  0.52676308  0.23816526  0.50000000  1
  O  O26  1  0.47339665  0.73789781  0.00000000  1
  O  O27  1  0.97323692  0.23816526  0.50000000  1
