# generated using pymatgen
data_Li2MgTi9O20
_symmetry_space_group_name_H-M   'P 1'
_cell_length_a   5.24182516
_cell_length_b   7.47373222
_cell_length_c   10.07570274
_cell_angle_alpha   90.00000000
_cell_angle_beta   90.00000000
_cell_angle_gamma   70.05821816
_symmetry_Int_Tables_number   1
_chemical_formula_structural   Li2MgTi9O20
_chemical_formula_sum   'Li2 Mg1 Ti9 O20'
_cell_volume   371.05781924
_cell_formula_units_Z   1
loop_
 _symmetry_equiv_pos_site_id
 _symmetry_equiv_pos_as_xyz
  1  'x, y, z'
loop_
 _atom_site_type_symbol
 _atom_site_label
 _atom_site_symmetry_multiplicity
 _atom_site_fract_x
 _atom_site_fract_y
 _atom_site_fract_z
 _atom_site_occupancy
  Li  Li0  1  0.78704493  0.59910718  0.75000000  1
  Li  Li1  1  0.71585124  0.90491670  0.25000000  1
  Mg  Mg2  1  0.29911325  0.09611553  0.75000000  1
  Ti  Ti3  1  0.19770247  0.06085339  0.06546533  1
  Ti  Ti4  1  0.69489951  0.57271309  0.05997029  1
  Ti  Ti5  1  0.80025185  0.93214662  0.93199137  1
  Ti  Ti6  1  0.29252807  0.43173410  0.92900417  1
  Ti  Ti7  1  0.19770247  0.06085339  0.43453467  1
  Ti  Ti8  1  0.69489951  0.57271309  0.44002971  1
  Ti  Ti9  1  0.80025185  0.93214662  0.56800863  1
  Ti  Ti10  1  0.29252807  0.43173410  0.57099583  1
  Ti  Ti11  1  0.20267189  0.40205387  0.25000000  1
  O  O12  1  0.68398386  0.89564205  0.75000000  1
  O  O13  1  0.18231634  0.39187861  0.75000000  1
  O  O14  1  0.31796098  0.13010680  0.25000000  1
  O  O15  1  0.85116770  0.59248315  0.25000000  1
  O  O16  1  0.47141761  0.15654181  0.93863490  1
  O  O17  1  0.97124158  0.65699684  0.94656650  1
  O  O18  1  0.52212683  0.83945303  0.06453596  1
  O  O19  1  0.03496576  0.34526765  0.06663886  1
  O  O20  1  0.47141761  0.15654181  0.56136510  1
  O  O21  1  0.97124158  0.65699684  0.55343350  1
  O  O22  1  0.52212683  0.83945303  0.43546404  1
  O  O23  1  0.03496576  0.34526765  0.43336114  1
  O  O24  1  0.06993523  0.02509009  0.88650023  1
  O  O25  1  0.56777429  0.52061775  0.89145912  1
  O  O26  1  0.93164823  0.97724284  0.11267629  1
  O  O27  1  0.42545347  0.47519085  0.12186984  1
  O  O28  1  0.06993523  0.02509009  0.61349977  1
  O  O29  1  0.56777429  0.52061775  0.60854088  1
  O  O30  1  0.93164823  0.97724284  0.38732371  1
  O  O31  1  0.42545347  0.47519085  0.37813016  1
