# generated using pymatgen
data_Li4GeS4
_symmetry_space_group_name_H-M   'P 1'
_cell_length_a   6.19128223
_cell_length_b   7.81331980
_cell_length_c   14.16790033
_cell_angle_alpha   90.00000000
_cell_angle_beta   90.00000000
_cell_angle_gamma   90.00000000
_symmetry_Int_Tables_number   1
_chemical_formula_structural   Li4GeS4
_chemical_formula_sum   'Li16 Ge4 S16'
_cell_volume   685.36464164
_cell_formula_units_Z   4
loop_
 _symmetry_equiv_pos_site_id
 _symmetry_equiv_pos_as_xyz
  1  'x, y, z'
loop_
 _atom_site_type_symbol
 _atom_site_label
 _atom_site_symmetry_multiplicity
 _atom_site_fract_x
 _atom_site_fract_y
 _atom_site_fract_z
 _atom_site_occupancy
  Li  Li0  1  0.19016726  0.49975534  0.82357406  1
  Li  Li1  1  0.30983274  0.00024466  0.32357406  1
  Li  Li2  1  0.80983274  0.99975534  0.17642594  1
  Li  Li3  1  0.69016726  0.50024466  0.67642594  1
  Li  Li4  1  0.80864178  0.49984557  0.17803850  1
  Li  Li5  1  0.69135822  0.00015443  0.67803850  1
  Li  Li6  1  0.19135822  0.99984557  0.82196150  1
  Li  Li7  1  0.30864178  0.50015443  0.32196150  1
  Li  Li8  1  0.37138962  0.25122548  0.08758935  1
  Li  Li9  1  0.12861038  0.24877452  0.58758935  1
  Li  Li10  1  0.62861038  0.75122548  0.91241065  1
  Li  Li11  1  0.87138962  0.74877452  0.41241065  1
  Li  Li12  1  0.02308042  0.01460649  0.99818399  1
  Li  Li13  1  0.47691958  0.48539351  0.49818399  1
  Li  Li14  1  0.97691958  0.51460649  0.00181601  1
  Li  Li15  1  0.52308042  0.98539351  0.50181601  1
  Ge  Ge16  1  0.64900025  0.24904708  0.91087243  1
  Ge  Ge17  1  0.85099975  0.25095292  0.41087243  1
  Ge  Ge18  1  0.35099975  0.74904708  0.08912757  1
  Ge  Ge19  1  0.14900025  0.75095292  0.58912757  1
  S  S20  1  0.76983216  0.25055359  0.06173298  1
  S  S21  1  0.73016784  0.24944641  0.56173298  1
  S  S22  1  0.23016784  0.75055359  0.93826702  1
  S  S23  1  0.26983216  0.74944641  0.43826702  1
  S  S24  1  0.28910410  0.24945672  0.91422779  1
  S  S25  1  0.21089590  0.25054328  0.41422779  1
  S  S26  1  0.71089590  0.74945672  0.08577221  1
  S  S27  1  0.78910410  0.75054328  0.58577221  1
  S  S28  1  0.78309782  0.01390757  0.84363174  1
  S  S29  1  0.71690218  0.48609243  0.34363174  1
  S  S30  1  0.21690218  0.51390757  0.15636826  1
  S  S31  1  0.28309782  0.98609243  0.65636826  1
  S  S32  1  0.21997620  0.98593581  0.15639161  1
  S  S33  1  0.28002380  0.51406419  0.65639161  1
  S  S34  1  0.78002380  0.48593581  0.84360839  1
  S  S35  1  0.71997620  0.01406419  0.34360839  1
