# generated using pymatgen
data_LiAl(SiO3)2
_symmetry_space_group_name_H-M   'P 1'
_cell_length_a   5.30045513
_cell_length_b   5.27044935
_cell_length_c   5.54064549
_cell_angle_alpha   90.00000000
_cell_angle_beta   90.00000000
_cell_angle_gamma   59.81149059
_symmetry_Int_Tables_number   1
_chemical_formula_structural   LiAl(SiO3)2
_chemical_formula_sum   'Li1 Al1 Si2 O6'
_cell_volume   133.79001447
_cell_formula_units_Z   1
loop_
 _symmetry_equiv_pos_site_id
 _symmetry_equiv_pos_as_xyz
  1  'x, y, z'
loop_
 _atom_site_type_symbol
 _atom_site_label
 _atom_site_symmetry_multiplicity
 _atom_site_fract_x
 _atom_site_fract_y
 _atom_site_fract_z
 _atom_site_occupancy
  Li  Li0  1  0.00000000  -0.00000000  0.66666700  1
  Al  Al1  1  0.50000000  -0.00000000  0.66666700  1
  Si  Si2  1  0.00000000  0.50000000  0.99931737  1
  Si  Si3  1  0.50000000  0.50000000  0.33401563  1
  O  O4  1  0.22721966  0.54556068  0.16666700  1
  O  O5  1  0.61539314  0.20820277  0.50138542  1
  O  O6  1  0.17640409  0.20820277  0.83194758  1
  O  O7  1  0.77278034  0.45443932  0.16666700  1
  O  O8  1  0.38460686  0.79179723  0.50138542  1
  O  O9  1  0.82359591  0.79179723  0.83194758  1
