# generated using pymatgen
data_K4MoWO8
_symmetry_space_group_name_H-M   'P 1'
_cell_length_a   6.23632014
_cell_length_b   7.01721873
_cell_length_c   7.70152177
_cell_angle_alpha   112.86351142
_cell_angle_beta   90.00000000
_cell_angle_gamma   63.61770348
_symmetry_Int_Tables_number   1
_chemical_formula_structural   K4MoWO8
_chemical_formula_sum   'K4 Mo1 W1 O8'
_cell_volume   272.05412600
_cell_formula_units_Z   1
loop_
 _symmetry_equiv_pos_site_id
 _symmetry_equiv_pos_as_xyz
  1  'x, y, z'
loop_
 _atom_site_type_symbol
 _atom_site_label
 _atom_site_symmetry_multiplicity
 _atom_site_fract_x
 _atom_site_fract_y
 _atom_site_fract_z
 _atom_site_occupancy
  K  K0  1  0.15525800  0.68948401  0.25300022  1
  K  K1  1  0.84458626  0.31082747  0.74617609  1
  K  K2  1  0.49131453  0.01737094  0.23294194  1
  K  K3  1  0.50879296  0.98241409  0.76747374  1
  Mo  Mo4  1  0.17605663  0.64788674  0.76939328  1
  W  W5  1  0.82400311  0.35199377  0.23093823  1
  O  O6  1  0.61593761  0.28851112  0.08247088  1
  O  O7  1  0.09555128  0.28851112  0.08247088  1
  O  O8  1  0.38214830  0.71083671  0.91624631  1
  O  O9  1  0.90701500  0.71083671  0.91624631  1
  O  O10  1  0.66627353  0.66745294  0.38973616  1
  O  O11  1  0.33192578  0.33614844  0.61122851  1
  O  O12  1  0.91407231  0.17185538  0.36330337  1
  O  O13  1  0.08706471  0.82587057  0.63837409  1
