# generated using pymatgen
data_Na3MoH6(CO2)6
_symmetry_space_group_name_H-M   'P 1'
_cell_length_a   6.52514418
_cell_length_b   14.17940679
_cell_length_c   14.83975697
_cell_angle_alpha   90.00000000
_cell_angle_beta   90.00000000
_cell_angle_gamma   90.00000000
_symmetry_Int_Tables_number   1
_chemical_formula_structural   Na3MoH6(CO2)6
_chemical_formula_sum   'Na12 Mo4 H24 C24 O48'
_cell_volume   1373.01399180
_cell_formula_units_Z   4
loop_
 _symmetry_equiv_pos_site_id
 _symmetry_equiv_pos_as_xyz
  1  'x, y, z'
loop_
 _atom_site_type_symbol
 _atom_site_label
 _atom_site_symmetry_multiplicity
 _atom_site_fract_x
 _atom_site_fract_y
 _atom_site_fract_z
 _atom_site_occupancy
  Na  Na0  1  0.22681762  0.72064220  -0.00031613  1
  Na  Na1  1  0.22681762  0.22064220  0.50031613  1
  Na  Na2  1  0.27318238  0.22064220  -0.00031613  1
  Na  Na3  1  0.77318238  0.27935780  1.00031613  1
  Na  Na4  1  0.75000000  0.42337306  0.25000000  1
  Na  Na5  1  0.27318238  0.72064220  0.50031613  1
  Na  Na6  1  0.72681762  0.27935780  0.49968387  1
  Na  Na7  1  0.25000000  0.57662694  0.75000000  1
  Na  Na8  1  0.75000000  0.92337306  0.25000000  1
  Na  Na9  1  0.77318238  0.77935780  0.49968387  1
  Na  Na10  1  0.25000000  0.07662694  0.75000000  1
  Na  Na11  1  0.72681762  0.77935780  1.00031613  1
  Mo  Mo12  1  0.25000000  0.56359928  0.25000000  1
  Mo  Mo13  1  0.25000000  0.06359928  0.25000000  1
  Mo  Mo14  1  0.75000000  0.93640072  0.75000000  1
  Mo  Mo15  1  0.75000000  0.43640072  0.75000000  1
  H  H16  1  0.32421912  0.42598621  0.08692698  1
  H  H17  1  0.27021561  0.42973246  0.59129744  1
  H  H18  1  0.32421912  0.92598621  0.41307302  1
  H  H19  1  0.99868757  0.24533362  0.22608901  1
  H  H20  1  0.17578088  0.42598621  0.41307302  1
  H  H21  1  0.77021561  0.57026754  0.09129744  1
  H  H22  1  0.50131243  0.24533362  0.27391099  1
  H  H23  1  0.49868757  0.75466638  0.72608901  1
  H  H24  1  0.72978439  0.57026754  0.40870256  1
  H  H25  1  0.22978439  0.92973246  0.59129744  1
  H  H26  1  0.00131243  0.75466638  0.77391099  1
  H  H27  1  0.72978439  0.07026754  0.09129744  1
  H  H28  1  0.67578088  0.07401379  0.58692698  1
  H  H29  1  0.82421912  0.57401379  0.58692698  1
  H  H30  1  0.77021561  0.07026754  0.40870256  1
  H  H31  1  0.67578088  0.57401379  0.91307302  1
  H  H32  1  0.49868757  0.25466638  0.77391099  1
  H  H33  1  0.00131243  0.25466638  0.72608901  1
  H  H34  1  0.17578088  0.92598621  0.08692698  1
  H  H35  1  0.27021561  0.92973246  0.90870256  1
  H  H36  1  0.50131243  0.74533362  0.22608901  1
  H  H37  1  0.82421912  0.07401379  0.91307302  1
  H  H38  1  0.22978439  0.42973246  0.90870256  1
  H  H39  1  0.99868757  0.74533362  0.27391099  1
  C  C40  1  0.50141329  0.73852133  0.30068484  1
  C  C41  1  0.60860078  0.08919571  0.39410615  1
  C  C42  1  0.10860078  0.91080429  0.89410615  1
  C  C43  1  0.00141329  0.76147867  0.69931516  1
  C  C44  1  0.99858671  0.23852133  0.30068484  1
  C  C45  1  0.33836156  0.41216272  0.39611783  1
  C  C46  1  0.16163844  0.91216272  0.39611783  1
  C  C47  1  0.33836156  0.91216272  0.10388217  1
  C  C48  1  0.83836156  0.08783728  0.60388217  1
  C  C49  1  0.00141329  0.26147867  0.80068484  1
  C  C50  1  0.66163844  0.08783728  0.89611783  1
  C  C51  1  0.39139922  0.41080429  0.89410615  1
  C  C52  1  0.60860078  0.58919571  0.10589385  1
  C  C53  1  0.83836156  0.58783728  0.89611783  1
  C  C54  1  0.66163844  0.58783728  0.60388217  1
  C  C55  1  0.89139922  0.08919571  0.10589385  1
  C  C56  1  0.49858671  0.76147867  0.80068484  1
  C  C57  1  0.49858671  0.26147867  0.69931516  1
  C  C58  1  0.89139922  0.58919571  0.39410615  1
  C  C59  1  0.39139922  0.91080429  0.60589385  1
  C  C60  1  0.16163844  0.41216272  0.10388217  1
  C  C61  1  0.10860078  0.41080429  0.60589385  1
  C  C62  1  0.50141329  0.23852133  0.19931516  1
  C  C63  1  0.99858671  0.73852133  0.19931516  1
  O  O64  1  0.89519449  0.79515929  0.15340828  1
  O  O65  1  0.06280010  0.85428336  0.44207032  1
  O  O66  1  0.56280010  0.14571664  0.94207032  1
  O  O67  1  0.60936980  0.82872321  0.83405258  1
  O  O68  1  0.39519449  0.70484071  0.84659172  1
  O  O69  1  0.41217709  0.45759447  0.32774143  1
  O  O70  1  0.41217709  0.95759447  0.17225857  1
  O  O71  1  0.06280010  0.35428336  0.05792968  1
  O  O72  1  0.10480551  0.20484071  0.84659172  1
  O  O73  1  0.98374289  0.14471695  0.05516634  1
  O  O74  1  0.03646421  0.45085716  0.67755327  1
  O  O75  1  0.58782291  0.54240553  0.67225857  1
  O  O76  1  0.48374289  0.35528305  0.94483366  1
  O  O77  1  0.96353579  0.54914284  0.32244673  1
  O  O78  1  0.51625711  0.64471695  0.05516634  1
  O  O79  1  0.39063020  0.17127679  0.16594742  1
  O  O80  1  0.91217709  0.54240553  0.82774143  1
  O  O81  1  0.08782291  0.45759447  0.17225857  1
  O  O82  1  0.39063020  0.67127679  0.33405258  1
  O  O83  1  0.96353579  0.04914284  0.17755327  1
  O  O84  1  0.08782291  0.95759447  0.32774143  1
  O  O85  1  0.10936980  0.17127679  0.33405258  1
  O  O86  1  0.10936980  0.67127679  0.16594742  1
  O  O87  1  0.01625711  0.85528305  0.94483366  1
  O  O88  1  0.51625711  0.14471695  0.44483366  1
  O  O89  1  0.58782291  0.04240553  0.82774143  1
  O  O90  1  0.53646421  0.04914284  0.32244673  1
  O  O91  1  0.98374289  0.64471695  0.44483366  1
  O  O92  1  0.93719990  0.14571664  0.55792968  1
  O  O93  1  0.46353579  0.45085716  0.82244673  1
  O  O94  1  0.43719990  0.85428336  0.05792968  1
  O  O95  1  0.93719990  0.64571664  0.94207032  1
  O  O96  1  0.91217709  0.04240553  0.67225857  1
  O  O97  1  0.89519449  0.29515929  0.34659172  1
  O  O98  1  0.60480551  0.29515929  0.15340828  1
  O  O99  1  0.89063020  0.32872321  0.83405258  1
  O  O100  1  0.46353579  0.95085716  0.67755327  1
  O  O101  1  0.89063020  0.82872321  0.66594742  1
  O  O102  1  0.53646421  0.54914284  0.17755327  1
  O  O103  1  0.10480551  0.70484071  0.65340828  1
  O  O104  1  0.01625711  0.35528305  0.55516634  1
  O  O105  1  0.39519449  0.20484071  0.65340828  1
  O  O106  1  0.60480551  0.79515929  0.34659172  1
  O  O107  1  0.43719990  0.35428336  0.44207032  1
  O  O108  1  0.48374289  0.85528305  0.55516634  1
  O  O109  1  0.60936980  0.32872321  0.66594742  1
  O  O110  1  0.56280010  0.64571664  0.55792968  1
  O  O111  1  0.03646421  0.95085716  0.82244673  1
