# generated using pymatgen
data_K2Al2B2O7
_symmetry_space_group_name_H-M   'P 1'
_cell_length_a   8.60215212
_cell_length_b   8.67489827
_cell_length_c   8.66696045
_cell_angle_alpha   59.96912336
_cell_angle_beta   89.93823344
_cell_angle_gamma   90.00029307
_symmetry_Int_Tables_number   1
_chemical_formula_structural   K2Al2B2O7
_chemical_formula_sum   'K6 Al6 B6 O21'
_cell_volume   559.92957806
_cell_formula_units_Z   3
loop_
 _symmetry_equiv_pos_site_id
 _symmetry_equiv_pos_as_xyz
  1  'x, y, z'
loop_
 _atom_site_type_symbol
 _atom_site_label
 _atom_site_symmetry_multiplicity
 _atom_site_fract_x
 _atom_site_fract_y
 _atom_site_fract_z
 _atom_site_occupancy
  K  K0  1  -0.00000239  0.64027921  0.35855583  1
  K  K1  1  0.00000750  0.99884539  0.64143595  1
  K  K2  1  0.99999710  0.36167617  0.00000522  1
  K  K3  1  0.49999836  0.30738358  0.00000233  1
  K  K4  1  0.50120450  0.69129220  0.30840032  1
  K  K5  1  0.49879100  0.99969046  0.69159806  1
  Al  Al6  1  0.20057103  0.99397484  0.00016906  1
  Al  Al7  1  0.79943126  0.99415505  0.99981840  1
  Al  Al8  1  0.31339435  0.33290590  0.33350983  1
  Al  Al9  1  0.68660462  0.66640456  0.66649498  1
  Al  Al10  1  0.71598283  0.33341632  0.33328237  1
  Al  Al11  1  0.28401766  0.66668492  0.66671996  1
  B  B12  1  0.75262649  0.66436941  0.00169316  1
  B  B13  1  0.75715359  0.33159021  0.66658689  1
  B  B14  1  0.75632538  0.00201889  0.33203880  1
  B  B15  1  0.24366293  0.33405099  0.66797041  1
  B  B16  1  0.24285644  0.99818424  0.33341458  1
  B  B17  1  0.24737394  0.66606897  0.99829968  1
  O  O18  1  0.51479002  0.33311238  0.33296734  1
  O  O19  1  0.48521096  0.66602479  0.66703312  1
  O  O20  1  0.78778436  0.54862577  0.17953486  1
  O  O21  1  0.78775325  0.27138118  0.54846498  1
  O  O22  1  0.78799374  0.18011916  0.27153998  1
  O  O23  1  0.21198120  0.45164448  0.72847135  1
  O  O24  1  0.21225388  0.81984880  0.45154045  1
  O  O25  1  0.21223507  0.72816047  0.82045884  1
  O  O26  1  0.71612681  0.83989793  0.94547969  1
  O  O27  1  0.73178257  0.21086494  0.84464426  1
  O  O28  1  0.72830369  0.94476244  0.21191504  1
  O  O29  1  0.27169953  0.15667263  0.78808448  1
  O  O30  1  0.26821510  0.05551137  0.15535296  1
  O  O31  1  0.28387212  0.78537906  0.05451613  1
  O  O32  1  0.75514534  0.60275197  0.88270610  1
  O  O33  1  0.75339516  0.51219975  0.60465026  1
  O  O34  1  0.75374886  0.88286223  0.51296938  1
  O  O35  1  0.24623516  0.39583395  0.48703383  1
  O  O36  1  0.24662788  0.11685684  0.39534677  1
  O  O37  1  0.24484860  0.48545747  0.11729396  1
  O  O38  1  0.00000014  0.97894109  0.00000038  1
