# generated using pymatgen
data_KBa2(FeAs)6
_symmetry_space_group_name_H-M   'P 1'
_cell_length_a   5.48060851
_cell_length_b   7.10279991
_cell_length_c   8.78494267
_cell_angle_alpha   111.86043643
_cell_angle_beta   108.17569710
_cell_angle_gamma   90.00000000
_symmetry_Int_Tables_number   1
_chemical_formula_structural   KBa2(FeAs)6
_chemical_formula_sum   'K1 Ba2 Fe6 As6'
_cell_volume   298.92341493
_cell_formula_units_Z   1
loop_
 _symmetry_equiv_pos_site_id
 _symmetry_equiv_pos_as_xyz
  1  'x, y, z'
loop_
 _atom_site_type_symbol
 _atom_site_label
 _atom_site_symmetry_multiplicity
 _atom_site_fract_x
 _atom_site_fract_y
 _atom_site_fract_z
 _atom_site_occupancy
  K  K0  1  -0.00000000  -0.00000000  -0.00000000  1
  Ba  Ba1  1  0.66223054  0.99980519  0.32446009  1
  Ba  Ba2  1  0.33776946  0.00019481  0.67553991  1
  Fe  Fe3  1  0.41708990  0.50080320  0.33410747  1
  Fe  Fe4  1  0.08298143  0.49919680  0.66589253  1
  Fe  Fe5  1  0.74959402  0.50000000  -0.00000000  1
  Fe  Fe6  1  0.58291010  0.49919680  0.66589253  1
  Fe  Fe7  1  0.25040598  0.50000000  0.00000000  1
  Fe  Fe8  1  0.91701857  0.50080320  0.33410747  1
  As  As9  1  0.21780865  0.30674777  0.43561729  1
  As  As10  1  0.88306591  0.30429338  0.76613082  1
  As  As11  1  0.55182129  0.30539285  0.10364359  1
  As  As12  1  0.78219135  0.69325223  0.56438271  1
  As  As13  1  0.44817871  0.69460715  0.89635641  1
  As  As14  1  0.11693409  0.69570662  0.23386918  1
