# generated using pymatgen
data_La2Nd(MnSi)6
_symmetry_space_group_name_H-M   'P 1'
_cell_length_a   3.99877990
_cell_length_b   3.99877990
_cell_length_c   16.16685824
_cell_angle_alpha   82.89592001
_cell_angle_beta   82.89592001
_cell_angle_gamma   90.00000000
_symmetry_Int_Tables_number   1
_chemical_formula_structural   La2Nd(MnSi)6
_chemical_formula_sum   'La2 Nd1 Mn6 Si6'
_cell_volume   254.52735787
_cell_formula_units_Z   1
loop_
 _symmetry_equiv_pos_site_id
 _symmetry_equiv_pos_as_xyz
  1  'x, y, z'
loop_
 _atom_site_type_symbol
 _atom_site_label
 _atom_site_symmetry_multiplicity
 _atom_site_fract_x
 _atom_site_fract_y
 _atom_site_fract_z
 _atom_site_occupancy
  La  La0  1  0.33350674  0.33350674  0.33298552  1
  La  La1  1  0.66649326  0.66649326  0.66701448  1
  Nd  Nd2  1  0.00000000  0.00000000  -0.00000000  1
  Mn  Mn3  1  0.91712936  0.41712936  0.16574228  1
  Mn  Mn4  1  0.25000000  0.75000000  0.50000000  1
  Mn  Mn5  1  0.58287064  0.08287064  0.83425772  1
  Mn  Mn6  1  0.41712936  0.91712936  0.16574228  1
  Mn  Mn7  1  0.75000000  0.25000000  0.50000000  1
  Mn  Mn8  1  0.08287064  0.58287064  0.83425772  1
  Si  Si9  1  0.45838396  0.45838396  0.08323209  1
  Si  Si10  1  0.79065492  0.79065492  0.41868917  1
  Si  Si11  1  0.12399721  0.12399721  0.75200658  1
  Si  Si12  1  0.87600279  0.87600279  0.24799342  1
  Si  Si13  1  0.20934508  0.20934508  0.58131083  1
  Si  Si14  1  0.54161604  0.54161604  0.91676791  1
