# generated using pymatgen
data_KMo2P3O13
_symmetry_space_group_name_H-M   'P 1'
_cell_length_a   6.50743749
_cell_length_b   9.90894957
_cell_length_c   19.19996657
_cell_angle_alpha   90.00000000
_cell_angle_beta   90.00000000
_cell_angle_gamma   106.89416211
_symmetry_Int_Tables_number   1
_chemical_formula_structural   KMo2P3O13
_chemical_formula_sum   'K4 Mo8 P12 O52'
_cell_volume   1184.61948038
_cell_formula_units_Z   4
loop_
 _symmetry_equiv_pos_site_id
 _symmetry_equiv_pos_as_xyz
  1  'x, y, z'
loop_
 _atom_site_type_symbol
 _atom_site_label
 _atom_site_symmetry_multiplicity
 _atom_site_fract_x
 _atom_site_fract_y
 _atom_site_fract_z
 _atom_site_occupancy
  K  K0  1  0.54141376  0.36048273  0.33550878  1
  K  K1  1  0.95858624  0.63951727  0.83550878  1
  K  K2  1  0.45858624  0.63951727  0.66449122  1
  K  K3  1  0.04141376  0.36048273  0.16449122  1
  Mo  Mo4  1  0.87997398  0.06003631  0.33893039  1
  Mo  Mo5  1  0.62002602  0.93996369  0.83893039  1
  Mo  Mo6  1  0.12002602  0.93996369  0.66106961  1
  Mo  Mo7  1  0.37997398  0.06003631  0.16106961  1
  Mo  Mo8  1  0.68871139  0.62009395  0.12438607  1
  Mo  Mo9  1  0.81128861  0.37990605  0.62438607  1
  Mo  Mo10  1  0.31128861  0.37990605  0.87561393  1
  Mo  Mo11  1  0.18871139  0.62009395  0.37561393  1
  P  P12  1  0.84031148  0.96615857  0.17371262  1
  P  P13  1  0.65968852  0.03384143  0.67371262  1
  P  P14  1  0.15968852  0.03384143  0.82628738  1
  P  P15  1  0.34031148  0.96615857  0.32628738  1
  P  P16  1  0.76697150  0.29486398  0.90990313  1
  P  P17  1  0.73302850  0.70513602  0.40990313  1
  P  P18  1  0.23302850  0.70513602  0.09009687  1
  P  P19  1  0.26697150  0.29486398  0.59009687  1
  P  P20  1  0.50841955  0.30440727  0.03482418  1
  P  P21  1  0.99158045  0.69559273  0.53482418  1
  P  P22  1  0.49158045  0.69559273  0.96517582  1
  P  P23  1  0.00841955  0.30440727  0.46517582  1
  O  O24  1  0.58534678  0.40880529  0.09466827  1
  O  O25  1  0.91465322  0.59119471  0.59466827  1
  O  O26  1  0.41465322  0.59119471  0.90533173  1
  O  O27  1  0.08534678  0.40880529  0.40533173  1
  O  O28  1  0.91869728  0.15582413  0.43556940  1
  O  O29  1  0.58130272  0.84417587  0.93556940  1
  O  O30  1  0.08130272  0.84417587  0.56443060  1
  O  O31  1  0.41869728  0.15582413  0.06443060  1
  O  O32  1  0.72558837  0.30801931  0.99233117  1
  O  O33  1  0.77441163  0.69198069  0.49233117  1
  O  O34  1  0.27441163  0.69198069  0.00766883  1
  O  O35  1  0.22558837  0.30801931  0.50766883  1
  O  O36  1  0.78819207  0.82929466  0.13126644  1
  O  O37  1  0.71180793  0.17070534  0.63126644  1
  O  O38  1  0.21180793  0.17070534  0.86873356  1
  O  O39  1  0.28819207  0.82929466  0.36873356  1
  O  O40  1  0.18814119  0.05264977  0.34838448  1
  O  O41  1  0.31185881  0.94735023  0.84838448  1
  O  O42  1  0.81185881  0.94735023  0.65161552  1
  O  O43  1  0.68814119  0.05264977  0.15161552  1
  O  O44  1  0.69148042  0.57535941  0.21065041  1
  O  O45  1  0.80851958  0.42464059  0.71065041  1
  O  O46  1  0.30851958  0.42464059  0.78934959  1
  O  O47  1  0.19148042  0.57535941  0.28934959  1
  O  O48  1  0.99735872  0.61744891  0.09991688  1
  O  O49  1  0.50264128  0.38255109  0.59991688  1
  O  O50  1  0.00264128  0.38255109  0.90008312  1
  O  O51  1  0.49735872  0.61744891  0.40008312  1
  O  O52  1  0.94754593  0.21258055  0.28976933  1
  O  O53  1  0.55245407  0.78741945  0.78976933  1
  O  O54  1  0.05245407  0.78741945  0.71023067  1
  O  O55  1  0.44754593  0.21258055  0.21023067  1
  O  O56  1  0.78276200  0.86020153  0.39218013  1
  O  O57  1  0.71723800  0.13979847  0.89218013  1
  O  O58  1  0.21723800  0.13979847  0.60781987  1
  O  O59  1  0.28276200  0.86020153  0.10781987  1
  O  O60  1  0.64725413  0.65663131  0.01493296  1
  O  O61  1  0.85274587  0.34336869  0.51493296  1
  O  O62  1  0.35274587  0.34336869  0.98506704  1
  O  O63  1  0.14725413  0.65663131  0.48506704  1
  O  O64  1  0.37019971  0.62444076  0.12782537  1
  O  O65  1  0.12980029  0.37555924  0.62782537  1
  O  O66  1  0.62980029  0.37555924  0.87217463  1
  O  O67  1  0.87019971  0.62444076  0.37217463  1
  O  O68  1  0.82363485  0.93111361  0.25221596  1
  O  O69  1  0.67636515  0.06888639  0.75221596  1
  O  O70  1  0.17636515  0.06888639  0.74778404  1
  O  O71  1  0.32363485  0.93111361  0.24778404  1
  O  O72  1  0.56629695  0.05996711  0.34700412  1
  O  O73  1  0.93370305  0.94003289  0.84700412  1
  O  O74  1  0.43370305  0.94003289  0.65299588  1
  O  O75  1  0.06629695  0.05996711  0.15299588  1
