# generated using pymatgen
data_KHCO3
_symmetry_space_group_name_H-M   'P 1'
_cell_length_a   3.78055222
_cell_length_b   5.70954173
_cell_length_c   8.08804421
_cell_angle_alpha   70.22272404
_cell_angle_beta   102.61162211
_cell_angle_gamma   90.02040788
_symmetry_Int_Tables_number   1
_chemical_formula_structural   KHCO3
_chemical_formula_sum   'K2 H2 C2 O6'
_cell_volume   159.80605717
_cell_formula_units_Z   2
loop_
 _symmetry_equiv_pos_site_id
 _symmetry_equiv_pos_as_xyz
  1  'x, y, z'
loop_
 _atom_site_type_symbol
 _atom_site_label
 _atom_site_symmetry_multiplicity
 _atom_site_fract_x
 _atom_site_fract_y
 _atom_site_fract_z
 _atom_site_occupancy
  K  K0  1  0.03473194  0.83161109  0.33014432  1
  K  K1  1  0.96526806  0.16838891  0.66985568  1
  H  H2  1  0.48439236  0.29867924  0.03455265  1
  H  H3  1  0.51560764  0.70132076  0.96544735  1
  C  C4  1  0.38355969  0.38851940  0.23788572  1
  C  C5  1  0.61644031  0.61148060  0.76211428  1
  O  O6  1  0.43123725  0.21591011  0.16031161  1
  O  O7  1  0.43442622  0.61643415  0.15617681  1
  O  O8  1  0.56876275  0.78408989  0.83968839  1
  O  O9  1  0.56557378  0.38356585  0.84382319  1
  O  O10  1  0.29103882  0.30467102  0.38718411  1
  O  O11  1  0.70896118  0.69532898  0.61281589  1
