# generated using pymatgen
data_GdY3V4O16
_symmetry_space_group_name_H-M   'P 1'
_cell_length_a   6.03429525
_cell_length_b   6.03429525
_cell_length_c   10.23907810
_cell_angle_alpha   90.00000000
_cell_angle_beta   90.00000000
_cell_angle_gamma   116.07250601
_symmetry_Int_Tables_number   1
_chemical_formula_structural   GdY3V4O16
_chemical_formula_sum   'Gd1 Y3 V4 O16'
_cell_volume   334.89269328
_cell_formula_units_Z   1
loop_
 _symmetry_equiv_pos_site_id
 _symmetry_equiv_pos_as_xyz
  1  'x, y, z'
loop_
 _atom_site_type_symbol
 _atom_site_label
 _atom_site_symmetry_multiplicity
 _atom_site_fract_x
 _atom_site_fract_y
 _atom_site_fract_z
 _atom_site_occupancy
  Gd  Gd0  1  0.75000000  -0.00000000  0.12500000  1
  Y  Y1  1  0.25000000  0.50000000  0.62500000  1
  Y  Y2  1  0.75000000  0.50000000  0.37534485  1
  Y  Y3  1  0.25000000  -0.00000000  0.87465515  1
  V  V4  1  0.25000000  0.00000000  0.37619701  1
  V  V5  1  0.75000000  0.50000000  0.87380299  1
  V  V6  1  0.25000000  0.50000000  0.12500000  1
  V  V7  1  0.75000000  -0.00000000  0.62500000  1
  O  O8  1  0.98363120  0.91686184  0.28348508  1
  O  O9  1  0.48255643  0.41811900  0.78209037  1
  O  O10  1  0.16982407  0.23412566  0.03216448  1
  O  O11  1  0.66814569  0.73322896  0.53251312  1
  O  O12  1  0.98412566  0.41982407  0.21783552  1
  O  O13  1  0.48322896  0.91814569  0.71748688  1
  O  O14  1  0.16811900  0.73255643  0.46790963  1
  O  O15  1  0.66686184  0.23363120  0.96651492  1
  O  O16  1  0.51587434  0.58017593  0.21783552  1
  O  O17  1  0.01677104  0.08185431  0.71748688  1
  O  O18  1  0.33188100  0.26744357  0.46790963  1
  O  O19  1  0.83313816  0.76636880  0.96651492  1
  O  O20  1  0.51636880  0.08313816  0.28348508  1
  O  O21  1  0.01744357  0.58188100  0.78209037  1
  O  O22  1  0.33017593  0.76587434  0.03216448  1
  O  O23  1  0.83185431  0.26677104  0.53251312  1
