# generated using pymatgen
data_GdYV2O8
_symmetry_space_group_name_H-M   'P 1'
_cell_length_a   6.04783806
_cell_length_b   6.04783806
_cell_length_c   6.04783806
_cell_angle_alpha   63.69143484
_cell_angle_beta   73.83542026
_cell_angle_gamma   106.16457974
_symmetry_Int_Tables_number   1
_chemical_formula_structural   GdYV2O8
_chemical_formula_sum   'Gd1 Y1 V2 O8'
_cell_volume   168.44616757
_cell_formula_units_Z   1
loop_
 _symmetry_equiv_pos_site_id
 _symmetry_equiv_pos_as_xyz
  1  'x, y, z'
loop_
 _atom_site_type_symbol
 _atom_site_label
 _atom_site_symmetry_multiplicity
 _atom_site_fract_x
 _atom_site_fract_y
 _atom_site_fract_z
 _atom_site_occupancy
  Gd  Gd0  1  0.75000000  0.62500000  0.12500000  1
  Y  Y1  1  0.25000000  0.37500000  0.87500000  1
  V  V2  1  0.75000000  0.12500000  0.62500000  1
  V  V3  1  0.25000000  0.87500000  0.37500000  1
  O  O4  1  0.93463295  0.29835690  0.26701016  1
  O  O5  1  0.06745607  0.86934027  0.19811580  1
  O  O6  1  0.43254393  0.23442813  0.19811580  1
  O  O7  1  0.56536705  0.29835690  0.63627605  1
  O  O8  1  0.06745607  0.69811580  0.73442813  1
  O  O9  1  0.93463295  0.13627605  0.79835690  1
  O  O10  1  0.56536705  0.76701016  0.79835690  1
  O  O11  1  0.43254393  0.69811580  0.36934027  1
