# generated using pymatgen
data_FeH9(SO6)2
_symmetry_space_group_name_H-M   'P 1'
_cell_length_a   5.55984700
_cell_length_b   9.76487387
_cell_length_c   18.36930826
_cell_angle_alpha   90.00000000
_cell_angle_beta   90.00000000
_cell_angle_gamma   90.00000000
_symmetry_Int_Tables_number   1
_chemical_formula_structural   FeH9(SO6)2
_chemical_formula_sum   'Fe4 H36 S8 O48'
_cell_volume   997.29187478
_cell_formula_units_Z   4
loop_
 _symmetry_equiv_pos_site_id
 _symmetry_equiv_pos_as_xyz
  1  'x, y, z'
loop_
 _atom_site_type_symbol
 _atom_site_label
 _atom_site_symmetry_multiplicity
 _atom_site_fract_x
 _atom_site_fract_y
 _atom_site_fract_z
 _atom_site_occupancy
  Fe  Fe0  1  0.50000000  0.50000000  -0.00000000  1
  Fe  Fe1  1  0.00000000  -0.00000000  0.50000000  1
  Fe  Fe2  1  0.50000000  0.50000000  0.50000000  1
  Fe  Fe3  1  0.00000000  -0.00000000  -0.00000000  1
  H  H4  1  0.93585100  0.99467112  0.25000000  1
  H  H5  1  0.56414900  0.49467112  0.25000000  1
  H  H6  1  0.06414900  0.00532888  0.75000000  1
  H  H7  1  0.43585100  0.50532888  0.75000000  1
  H  H8  1  0.66393403  0.91310819  0.09730029  1
  H  H9  1  0.83606597  0.41310819  0.40269971  1
  H  H10  1  0.33606597  0.08689181  0.59730029  1
  H  H11  1  0.16393403  0.58689181  0.90269971  1
  H  H12  1  0.33606597  0.08689181  0.90269971  1
  H  H13  1  0.16393403  0.58689181  0.59730029  1
  H  H14  1  0.66393403  0.91310819  0.40269971  1
  H  H15  1  0.83606597  0.41310819  0.09730029  1
  H  H16  1  0.94696632  0.83098065  0.20499516  1
  H  H17  1  0.55303368  0.33098065  0.29500484  1
  H  H18  1  0.05303368  0.16901935  0.70499516  1
  H  H19  1  0.44696632  0.66901935  0.79500484  1
  H  H20  1  0.05303368  0.16901935  0.79500484  1
  H  H21  1  0.44696632  0.66901935  0.70499516  1
  H  H22  1  0.94696632  0.83098065  0.29500484  1
  H  H23  1  0.55303368  0.33098065  0.20499516  1
  H  H24  1  0.68460597  0.07474527  0.10264214  1
  H  H25  1  0.81539403  0.57474527  0.39735786  1
  H  H26  1  0.31539403  0.92525473  0.60264214  1
  H  H27  1  0.18460597  0.42525473  0.89735786  1
  H  H28  1  0.31539403  0.92525473  0.89735786  1
  H  H29  1  0.18460597  0.42525473  0.60264214  1
  H  H30  1  0.68460597  0.07474527  0.39735786  1
  H  H31  1  0.81539403  0.57474527  0.10264214  1
  H  H32  1  0.99749212  0.18676514  0.20630997  1
  H  H33  1  0.50250788  0.68676514  0.29369003  1
  H  H34  1  0.00250788  0.81323486  0.70630997  1
  H  H35  1  0.49749212  0.31323486  0.79369003  1
  H  H36  1  0.00250788  0.81323486  0.79369003  1
  H  H37  1  0.49749212  0.31323486  0.70630997  1
  H  H38  1  0.99749212  0.18676514  0.29369003  1
  H  H39  1  0.50250788  0.68676514  0.20630997  1
  S  S40  1  0.21198045  0.73615739  0.08870293  1
  S  S41  1  0.28801955  0.23615739  0.41129707  1
  S  S42  1  0.78801955  0.26384261  0.58870293  1
  S  S43  1  0.71198045  0.76384261  0.91129707  1
  S  S44  1  0.78801955  0.26384261  0.91129707  1
  S  S45  1  0.71198045  0.76384261  0.58870293  1
  S  S46  1  0.21198045  0.73615739  0.41129707  1
  S  S47  1  0.28801955  0.23615739  0.08870293  1
  O  O48  1  0.95084582  0.13359247  0.25000000  1
  O  O49  1  0.54915418  0.63359247  0.25000000  1
  O  O50  1  0.04915418  0.86640753  0.75000000  1
  O  O51  1  0.45084582  0.36640753  0.75000000  1
  O  O52  1  0.16419432  0.82368632  0.02298376  1
  O  O53  1  0.33580568  0.32368632  0.47701624  1
  O  O54  1  0.83580568  0.17631368  0.52298376  1
  O  O55  1  0.66419432  0.67631368  0.97701624  1
  O  O56  1  0.83580568  0.17631368  0.97701624  1
  O  O57  1  0.66419432  0.67631368  0.52298376  1
  O  O58  1  0.16419432  0.82368632  0.47701624  1
  O  O59  1  0.33580568  0.32368632  0.02298376  1
  O  O60  1  0.77771509  0.99040033  0.09196014  1
  O  O61  1  0.72228491  0.49040033  0.40803986  1
  O  O62  1  0.22228491  0.00959967  0.59196014  1
  O  O63  1  0.27771509  0.50959967  0.90803986  1
  O  O64  1  0.22228491  0.00959967  0.90803986  1
  O  O65  1  0.27771509  0.50959967  0.59196014  1
  O  O66  1  0.77771509  0.99040033  0.40803986  1
  O  O67  1  0.72228491  0.49040033  0.09196014  1
  O  O68  1  0.42390623  0.78746633  0.12842043  1
  O  O69  1  0.07609377  0.28746633  0.37157957  1
  O  O70  1  0.57609377  0.21253367  0.62842043  1
  O  O71  1  0.92390623  0.71253367  0.87157957  1
  O  O72  1  0.57609377  0.21253367  0.87157957  1
  O  O73  1  0.92390623  0.71253367  0.62842043  1
  O  O74  1  0.42390623  0.78746633  0.37157957  1
  O  O75  1  0.07609377  0.28746633  0.12842043  1
  O  O76  1  0.25322126  0.59349195  0.06081800  1
  O  O77  1  0.24677874  0.09349195  0.43918200  1
  O  O78  1  0.74677874  0.40650805  0.56081800  1
  O  O79  1  0.75322126  0.90650805  0.93918200  1
  O  O80  1  0.74677874  0.40650805  0.93918200  1
  O  O81  1  0.75322126  0.90650805  0.56081800  1
  O  O82  1  0.25322126  0.59349195  0.43918200  1
  O  O83  1  0.24677874  0.09349195  0.06081800  1
  O  O84  1  0.99548909  0.72807562  0.13558782  1
  O  O85  1  0.50451091  0.22807562  0.36441218  1
  O  O86  1  0.00451091  0.27192438  0.63558782  1
  O  O87  1  0.49548909  0.77192438  0.86441218  1
  O  O88  1  0.00451091  0.27192438  0.86441218  1
  O  O89  1  0.49548909  0.77192438  0.63558782  1
  O  O90  1  0.99548909  0.72807562  0.36441218  1
  O  O91  1  0.50451091  0.22807562  0.13558782  1
  O  O92  1  0.90084236  0.88385334  0.25000000  1
  O  O93  1  0.59915764  0.38385334  0.25000000  1
  O  O94  1  0.09915764  0.11614666  0.75000000  1
  O  O95  1  0.40084236  0.61614666  0.75000000  1
