# generated using pymatgen
data_KNaV6(PbO3)8
_symmetry_space_group_name_H-M   'P 1'
_cell_length_a   7.49063369
_cell_length_b   10.29155726
_cell_length_c   10.29144381
_cell_angle_alpha   119.97954894
_cell_angle_beta   90.03432172
_cell_angle_gamma   89.97331704
_symmetry_Int_Tables_number   1
_chemical_formula_structural   KNaV6(PbO3)8
_chemical_formula_sum   'K1 Na1 V6 Pb8 O24'
_cell_volume   687.22028289
_cell_formula_units_Z   1
loop_
 _symmetry_equiv_pos_site_id
 _symmetry_equiv_pos_as_xyz
  1  'x, y, z'
loop_
 _atom_site_type_symbol
 _atom_site_label
 _atom_site_symmetry_multiplicity
 _atom_site_fract_x
 _atom_site_fract_y
 _atom_site_fract_z
 _atom_site_occupancy
  K  K0  1  0.51249863  0.66678290  0.33351958  1
  Na  Na1  1  0.98844598  0.33334860  0.66659032  1
  V  V2  1  0.24605675  0.01779578  0.39226964  1
  V  V3  1  0.24585734  0.60770600  0.62550840  1
  V  V4  1  0.24594500  0.37430963  0.98210022  1
  V  V5  1  0.75009495  0.98608208  0.60960331  1
  V  V6  1  0.75024489  0.39055319  0.37648034  1
  V  V7  1  0.75016257  0.62348671  0.01401705  1
  Pb  Pb8  1  0.75144190  0.25683033  0.00144119  1
  Pb  Pb9  1  0.75067000  0.99879397  0.25566193  1
  Pb  Pb10  1  0.75138885  0.74473843  0.74311900  1
  Pb  Pb11  1  0.24905392  0.74220516  0.99687742  1
  Pb  Pb12  1  0.24905404  0.00290487  0.74530898  1
  Pb  Pb13  1  0.24907631  0.25502457  0.25785717  1
  Pb  Pb14  1  0.02486346  0.66652930  0.33275693  1
  Pb  Pb15  1  0.52477100  0.33360628  0.66662499  1
  O  O16  1  0.75372849  0.58758013  0.49290670  1
  O  O17  1  0.75364871  0.50707141  0.09469721  1
  O  O18  1  0.75360279  0.90530694  0.41252036  1
  O  O19  1  0.24852465  0.41059438  0.50910024  1
  O  O20  1  0.24843816  0.49105315  0.90178096  1
  O  O21  1  0.24869209  0.09819957  0.58933010  1
  O  O22  1  0.56858536  0.33857313  0.25685355  1
  O  O23  1  0.56858017  0.74325442  0.08175207  1
  O  O24  1  0.56871472  0.91829390  0.66171470  1
  O  O25  1  0.06629104  0.66122520  0.74777063  1
  O  O26  1  0.06622638  0.25207259  0.91343161  1
  O  O27  1  0.06637245  0.08652256  0.33869282  1
  O  O28  1  0.43231735  0.66056585  0.74127366  1
  O  O29  1  0.43236052  0.25861622  0.91925860  1
  O  O30  1  0.43250314  0.08065474  0.33937824  1
  O  O31  1  0.93329855  0.33820485  0.25757601  1
  O  O32  1  0.93345208  0.74210386  0.08056404  1
  O  O33  1  0.93330635  0.91980344  0.66222896  1
  O  O34  1  0.23679251  0.70229803  0.52415597  1
  O  O35  1  0.23714767  0.47545314  0.17801360  1
  O  O36  1  0.23725173  0.82190019  0.29757528  1
  O  O37  1  0.74703279  0.29745374  0.48004504  1
  O  O38  1  0.74680136  0.51987962  0.81742012  1
  O  O39  1  0.74670535  0.18262116  0.70222305  1
