# generated using pymatgen
data_K3Rb5Te4H24(SO10)4
_symmetry_space_group_name_H-M   'P 1'
_cell_length_a   6.65884912
_cell_length_b   11.53296836
_cell_length_c   13.79215983
_cell_angle_alpha   106.69211540
_cell_angle_beta   89.92166688
_cell_angle_gamma   90.07195292
_symmetry_Int_Tables_number   1
_chemical_formula_structural   K3Rb5Te4H24(SO10)4
_chemical_formula_sum   'K3 Rb5 Te4 H24 S4 O40'
_cell_volume   1014.55345069
_cell_formula_units_Z   1
loop_
 _symmetry_equiv_pos_site_id
 _symmetry_equiv_pos_as_xyz
  1  'x, y, z'
loop_
 _atom_site_type_symbol
 _atom_site_label
 _atom_site_symmetry_multiplicity
 _atom_site_fract_x
 _atom_site_fract_y
 _atom_site_fract_z
 _atom_site_occupancy
  K  K0  1  0.52184945  0.15266689  0.85597815  1
  K  K1  1  0.02173194  0.34715061  0.14402783  1
  K  K2  1  0.47844057  0.84693587  0.14399342  1
  Rb  Rb3  1  0.98196221  0.65245372  0.85562642  1
  Rb  Rb4  1  0.50321211  0.39798811  0.64084559  1
  Rb  Rb5  1  0.00322920  0.10169765  0.35884340  1
  Rb  Rb6  1  0.49678727  0.60169404  0.35879229  1
  Rb  Rb7  1  0.99653344  0.89876368  0.64097544  1
  Te  Te8  1  0.99978572  0.49972643  0.49941304  1
  Te  Te9  1  0.49999184  -0.00002158  0.49994426  1
  Te  Te10  1  0.99984413  0.00121020  0.00035292  1
  Te  Te11  1  0.50078966  0.49973203  0.00091839  1
  H  H12  1  0.74388288  0.36525867  0.38869784  1
  H  H13  1  0.24412871  0.13416131  0.61072229  1
  H  H14  1  0.25554075  0.63472328  0.61008773  1
  H  H15  1  0.75588904  0.86568508  0.38922566  1
  H  H16  1  0.67635080  0.09685111  0.07777939  1
  H  H17  1  0.17748377  0.40291003  0.92272993  1
  H  H18  1  0.32311886  0.90418609  0.92283765  1
  H  H19  1  0.82391307  0.59589530  0.07888085  1
  H  H20  1  0.05813115  0.14167083  0.89655395  1
  H  H21  1  0.55778992  0.35758795  0.10358570  1
  H  H22  1  0.94199601  0.85892695  0.10320684  1
  H  H23  1  0.44383376  0.64125616  0.89709876  1
  H  H24  1  0.99213307  0.32850465  0.58102323  1
  H  H25  1  0.49231949  0.17147205  0.41886260  1
  H  H26  1  0.00797011  0.67162735  0.41856702  1
  H  H27  1  0.50803922  0.82859407  0.58099892  1
  H  H28  1  0.21207423  0.36644050  0.36408467  1
  H  H29  1  0.71171830  0.13329462  0.63560800  1
  H  H30  1  0.78756953  0.63331172  0.63471498  1
  H  H31  1  0.28825574  0.86662191  0.36435316  1
  H  H32  1  0.75634711  0.91182917  0.86200753  1
  H  H33  1  0.25619474  0.58912221  0.13867491  1
  H  H34  1  0.24355285  0.08965829  0.13848271  1
  H  H35  1  0.74350001  0.40976026  0.86194120  1
  S  S36  1  0.01063555  0.26412238  0.75415477  1
  S  S37  1  0.51043620  0.23429909  0.24565749  1
  S  S38  1  0.98953145  0.73448486  0.24568121  1
  S  S39  1  0.48799413  0.76621512  0.75352713  1
  O  O40  1  0.73538228  0.43235799  0.45426390  1
  O  O41  1  0.23547694  0.06712835  0.54505150  1
  O  O42  1  0.26429549  0.56687039  0.54496836  1
  O  O43  1  0.76457312  0.93284569  0.45475348  1
  O  O44  1  0.76313620  0.10495543  0.02063122  1
  O  O45  1  0.26333134  0.39611539  0.98047925  1
  O  O46  1  0.23638943  0.89701646  0.98031057  1
  O  O47  1  0.73680249  0.60385800  0.02191865  1
  O  O48  1  0.11859255  0.43440978  0.36470559  1
  O  O49  1  0.61786968  0.06531377  0.63478756  1
  O  O50  1  0.87991190  0.56468616  0.63371280  1
  O  O51  1  0.38202729  0.93463141  0.36510216  1
  O  O52  1  0.50037125  0.88991432  0.82856008  1
  O  O53  1  0.00057814  0.60998713  0.17168436  1
  O  O54  1  0.49917368  0.10992867  0.17149133  1
  O  O55  1  0.99959074  0.38777002  0.82921443  1
  O  O56  1  0.87886534  0.26218996  0.66500377  1
  O  O57  1  0.37868229  0.23738236  0.33521714  1
  O  O58  1  0.12135887  0.73763136  0.33506329  1
  O  O59  1  0.62295355  0.76294220  0.66508508  1
  O  O60  1  0.90630106  0.91723695  0.86323614  1
  O  O61  1  0.40624088  0.58491506  0.13768393  1
  O  O62  1  0.09338225  0.08643099  0.13721535  1
  O  O63  1  0.59352406  0.41463298  0.86356620  1
  O  O64  1  0.93436165  0.17102920  0.80038649  1
  O  O65  1  0.43421077  0.32657690  0.19864312  1
  O  O66  1  0.06585841  0.82663787  0.19837919  1
  O  O67  1  0.55892336  0.67239370  0.80015935  1
  O  O68  1  0.08143606  0.35168895  0.53103153  1
  O  O69  1  0.58185801  0.14826598  0.46865402  1
  O  O70  1  0.91857161  0.64807744  0.46838775  1
  O  O71  1  0.41831732  0.85169265  0.53125054  1
  O  O72  1  0.14296808  0.11927107  0.94891931  1
  O  O73  1  0.64282349  0.38108774  0.05167144  1
  O  O74  1  0.85682040  0.88294312  0.05179220  1
  O  O75  1  0.36108480  0.61903794  0.95035265  1
  O  O76  1  0.22315578  0.23900169  0.72125760  1
  O  O77  1  0.72295530  0.26002155  0.27818241  1
  O  O78  1  0.77710202  0.76018950  0.27850107  1
  O  O79  1  0.27625412  0.74246516  0.71926794  1
