# generated using pymatgen
data_ErLu(B2Ru)2
_symmetry_space_group_name_H-M   'P 1'
_cell_length_a   5.28100375
_cell_length_b   5.86722843
_cell_length_c   6.31030160
_cell_angle_alpha   90.00000000
_cell_angle_beta   90.00000000
_cell_angle_gamma   90.00000000
_symmetry_Int_Tables_number   1
_chemical_formula_structural   ErLu(B2Ru)2
_chemical_formula_sum   'Er2 Lu2 B8 Ru4'
_cell_volume   195.52378223
_cell_formula_units_Z   2
loop_
 _symmetry_equiv_pos_site_id
 _symmetry_equiv_pos_as_xyz
  1  'x, y, z'
loop_
 _atom_site_type_symbol
 _atom_site_label
 _atom_site_symmetry_multiplicity
 _atom_site_fract_x
 _atom_site_fract_y
 _atom_site_fract_z
 _atom_site_occupancy
  Er  Er0  1  0.75000000  0.48951958  0.16440913  1
  Er  Er1  1  0.75000000  0.98951958  0.33559087  1
  Lu  Lu2  1  0.25000000  0.51077093  0.83475289  1
  Lu  Lu3  1  0.25000000  0.01077093  0.66524711  1
  B  B4  1  0.91783277  0.13284618  0.96138183  1
  B  B5  1  0.58216723  0.63284618  0.53861817  1
  B  B6  1  0.41489613  0.86635225  0.03496669  1
  B  B7  1  0.08510387  0.36635225  0.46503331  1
  B  B8  1  0.08510387  0.86635225  0.03496669  1
  B  B9  1  0.41489613  0.36635225  0.46503331  1
  B  B10  1  0.58216723  0.13284618  0.96138183  1
  B  B11  1  0.91783277  0.63284618  0.53861817  1
  Ru  Ru12  1  0.75000000  0.32022257  0.68223970  1
  Ru  Ru13  1  0.75000000  0.82022257  0.81776030  1
  Ru  Ru14  1  0.25000000  0.68109006  0.31942944  1
  Ru  Ru15  1  0.25000000  0.18109006  0.18057056  1
