# generated using pymatgen
data_SbH6C2I
_symmetry_space_group_name_H-M   'P 1'
_cell_length_a   7.02305736
_cell_length_b   11.09532900
_cell_length_c   17.61680056
_cell_angle_alpha   90.00000000
_cell_angle_beta   90.00000000
_cell_angle_gamma   90.00000000
_symmetry_Int_Tables_number   1
_chemical_formula_structural   SbH6C2I
_chemical_formula_sum   'Sb8 H48 C16 I8'
_cell_volume   1372.75627537
_cell_formula_units_Z   8
loop_
 _symmetry_equiv_pos_site_id
 _symmetry_equiv_pos_as_xyz
  1  'x, y, z'
loop_
 _atom_site_type_symbol
 _atom_site_label
 _atom_site_symmetry_multiplicity
 _atom_site_fract_x
 _atom_site_fract_y
 _atom_site_fract_z
 _atom_site_occupancy
  Sb  Sb0  1  0.20594327  0.86762871  0.67570431  1
  Sb  Sb1  1  0.79405673  0.36762871  0.82429569  1
  Sb  Sb2  1  0.20594327  0.63237129  0.17570431  1
  Sb  Sb3  1  0.29405673  0.36762871  0.67570431  1
  Sb  Sb4  1  0.29405673  0.13237129  0.17570431  1
  Sb  Sb5  1  0.70594327  0.63237129  0.32429569  1
  Sb  Sb6  1  0.79405673  0.13237129  0.32429569  1
  Sb  Sb7  1  0.70594327  0.86762871  0.82429569  1
  H  H8  1  -0.00085771  0.65372411  0.42475025  1
  H  H9  1  0.51475848  0.65053686  0.46061321  1
  H  H10  1  0.52635763  0.98527358  0.62627995  1
  H  H11  1  0.08778988  0.70287542  0.57170560  1
  H  H12  1  0.61803171  0.27284116  0.61243712  1
  H  H13  1  0.49914229  0.84627589  0.57524975  1
  H  H14  1  0.02635763  0.51472642  0.37372005  1
  H  H15  1  0.11803171  0.22715884  0.38756288  1
  H  H16  1  0.49914229  0.65372411  0.07524975  1
  H  H17  1  0.98524152  0.15053686  0.46061321  1
  H  H18  1  0.61803171  0.22715884  0.11243712  1
  H  H19  1  0.01475848  0.65053686  0.03938679  1
  H  H20  1  0.41221012  0.20287542  0.57170560  1
  H  H21  1  0.11803171  0.27284116  0.88756288  1
  H  H22  1  0.97364237  0.48527358  0.62627995  1
  H  H23  1  0.88196829  0.77284116  0.61243712  1
  H  H24  1  0.85846095  0.52533560  0.45089753  1
  H  H25  1  0.14153905  0.02533560  0.04910247  1
  H  H26  1  0.64153905  0.02533560  0.45089753  1
  H  H27  1  0.47364237  0.48527358  0.87372005  1
  H  H28  1  0.58778988  0.70287542  0.92829440  1
  H  H29  1  0.88196829  0.72715884  0.11243712  1
  H  H30  1  0.08778988  0.79712458  0.07170560  1
  H  H31  1  0.91221012  0.29712458  0.42829440  1
  H  H32  1  0.98524152  0.34946314  0.96061321  1
  H  H33  1  0.97364237  0.01472642  0.12627995  1
  H  H34  1  0.58778988  0.79712458  0.42829440  1
  H  H35  1  1.00085771  0.34627589  0.57524975  1
  H  H36  1  0.41221012  0.29712458  0.07170560  1
  H  H37  1  0.48524152  0.34946314  0.53938679  1
  H  H38  1  1.00085771  0.15372411  0.07524975  1
  H  H39  1  0.48524152  0.15053686  0.03938679  1
  H  H40  1  -0.00085771  0.84627589  0.92475025  1
  H  H41  1  0.91221012  0.20287542  0.92829440  1
  H  H42  1  0.35846095  0.52533560  0.04910247  1
  H  H43  1  0.02635763  0.98527358  0.87372005  1
  H  H44  1  0.01475848  0.84946314  0.53938679  1
  H  H45  1  0.14153905  0.47466440  0.54910247  1
  H  H46  1  0.50085771  0.15372411  0.42475025  1
  H  H47  1  0.47364237  0.01472642  0.37372005  1
  H  H48  1  0.52635763  0.51472642  0.12627995  1
  H  H49  1  0.51475848  0.84946314  0.96061321  1
  H  H50  1  0.38196829  0.77284116  0.88756288  1
  H  H51  1  0.85846095  0.97466440  0.95089753  1
  H  H52  1  0.64153905  0.47466440  0.95089753  1
  H  H53  1  0.50085771  0.34627589  0.92475025  1
  H  H54  1  0.38196829  0.72715884  0.38756288  1
  H  H55  1  0.35846095  0.97466440  0.54910247  1
  C  C56  1  0.47628384  0.21098128  0.08844635  1
  C  C57  1  0.92540672  0.92668297  0.90355656  1
  C  C58  1  0.52371616  0.71098128  0.41155365  1
  C  C59  1  0.07459328  0.42668297  0.59644344  1
  C  C60  1  0.07459328  0.07331703  0.09644344  1
  C  C61  1  0.47628384  0.28901872  0.58844635  1
  C  C62  1  0.02371616  0.71098128  0.08844635  1
  C  C63  1  0.42540672  0.92668297  0.59644344  1
  C  C64  1  0.52371616  0.78901872  0.91155365  1
  C  C65  1  0.02371616  0.78901872  0.58844635  1
  C  C66  1  0.42540672  0.57331703  0.09644344  1
  C  C67  1  0.97628384  0.21098128  0.41155365  1
  C  C68  1  0.57459328  0.42668297  0.90355656  1
  C  C69  1  0.92540672  0.57331703  0.40355656  1
  C  C70  1  0.97628384  0.28901872  0.91155365  1
  C  C71  1  0.57459328  0.07331703  0.40355656  1
  I  I72  1  0.50990579  0.09374269  0.83052813  1
  I  I73  1  0.49009421  0.59374269  0.66947187  1
  I  I74  1  1.00990579  0.40625731  0.16947187  1
  I  I75  1  0.50990579  0.40625731  0.33052813  1
  I  I76  1  0.49009421  0.90625731  0.16947187  1
  I  I77  1  -0.00990579  0.59374269  0.83052813  1
  I  I78  1  -0.00990579  0.90625731  0.33052813  1
  I  I79  1  1.00990579  0.09374269  0.66947187  1
