# generated using pymatgen
data_Gd3Y13O24
_symmetry_space_group_name_H-M   'P 1'
_cell_length_a   9.29618985
_cell_length_b   9.29618985
_cell_length_c   9.29261943
_cell_angle_alpha   70.52270475
_cell_angle_beta   70.51975676
_cell_angle_gamma   109.47169001
_symmetry_Int_Tables_number   1
_chemical_formula_structural   Gd3Y13O24
_chemical_formula_sum   'Gd3 Y13 O24'
_cell_volume   618.07726050
_cell_formula_units_Z   1
loop_
 _symmetry_equiv_pos_site_id
 _symmetry_equiv_pos_as_xyz
  1  'x, y, z'
loop_
 _atom_site_type_symbol
 _atom_site_label
 _atom_site_symmetry_multiplicity
 _atom_site_fract_x
 _atom_site_fract_y
 _atom_site_fract_z
 _atom_site_occupancy
  Gd  Gd0  1  0.46743889  0.24972747  0.28277929  1
  Gd  Gd1  1  0.03250675  0.75021817  0.21722071  1
  Gd  Gd2  1  0.78223311  0.53223311  0.75000000  1
  Y  Y3  1  0.50046124  0.99905065  0.99958331  1
  Y  Y4  1  0.00120567  0.50009695  0.99948538  1
  Y  Y5  1  0.49863396  0.50004455  0.50041669  1
  Y  Y6  1  0.99958233  0.00069105  0.50051462  1
  Y  Y7  1  0.71700134  0.96700134  0.25000000  1
  Y  Y8  1  0.74994229  0.21590038  0.53317925  1
  Y  Y9  1  0.24907964  0.28312155  0.96682075  1
  Y  Y10  1  0.53222393  0.75042310  0.71715467  1
  Y  Y11  1  0.96757777  0.24937860  0.78284533  1
  Y  Y12  1  0.21700366  0.46700366  0.25000000  1
  Y  Y13  1  0.28311637  0.03311637  0.75000000  1
  Y  Y14  1  0.25072183  0.78237652  0.46764852  1
  Y  Y15  1  0.75002504  0.71837035  0.03235148  1
  O  O16  1  0.73957217  0.96865970  0.98920714  1
  O  O17  1  0.04413513  0.53090963  0.72895701  1
  O  O18  1  0.45786683  0.72877931  0.51079286  1
  O  O19  1  0.75986664  0.77309214  0.77104299  1
  O  O20  1  0.22884498  0.26053267  0.72840838  1
  O  O21  1  0.48894105  0.95725336  0.77159162  1
  O  O22  1  0.27083273  0.54249312  0.96839759  1
  O  O23  1  0.01089071  0.23923032  0.53160241  1
  O  O24  1  0.03155697  0.77106199  0.95610826  1
  O  O25  1  0.46837373  0.51225376  0.26043329  1
  O  O26  1  0.27268705  0.72880702  0.23956671  1
  O  O27  1  0.22717025  0.98766523  0.54389174  1
  O  O28  1  0.26359981  0.03393969  0.00852009  1
  O  O29  1  0.95762177  0.46623101  0.27055043  1
  O  O30  1  0.54245978  0.27211990  0.49147991  1
  O  O31  1  0.23678144  0.22817220  0.22944957  1
  O  O32  1  0.76838744  0.73884123  0.27194438  1
  O  O33  1  0.51078562  0.04033182  0.22805562  1
  O  O34  1  0.73202904  0.45985395  0.03154532  1
  O  O35  1  0.99139927  0.76357436  0.46845468  1
  O  O36  1  0.96810529  0.22918480  0.04223281  1
  O  O37  1  0.52942120  0.48956592  0.73893376  1
  O  O38  1  0.72849968  0.26835495  0.76106624  1
  O  O39  1  0.77141761  0.01033809  0.45776719  1
