# generated using pymatgen
data_CoP2O7
_symmetry_space_group_name_H-M   'P 1'
_cell_length_a   6.14736066
_cell_length_b   6.14712209
_cell_length_c   12.82767578
_cell_angle_alpha   79.57859497
_cell_angle_beta   77.11122426
_cell_angle_gamma   99.05284883
_symmetry_Int_Tables_number   1
_chemical_formula_structural   CoP2O7
_chemical_formula_sum   'Co4 P8 O28'
_cell_volume   454.74409240
_cell_formula_units_Z   4
loop_
 _symmetry_equiv_pos_site_id
 _symmetry_equiv_pos_as_xyz
  1  'x, y, z'
loop_
 _atom_site_type_symbol
 _atom_site_label
 _atom_site_symmetry_multiplicity
 _atom_site_fract_x
 _atom_site_fract_y
 _atom_site_fract_z
 _atom_site_occupancy
  Co  Co0  1  0.72947027  0.87788593  0.85617744  1
  Co  Co1  1  0.23407293  0.58568741  0.64383400  1
  Co  Co2  1  0.76592482  0.41431337  0.35616659  1
  Co  Co3  1  0.27053038  0.12211424  0.14382195  1
  P  P4  1  0.78265050  0.24883054  0.13822459  1
  P  P5  1  0.11292342  0.07913791  0.63825976  1
  P  P6  1  0.65514947  0.33246376  0.93056039  1
  P  P7  1  0.23697879  0.41430386  0.43058614  1
  P  P8  1  0.76302036  0.58568386  0.56942076  1
  P  P9  1  0.21734041  0.75116291  0.86177395  1
  P  P10  1  0.88708507  0.92087792  0.36173357  1
  P  P11  1  0.34485013  0.66753371  0.06944103  1
  O  O12  1  0.21369071  0.60563045  0.98050773  1
  O  O13  1  0.78309116  0.18944993  0.86219728  1
  O  O14  1  0.44836348  0.35476214  0.36219948  1
  O  O15  1  0.40773434  0.20475992  0.99252576  1
  O  O16  1  0.13489365  0.03354578  0.29651481  1
  O  O17  1  0.91329211  0.52103698  0.64579633  1
  O  O18  1  0.16994883  0.56857524  0.79653990  1
  O  O19  1  0.33317547  0.44088519  0.14583722  1
  O  O20  1  0.55163380  0.64523909  0.63780149  1
  O  O21  1  0.26694141  0.90928918  0.61885611  1
  O  O22  1  0.44954642  0.91592017  0.82099347  1
  O  O23  1  0.02805008  0.88570029  0.88117695  1
  O  O24  1  0.73306549  0.09070380  0.38114092  1
  O  O25  1  0.08670793  0.47896510  0.35420157  1
  O  O26  1  0.83004948  0.43142282  0.20345798  1
  O  O27  1  0.76317997  0.72945203  0.32095264  1
  O  O28  1  0.69725067  0.40024730  0.50747321  1
  O  O29  1  0.21690282  0.81054544  0.13780488  1
  O  O30  1  0.08615324  0.19417812  0.51952954  1
  O  O31  1  0.78630569  0.39436950  0.01949207  1
  O  O32  1  0.66681763  0.55911858  0.85416443  1
  O  O33  1  0.97195045  0.11429384  0.11882020  1
  O  O34  1  0.30274882  0.59976030  0.49252962  1
  O  O35  1  0.23682705  0.27055607  0.67904602  1
  O  O36  1  0.55046061  0.08407757  0.17900575  1
  O  O37  1  0.59225826  0.79524113  0.00747507  1
  O  O38  1  0.86510864  0.96645030  0.70348858  1
  O  O39  1  0.91385426  0.80582731  0.48047081  1
