# generated using pymatgen
data_CsAlCuF6
_symmetry_space_group_name_H-M   'P 1'
_cell_length_a   7.27173362
_cell_length_b   7.19248735
_cell_length_c   7.19691115
_cell_angle_alpha   90.00000000
_cell_angle_beta   60.33979400
_cell_angle_gamma   119.64015206
_symmetry_Int_Tables_number   1
_chemical_formula_structural   CsAlCuF6
_chemical_formula_sum   'Cs2 Al2 Cu2 F12'
_cell_volume   268.95339978
_cell_formula_units_Z   2
loop_
 _symmetry_equiv_pos_site_id
 _symmetry_equiv_pos_as_xyz
  1  'x, y, z'
loop_
 _atom_site_type_symbol
 _atom_site_label
 _atom_site_symmetry_multiplicity
 _atom_site_fract_x
 _atom_site_fract_y
 _atom_site_fract_z
 _atom_site_occupancy
  Cs  Cs0  1  0.75126994  0.37563497  0.37436503  1
  Cs  Cs1  1  0.24873006  0.62436503  0.62563497  1
  Al  Al2  1  -0.00000000  0.00000000  0.50000000  1
  Al  Al3  1  -0.00000000  0.00000000  -0.00000000  1
  Cu  Cu4  1  0.50000000  0.50000000  -0.00000000  1
  Cu  Cu5  1  0.50000000  0.00000000  -0.00000000  1
  F  F6  1  0.90396509  0.95198254  0.29801746  1
  F  F7  1  0.64667170  0.32333585  0.92666415  1
  F  F8  1  0.23632793  0.93809718  0.92340278  1
  F  F9  1  0.23632793  0.29823075  0.34026929  1
  F  F10  1  0.23632793  0.29823075  0.92340278  1
  F  F11  1  0.23632793  0.93809718  0.34026929  1
  F  F12  1  0.09603491  0.04801746  0.70198254  1
  F  F13  1  0.35332830  0.67666415  0.07333585  1
  F  F14  1  0.76367207  0.06190282  0.07659722  1
  F  F15  1  0.76367207  0.70176925  0.65973071  1
  F  F16  1  0.76367207  0.70176925  0.07659722  1
  F  F17  1  0.76367207  0.06190282  0.65973071  1
