# generated using pymatgen
data_Dy5Co19P12
_symmetry_space_group_name_H-M   'P 1'
_cell_length_a   3.66953232
_cell_length_b   11.96639365
_cell_length_c   11.96639271
_cell_angle_alpha   60.00398309
_cell_angle_beta   90.00029990
_cell_angle_gamma   89.99970021
_symmetry_Int_Tables_number   1
_chemical_formula_structural   Dy5Co19P12
_chemical_formula_sum   'Dy5 Co19 P12'
_cell_volume   455.07744923
_cell_formula_units_Z   1
loop_
 _symmetry_equiv_pos_site_id
 _symmetry_equiv_pos_as_xyz
  1  'x, y, z'
loop_
 _atom_site_type_symbol
 _atom_site_label
 _atom_site_symmetry_multiplicity
 _atom_site_fract_x
 _atom_site_fract_y
 _atom_site_fract_z
 _atom_site_occupancy
  Dy  Dy0  1  0.00016020  0.33338294  0.33328146  1
  Dy  Dy1  1  0.00016020  0.66671854  0.66661706  1
  Dy  Dy2  1  0.50272073  0.81325090  0.18674910  1
  Dy  Dy3  1  0.50272568  0.18660734  0.00009648  1
  Dy  Dy4  1  0.50272568  0.99990352  0.81339266  1
  Co  Co5  1  0.00057054  0.44839480  0.55160520  1
  Co  Co6  1  0.00056505  0.55157490  0.00007378  1
  Co  Co7  1  0.00056505  0.99992622  0.44842510  1
  Co  Co8  1  0.00089889  0.17751347  0.20033341  1
  Co  Co9  1  0.00090317  0.20021255  0.62219681  1
  Co  Co10  1  0.00090298  0.62218327  0.17749439  1
  Co  Co11  1  0.00089889  0.79966659  0.82248653  1
  Co  Co12  1  0.00090317  0.37780319  0.79978745  1
  Co  Co13  1  0.00090298  0.82250561  0.37781673  1
  Co  Co14  1  0.50040394  0.35765757  0.12545361  1
  Co  Co15  1  0.50041870  0.12546758  0.51683357  1
  Co  Co16  1  0.50040708  0.51693483  0.35760156  1
  Co  Co17  1  0.50040394  0.87454639  0.64234243  1
  Co  Co18  1  0.50041870  0.48316643  0.87453242  1
  Co  Co19  1  0.50040708  0.64239844  0.48306517  1
  Co  Co20  1  0.50211985  0.28560194  0.71439806  1
  Co  Co21  1  0.50212566  0.71430503  0.00001920  1
  Co  Co22  1  0.50212566  -0.00001920  0.28569497  1
  Co  Co23  1  0.00845940  -0.00002783  0.00002783  1
  P  P24  1  0.00077615  0.63261546  0.36738454  1
  P  P25  1  0.00076724  0.36750290  -0.00002038  1
  P  P26  1  0.00076724  0.00002038  0.63249710  1
  P  P27  1  0.50043732  0.16546980  0.31480105  1
  P  P28  1  0.50045960  0.31480183  0.51972814  1
  P  P29  1  0.50045371  0.51984057  0.16544572  1
  P  P30  1  0.50043732  0.68519895  0.83453020  1
  P  P31  1  0.50045960  0.48027186  0.68519817  1
  P  P32  1  0.50045371  0.83455428  0.48015943  1
  P  P33  1  0.00302712  0.18095329  0.81904671  1
  P  P34  1  0.00303388  0.81898753  0.99999186  1
  P  P35  1  0.00303388  0.00000814  0.18101247  1
