# generated using pymatgen
data_CoCuS4
_symmetry_space_group_name_H-M   'P 1'
_cell_length_a   5.59321610
_cell_length_b   5.59250884
_cell_length_c   5.74248497
_cell_angle_alpha   90.99819394
_cell_angle_beta   90.00000000
_cell_angle_gamma   90.00000000
_symmetry_Int_Tables_number   1
_chemical_formula_structural   CoCuS4
_chemical_formula_sum   'Co2 Cu2 S8'
_cell_volume   179.59830529
_cell_formula_units_Z   2
loop_
 _symmetry_equiv_pos_site_id
 _symmetry_equiv_pos_as_xyz
  1  'x, y, z'
loop_
 _atom_site_type_symbol
 _atom_site_label
 _atom_site_symmetry_multiplicity
 _atom_site_fract_x
 _atom_site_fract_y
 _atom_site_fract_z
 _atom_site_occupancy
  Co  Co0  1  0.50000000  0.00000000  0.50000000  1
  Co  Co1  1  -0.00000000  0.50000000  0.50000000  1
  Cu  Cu2  1  0.50000000  0.50000000  -0.00000000  1
  Cu  Cu3  1  -0.00000000  0.00000000  -0.00000000  1
  S  S4  1  0.90291202  0.39998484  0.11661457  1
  S  S5  1  0.40291202  0.10001516  0.88338543  1
  S  S6  1  0.11752606  0.88196112  0.40792595  1
  S  S7  1  0.61752606  0.61803888  0.59207405  1
  S  S8  1  0.09708798  0.60001516  0.88338543  1
  S  S9  1  0.59708798  0.89998484  0.11661457  1
  S  S10  1  0.88247394  0.11803888  0.59207405  1
  S  S11  1  0.38247394  0.38196112  0.40792595  1
