# generated using pymatgen
data_CaAl3Ag
_symmetry_space_group_name_H-M   'P 1'
_cell_length_a   4.13313034
_cell_length_b   4.13313034
_cell_length_c   6.72257296
_cell_angle_alpha   72.09697375
_cell_angle_beta   72.09697375
_cell_angle_gamma   90.00000000
_symmetry_Int_Tables_number   1
_chemical_formula_structural   CaAl3Ag
_chemical_formula_sum   'Ca1 Al3 Ag1'
_cell_volume   103.42003847
_cell_formula_units_Z   1
loop_
 _symmetry_equiv_pos_site_id
 _symmetry_equiv_pos_as_xyz
  1  'x, y, z'
loop_
 _atom_site_type_symbol
 _atom_site_label
 _atom_site_symmetry_multiplicity
 _atom_site_fract_x
 _atom_site_fract_y
 _atom_site_fract_z
 _atom_site_occupancy
  Ca  Ca0  1  0.99915462  0.99915462  0.00169076  1
  Al  Al1  1  0.75003422  0.25003422  0.49993157  1
  Al  Al2  1  0.25003422  0.75003422  0.49993157  1
  Al  Al3  1  0.39289104  0.39289104  0.21421792  1
  Ag  Ag4  1  0.60788591  0.60788591  0.78422819  1
