# generated using pymatgen
data_Er2Mn3Sb3O14
_symmetry_space_group_name_H-M   'P 1'
_cell_length_a   7.34769516
_cell_length_b   7.32119729
_cell_length_c   7.25301807
_cell_angle_alpha   90.00000000
_cell_angle_beta   58.72289367
_cell_angle_gamma   119.88077662
_symmetry_Int_Tables_number   1
_chemical_formula_structural   Er2Mn3Sb3O14
_chemical_formula_sum   'Er2 Mn3 Sb3 O14'
_cell_volume   270.95060396
_cell_formula_units_Z   1
loop_
 _symmetry_equiv_pos_site_id
 _symmetry_equiv_pos_as_xyz
  1  'x, y, z'
loop_
 _atom_site_type_symbol
 _atom_site_label
 _atom_site_symmetry_multiplicity
 _atom_site_fract_x
 _atom_site_fract_y
 _atom_site_fract_z
 _atom_site_occupancy
  Er  Er0  1  0.50000000  0.50000000  0.00000000  1
  Er  Er1  1  0.50000000  -0.00000000  0.00000000  1
  Mn  Mn2  1  -0.00000000  -0.00000000  0.50000000  1
  Mn  Mn3  1  -0.00000000  -0.00000000  0.00000000  1
  Mn  Mn4  1  -0.00000000  0.50000000  0.00000000  1
  Sb  Sb5  1  0.50000000  -0.00000000  0.50000000  1
  Sb  Sb6  1  0.50000000  0.50000000  0.50000000  1
  Sb  Sb7  1  -0.00000000  0.50000000  0.50000000  1
  O  O8  1  0.24117920  0.12058960  0.13273626  1
  O  O9  1  0.75882080  0.87941040  0.86726374  1
  O  O10  1  0.65918922  0.82959461  0.41431611  1
  O  O11  1  0.81586732  0.40793366  0.83219635  1
  O  O12  1  0.25532024  0.82771777  0.83367085  1
  O  O13  1  0.25137234  0.42079135  0.42182868  1
  O  O14  1  0.25532024  0.42760247  0.83367085  1
  O  O15  1  0.25137234  0.83058099  0.42182868  1
  O  O16  1  0.34081078  0.17040539  0.58568389  1
  O  O17  1  0.18413268  0.59206634  0.16780365  1
  O  O18  1  0.74467976  0.17228223  0.16632915  1
  O  O19  1  0.74862766  0.57920865  0.57817132  1
  O  O20  1  0.74467976  0.57239753  0.16632915  1
  O  O21  1  0.74862766  0.16941901  0.57817132  1
