# generated using pymatgen
data_Ce2Ge3Rh
_symmetry_space_group_name_H-M   'P 1'
_cell_length_a   3.99209289
_cell_length_b   4.38376086
_cell_length_c   7.33917778
_cell_angle_alpha   89.99860495
_cell_angle_beta   90.00000000
_cell_angle_gamma   90.00000000
_symmetry_Int_Tables_number   1
_chemical_formula_structural   Ce2Ge3Rh
_chemical_formula_sum   'Ce2 Ge3 Rh1'
_cell_volume   128.43840425
_cell_formula_units_Z   1
loop_
 _symmetry_equiv_pos_site_id
 _symmetry_equiv_pos_as_xyz
  1  'x, y, z'
loop_
 _atom_site_type_symbol
 _atom_site_label
 _atom_site_symmetry_multiplicity
 _atom_site_fract_x
 _atom_site_fract_y
 _atom_site_fract_z
 _atom_site_occupancy
  Ce  Ce0  1  0.00000000  0.99998311  0.00821163  1
  Ce  Ce1  1  0.00000000  0.49998330  0.49455442  1
  Ge  Ge2  1  0.50000000  0.49994632  0.83271447  1
  Ge  Ge3  1  0.50000000  0.49997622  0.17098255  1
  Ge  Ge4  1  0.50000000  0.99994279  0.66444276  1
  Rh  Rh5  1  0.50000000  0.99996826  0.32909417  1
