# generated using pymatgen
data_CsTaSe3
_symmetry_space_group_name_H-M   'P 1'
_cell_length_a   6.18022460
_cell_length_b   7.79464710
_cell_length_c   7.79476429
_cell_angle_alpha   60.00050158
_cell_angle_beta   90.00000000
_cell_angle_gamma   90.00000000
_symmetry_Int_Tables_number   1
_chemical_formula_structural   CsTaSe3
_chemical_formula_sum   'Cs2 Ta2 Se6'
_cell_volume   325.18951132
_cell_formula_units_Z   2
loop_
 _symmetry_equiv_pos_site_id
 _symmetry_equiv_pos_as_xyz
  1  'x, y, z'
loop_
 _atom_site_type_symbol
 _atom_site_label
 _atom_site_symmetry_multiplicity
 _atom_site_fract_x
 _atom_site_fract_y
 _atom_site_fract_z
 _atom_site_occupancy
  Cs  Cs0  1  0.24877056  0.66669116  0.66661768  1
  Cs  Cs1  1  0.74877056  0.33330884  0.33338232  1
  Ta  Ta2  1  0.54391966  0.99999434  0.00001133  1
  Ta  Ta3  1  0.04391966  0.00000566  0.99998867  1
  Se  Se4  1  0.75063965  0.84320644  0.84324930  1
  Se  Se5  1  0.75063048  0.84322743  0.31354514  1
  Se  Se6  1  0.75063965  0.31354426  0.84324930  1
  Se  Se7  1  0.25063965  0.15679356  0.15675070  1
  Se  Se8  1  0.25063048  0.15677257  0.68645486  1
  Se  Se9  1  0.25063965  0.68645574  0.15675070  1
