# generated using pymatgen
data_Bi2Pd3PtO8
_symmetry_space_group_name_H-M   'P 1'
_cell_length_a   5.82803096
_cell_length_b   6.19069134
_cell_length_c   6.51582173
_cell_angle_alpha   114.94328201
_cell_angle_beta   95.51734529
_cell_angle_gamma   111.87347689
_symmetry_Int_Tables_number   1
_chemical_formula_structural   Bi2Pd3PtO8
_chemical_formula_sum   'Bi2 Pd3 Pt1 O8'
_cell_volume   188.64173561
_cell_formula_units_Z   1
loop_
 _symmetry_equiv_pos_site_id
 _symmetry_equiv_pos_as_xyz
  1  'x, y, z'
loop_
 _atom_site_type_symbol
 _atom_site_label
 _atom_site_symmetry_multiplicity
 _atom_site_fract_x
 _atom_site_fract_y
 _atom_site_fract_z
 _atom_site_occupancy
  Bi  Bi0  1  0.86226113  0.23802922  0.64480499  1
  Bi  Bi1  1  0.13773887  0.76197078  0.35519501  1
  Pd  Pd2  1  0.50000000  0.50000000  0.50000000  1
  Pd  Pd3  1  0.50000000  0.00000000  0.00000000  1
  Pd  Pd4  1  0.00000000  0.00000000  0.00000000  1
  Pt  Pt5  1  0.50000000  0.50000000  0.00000000  1
  O  O6  1  0.64581731  0.39865705  0.22639472  1
  O  O7  1  0.35418269  0.60134295  0.77360528  1
  O  O8  1  0.87460268  0.64502576  0.99121632  1
  O  O9  1  0.12539732  0.35497424  0.00878368  1
  O  O10  1  0.51721640  0.86344589  0.24198064  1
  O  O11  1  0.48278360  0.13655411  0.75801936  1
  O  O12  1  0.83886357  0.86088058  0.64296830  1
  O  O13  1  0.16113643  0.13911942  0.35703170  1
