# generated using pymatgen
data_CaGaCu
_symmetry_space_group_name_H-M   'P 1'
_cell_length_a   4.46278689
_cell_length_b   5.79020377
_cell_length_c   5.51412237
_cell_angle_alpha   97.30461308
_cell_angle_beta   113.87038182
_cell_angle_gamma   67.33303902
_symmetry_Int_Tables_number   1
_chemical_formula_structural   CaGaCu
_chemical_formula_sum   'Ca2 Ga2 Cu2'
_cell_volume   120.16513193
_cell_formula_units_Z   2
loop_
 _symmetry_equiv_pos_site_id
 _symmetry_equiv_pos_as_xyz
  1  'x, y, z'
loop_
 _atom_site_type_symbol
 _atom_site_label
 _atom_site_symmetry_multiplicity
 _atom_site_fract_x
 _atom_site_fract_y
 _atom_site_fract_z
 _atom_site_occupancy
  Ca  Ca0  1  0.75432456  0.69366887  0.20231799  1
  Ca  Ca1  1  0.24567544  0.30633113  0.79768201  1
  Ga  Ga2  1  0.06221134  0.10812601  0.23254869  1
  Ga  Ga3  1  0.93778866  0.89187399  0.76745131  1
  Cu  Cu4  1  0.56198794  0.27286618  0.39684207  1
  Cu  Cu5  1  0.43801206  0.72713382  0.60315793  1
