# generated using pymatgen
data_Cs2PtC2(OF)4
_symmetry_space_group_name_H-M   'P 1'
_cell_length_a   6.37667598
_cell_length_b   8.12515910
_cell_length_c   9.91670282
_cell_angle_alpha   90.32221608
_cell_angle_beta   89.95291468
_cell_angle_gamma   113.24320284
_symmetry_Int_Tables_number   1
_chemical_formula_structural   Cs2PtC2(OF)4
_chemical_formula_sum   'Cs4 Pt2 C4 O8 F8'
_cell_volume   472.09034192
_cell_formula_units_Z   2
loop_
 _symmetry_equiv_pos_site_id
 _symmetry_equiv_pos_as_xyz
  1  'x, y, z'
loop_
 _atom_site_type_symbol
 _atom_site_label
 _atom_site_symmetry_multiplicity
 _atom_site_fract_x
 _atom_site_fract_y
 _atom_site_fract_z
 _atom_site_occupancy
  Cs  Cs0  1  0.72623029  0.45175260  0.83485211  1
  Cs  Cs1  1  0.95166800  0.90965125  0.21064922  1
  Cs  Cs2  1  0.27583690  0.54683298  0.17098386  1
  Cs  Cs3  1  0.04005540  0.08790494  0.78941444  1
  Pt  Pt4  1  0.38337993  0.76575971  0.80847856  1
  Pt  Pt5  1  0.61599756  0.23279692  0.19092306  1
  C  C6  1  0.48390054  0.72372103  0.53838089  1
  C  C7  1  0.24117644  0.72495469  0.53833438  1
  C  C8  1  0.75784392  0.27493702  0.45992433  1
  C  C9  1  0.51325292  0.27387711  0.45995762  1
  O  O10  1  0.16058563  0.74265930  0.65844563  1
  O  O11  1  0.41916826  0.28816929  0.56434137  1
  O  O12  1  0.83925939  0.25528338  0.34071122  1
  O  O13  1  0.41341518  0.25333361  0.34017685  1
  O  O14  1  0.86545714  0.28974137  0.56535889  1
  O  O15  1  0.57754515  0.70916443  0.43362193  1
  O  O16  1  0.58314184  0.74393543  0.65810862  1
  O  O17  1  0.13508886  0.71361587  0.43346175  1
  F  F18  1  0.16892576  0.78345669  0.95090508  1
  F  F19  1  0.75279555  0.49725481  0.16361413  1
  F  F20  1  0.37896977  0.21262047  0.05075638  1
  F  F21  1  0.83488786  0.21689903  0.05055737  1
  F  F22  1  0.50999405  0.02775149  0.78311674  1
  F  F23  1  0.25542130  0.50143494  0.83651196  1
  F  F24  1  0.48211267  0.97121973  0.21746196  1
  F  F25  1  0.62168568  0.78735291  0.94795465  1
