# generated using pymatgen
data_CaU2(BO5)2
_symmetry_space_group_name_H-M   'P 1'
_cell_length_a   6.69237015
_cell_length_b   8.37220408
_cell_length_c   9.37019819
_cell_angle_alpha   63.31708392
_cell_angle_beta   95.48300926
_cell_angle_gamma   89.71801056
_symmetry_Int_Tables_number   1
_chemical_formula_structural   CaU2(BO5)2
_chemical_formula_sum   'Ca2 U4 B4 O20'
_cell_volume   466.27827611
_cell_formula_units_Z   2
loop_
 _symmetry_equiv_pos_site_id
 _symmetry_equiv_pos_as_xyz
  1  'x, y, z'
loop_
 _atom_site_type_symbol
 _atom_site_label
 _atom_site_symmetry_multiplicity
 _atom_site_fract_x
 _atom_site_fract_y
 _atom_site_fract_z
 _atom_site_occupancy
  Ca  Ca0  1  0.41728473  0.65400981  0.67818995  1
  Ca  Ca1  1  0.58364074  0.33230873  0.32151512  1
  U  U2  1  0.00017033  0.49633233  0.00007277  1
  U  U3  1  0.55518118  0.87467365  0.24048520  1
  U  U4  1  0.44658136  0.11430005  0.75915620  1
  U  U5  1  0.00146322  0.99556856  0.00067411  1
  B  B6  1  0.84182919  0.69405291  0.60665247  1
  B  B7  1  0.15910575  0.29713604  0.39318817  1
  B  B8  1  0.07696968  0.80497257  0.39277090  1
  B  B9  1  0.92373472  0.19500754  0.60708434  1
  O  O10  1  0.67308266  0.74454131  0.49997211  1
  O  O11  1  0.32793053  0.24830500  0.49966861  1
  O  O12  1  0.07203723  0.12911252  0.73425582  1
  O  O13  1  0.92800561  0.87062825  0.26617311  1
  O  O14  1  0.23226236  0.54553672  0.89705371  1
  O  O15  1  0.76755084  0.45156209  0.10233313  1
  O  O16  1  0.55587188  0.64826049  0.24989170  1
  O  O17  1  0.44306704  0.89699974  0.75045307  1
  O  O18  1  0.56219280  0.09456039  0.24271346  1
  O  O19  1  0.44187067  0.33668747  0.75675196  1
  O  O20  1  0.81168782  0.61794763  0.76534782  1
  O  O21  1  0.18861381  0.36937245  0.23449811  1
  O  O22  1  0.31186643  0.99051097  0.02074560  1
  O  O23  1  0.69208059  0.99353618  0.97791492  1
  O  O24  1  0.03481029  0.71984843  0.55509731  1
  O  O25  1  0.96636789  0.27436815  0.44486057  1
  O  O26  1  0.27654440  0.81499221  0.37500264  1
  O  O27  1  0.72382186  0.18907254  0.62357656  1
  O  O28  1  0.98796607  0.23030427  0.99332861  1
  O  O29  1  0.01450834  0.75939098  0.01077190  1
