# generated using pymatgen
data_La10Ga3Co7
_symmetry_space_group_name_H-M   'P 1'
_cell_length_a   4.03448038
_cell_length_b   10.00212341
_cell_length_c   23.89274347
_cell_angle_alpha   90.00000000
_cell_angle_beta   90.00000000
_cell_angle_gamma   90.00000000
_symmetry_Int_Tables_number   1
_chemical_formula_structural   La10Ga3Co7
_chemical_formula_sum   'La20 Ga6 Co14'
_cell_volume   964.15273323
_cell_formula_units_Z   2
loop_
 _symmetry_equiv_pos_site_id
 _symmetry_equiv_pos_as_xyz
  1  'x, y, z'
loop_
 _atom_site_type_symbol
 _atom_site_label
 _atom_site_symmetry_multiplicity
 _atom_site_fract_x
 _atom_site_fract_y
 _atom_site_fract_z
 _atom_site_occupancy
  La  La0  1  0.25000000  0.90275267  0.55521421  1
  La  La1  1  0.25000000  0.59724733  0.05521421  1
  La  La2  1  0.75000000  0.09734826  0.44363837  1
  La  La3  1  0.75000000  0.40265174  0.94363837  1
  La  La4  1  0.25000000  0.73736942  0.68984412  1
  La  La5  1  0.25000000  0.76263058  0.18984412  1
  La  La6  1  0.75000000  0.25124016  0.30452573  1
  La  La7  1  0.75000000  0.24875984  0.80452573  1
  La  La8  1  0.25000000  0.36148815  0.52163194  1
  La  La9  1  0.25000000  0.13851185  0.02163194  1
  La  La10  1  0.75000000  0.64191239  0.48067432  1
  La  La11  1  0.75000000  0.85808761  0.98067432  1
  La  La12  1  0.25000000  0.95143453  0.85608698  1
  La  La13  1  0.25000000  0.54856547  0.35608698  1
  La  La14  1  0.75000000  0.05587049  0.15620424  1
  La  La15  1  0.75000000  0.44412951  0.65620424  1
  La  La16  1  0.25000000  0.11565496  0.68355571  1
  La  La17  1  0.25000000  0.38434504  0.18355571  1
  La  La18  1  0.75000000  0.88986154  0.30886473  1
  La  La19  1  0.75000000  0.61013846  0.80886473  1
  Ga  Ga20  1  0.75000000  0.56696193  0.25251277  1
  Ga  Ga21  1  0.75000000  0.93303807  0.75251277  1
  Ga  Ga22  1  0.25000000  0.64691578  0.91440346  1
  Ga  Ga23  1  0.25000000  0.85308422  0.41440346  1
  Ga  Ga24  1  0.75000000  0.35295556  0.08260633  1
  Ga  Ga25  1  0.75000000  0.14704444  0.58260633  1
  Co  Co26  1  0.25000000  0.43159561  0.85673700  1
  Co  Co27  1  0.25000000  0.06840439  0.35673700  1
  Co  Co28  1  0.75000000  0.56133448  0.14263150  1
  Co  Co29  1  0.75000000  0.93866552  0.64263150  1
  Co  Co30  1  0.25000000  0.89267316  0.07715724  1
  Co  Co31  1  0.25000000  0.60732684  0.57715724  1
  Co  Co32  1  0.75000000  0.10626529  0.92297777  1
  Co  Co33  1  0.75000000  0.39373471  0.42297777  1
  Co  Co34  1  0.25000000  0.20931687  0.89880764  1
  Co  Co35  1  0.25000000  0.29068313  0.39880764  1
  Co  Co36  1  0.75000000  0.79774612  0.10193299  1
  Co  Co37  1  0.75000000  0.70225388  0.60193299  1
  Co  Co38  1  0.25000000  0.44617113  0.74999294  1
  Co  Co39  1  0.25000000  0.05382887  0.24999294  1
