# generated using pymatgen
data_Ca2Al2SiO7
_symmetry_space_group_name_H-M   'P 1'
_cell_length_a   5.10285353
_cell_length_b   7.78498794
_cell_length_c   7.75778346
_cell_angle_alpha   90.00000000
_cell_angle_beta   90.00000000
_cell_angle_gamma   90.06508025
_symmetry_Int_Tables_number   1
_chemical_formula_structural   Ca2Al2SiO7
_chemical_formula_sum   'Ca4 Al4 Si2 O14'
_cell_volume   308.18281641
_cell_formula_units_Z   2
loop_
 _symmetry_equiv_pos_site_id
 _symmetry_equiv_pos_as_xyz
  1  'x, y, z'
loop_
 _atom_site_type_symbol
 _atom_site_label
 _atom_site_symmetry_multiplicity
 _atom_site_fract_x
 _atom_site_fract_y
 _atom_site_fract_z
 _atom_site_occupancy
  Ca  Ca0  1  0.51623930  0.82455868  0.34228308  1
  Ca  Ca1  1  0.48376070  0.67544132  0.84228308  1
  Ca  Ca2  1  0.51450773  0.14574110  0.66497114  1
  Ca  Ca3  1  0.48549227  0.35425890  0.16497114  1
  Al  Al4  1  0.00029434  0.49918677  0.50050515  1
  Al  Al5  1  0.99970566  0.00081323  0.00050515  1
  Al  Al6  1  0.95978213  0.64297576  0.14255521  1
  Al  Al7  1  0.04021787  0.85702424  0.64255521  1
  Si  Si8  1  0.95207450  0.35593465  0.85633408  1
  Si  Si9  1  0.04792550  0.14406535  0.35633408  1
  O  O10  1  0.17942956  0.00434436  0.49081422  1
  O  O11  1  0.82057044  0.49565564  0.99081422  1
  O  O12  1  0.19031887  0.32896030  0.40956178  1
  O  O13  1  0.80968113  0.17103970  0.90956178  1
  O  O14  1  0.19820180  0.66159964  0.58844168  1
  O  O15  1  0.80179820  0.83840036  0.08844168  1
  O  O16  1  0.79853546  0.58066609  0.33621708  1
  O  O17  1  0.20146454  0.91933391  0.83621708  1
  O  O18  1  0.81334187  0.40254777  0.66897155  1
  O  O19  1  0.18665813  0.09745223  0.16897155  1
  O  O20  1  0.29908127  0.63648388  0.14130058  1
  O  O21  1  0.70091873  0.86351612  0.64130058  1
  O  O22  1  0.26854825  0.35255797  0.85804445  1
  O  O23  1  0.73145175  0.14744203  0.35804445  1
