# generated using pymatgen
data_Ce2Ga5Cu3
_symmetry_space_group_name_H-M   'P 1'
_cell_length_a   4.22621636
_cell_length_b   4.22621636
_cell_length_c   10.20863513
_cell_angle_alpha   90.00000000
_cell_angle_beta   90.00000000
_cell_angle_gamma   90.00000000
_symmetry_Int_Tables_number   1
_chemical_formula_structural   Ce2Ga5Cu3
_chemical_formula_sum   'Ce2 Ga5 Cu3'
_cell_volume   182.33545939
_cell_formula_units_Z   1
loop_
 _symmetry_equiv_pos_site_id
 _symmetry_equiv_pos_as_xyz
  1  'x, y, z'
loop_
 _atom_site_type_symbol
 _atom_site_label
 _atom_site_symmetry_multiplicity
 _atom_site_fract_x
 _atom_site_fract_y
 _atom_site_fract_z
 _atom_site_occupancy
  Ce  Ce0  1  -0.00000000  0.00000000  0.99645873  1
  Ce  Ce1  1  0.50000000  0.50000000  0.50354127  1
  Ga  Ga2  1  0.50000000  0.50000000  0.11509764  1
  Ga  Ga3  1  -0.00000000  0.00000000  0.62831936  1
  Ga  Ga4  1  0.00000000  0.00000000  0.38490236  1
  Ga  Ga5  1  0.50000000  0.50000000  0.87168064  1
  Ga  Ga6  1  -0.00000000  0.50000000  0.25000000  1
  Cu  Cu7  1  0.50000000  -0.00000000  0.75000000  1
  Cu  Cu8  1  0.50000000  -0.00000000  0.25000000  1
  Cu  Cu9  1  0.00000000  0.50000000  0.75000000  1
