# generated using pymatgen
data_Ca5P3O12F
_symmetry_space_group_name_H-M   'P 1'
_cell_length_a   6.93964625
_cell_length_b   9.47529876
_cell_length_c   9.47539303
_cell_angle_alpha   60.00013694
_cell_angle_beta   90.00000000
_cell_angle_gamma   90.00000000
_symmetry_Int_Tables_number   1
_chemical_formula_structural   Ca5P3O12F
_chemical_formula_sum   'Ca10 P6 O24 F2'
_cell_volume   539.58355986
_cell_formula_units_Z   2
loop_
 _symmetry_equiv_pos_site_id
 _symmetry_equiv_pos_as_xyz
  1  'x, y, z'
loop_
 _atom_site_type_symbol
 _atom_site_label
 _atom_site_symmetry_multiplicity
 _atom_site_fract_x
 _atom_site_fract_y
 _atom_site_fract_z
 _atom_site_occupancy
  Ca  Ca0  1  0.50014048  0.66664031  0.66667993  1
  Ca  Ca1  1  0.00014048  0.33335969  0.33332007  1
  Ca  Ca2  1  0.49983574  0.33335903  0.33332019  1
  Ca  Ca3  1  -0.00016426  0.66664097  0.66667981  1
  Ca  Ca4  1  0.75038823  0.24750774  0.75665014  1
  Ca  Ca5  1  0.75038829  0.99583117  0.24752851  1
  Ca  Ca6  1  0.75038863  0.75666046  0.99581982  1
  Ca  Ca7  1  0.25038823  0.75249226  0.24334986  1
  Ca  Ca8  1  0.25038829  0.00416883  0.75247149  1
  Ca  Ca9  1  0.25038863  0.24333954  0.00418018  1
  P  P10  1  0.75016593  0.02837274  0.60220846  1
  P  P11  1  0.75016598  0.36941409  0.02837443  1
  P  P12  1  0.75016622  0.60221147  0.36941603  1
  P  P13  1  0.25016593  0.97162726  0.39779154  1
  P  P14  1  0.25016598  0.63058591  0.97162557  1
  P  P15  1  0.25016622  0.39778853  0.63058397  1
  O  O16  1  0.75004254  0.84137437  0.67330434  1
  O  O17  1  0.75004257  0.48531368  0.84137781  1
  O  O18  1  0.75004259  0.67330414  0.48531931  1
  O  O19  1  0.25004254  0.15862563  0.32669566  1
  O  O20  1  0.25004257  0.51468632  0.15862219  1
  O  O21  1  0.25004259  0.32669586  0.51468069  1
  O  O22  1  0.57028066  0.08327730  0.65992886  1
  O  O23  1  0.57027686  0.25679643  0.08327808  1
  O  O24  1  0.57027748  0.65992181  0.25679658  1
  O  O25  1  0.07028066  0.91672270  0.34007114  1
  O  O26  1  0.07027686  0.74320357  0.91672192  1
  O  O27  1  0.07027748  0.34007819  0.74320342  1
  O  O28  1  0.43023923  0.91647833  0.34071736  1
  O  O29  1  0.43024227  0.74280142  0.91647815  1
  O  O30  1  0.43024171  0.34072441  0.74280118  1
  O  O31  1  0.93023923  0.08352167  0.65928264  1
  O  O32  1  0.93024227  0.25719858  0.08352185  1
  O  O33  1  0.93024171  0.65927559  0.25719882  1
  O  O34  1  0.74986323  0.12106154  0.41219954  1
  O  O35  1  0.74986358  0.46674917  0.12105019  1
  O  O36  1  0.74986340  0.41219991  0.46674454  1
  O  O37  1  0.24986323  0.87893846  0.58780046  1
  O  O38  1  0.24986358  0.53325083  0.87894981  1
  O  O39  1  0.24986340  0.58780009  0.53325546  1
  F  F40  1  0.76708437  0.99999902  0.00000326  1
  F  F41  1  0.26708437  0.00000098  0.99999674  1
