# generated using pymatgen
data_CoH13C2N4O9
_symmetry_space_group_name_H-M   'P 1'
_cell_length_a   7.81651772
_cell_length_b   10.12973701
_cell_length_c   13.69476971
_cell_angle_alpha   90.00000000
_cell_angle_beta   103.65294206
_cell_angle_gamma   90.00000000
_symmetry_Int_Tables_number   1
_chemical_formula_structural   CoH13C2N4O9
_chemical_formula_sum   'Co4 H52 C8 N16 O36'
_cell_volume   1053.70194175
_cell_formula_units_Z   4
loop_
 _symmetry_equiv_pos_site_id
 _symmetry_equiv_pos_as_xyz
  1  'x, y, z'
loop_
 _atom_site_type_symbol
 _atom_site_label
 _atom_site_symmetry_multiplicity
 _atom_site_fract_x
 _atom_site_fract_y
 _atom_site_fract_z
 _atom_site_occupancy
  Co  Co0  1  0.43027172  0.62917499  0.32260300  1
  Co  Co1  1  0.93027172  0.87082501  0.82260300  1
  Co  Co2  1  0.56972828  0.37082501  0.67739700  1
  Co  Co3  1  0.06972828  0.12917499  0.17739700  1
  H  H4  1  0.30468673  0.45561322  0.19788580  1
  H  H5  1  0.80468673  0.04438678  0.69788580  1
  H  H6  1  0.69531327  0.54438678  0.80211420  1
  H  H7  1  0.19531327  0.95561322  0.30211420  1
  H  H8  1  0.45847743  0.53892553  0.15680525  1
  H  H9  1  0.95847743  0.96107447  0.65680525  1
  H  H10  1  0.54152257  0.46107447  0.84319475  1
  H  H11  1  0.04152257  0.03892553  0.34319475  1
  H  H12  1  0.25907713  0.60365917  0.14604077  1
  H  H13  1  0.75907713  0.89634083  0.64604077  1
  H  H14  1  0.74092287  0.39634083  0.85395923  1
  H  H15  1  0.24092287  0.10365917  0.35395923  1
  H  H16  1  0.55806111  0.84728644  0.30191000  1
  H  H17  1  0.05806111  0.65271356  0.80191000  1
  H  H18  1  0.44193889  0.15271356  0.69809000  1
  H  H19  1  0.94193889  0.34728644  0.19809000  1
  H  H20  1  0.53585140  0.76314555  0.19591169  1
  H  H21  1  0.03585140  0.73685445  0.69591169  1
  H  H22  1  0.46414860  0.23685445  0.80408831  1
  H  H23  1  0.96414860  0.26314555  0.30408831  1
  H  H24  1  0.70990326  0.73772184  0.29028730  1
  H  H25  1  0.20990326  0.76227816  0.79028730  1
  H  H26  1  0.29009674  0.26227816  0.70971270  1
  H  H27  1  0.79009674  0.23772184  0.20971270  1
  H  H28  1  0.60240343  0.46143412  0.43077034  1
  H  H29  1  0.10240343  0.03856588  0.93077034  1
  H  H30  1  0.39759657  0.53856588  0.56922966  1
  H  H31  1  0.89759657  0.96143412  0.06922966  1
  H  H32  1  0.58872989  0.41569350  0.31302447  1
  H  H33  1  0.08872989  0.08430650  0.81302447  1
  H  H34  1  0.41127011  0.58430650  0.68697553  1
  H  H35  1  0.91127011  0.91569350  0.18697553  1
  H  H36  1  0.74160928  0.52376798  0.36698331  1
  H  H37  1  0.24160928  0.97623202  0.86698331  1
  H  H38  1  0.25839072  0.47623202  0.63301669  1
  H  H39  1  0.75839072  0.02376798  0.13301669  1
  H  H40  1  0.63081272  0.72821941  0.48075199  1
  H  H41  1  0.13081272  0.77178059  0.98075199  1
  H  H42  1  0.36918728  0.27178059  0.51924801  1
  H  H43  1  0.86918728  0.22821941  0.01924801  1
  H  H44  1  0.42343106  0.76579422  0.48248874  1
  H  H45  1  0.92343106  0.73420578  0.98248874  1
  H  H46  1  0.57656894  0.23420578  0.51751126  1
  H  H47  1  0.07656894  0.26579422  0.01751126  1
  H  H48  1  0.09594444  0.35002777  0.45508199  1
  H  H49  1  0.59594444  0.14997223  0.95508199  1
  H  H50  1  0.90405556  0.64997223  0.54491801  1
  H  H51  1  0.40405556  0.85002777  0.04491801  1
  H  H52  1  0.06947516  0.21579700  0.50768740  1
  H  H53  1  0.56947516  0.28420300  0.00768740  1
  H  H54  1  0.93052484  0.78420300  0.49231260  1
  H  H55  1  0.43052484  0.71579700  0.99231260  1
  C  C56  1  0.11676779  0.56383122  0.35980824  1
  C  C57  1  0.61676779  0.93616878  0.85980824  1
  C  C58  1  0.88323221  0.43616878  0.64019176  1
  C  C59  1  0.38323221  0.06383122  0.14019176  1
  C  C60  1  0.09237917  0.70170452  0.30939549  1
  C  C61  1  0.59237917  0.79829548  0.80939549  1
  C  C62  1  0.90762083  0.29829548  0.69060451  1
  C  C63  1  0.40762083  0.20170452  0.19060451  1
  N  N64  1  0.35552942  0.54802632  0.19117974  1
  N  N65  1  0.85552942  0.95197368  0.69117974  1
  N  N66  1  0.64447058  0.45197368  0.80882026  1
  N  N67  1  0.14447058  0.04802632  0.30882026  1
  N  N68  1  0.57621225  0.75584984  0.27262823  1
  N  N69  1  0.07621225  0.74415016  0.77262823  1
  N  N70  1  0.42378775  0.24415016  0.72737177  1
  N  N71  1  0.92378775  0.25584984  0.22737177  1
  N  N72  1  0.61304268  0.49498436  0.36166112  1
  N  N73  1  0.11304268  0.00501564  0.86166112  1
  N  N74  1  0.38695732  0.50501564  0.63833888  1
  N  N75  1  0.88695732  0.99498436  0.13833888  1
  N  N76  1  0.30682285  0.92396184  0.59063147  1
  N  N77  1  0.80682285  0.57603816  0.09063147  1
  N  N78  1  0.69317715  0.07603816  0.40936853  1
  N  N79  1  0.19317715  0.42396184  0.90936853  1
  O  O80  1  0.27336515  0.51568113  0.37240311  1
  O  O81  1  0.77336515  0.98431887  0.87240311  1
  O  O82  1  0.72663485  0.48431887  0.62759689  1
  O  O83  1  0.22663485  0.01568113  0.12759689  1
  O  O84  1  0.23465758  0.75004966  0.28948521  1
  O  O85  1  0.73465758  0.74995034  0.78948521  1
  O  O86  1  0.76534242  0.24995034  0.71051479  1
  O  O87  1  0.26534242  0.25004966  0.21051479  1
  O  O88  1  0.99477363  0.50631090  0.38707309  1
  O  O89  1  0.49477363  0.99368910  0.88707309  1
  O  O90  1  0.00522637  0.49368910  0.61292691  1
  O  O91  1  0.50522637  0.00631090  0.11292691  1
  O  O92  1  0.94875903  0.76092108  0.29177451  1
  O  O93  1  0.44875903  0.73907892  0.79177451  1
  O  O94  1  0.05124097  0.23907892  0.70822549  1
  O  O95  1  0.55124097  0.26092108  0.20822549  1
  O  O96  1  0.50424763  0.70304477  0.45718945  1
  O  O97  1  0.00424763  0.79695523  0.95718945  1
  O  O98  1  0.49575237  0.29695523  0.54281055  1
  O  O99  1  0.99575237  0.20304477  0.04281055  1
  O  O100  1  0.14740936  0.26121764  0.47233623  1
  O  O101  1  0.64740936  0.23878236  0.97233623  1
  O  O102  1  0.85259064  0.73878236  0.52766377  1
  O  O103  1  0.35259064  0.76121764  0.02766377  1
  O  O104  1  0.26573707  0.82618793  0.52970533  1
  O  O105  1  0.76573707  0.67381207  0.02970533  1
  O  O106  1  0.73426293  0.17381207  0.47029467  1
  O  O107  1  0.23426293  0.32618793  0.97029467  1
  O  O108  1  0.18787977  0.98053269  0.62362394  1
  O  O109  1  0.68787977  0.51946731  0.12362394  1
  O  O110  1  0.81212023  0.01946731  0.37637606  1
  O  O111  1  0.31212023  0.48053269  0.87637606  1
  O  O112  1  0.46467589  0.96296742  0.61657854  1
  O  O113  1  0.96467589  0.53703258  0.11657854  1
  O  O114  1  0.53532411  0.03703258  0.38342146  1
  O  O115  1  0.03532411  0.46296742  0.88342146  1
