# generated using pymatgen
data_H8RuC5N(ClO)3
_symmetry_space_group_name_H-M   'P 1'
_cell_length_a   9.99865979
_cell_length_b   11.79406952
_cell_length_c   11.76637937
_cell_angle_alpha   119.10001908
_cell_angle_beta   90.00000000
_cell_angle_gamma   90.00000000
_symmetry_Int_Tables_number   1
_chemical_formula_structural   H8RuC5N(ClO)3
_chemical_formula_sum   'H32 Ru4 C20 N4 Cl12 O12'
_cell_volume   1212.40153006
_cell_formula_units_Z   4
loop_
 _symmetry_equiv_pos_site_id
 _symmetry_equiv_pos_as_xyz
  1  'x, y, z'
loop_
 _atom_site_type_symbol
 _atom_site_label
 _atom_site_symmetry_multiplicity
 _atom_site_fract_x
 _atom_site_fract_y
 _atom_site_fract_z
 _atom_site_occupancy
  H  H0  1  0.34365002  0.46109699  0.47743281  1
  H  H1  1  0.61336552  0.67443391  0.49922622  1
  H  H2  1  0.73069965  0.37833065  0.73868567  1
  H  H3  1  0.38663448  0.32556609  0.50077378  1
  H  H4  1  0.42708115  0.65032649  0.34424290  1
  H  H5  1  0.27509501  0.63991608  0.42182137  1
  H  H6  1  0.07291885  0.15032649  0.34424290  1
  H  H7  1  0.60644200  0.69182290  0.65927627  1
  H  H8  1  0.57291885  0.34967351  0.65575710  1
  H  H9  1  0.34602170  0.84305516  0.35214985  1
  H  H10  1  0.84602170  0.65694484  0.64785015  1
  H  H11  1  0.26930035  0.62166935  0.26131433  1
  H  H12  1  0.84365002  0.03890301  0.52256719  1
  H  H13  1  0.15397830  0.34305516  0.35214985  1
  H  H14  1  0.77509501  0.86008392  0.57817863  1
  H  H15  1  0.85093963  0.63952604  0.49696330  1
  H  H16  1  0.65397830  0.15694484  0.64785015  1
  H  H17  1  0.15634998  0.96109699  0.47743281  1
  H  H18  1  0.22490499  0.13991608  0.42182137  1
  H  H19  1  0.72490499  0.36008392  0.57817863  1
  H  H20  1  0.89355800  0.19182290  0.65927627  1
  H  H21  1  0.11336552  0.82556609  0.50077378  1
  H  H22  1  0.92708115  0.84967351  0.65575710  1
  H  H23  1  0.65634998  0.53890301  0.52256719  1
  H  H24  1  0.10644200  0.80817710  0.34072373  1
  H  H25  1  0.35093963  0.86047396  0.50303670  1
  H  H26  1  0.23069965  0.12166935  0.26131433  1
  H  H27  1  0.14906037  0.36047396  0.50303670  1
  H  H28  1  0.88663448  0.17443391  0.49922622  1
  H  H29  1  0.64906037  0.13952604  0.49696330  1
  H  H30  1  0.76930035  0.87833065  0.73868567  1
  H  H31  1  0.39355800  0.30817710  0.34072373  1
  Ru  Ru32  1  0.62627803  0.86219632  0.17163336  1
  Ru  Ru33  1  0.37372197  0.13780368  0.82836664  1
  Ru  Ru34  1  0.87372197  0.36219632  0.17163336  1
  Ru  Ru35  1  0.12627803  0.63780368  0.82836664  1
  C  C36  1  0.12010510  0.63109003  0.98592318  1
  C  C37  1  0.63444750  0.67857900  0.08660631  1
  C  C38  1  0.18618366  0.12001535  0.81358555  1
  C  C39  1  0.13444750  0.82142100  0.91339369  1
  C  C40  1  0.84143130  0.14473453  0.56557550  1
  C  C41  1  0.36555250  0.32142100  0.91339369  1
  C  C42  1  0.31954377  0.67060797  0.35593098  1
  C  C43  1  0.37989490  0.13109003  0.98592318  1
  C  C44  1  0.68045623  0.32939203  0.64406902  1
  C  C45  1  0.34143130  0.35526547  0.43442450  1
  C  C46  1  0.81381634  0.87998465  0.18641445  1
  C  C47  1  0.31381634  0.62001535  0.81358555  1
  C  C48  1  0.62010510  0.86890997  0.01407682  1
  C  C49  1  0.68618366  0.37998465  0.18641445  1
  C  C50  1  0.18045623  0.17060797  0.35593098  1
  C  C51  1  0.15856870  0.85526547  0.43442450  1
  C  C52  1  0.87989490  0.36890997  0.01407682  1
  C  C53  1  0.65856870  0.64473453  0.56557550  1
  C  C54  1  0.81954377  0.82939203  0.64406902  1
  C  C55  1  0.86555250  0.17857900  0.08660631  1
  N  N56  1  0.69883442  0.18644476  0.58631882  1
  N  N57  1  0.19883442  0.31355524  0.41368118  1
  N  N58  1  0.80116558  0.68644476  0.58631882  1
  N  N59  1  0.30116558  0.81355524  0.41368118  1
  Cl  Cl60  1  0.61960055  0.15342257  0.83801243  1
  Cl  Cl61  1  0.87866083  0.36506812  0.38028190  1
  Cl  Cl62  1  0.38039945  0.84657743  0.16198757  1
  Cl  Cl63  1  0.12133917  0.63493188  0.61971810  1
  Cl  Cl64  1  0.89061169  0.59910304  0.28883769  1
  Cl  Cl65  1  0.88039945  0.65342257  0.83801243  1
  Cl  Cl66  1  0.10938831  0.40089696  0.71116231  1
  Cl  Cl67  1  0.11960055  0.34657743  0.16198757  1
  Cl  Cl68  1  0.62133917  0.86506812  0.38028190  1
  Cl  Cl69  1  0.39061169  0.90089696  0.71116231  1
  Cl  Cl70  1  0.37866083  0.13493188  0.61971810  1
  Cl  Cl71  1  0.60938831  0.09910304  0.28883769  1
  O  O72  1  0.07153160  0.10708791  0.80110352  1
  O  O73  1  0.38691479  0.12479431  0.08045529  1
  O  O74  1  0.13756049  0.93336571  0.96409964  1
  O  O75  1  0.86243951  0.06663429  0.03590036  1
  O  O76  1  0.36243951  0.43336571  0.96409964  1
  O  O77  1  0.61308521  0.87520569  0.91954471  1
  O  O78  1  0.63756049  0.56663429  0.03590036  1
  O  O79  1  0.11308521  0.62479431  0.08045529  1
  O  O80  1  0.57153160  0.39291209  0.19889648  1
  O  O81  1  0.42846840  0.60708791  0.80110352  1
  O  O82  1  0.88691479  0.37520569  0.91954471  1
  O  O83  1  0.92846840  0.89291209  0.19889648  1
