# generated using pymatgen
data_CaDy2(GeO3)4
_symmetry_space_group_name_H-M   'P 1'
_cell_length_a   5.11216996
_cell_length_b   10.11461058
_cell_length_c   10.11461058
_cell_angle_alpha   90.11491355
_cell_angle_beta   90.00000000
_cell_angle_gamma   90.00000000
_symmetry_Int_Tables_number   1
_chemical_formula_structural   CaDy2(GeO3)4
_chemical_formula_sum   'Ca2 Dy4 Ge8 O24'
_cell_volume   523.00127030
_cell_formula_units_Z   2
loop_
 _symmetry_equiv_pos_site_id
 _symmetry_equiv_pos_as_xyz
  1  'x, y, z'
loop_
 _atom_site_type_symbol
 _atom_site_label
 _atom_site_symmetry_multiplicity
 _atom_site_fract_x
 _atom_site_fract_y
 _atom_site_fract_z
 _atom_site_occupancy
  Ca  Ca0  1  0.50000000  0.50000000  0.50000000  1
  Ca  Ca1  1  0.50000000  0.00000000  -0.00000000  1
  Dy  Dy2  1  0.50000000  0.00000000  0.50000000  1
  Dy  Dy3  1  0.50000000  0.50000000  -0.00000000  1
  Dy  Dy4  1  0.50000000  0.75000000  0.75000000  1
  Dy  Dy5  1  0.50000000  0.25000000  0.25000000  1
  Ge  Ge6  1  0.99881308  0.75116548  0.02107031  1
  Ge  Ge7  1  0.00118692  0.24883452  0.97892969  1
  Ge  Ge8  1  0.00118692  0.25116548  0.52107031  1
  Ge  Ge9  1  0.99881308  0.74883452  0.47892969  1
  Ge  Ge10  1  0.00118692  0.02107031  0.75116548  1
  Ge  Ge11  1  0.99881308  0.97892969  0.24883452  1
  Ge  Ge12  1  0.99881308  0.52107031  0.25116548  1
  Ge  Ge13  1  0.00118692  0.47892969  0.74883452  1
  O  O14  1  0.15672963  0.87094787  0.12905213  1
  O  O15  1  0.16179799  0.37491588  0.87491588  1
  O  O16  1  0.16179799  0.12508412  0.62508412  1
  O  O17  1  0.15672963  0.62905213  0.37094787  1
  O  O18  1  0.84327037  0.12905213  0.87094787  1
  O  O19  1  0.83820201  0.62508412  0.12508412  1
  O  O20  1  0.83820201  0.87491588  0.37491588  1
  O  O21  1  0.84327037  0.37094787  0.62905213  1
  O  O22  1  0.25539081  0.56620267  0.67682531  1
  O  O23  1  0.25804540  0.05989439  0.32769920  1
  O  O24  1  0.25804540  0.44010561  0.17230080  1
  O  O25  1  0.25539081  0.93379733  0.82317469  1
  O  O26  1  0.74460919  0.43379733  0.32317469  1
  O  O27  1  0.74195460  0.94010561  0.67230080  1
  O  O28  1  0.74195460  0.55989439  0.82769920  1
  O  O29  1  0.74460919  0.06620267  0.17682531  1
  O  O30  1  0.74460919  0.67682531  0.56620267  1
  O  O31  1  0.74195460  0.32769920  0.05989439  1
  O  O32  1  0.74195460  0.17230080  0.44010561  1
  O  O33  1  0.74460919  0.82317469  0.93379733  1
  O  O34  1  0.25539081  0.32317469  0.43379733  1
  O  O35  1  0.25804540  0.67230080  0.94010561  1
  O  O36  1  0.25804540  0.82769920  0.55989439  1
  O  O37  1  0.25539081  0.17682531  0.06620267  1
