# generated using pymatgen
data_CaEr2(GeO3)4
_symmetry_space_group_name_H-M   'P 1'
_cell_length_a   5.07966319
_cell_length_b   10.07394585
_cell_length_c   10.07394585
_cell_angle_alpha   89.98703757
_cell_angle_beta   90.00000000
_cell_angle_gamma   90.00000000
_symmetry_Int_Tables_number   1
_chemical_formula_structural   CaEr2(GeO3)4
_chemical_formula_sum   'Ca2 Er4 Ge8 O24'
_cell_volume   515.50648205
_cell_formula_units_Z   2
loop_
 _symmetry_equiv_pos_site_id
 _symmetry_equiv_pos_as_xyz
  1  'x, y, z'
loop_
 _atom_site_type_symbol
 _atom_site_label
 _atom_site_symmetry_multiplicity
 _atom_site_fract_x
 _atom_site_fract_y
 _atom_site_fract_z
 _atom_site_occupancy
  Ca  Ca0  1  0.50000000  0.50000000  0.50000000  1
  Ca  Ca1  1  0.50000000  -0.00000000  -0.00000000  1
  Er  Er2  1  0.50000000  -0.00000000  0.50000000  1
  Er  Er3  1  0.50000000  0.50000000  -0.00000000  1
  Er  Er4  1  0.50000000  0.75000000  0.75000000  1
  Er  Er5  1  0.50000000  0.25000000  0.25000000  1
  Ge  Ge6  1  0.99847429  0.75047004  0.02015859  1
  Ge  Ge7  1  0.00152571  0.24952996  0.97984141  1
  Ge  Ge8  1  0.00152571  0.25047004  0.52015859  1
  Ge  Ge9  1  0.99847429  0.74952996  0.47984141  1
  Ge  Ge10  1  0.00152571  0.02015859  0.75047004  1
  Ge  Ge11  1  0.99847429  0.97984141  0.24952996  1
  Ge  Ge12  1  0.99847429  0.52015859  0.25047004  1
  Ge  Ge13  1  0.00152571  0.47984141  0.74952996  1
  O  O14  1  0.25400501  0.56866506  0.67725703  1
  O  O15  1  0.26022390  0.05927149  0.32837417  1
  O  O16  1  0.26022390  0.44072851  0.17162583  1
  O  O17  1  0.25400501  0.93133494  0.82274297  1
  O  O18  1  0.74599499  0.43133494  0.32274297  1
  O  O19  1  0.73977610  0.94072851  0.67162583  1
  O  O20  1  0.73977610  0.55927149  0.82837417  1
  O  O21  1  0.74599499  0.06866506  0.17725703  1
  O  O22  1  0.74599499  0.67725703  0.56866506  1
  O  O23  1  0.73977610  0.32837417  0.05927149  1
  O  O24  1  0.73977610  0.17162583  0.44072851  1
  O  O25  1  0.74599499  0.82274297  0.93133494  1
  O  O26  1  0.25400501  0.32274297  0.43133494  1
  O  O27  1  0.26022390  0.67162583  0.94072851  1
  O  O28  1  0.26022390  0.82837417  0.55927149  1
  O  O29  1  0.25400501  0.17725703  0.06866506  1
  O  O30  1  0.15588754  0.87043444  0.12956556  1
  O  O31  1  0.16532624  0.37580507  0.87580507  1
  O  O32  1  0.16532624  0.12419493  0.62419493  1
  O  O33  1  0.15588754  0.62956556  0.37043444  1
  O  O34  1  0.84411246  0.12956556  0.87043444  1
  O  O35  1  0.83467376  0.62419493  0.12419493  1
  O  O36  1  0.83467376  0.87580507  0.37580507  1
  O  O37  1  0.84411246  0.37043444  0.62956556  1
