# generated using pymatgen
data_CaLa2Mn3O9
_symmetry_space_group_name_H-M   'P 1'
_cell_length_a   5.56159425
_cell_length_b   13.53921835
_cell_length_c   9.56071231
_cell_angle_alpha   90.09878777
_cell_angle_beta   90.00000000
_cell_angle_gamma   90.00000000
_symmetry_Int_Tables_number   1
_chemical_formula_structural   CaLa2Mn3O9
_chemical_formula_sum   'Ca4 La8 Mn12 O36'
_cell_volume   719.91711439
_cell_formula_units_Z   4
loop_
 _symmetry_equiv_pos_site_id
 _symmetry_equiv_pos_as_xyz
  1  'x, y, z'
loop_
 _atom_site_type_symbol
 _atom_site_label
 _atom_site_symmetry_multiplicity
 _atom_site_fract_x
 _atom_site_fract_y
 _atom_site_fract_z
 _atom_site_occupancy
  Ca  Ca0  1  0.03651809  0.08369603  0.16761955  1
  Ca  Ca1  1  0.53651809  0.58296997  0.66571445  1
  Ca  Ca2  1  0.96348191  0.58296997  0.16571445  1
  Ca  Ca3  1  0.46348191  0.08369603  0.66761955  1
  La  La4  1  0.03607078  0.42277838  0.83053316  1
  La  La5  1  0.02696097  0.74733919  0.49844033  1
  La  La6  1  0.52696097  0.91932781  0.33489267  1
  La  La7  1  0.53607078  0.24388862  0.00279984  1
  La  La8  1  0.97303903  0.91932781  0.83489267  1
  La  La9  1  0.96392922  0.24388862  0.50279984  1
  La  La10  1  0.46392922  0.42277838  0.33053316  1
  La  La11  1  0.47303903  0.74733919  0.99844033  1
  Mn  Mn12  1  0.99741354  0.49982628  0.50027401  1
  Mn  Mn13  1  0.00000000  0.83333300  0.16666700  1
  Mn  Mn14  1  0.00258646  0.16684072  0.83305899  1
  Mn  Mn15  1  0.50000000  0.83333300  0.66666700  1
  Mn  Mn16  1  0.49741354  0.16684072  0.33305899  1
  Mn  Mn17  1  0.50258646  0.49982628  0.00027401  1
  Mn  Mn18  1  0.00130063  0.66570004  0.83452158  1
  Mn  Mn19  1  0.99869937  0.00096696  0.49881142  1
  Mn  Mn20  1  0.00000000  0.33333300  0.16666700  1
  Mn  Mn21  1  0.49869937  0.66570004  0.33452158  1
  Mn  Mn22  1  0.50130063  0.00096696  0.99881142  1
  Mn  Mn23  1  0.50000000  0.33333300  0.66666700  1
  O  O24  1  0.79359930  0.41075708  0.61712910  1
  O  O25  1  0.78204660  0.75111972  0.28476577  1
  O  O26  1  0.79419214  0.08265512  0.95525848  1
  O  O27  1  0.29419214  0.58401088  0.87807552  1
  O  O28  1  0.28204660  0.91554728  0.54856723  1
  O  O29  1  0.29359930  0.25590992  0.21620390  1
  O  O30  1  0.21413022  0.77521430  0.76137783  1
  O  O31  1  0.20956613  0.10506595  0.42099645  1
  O  O32  1  0.20621613  0.44267048  0.09602542  1
  O  O33  1  0.71413022  0.89145270  0.07195517  1
  O  O34  1  0.70621613  0.22399552  0.73730858  1
  O  O35  1  0.70956613  0.56160105  0.41233655  1
  O  O36  1  0.21795340  0.91554728  0.04856723  1
  O  O37  1  0.20640070  0.25590992  0.71620390  1
  O  O38  1  0.20580786  0.58401088  0.37807552  1
  O  O39  1  0.71795340  0.75111972  0.78476577  1
  O  O40  1  0.70580786  0.08265512  0.45525848  1
  O  O41  1  0.70640070  0.41075708  0.11712910  1
  O  O42  1  0.79043387  0.56160105  0.91233655  1
  O  O43  1  0.78586978  0.89145270  0.57195517  1
  O  O44  1  0.79378387  0.22399552  0.23730858  1
  O  O45  1  0.29378387  0.44267048  0.59602542  1
  O  O46  1  0.28586978  0.77521430  0.26137783  1
  O  O47  1  0.29043387  0.10506595  0.92099645  1
  O  O48  1  0.49191963  0.39251872  0.85718617  1
  O  O49  1  0.47997547  0.72780359  0.52297076  1
  O  O50  1  0.47896903  0.06378823  0.18563907  1
  O  O51  1  0.97896903  0.60287877  0.64769393  1
  O  O52  1  0.97997547  0.93886341  0.31036224  1
  O  O53  1  0.99191963  0.27414728  0.97614783  1
  O  O54  1  0.52002453  0.93886341  0.81036224  1
  O  O55  1  0.50808037  0.27414728  0.47614783  1
  O  O56  1  0.52103097  0.60287877  0.14769393  1
  O  O57  1  0.02002453  0.72780359  0.02297076  1
  O  O58  1  0.02103097  0.06378823  0.68563907  1
  O  O59  1  0.00808037  0.39251872  0.35718617  1
