# generated using pymatgen
data_Al6CoCu3
_symmetry_space_group_name_H-M   'P 1'
_cell_length_a   4.10336678
_cell_length_b   4.10616310
_cell_length_c   9.94360107
_cell_angle_alpha   89.99999998
_cell_angle_beta   89.98593670
_cell_angle_gamma   120.02255281
_symmetry_Int_Tables_number   1
_chemical_formula_structural   Al6CoCu3
_chemical_formula_sum   'Al6 Co1 Cu3'
_cell_volume   145.06147835
_cell_formula_units_Z   1
loop_
 _symmetry_equiv_pos_site_id
 _symmetry_equiv_pos_as_xyz
  1  'x, y, z'
loop_
 _atom_site_type_symbol
 _atom_site_label
 _atom_site_symmetry_multiplicity
 _atom_site_fract_x
 _atom_site_fract_y
 _atom_site_fract_z
 _atom_site_occupancy
  Al  Al0  1  0.33347497  0.66673749  0.18824707  1
  Al  Al1  1  0.33349320  0.66674660  0.67267734  1
  Al  Al2  1  0.66652384  0.33326192  0.32905422  1
  Al  Al3  1  0.66650668  0.33325334  0.82267906  1
  Al  Al4  1  0.99998747  0.99999374  0.00461164  1
  Al  Al5  1  0.00002417  0.00001208  0.47291120  1
  Co  Co6  1  0.33331712  0.66665856  0.42998992  1
  Cu  Cu7  1  0.33397609  0.66698804  0.92607023  1
  Cu  Cu8  1  0.66615283  0.33307642  0.07728603  1
  Cu  Cu9  1  0.66654363  0.33327181  0.57647328  1
