# generated using pymatgen
data_Ba4La2SbRuO12
_symmetry_space_group_name_H-M   'P 1'
_cell_length_a   6.11434418
_cell_length_b   6.13690946
_cell_length_c   10.63179469
_cell_angle_alpha   73.33039128
_cell_angle_beta   90.43586186
_cell_angle_gamma   60.50987687
_symmetry_Int_Tables_number   1
_chemical_formula_structural   Ba4La2SbRuO12
_chemical_formula_sum   'Ba4 La2 Sb1 Ru1 O12'
_cell_volume   327.31850123
_cell_formula_units_Z   1
loop_
 _symmetry_equiv_pos_site_id
 _symmetry_equiv_pos_as_xyz
  1  'x, y, z'
loop_
 _atom_site_type_symbol
 _atom_site_label
 _atom_site_symmetry_multiplicity
 _atom_site_fract_x
 _atom_site_fract_y
 _atom_site_fract_z
 _atom_site_occupancy
  Ba  Ba0  1  0.37515950  0.74332058  0.12909908  1
  Ba  Ba1  1  0.87239700  0.74922420  0.62099441  1
  Ba  Ba2  1  0.12760300  0.25077580  0.37900559  1
  Ba  Ba3  1  0.62484050  0.25667942  0.87090092  1
  La  La4  1  0.75030071  0.99940393  0.25052031  1
  La  La5  1  0.24969929  0.00059607  0.74947969  1
  Sb  Sb6  1  0.00000000  0.50000000  -0.00000000  1
  Ru  Ru7  1  0.50000000  0.50000000  0.50000000  1
  O  O8  1  0.17871687  0.72865826  0.36665134  1
  O  O9  1  0.67716747  0.73130837  0.86231114  1
  O  O10  1  0.32283253  0.26869163  0.13768886  1
  O  O11  1  0.82128313  0.27134174  0.63334866  1
  O  O12  1  0.86724168  0.76511397  0.09804535  1
  O  O13  1  0.36970024  0.75989189  0.59763995  1
  O  O14  1  0.63029976  0.24010811  0.40236005  1
  O  O15  1  0.13275832  0.23488603  0.90195465  1
  O  O16  1  0.65755092  0.68796784  0.39061255  1
  O  O17  1  0.16107876  0.68868335  0.88883067  1
  O  O18  1  0.83892124  0.31131665  0.11116933  1
  O  O19  1  0.34244908  0.31203216  0.60938745  1
