# generated using pymatgen
data_BaSi2(NO)2
_symmetry_space_group_name_H-M   'P 1'
_cell_length_a   4.88345904
_cell_length_b   5.38829472
_cell_length_c   7.76027341
_cell_angle_alpha   69.68558197
_cell_angle_beta   90.00000000
_cell_angle_gamma   90.00000000
_symmetry_Int_Tables_number   1
_chemical_formula_structural   BaSi2(NO)2
_chemical_formula_sum   'Ba2 Si4 N4 O4'
_cell_volume   191.49916471
_cell_formula_units_Z   2
loop_
 _symmetry_equiv_pos_site_id
 _symmetry_equiv_pos_as_xyz
  1  'x, y, z'
loop_
 _atom_site_type_symbol
 _atom_site_label
 _atom_site_symmetry_multiplicity
 _atom_site_fract_x
 _atom_site_fract_y
 _atom_site_fract_z
 _atom_site_occupancy
  Ba  Ba0  1  0.22595124  0.24443543  1.00000000  1
  Ba  Ba1  1  0.72595124  0.75556457  0.00000000  1
  Si  Si2  1  0.77080271  0.53857083  0.59955389  1
  Si  Si3  1  0.27080271  0.86187529  0.59955389  1
  Si  Si4  1  0.27080271  0.46142917  0.40044611  1
  Si  Si5  1  0.77080271  0.13812471  0.40044611  1
  N  N6  1  0.62351809  0.40841400  0.44347352  1
  N  N7  1  0.12351809  0.14811248  0.44347352  1
  N  N8  1  0.62351809  0.85188752  0.55652648  1
  N  N9  1  0.12351809  0.59158600  0.55652648  1
  O  O10  1  0.72080358  0.35397430  0.81356736  1
  O  O11  1  0.22080358  0.83245834  0.81356736  1
  O  O12  1  0.22080358  0.64602570  0.18643264  1
  O  O13  1  0.72080358  0.16754166  0.18643264  1
