# generated using pymatgen
data_Ba3V2Ni6(AsO6)4
_symmetry_space_group_name_H-M   'P 1'
_cell_length_a   5.04464009
_cell_length_b   8.39800488
_cell_length_c   13.34665632
_cell_angle_alpha   103.12110323
_cell_angle_beta   79.10714801
_cell_angle_gamma   107.47590303
_symmetry_Int_Tables_number   1
_chemical_formula_structural   Ba3V2Ni6(AsO6)4
_chemical_formula_sum   'Ba3 V2 Ni6 As4 O24'
_cell_volume   520.79078646
_cell_formula_units_Z   1
loop_
 _symmetry_equiv_pos_site_id
 _symmetry_equiv_pos_as_xyz
  1  'x, y, z'
loop_
 _atom_site_type_symbol
 _atom_site_label
 _atom_site_symmetry_multiplicity
 _atom_site_fract_x
 _atom_site_fract_y
 _atom_site_fract_z
 _atom_site_occupancy
  Ba  Ba0  1  0.00021974  0.00056474  0.00011623  1
  Ba  Ba1  1  0.33350532  0.00026598  0.33370387  1
  Ba  Ba2  1  0.66683346  0.00044163  0.66632225  1
  V  V3  1  0.23525453  0.27940370  0.80889684  1
  V  V4  1  0.56857452  0.27935933  0.14207339  1
  Ni  Ni5  1  0.10636542  0.49199728  0.27704314  1
  Ni  Ni6  1  0.44212932  0.49211874  0.61005600  1
  Ni  Ni7  1  0.77409430  0.49179291  0.94355308  1
  Ni  Ni8  1  0.89083965  0.50680708  0.72275877  1
  Ni  Ni9  1  0.22514541  0.50658479  0.05629903  1
  Ni  Ni10  1  0.55977748  0.50711584  0.38987675  1
  As  As11  1  0.09793306  0.72014619  0.52449407  1
  As  As12  1  0.43101838  0.71981812  0.85773672  1
  As  As13  1  0.76433453  0.71986097  0.19106749  1
  As  As14  1  0.90220747  0.28003067  0.47557997  1
  O  O15  1  0.19316978  0.93474322  0.54850849  1
  O  O16  1  0.52653976  0.93478215  0.88168377  1
  O  O17  1  0.85994488  0.93465819  0.21469726  1
  O  O18  1  0.80686724  0.06555587  0.45176767  1
  O  O19  1  0.13951084  0.06392239  0.78493404  1
  O  O20  1  0.47288663  0.06389592  0.11813145  1
  O  O21  1  0.84221512  0.65362760  0.62498382  1
  O  O22  1  0.17539924  0.65363109  0.95831170  1
  O  O23  1  0.50851144  0.65335866  0.29167879  1
  O  O24  1  0.96743453  0.65366064  0.40574825  1
  O  O25  1  0.30028928  0.65341446  0.73898752  1
  O  O26  1  0.63380845  0.65351185  0.07233865  1
  O  O27  1  0.39544996  0.65339166  0.52047416  1
  O  O28  1  0.72886144  0.65366794  0.85387290  1
  O  O29  1  0.06217694  0.65355414  0.18712787  1
  O  O30  1  0.15841407  0.34658145  0.37506966  1
  O  O31  1  0.49424386  0.34745928  0.70699843  1
  O  O32  1  0.82798593  0.34736115  0.04031268  1
  O  O33  1  0.03381308  0.34660044  0.59421519  1
  O  O34  1  0.36799213  0.34737974  0.92924052  1
  O  O35  1  0.70052711  0.34744828  0.26262017  1
  O  O36  1  0.60436818  0.34663035  0.47967166  1
  O  O37  1  0.93413410  0.34745228  0.81262262  1
  O  O38  1  0.26722342  0.34740330  0.14642515  1
