# generated using pymatgen
data_BaSrDy4O8
_symmetry_space_group_name_H-M   'P 1'
_cell_length_a   3.46644594
_cell_length_b   10.32184398
_cell_length_c   12.09717850
_cell_angle_alpha   90.00000000
_cell_angle_beta   90.00000000
_cell_angle_gamma   90.00000000
_symmetry_Int_Tables_number   1
_chemical_formula_structural   BaSrDy4O8
_chemical_formula_sum   'Ba2 Sr2 Dy8 O16'
_cell_volume   432.83842772
_cell_formula_units_Z   2
loop_
 _symmetry_equiv_pos_site_id
 _symmetry_equiv_pos_as_xyz
  1  'x, y, z'
loop_
 _atom_site_type_symbol
 _atom_site_label
 _atom_site_symmetry_multiplicity
 _atom_site_fract_x
 _atom_site_fract_y
 _atom_site_fract_z
 _atom_site_occupancy
  Ba  Ba0  1  0.75000000  0.74842783  0.14875441  1
  Ba  Ba1  1  0.75000000  0.24842783  0.35124559  1
  Sr  Sr2  1  0.25000000  0.25423840  0.85308420  1
  Sr  Sr3  1  0.25000000  0.75423840  0.64691580  1
  Dy  Dy4  1  0.75000000  0.07473992  0.61339421  1
  Dy  Dy5  1  0.75000000  0.57473992  0.88660579  1
  Dy  Dy6  1  0.25000000  0.92298616  0.39230844  1
  Dy  Dy7  1  0.25000000  0.42298616  0.10769156  1
  Dy  Dy8  1  0.75000000  0.07901770  0.10680284  1
  Dy  Dy9  1  0.75000000  0.57901770  0.39319716  1
  Dy  Dy10  1  0.25000000  0.92458093  0.88527849  1
  Dy  Dy11  1  0.25000000  0.42458093  0.61472151  1
  O  O12  1  0.75000000  0.28782068  0.66933209  1
  O  O13  1  0.75000000  0.78782068  0.83066791  1
  O  O14  1  0.25000000  0.71200960  0.33862672  1
  O  O15  1  0.25000000  0.21200960  0.16137328  1
  O  O16  1  0.75000000  0.37554717  0.97819329  1
  O  O17  1  0.75000000  0.87554717  0.52180671  1
  O  O18  1  0.25000000  0.61706433  0.01422376  1
  O  O19  1  0.25000000  0.11706433  0.48577624  1
  O  O20  1  0.75000000  0.98487020  0.28388143  1
  O  O21  1  0.75000000  0.48487020  0.21611857  1
  O  O22  1  0.25000000  0.00879658  0.71526148  1
  O  O23  1  0.25000000  0.50879658  0.78473852  1
  O  O24  1  0.75000000  0.07695734  0.91924884  1
  O  O25  1  0.75000000  0.57695734  0.58075116  1
  O  O26  1  0.25000000  0.93294316  0.07147291  1
  O  O27  1  0.25000000  0.43294316  0.42852709  1
