# generated using pymatgen
data_BaSrV4(NiO4)4
_symmetry_space_group_name_H-M   'P 1'
_cell_length_a   8.48500620
_cell_length_b   9.75833491
_cell_length_c   9.75833491
_cell_angle_alpha   100.89522327
_cell_angle_beta   115.76982713
_cell_angle_gamma   64.23017287
_symmetry_Int_Tables_number   1
_chemical_formula_structural   BaSrV4(NiO4)4
_chemical_formula_sum   'Ba2 Sr2 V8 Ni8 O32'
_cell_volume   655.26532420
_cell_formula_units_Z   2
loop_
 _symmetry_equiv_pos_site_id
 _symmetry_equiv_pos_as_xyz
  1  'x, y, z'
loop_
 _atom_site_type_symbol
 _atom_site_label
 _atom_site_symmetry_multiplicity
 _atom_site_fract_x
 _atom_site_fract_y
 _atom_site_fract_z
 _atom_site_occupancy
  Ba  Ba0  1  0.25000000  0.50000000  0.50000000  1
  Ba  Ba1  1  0.75000000  0.50000000  0.50000000  1
  Sr  Sr2  1  0.50000000  -0.00000000  0.00000000  1
  Sr  Sr3  1  0.00000000  -0.00000000  0.00000000  1
  V  V4  1  0.04450822  0.32807819  0.16788539  1
  V  V5  1  0.70470102  0.16788539  0.32807819  1
  V  V6  1  0.54450822  0.83211461  0.67192181  1
  V  V7  1  0.20470102  0.67192181  0.83211461  1
  V  V8  1  0.12337717  0.83211461  0.32807819  1
  V  V9  1  0.62337717  0.67192181  0.16788539  1
  V  V10  1  0.12741359  0.32807819  0.83211461  1
  V  V11  1  0.62741359  0.16788539  0.67192181  1
  Ni  Ni12  1  0.66890985  0.50000000  0.83781970  1
  Ni  Ni13  1  0.83109015  0.83781970  0.50000000  1
  Ni  Ni14  1  0.41831112  -0.00000000  0.33662225  1
  Ni  Ni15  1  0.58168888  0.33662225  -0.00000000  1
  Ni  Ni16  1  0.33109015  0.50000000  0.16218030  1
  Ni  Ni17  1  0.16890985  0.16218030  0.50000000  1
  Ni  Ni18  1  0.08168888  0.00000000  0.66337775  1
  Ni  Ni19  1  0.91831112  0.66337775  0.00000000  1
  O  O20  1  0.68399923  0.66657499  0.01482055  1
  O  O21  1  0.83575367  0.01482055  0.66657499  1
  O  O22  1  0.41832117  0.16365586  0.51734762  1
  O  O23  1  0.56462941  0.51734762  0.16365586  1
  O  O24  1  0.33575367  0.33342501  0.98517945  1
  O  O25  1  0.18399923  0.98517945  0.33342501  1
  O  O26  1  0.06462941  0.83634414  0.48265238  1
  O  O27  1  0.91832117  0.48265238  0.83634414  1
  O  O28  1  0.33082132  0.98517945  0.66657499  1
  O  O29  1  0.83082132  0.33342501  0.01482055  1
  O  O30  1  0.09902645  0.48265238  0.16365586  1
  O  O31  1  0.59902645  0.83634414  0.51734762  1
  O  O32  1  0.64942579  0.01482055  0.33342501  1
  O  O33  1  0.14942579  0.66657499  0.98517945  1
  O  O34  1  0.41802297  0.51734762  0.83634414  1
  O  O35  1  0.91802297  0.16365586  0.48265238  1
  O  O36  1  0.43742733  0.84550265  0.16047832  1
  O  O37  1  0.62245165  0.16047832  0.84550265  1
  O  O38  1  0.63694811  0.33992140  0.66628922  1
  O  O39  1  0.81058029  0.66628922  0.33992140  1
  O  O40  1  0.12245165  0.15449735  0.83952168  1
  O  O41  1  0.93742733  0.83952168  0.15449735  1
  O  O42  1  0.31058029  0.66007860  0.33371078  1
  O  O43  1  0.13694811  0.33371078  0.66007860  1
  O  O44  1  0.72305100  0.83952168  0.84550265  1
  O  O45  1  0.22305100  0.15449735  0.16047832  1
  O  O46  1  0.02934111  0.33371078  0.33992140  1
  O  O47  1  0.52934111  0.66007860  0.66628922  1
  O  O48  1  0.71707003  0.16047832  0.15449735  1
  O  O49  1  0.21707003  0.84550265  0.83952168  1
  O  O50  1  0.02313049  0.66628922  0.66007860  1
  O  O51  1  0.52313049  0.33992140  0.33371078  1
