# generated using pymatgen
data_Ca4MgZnAs4(H2O5)4
_symmetry_space_group_name_H-M   'P 1'
_cell_length_a   5.65874375
_cell_length_b   5.96367282
_cell_length_c   13.19864235
_cell_angle_alpha   92.10901928
_cell_angle_beta   81.70133145
_cell_angle_gamma   109.52456883
_symmetry_Int_Tables_number   1
_chemical_formula_structural   Ca4MgZnAs4(H2O5)4
_chemical_formula_sum   'Ca4 Mg1 Zn1 As4 H8 O20'
_cell_volume   415.37426904
_cell_formula_units_Z   1
loop_
 _symmetry_equiv_pos_site_id
 _symmetry_equiv_pos_as_xyz
  1  'x, y, z'
loop_
 _atom_site_type_symbol
 _atom_site_label
 _atom_site_symmetry_multiplicity
 _atom_site_fract_x
 _atom_site_fract_y
 _atom_site_fract_z
 _atom_site_occupancy
  Ca  Ca0  1  0.23216420  0.58765038  0.11854125  1
  Ca  Ca1  1  0.73055003  0.08801898  0.61912757  1
  Ca  Ca2  1  0.26944997  0.91198102  0.38087243  1
  Ca  Ca3  1  0.76783580  0.41234962  0.88145875  1
  Mg  Mg4  1  0.50000000  0.50000000  0.50000000  1
  Zn  Zn5  1  0.00000000  -0.00000000  0.00000000  1
  As  As6  1  0.95045925  0.28450431  0.37727058  1
  As  As7  1  0.44873141  0.78348645  0.87699919  1
  As  As8  1  0.55126859  0.21651355  0.12300081  1
  As  As9  1  0.04954075  0.71549569  0.62272942  1
  H  H10  1  0.72729231  0.81250275  0.34687391  1
  H  H11  1  0.22851632  0.31211226  0.84719108  1
  H  H12  1  0.77148368  0.68788774  0.15280892  1
  H  H13  1  0.27270769  0.18749725  0.65312609  1
  H  H14  1  0.54101644  0.57453807  0.30222970  1
  H  H15  1  0.04161014  0.07290419  0.80214049  1
  H  H16  1  0.95838986  0.92709581  0.19785951  1
  H  H17  1  0.45898356  0.42546193  0.69777030  1
  O  O18  1  0.64079958  0.22332883  0.43572280  1
  O  O19  1  0.13750718  0.71838593  0.93433910  1
  O  O20  1  0.86249282  0.28161407  0.06566090  1
  O  O21  1  0.35920042  0.77667117  0.56427720  1
  O  O22  1  0.05837528  0.53657396  0.30390310  1
  O  O23  1  0.55762705  0.03579351  0.80391156  1
  O  O24  1  0.44237295  0.96420649  0.19608844  1
  O  O25  1  0.94162472  0.46342604  0.69609690  1
  O  O26  1  0.55951738  0.67986659  0.36448875  1
  O  O27  1  0.05835034  0.18137492  0.86371304  1
  O  O28  1  0.94164966  0.81862508  0.13628696  1
  O  O29  1  0.44048262  0.32013341  0.63551125  1
  O  O30  1  0.12688017  0.28135690  0.47436573  1
  O  O31  1  0.61953553  0.77771248  0.97595649  1
  O  O32  1  0.38046447  0.22228752  0.02404351  1
  O  O33  1  0.87311983  0.71864310  0.52563427  1
  O  O34  1  0.96777497  0.03587796  0.30863124  1
  O  O35  1  0.46847771  0.53536897  0.80839099  1
  O  O36  1  0.53152229  0.46463103  0.19160901  1
  O  O37  1  0.03222503  0.96412204  0.69136876  1
