# generated using pymatgen
data_Ba3NiIrRuO9
_symmetry_space_group_name_H-M   'P 1'
_cell_length_a   5.82255722
_cell_length_b   5.82351325
_cell_length_c   14.28048659
_cell_angle_alpha   90.00000000
_cell_angle_beta   90.01534493
_cell_angle_gamma   59.99457497
_symmetry_Int_Tables_number   1
_chemical_formula_structural   Ba3NiIrRuO9
_chemical_formula_sum   'Ba6 Ni2 Ir2 Ru2 O18'
_cell_volume   419.32302100
_cell_formula_units_Z   2
loop_
 _symmetry_equiv_pos_site_id
 _symmetry_equiv_pos_as_xyz
  1  'x, y, z'
loop_
 _atom_site_type_symbol
 _atom_site_label
 _atom_site_symmetry_multiplicity
 _atom_site_fract_x
 _atom_site_fract_y
 _atom_site_fract_z
 _atom_site_occupancy
  Ba  Ba0  1  0.33339832  0.33330084  0.41250893  1
  Ba  Ba1  1  0.66660168  0.66669916  0.58749107  1
  Ba  Ba2  1  0.66665478  0.66667261  0.91329742  1
  Ba  Ba3  1  0.33334522  0.33332739  0.08670258  1
  Ba  Ba4  1  -0.00000346  0.00000173  0.75051677  1
  Ba  Ba5  1  0.00000346  -0.00000173  0.24948323  1
  Ni  Ni6  1  -0.00000000  0.00000000  0.50000000  1
  Ni  Ni7  1  -0.00000000  0.00000000  -0.00000000  1
  Ir  Ir8  1  0.66629138  0.66685431  0.15982145  1
  Ir  Ir9  1  0.33370862  0.33314569  0.84017855  1
  Ru  Ru10  1  0.33345146  0.33327427  0.65767926  1
  Ru  Ru11  1  0.66654854  0.66672573  0.34232074  1
  O  O12  1  0.48854002  0.02281874  0.74988095  1
  O  O13  1  0.02281380  0.48859310  0.74986647  1
  O  O14  1  0.48854002  0.48864124  0.74988095  1
  O  O15  1  0.51145998  0.97718126  0.25011905  1
  O  O16  1  0.97718620  0.51140690  0.25013353  1
  O  O17  1  0.51145998  0.51135876  0.25011905  1
  O  O18  1  0.17132434  0.65815854  0.91590184  1
  O  O19  1  0.65911981  0.17044010  0.91551307  1
  O  O20  1  0.17132434  0.17051712  0.91590184  1
  O  O21  1  0.82867566  0.34184146  0.08409816  1
  O  O22  1  0.34088019  0.82955990  0.08448693  1
  O  O23  1  0.82867566  0.82948288  0.08409816  1
  O  O24  1  0.82895547  0.34203926  0.41569963  1
  O  O25  1  0.34204844  0.82897578  0.41563563  1
  O  O26  1  0.82895547  0.82900527  0.41569963  1
  O  O27  1  0.17104453  0.65796074  0.58430037  1
  O  O28  1  0.65795156  0.17102422  0.58436437  1
  O  O29  1  0.17104453  0.17099473  0.58430037  1
