# generated using pymatgen
data_Ba5SrNd2Fe4O15
_symmetry_space_group_name_H-M   'P 1'
_cell_length_a   7.09378418
_cell_length_b   11.89161588
_cell_length_c   11.86432803
_cell_angle_alpha   59.92387697
_cell_angle_beta   90.03498435
_cell_angle_gamma   90.06993108
_symmetry_Int_Tables_number   1
_chemical_formula_structural   Ba5SrNd2Fe4O15
_chemical_formula_sum   'Ba10 Sr2 Nd4 Fe8 O30'
_cell_volume   866.08128440
_cell_formula_units_Z   2
loop_
 _symmetry_equiv_pos_site_id
 _symmetry_equiv_pos_as_xyz
  1  'x, y, z'
loop_
 _atom_site_type_symbol
 _atom_site_label
 _atom_site_symmetry_multiplicity
 _atom_site_fract_x
 _atom_site_fract_y
 _atom_site_fract_z
 _atom_site_occupancy
  Ba  Ba0  1  0.49853944  0.99983382  0.00011544  1
  Ba  Ba1  1  0.99854306  0.99994682  0.99988607  1
  Ba  Ba2  1  0.01853416  0.33107432  0.33587625  1
  Ba  Ba3  1  0.51853612  0.66694945  0.66412581  1
  Ba  Ba4  1  0.83382825  0.34805781  0.82342327  1
  Ba  Ba5  1  0.83651297  0.82905991  0.82428346  1
  Ba  Ba6  1  0.83446394  0.82593220  0.34795337  1
  Ba  Ba7  1  0.33651224  0.65334488  0.17568486  1
  Ba  Ba8  1  0.33383566  0.17145034  0.17660786  1
  Ba  Ba9  1  0.33446936  0.17392240  0.65204706  1
  Sr  Sr10  1  0.16635717  0.95636803  0.52204104  1
  Sr  Sr11  1  0.66635741  0.47840325  0.47796530  1
  Nd  Nd12  1  0.16511700  0.52180611  0.52130760  1
  Nd  Nd13  1  0.16217350  0.52209480  0.95643432  1
  Nd  Nd14  1  0.66511853  0.04311728  0.47868434  1
  Nd  Nd15  1  0.66217332  0.47852937  0.04356454  1
  Fe  Fe16  1  0.97578532  0.66902465  0.66607163  1
  Fe  Fe17  1  0.47579039  0.33509822  0.33393073  1
  Fe  Fe18  1  0.83651708  0.18083385  0.64252681  1
  Fe  Fe19  1  0.83992676  0.64180760  0.17907067  1
  Fe  Fe20  1  0.83620617  0.18018696  0.17614683  1
  Fe  Fe21  1  0.33650996  0.82335478  0.35747810  1
  Fe  Fe22  1  0.33619088  0.35633724  0.82386054  1
  Fe  Fe23  1  0.33993184  0.82088541  0.82091879  1
  O  O24  1  0.46603257  0.67153594  0.39282960  1
  O  O25  1  0.47237099  0.39607954  0.93833854  1
  O  O26  1  0.48242489  0.93565242  0.67162532  1
  O  O27  1  0.46559838  0.39351813  0.67156231  1
  O  O28  1  0.48216113  0.93731239  0.39235743  1
  O  O29  1  0.47333075  0.66674324  0.93735873  1
  O  O30  1  0.98216859  0.32966823  0.60764315  1
  O  O31  1  0.97334199  0.60410177  0.06263992  1
  O  O32  1  0.96562187  0.06507369  0.32844416  1
  O  O33  1  0.98241165  0.60727996  0.32836974  1
  O  O34  1  0.96602019  0.06436608  0.60717053  1
  O  O35  1  0.97236457  0.33441792  0.06165856  1
  O  O36  1  0.33326604  0.41881412  0.16292937  1
  O  O37  1  0.33892697  0.17037735  0.41382381  1
  O  O38  1  0.32466211  0.41696115  0.41472632  1
  O  O39  1  0.83326501  0.58174034  0.83707073  1
  O  O40  1  0.82466189  0.83168800  0.58527490  1
  O  O41  1  0.83892515  0.58420501  0.58617102  1
  O  O42  1  0.16009513  0.74388877  0.50076426  1
  O  O43  1  0.15962221  0.49860156  0.75306394  1
  O  O44  1  0.16070757  0.74290087  0.75814467  1
  O  O45  1  0.66009728  0.24465729  0.49923705  1
  O  O46  1  0.66070550  0.50104689  0.24184873  1
  O  O47  1  0.65963578  0.25165532  0.24693824  1
  O  O48  1  0.73476940  0.80656830  0.09635238  1
  O  O49  1  0.73322198  0.09717653  0.09376486  1
  O  O50  1  0.73333409  0.09712778  0.80843419  1
  O  O51  1  0.23321604  0.19094189  0.90622775  1
  O  O52  1  0.23477163  0.90291385  0.90365311  1
  O  O53  1  0.23333811  0.90556617  0.19157202  1
