# generated using pymatgen
data_Ba2As6O11
_symmetry_space_group_name_H-M   'P 1'
_cell_length_a   5.35218734
_cell_length_b   7.32987011
_cell_length_c   9.57520245
_cell_angle_alpha   69.92813853
_cell_angle_beta   86.14813517
_cell_angle_gamma   84.22838233
_symmetry_Int_Tables_number   1
_chemical_formula_structural   Ba2As6O11
_chemical_formula_sum   'Ba2 As6 O11'
_cell_volume   350.82463006
_cell_formula_units_Z   1
loop_
 _symmetry_equiv_pos_site_id
 _symmetry_equiv_pos_as_xyz
  1  'x, y, z'
loop_
 _atom_site_type_symbol
 _atom_site_label
 _atom_site_symmetry_multiplicity
 _atom_site_fract_x
 _atom_site_fract_y
 _atom_site_fract_z
 _atom_site_occupancy
  Ba  Ba0  1  0.21774496  0.31142684  0.41616982  1
  Ba  Ba1  1  0.74246738  0.69852211  0.56292962  1
  As  As2  1  0.73680677  0.12763132  0.18628077  1
  As  As3  1  0.26049615  0.88420654  0.82046586  1
  As  As4  1  0.80170911  0.59492295  0.11770554  1
  As  As5  1  0.19506194  0.42043413  0.90833804  1
  As  As6  1  0.25413351  0.85766305  0.27360659  1
  As  As7  1  0.73659465  0.13673068  0.73922717  1
  O  O8  1  0.98956302  0.02428817  0.32016252  1
  O  O9  1  0.00501181  0.97621051  0.68976049  1
  O  O10  1  0.90925546  0.45587434  0.83046321  1
  O  O11  1  0.11680683  0.48220970  0.08134186  1
  O  O12  1  0.67157876  0.35237813  0.22818891  1
  O  O13  1  0.33874058  0.65560605  0.79190884  1
  O  O14  1  0.27547630  0.67756771  0.44556782  1
  O  O15  1  0.74902438  0.32523827  0.57293188  1
  O  O16  1  0.48965511  0.01521008  0.31800821  1
  O  O17  1  0.49265620  0.00845359  0.67902787  1
  O  O18  1  0.89041707  0.64772583  0.26901498  1
