# generated using pymatgen
data_Ba4Bi3PbO12
_symmetry_space_group_name_H-M   'P 1'
_cell_length_a   6.22706533
_cell_length_b   6.22439110
_cell_length_c   10.77368888
_cell_angle_alpha   73.57787803
_cell_angle_beta   90.00000002
_cell_angle_gamma   120.01421901
_symmetry_Int_Tables_number   1
_chemical_formula_structural   Ba4Bi3PbO12
_chemical_formula_sum   'Ba4 Bi3 Pb1 O12'
_cell_volume   341.77197368
_cell_formula_units_Z   1
loop_
 _symmetry_equiv_pos_site_id
 _symmetry_equiv_pos_as_xyz
  1  'x, y, z'
loop_
 _atom_site_type_symbol
 _atom_site_label
 _atom_site_symmetry_multiplicity
 _atom_site_fract_x
 _atom_site_fract_y
 _atom_site_fract_z
 _atom_site_occupancy
  Ba  Ba0  1  0.87081599  0.74163199  0.38026604  1
  Ba  Ba1  1  0.37257485  0.74514970  0.87567728  1
  Ba  Ba2  1  0.62742515  0.25485030  0.12432272  1
  Ba  Ba3  1  0.12918401  0.25836801  0.61973396  1
  Bi  Bi4  1  0.24923315  0.49846629  0.25109339  1
  Bi  Bi5  1  0.75076685  0.50153371  0.74890661  1
  Bi  Bi6  1  0.00000000  0.00000000  -0.00000000  1
  Pb  Pb7  1  0.50000000  0.00000000  0.50000000  1
  O  O8  1  0.09363251  0.18726502  0.15794522  1
  O  O9  1  0.59408265  0.18816530  0.65636858  1
  O  O10  1  0.40591735  0.81183470  0.34363142  1
  O  O11  1  0.90636749  0.81273498  0.84205478  1
  O  O12  1  0.89184942  0.28463968  0.39201986  1
  O  O13  1  0.39310374  0.28506496  0.88972681  1
  O  O14  1  0.10803878  0.71493504  0.11027319  1
  O  O15  1  0.60720974  0.71536032  0.60798014  1
  O  O16  1  0.39279026  0.28463968  0.39201986  1
  O  O17  1  0.89196122  0.28506496  0.88972681  1
  O  O18  1  0.60689626  0.71493504  0.11027319  1
  O  O19  1  0.10815058  0.71536032  0.60798014  1
