# generated using pymatgen
data_BaFeP3H2O11
_symmetry_space_group_name_H-M   'P 1'
_cell_length_a   6.97431791
_cell_length_b   7.78625668
_cell_length_c   8.83808104
_cell_angle_alpha   107.15964447
_cell_angle_beta   101.63688106
_cell_angle_gamma   95.60133424
_symmetry_Int_Tables_number   1
_chemical_formula_structural   BaFeP3H2O11
_chemical_formula_sum   'Ba2 Fe2 P6 H4 O22'
_cell_volume   442.77673163
_cell_formula_units_Z   2
loop_
 _symmetry_equiv_pos_site_id
 _symmetry_equiv_pos_as_xyz
  1  'x, y, z'
loop_
 _atom_site_type_symbol
 _atom_site_label
 _atom_site_symmetry_multiplicity
 _atom_site_fract_x
 _atom_site_fract_y
 _atom_site_fract_z
 _atom_site_occupancy
  Ba  Ba0  1  0.33030048  0.16905026  0.83782647  1
  Ba  Ba1  1  0.66839335  0.83043527  0.15633331  1
  Fe  Fe2  1  0.49357773  0.49848513  0.49546279  1
  Fe  Fe3  1  0.00251912  0.50146137  0.00362457  1
  P  P4  1  0.77902345  0.20277148  0.62687362  1
  P  P5  1  0.21640868  0.80324719  0.37635013  1
  P  P6  1  0.89843449  0.73912678  0.76833815  1
  P  P7  1  0.09490856  0.24986840  0.22387701  1
  P  P8  1  0.29047772  0.64400776  0.80160820  1
  P  P9  1  0.70798570  0.35420655  0.19539453  1
  H  H10  1  0.65206879  0.94815994  0.66158971  1
  H  H11  1  0.34682261  0.05069018  0.33486914  1
  H  H12  1  0.98155944  0.01255884  0.49960479  1
  H  H13  1  0.99542449  0.99416759  0.98286959  1
  O  O14  1  0.37391114  0.49664438  0.68867361  1
  O  O15  1  0.62355423  0.50103461  0.30864542  1
  O  O16  1  0.85168615  0.65920238  0.89833880  1
  O  O17  1  0.14652288  0.33419777  0.09656037  1
  O  O18  1  0.66172576  0.33135644  0.56523098  1
  O  O19  1  0.33200429  0.67163514  0.43812675  1
  O  O20  1  0.06710721  0.64283624  0.69487427  1
  O  O21  1  0.93100703  0.35458444  0.30073112  1
  O  O22  1  0.84568817  0.07123365  0.48276203  1
  O  O23  1  0.14446265  0.93512849  0.51204016  1
  O  O24  1  0.71914663  0.72112993  0.63083329  1
  O  O25  1  0.27647156  0.27249979  0.36241961  1
  O  O26  1  0.62543655  0.07533307  0.67852230  1
  O  O27  1  0.37446949  0.92416903  0.32148785  1
  O  O28  1  0.26093130  0.58366565  0.94982743  1
  O  O29  1  0.73854195  0.41574313  0.04777325  1
  O  O30  1  0.41006101  0.83404830  0.85965427  1
  O  O31  1  0.58613108  0.16503668  0.13623891  1
  O  O32  1  0.95528641  0.29572318  0.77352424  1
  O  O33  1  0.04620768  0.70266527  0.22401147  1
  O  O34  1  0.99090997  0.94516163  0.85048718  1
  O  O35  1  0.99983229  0.04873408  0.13961469  1
