# generated using pymatgen
data_Ba2Ga7Ag
_symmetry_space_group_name_H-M   'P 1'
_cell_length_a   4.61970493
_cell_length_b   4.61970493
_cell_length_c   10.99984536
_cell_angle_alpha   90.00000000
_cell_angle_beta   90.00000000
_cell_angle_gamma   90.00000000
_symmetry_Int_Tables_number   1
_chemical_formula_structural   Ba2Ga7Ag
_chemical_formula_sum   'Ba2 Ga7 Ag1'
_cell_volume   234.75510977
_cell_formula_units_Z   1
loop_
 _symmetry_equiv_pos_site_id
 _symmetry_equiv_pos_as_xyz
  1  'x, y, z'
loop_
 _atom_site_type_symbol
 _atom_site_label
 _atom_site_symmetry_multiplicity
 _atom_site_fract_x
 _atom_site_fract_y
 _atom_site_fract_z
 _atom_site_occupancy
  Ba  Ba0  1  0.00000000  0.00000000  0.99763529  1
  Ba  Ba1  1  0.50000000  0.50000000  0.50236471  1
  Ga  Ga2  1  0.50000000  0.50000000  0.12257426  1
  Ga  Ga3  1  -0.00000000  -0.00000000  0.62038427  1
  Ga  Ga4  1  0.00000000  -0.00000000  0.37742574  1
  Ga  Ga5  1  0.50000000  0.50000000  0.87961573  1
  Ga  Ga6  1  0.50000000  0.00000000  0.75000000  1
  Ga  Ga7  1  0.50000000  0.00000000  0.25000000  1
  Ga  Ga8  1  -0.00000000  0.50000000  0.75000000  1
  Ag  Ag9  1  -0.00000000  0.50000000  0.25000000  1
