# generated using pymatgen
data_Al5Ni41B12
_symmetry_space_group_name_H-M   'P 1'
_cell_length_a   7.39632115
_cell_length_b   7.39632115
_cell_length_c   12.82032880
_cell_angle_alpha   73.23417604
_cell_angle_beta   90.00000000
_cell_angle_gamma   120.00000000
_symmetry_Int_Tables_number   1
_chemical_formula_structural   Al5Ni41B12
_chemical_formula_sum   'Al5 Ni41 B12'
_cell_volume   572.69759191
_cell_formula_units_Z   1
loop_
 _symmetry_equiv_pos_site_id
 _symmetry_equiv_pos_as_xyz
  1  'x, y, z'
loop_
 _atom_site_type_symbol
 _atom_site_label
 _atom_site_symmetry_multiplicity
 _atom_site_fract_x
 _atom_site_fract_y
 _atom_site_fract_z
 _atom_site_occupancy
  Al  Al0  1  0.62508685  0.25017371  0.12473944  1
  Al  Al1  1  0.12501951  0.25003902  0.62494147  1
  Al  Al2  1  0.87498049  0.74996098  0.37505853  1
  Al  Al3  1  0.37491315  0.74982629  0.87526056  1
  Al  Al4  1  0.50000000  0.00000000  0.50000000  1
  Ni  Ni5  1  0.50000000  0.33841089  0.50000000  1
  Ni  Ni6  1  1.00000000  0.33742259  0.00000000  1
  Ni  Ni7  1  0.16158911  0.00000000  0.50000000  1
  Ni  Ni8  1  0.66257741  0.00000000  0.00000000  1
  Ni  Ni9  1  0.83226447  0.99982181  0.16791372  1
  Ni  Ni10  1  0.32993179  0.99985289  0.67021532  1
  Ni  Ni11  1  0.00000000  0.66257741  1.00000000  1
  Ni  Ni12  1  0.50000000  0.66158911  0.50000000  1
  Ni  Ni13  1  0.83226447  0.66452894  0.16791372  1
  Ni  Ni14  1  0.32993179  0.65986359  0.67021532  1
  Ni  Ni15  1  0.66257741  0.66257741  1.00000000  1
  Ni  Ni16  1  0.16158911  0.66158911  0.50000000  1
  Ni  Ni17  1  0.33007891  0.00014711  0.32978468  1
  Ni  Ni18  1  0.83244266  0.00017819  0.83208628  1
  Ni  Ni19  1  0.67006821  0.34013641  0.32978468  1
  Ni  Ni20  1  0.16773553  0.33547106  0.83208628  1
  Ni  Ni21  1  0.67006821  0.00014711  0.32978468  1
  Ni  Ni22  1  0.16773553  0.00017819  0.83208628  1
  Ni  Ni23  1  0.16755734  0.99982181  0.16791372  1
  Ni  Ni24  1  0.66992109  0.99985289  0.67021532  1
  Ni  Ni25  1  0.33742259  -0.00000000  0.00000000  1
  Ni  Ni26  1  0.83841089  0.00000000  0.50000000  1
  Ni  Ni27  1  0.83841089  0.33841089  0.50000000  1
  Ni  Ni28  1  0.33742259  0.33742259  0.00000000  1
  Ni  Ni29  1  0.42636041  0.38202201  0.19161758  1
  Ni  Ni30  1  0.92654760  0.38245660  0.69099580  1
  Ni  Ni31  1  0.42636041  0.85272082  0.19161758  1
  Ni  Ni32  1  0.92654760  0.85309519  0.69099580  1
  Ni  Ni33  1  0.19104845  0.38209689  0.42685466  1
  Ni  Ni34  1  0.69131483  0.38262966  0.92605551  1
  Ni  Ni35  1  0.95566160  0.38202201  0.19161758  1
  Ni  Ni36  1  0.45590900  0.38245660  0.69099580  1
  Ni  Ni37  1  0.07345240  0.61754340  0.30900420  1
  Ni  Ni38  1  0.57363959  0.61797799  0.80838242  1
  Ni  Ni39  1  0.07345240  0.14690481  0.30900420  1
  Ni  Ni40  1  0.57363959  0.14727918  0.80838242  1
  Ni  Ni41  1  0.30868517  0.61737034  0.07394449  1
  Ni  Ni42  1  0.80895155  0.61790311  0.57314534  1
  Ni  Ni43  1  0.54409100  0.61754340  0.30900420  1
  Ni  Ni44  1  0.04433840  0.61797799  0.80838242  1
  Ni  Ni45  1  0.00000000  0.00000000  -0.00000000  1
  B  B46  1  0.36300093  0.27388407  0.36311500  1
  B  B47  1  0.86332063  0.27292307  0.86375630  1
  B  B48  1  0.59039756  0.72707693  0.13624370  1
  B  B49  1  0.08911686  0.72611593  0.63688500  1
  B  B50  1  0.13667937  0.27335874  0.13624370  1
  B  B51  1  0.63699907  0.27399814  0.63688500  1
  B  B52  1  0.13667937  0.72707693  0.13624370  1
  B  B53  1  0.63699907  0.72611593  0.63688500  1
  B  B54  1  0.36300093  0.72600186  0.36311500  1
  B  B55  1  0.86332063  0.72664126  0.86375630  1
  B  B56  1  0.91088314  0.27388407  0.36311500  1
  B  B57  1  0.40960244  0.27292307  0.86375630  1
