# generated using pymatgen
data_Ba3Ta4TiO15
_symmetry_space_group_name_H-M   'P 1'
_cell_length_a   3.98801984
_cell_length_b   12.72887019
_cell_length_c   12.72887019
_cell_angle_alpha   90.00000000
_cell_angle_beta   90.00000000
_cell_angle_gamma   90.00000000
_symmetry_Int_Tables_number   1
_chemical_formula_structural   Ba3Ta4TiO15
_chemical_formula_sum   'Ba6 Ta8 Ti2 O30'
_cell_volume   646.15547018
_cell_formula_units_Z   2
loop_
 _symmetry_equiv_pos_site_id
 _symmetry_equiv_pos_as_xyz
  1  'x, y, z'
loop_
 _atom_site_type_symbol
 _atom_site_label
 _atom_site_symmetry_multiplicity
 _atom_site_fract_x
 _atom_site_fract_y
 _atom_site_fract_z
 _atom_site_occupancy
  Ba  Ba0  1  0.00000000  0.16562870  0.66562870  1
  Ba  Ba1  1  -0.00000000  0.83437130  0.33437130  1
  Ba  Ba2  1  0.00000000  0.33437130  0.16562870  1
  Ba  Ba3  1  -0.00000000  0.66562870  0.83437130  1
  Ba  Ba4  1  -0.00000000  0.50000000  0.50000000  1
  Ba  Ba5  1  -0.00000000  0.00000000  0.00000000  1
  Ta  Ta6  1  0.50000000  0.71698981  0.57295142  1
  Ta  Ta7  1  0.50000000  0.28301019  0.42704858  1
  Ta  Ta8  1  0.50000000  0.78301019  0.07295142  1
  Ta  Ta9  1  0.50000000  0.21698981  0.92704858  1
  Ta  Ta10  1  0.50000000  0.57295142  0.28301019  1
  Ta  Ta11  1  0.50000000  0.42704858  0.71698981  1
  Ta  Ta12  1  0.50000000  0.07295142  0.21698981  1
  Ta  Ta13  1  0.50000000  0.92704858  0.78301019  1
  Ti  Ti14  1  0.50000000  0.00000000  0.50000000  1
  Ti  Ti15  1  0.50000000  0.50000000  0.00000000  1
  O  O16  1  0.50000000  0.50648379  0.84467208  1
  O  O17  1  0.50000000  0.49351621  0.15532792  1
  O  O18  1  0.50000000  0.99351621  0.34467208  1
  O  O19  1  0.50000000  0.00648379  0.65532792  1
  O  O20  1  0.50000000  0.84467208  0.49351621  1
  O  O21  1  0.50000000  0.15532792  0.50648379  1
  O  O22  1  0.50000000  0.34467208  0.00648379  1
  O  O23  1  0.50000000  0.65532792  0.99351621  1
  O  O24  1  0.50000000  0.28358753  0.78358753  1
  O  O25  1  0.50000000  0.71641247  0.21641247  1
  O  O26  1  0.50000000  0.21641247  0.28358753  1
  O  O27  1  0.50000000  0.78358753  0.71641247  1
  O  O28  1  -0.00000000  0.70661980  0.57769412  1
  O  O29  1  0.00000000  0.29338020  0.42230588  1
  O  O30  1  -0.00000000  0.79338020  0.07769412  1
  O  O31  1  0.00000000  0.20661980  0.92230588  1
  O  O32  1  -0.00000000  0.57769412  0.29338020  1
  O  O33  1  0.00000000  0.42230588  0.70661980  1
  O  O34  1  0.00000000  0.07769412  0.20661980  1
  O  O35  1  -0.00000000  0.92230588  0.79338020  1
  O  O36  1  0.50000000  0.56785688  0.64165770  1
  O  O37  1  0.50000000  0.43214312  0.35834230  1
  O  O38  1  0.50000000  0.93214312  0.14165770  1
  O  O39  1  0.50000000  0.06785688  0.85834230  1
  O  O40  1  0.50000000  0.64165770  0.43214312  1
  O  O41  1  0.50000000  0.35834230  0.56785688  1
  O  O42  1  0.50000000  0.14165770  0.06785688  1
  O  O43  1  0.50000000  0.85834230  0.93214312  1
  O  O44  1  -0.00000000  0.00000000  0.50000000  1
  O  O45  1  -0.00000000  0.50000000  0.00000000  1
