# generated using pymatgen
data_HC2
_symmetry_space_group_name_H-M   'P 1'
_cell_length_a   4.86906643
_cell_length_b   10.27537489
_cell_length_c   15.98322597
_cell_angle_alpha   105.95756949
_cell_angle_beta   90.00000000
_cell_angle_gamma   90.00000000
_symmetry_Int_Tables_number   1
_chemical_formula_structural   HC2
_chemical_formula_sum   'H24 C48'
_cell_volume   768.84987090
_cell_formula_units_Z   24
loop_
 _symmetry_equiv_pos_site_id
 _symmetry_equiv_pos_as_xyz
  1  'x, y, z'
loop_
 _atom_site_type_symbol
 _atom_site_label
 _atom_site_symmetry_multiplicity
 _atom_site_fract_x
 _atom_site_fract_y
 _atom_site_fract_z
 _atom_site_occupancy
  H  H0  1  0.87772941  0.15381781  0.34572585  1
  H  H1  1  0.37772941  0.34618219  0.15427415  1
  H  H2  1  0.12227059  0.84618219  0.65427415  1
  H  H3  1  0.62227059  0.65381781  0.84572585  1
  H  H4  1  0.08441393  0.06307475  0.45663456  1
  H  H5  1  0.58441393  0.43692525  0.04336544  1
  H  H6  1  0.91558607  0.93692525  0.54336544  1
  H  H7  1  0.41558607  0.56307475  0.95663456  1
  H  H8  1  0.40686514  0.08849507  0.58353411  1
  H  H9  1  0.90686514  0.41150493  0.91646589  1
  H  H10  1  0.59313486  0.91150493  0.41646589  1
  H  H11  1  0.09313486  0.58849507  0.08353411  1
  H  H12  1  0.74260851  0.22223949  0.68557231  1
  H  H13  1  0.24260851  0.27776051  0.81442769  1
  H  H14  1  0.25739149  0.77776051  0.31442769  1
  H  H15  1  0.75739149  0.72223949  0.18557231  1
  H  H16  1  0.03529321  0.43195352  0.73722519  1
  H  H17  1  0.53529321  0.06804648  0.76277481  1
  H  H18  1  0.96470679  0.56804648  0.26277481  1
  H  H19  1  0.46470679  0.93195352  0.23722519  1
  H  H20  1  0.17319914  0.65522917  0.72513825  1
  H  H21  1  0.67319914  0.84477083  0.77486175  1
  H  H22  1  0.82680086  0.34477083  0.27486175  1
  H  H23  1  0.32680086  0.15522917  0.22513825  1
  C  C24  1  0.10195383  0.34523188  0.38236383  1
  C  C25  1  0.60195383  0.15476812  0.11763617  1
  C  C26  1  0.89804617  0.65476812  0.61763617  1
  C  C27  1  0.39804617  0.84523188  0.88236383  1
  C  C28  1  0.02946515  0.21450396  0.38987568  1
  C  C29  1  0.52946515  0.28549604  0.11012432  1
  C  C30  1  0.97053485  0.78549604  0.61012432  1
  C  C31  1  0.47053485  0.71450396  0.88987568  1
  C  C32  1  0.14680316  0.16322518  0.45246741  1
  C  C33  1  0.64680316  0.33677482  0.04753259  1
  C  C34  1  0.85319684  0.83677482  0.54753259  1
  C  C35  1  0.35319684  0.66322518  0.95246741  1
  C  C36  1  0.34364520  0.23851483  0.51223479  1
  C  C37  1  0.84364520  0.26148517  0.98776521  1
  C  C38  1  0.65635480  0.76148517  0.48776521  1
  C  C39  1  0.15635480  0.73851483  0.01223479  1
  C  C40  1  0.46483708  0.18875943  0.57842823  1
  C  C41  1  0.96483708  0.31124057  0.92157177  1
  C  C42  1  0.53516292  0.81124057  0.42157177  1
  C  C43  1  0.03516292  0.68875943  0.07842823  1
  C  C44  1  0.65382186  0.26361295  0.63553637  1
  C  C45  1  0.15382186  0.23638705  0.86446363  1
  C  C46  1  0.34617814  0.73638705  0.36446363  1
  C  C47  1  0.84617814  0.76361295  0.13553637  1
  C  C48  1  0.73879850  0.39396545  0.63080530  1
  C  C49  1  0.23879850  0.10603455  0.86919470  1
  C  C50  1  0.26120150  0.60603455  0.36919470  1
  C  C51  1  0.76120150  0.89396545  0.13080530  1
  C  C52  1  0.93885993  0.47246897  0.68784640  1
  C  C53  1  0.43885993  0.02753103  0.81215360  1
  C  C54  1  0.06114007  0.52753103  0.31215360  1
  C  C55  1  0.56114007  0.97246897  0.18784640  1
  C  C56  1  0.01692427  0.59808552  0.68123904  1
  C  C57  1  0.51692427  0.90191448  0.81876096  1
  C  C58  1  0.98307573  0.40191448  0.31876096  1
  C  C59  1  0.48307573  0.09808552  0.18123904  1
  C  C60  1  0.30118117  0.42231647  0.44088744  1
  C  C61  1  0.80118117  0.07768353  0.05911256  1
  C  C62  1  0.69881883  0.57768353  0.55911256  1
  C  C63  1  0.19881883  0.92231647  0.94088744  1
  C  C64  1  0.42185302  0.36939219  0.50623224  1
  C  C65  1  0.92185302  0.13060781  0.99376776  1
  C  C66  1  0.57814698  0.63060781  0.49376776  1
  C  C67  1  0.07814698  0.86939219  0.00623224  1
  C  C68  1  0.61967572  0.44692101  0.56535419  1
  C  C69  1  0.11967572  0.05307899  0.93464581  1
  C  C70  1  0.38032428  0.55307899  0.43464581  1
  C  C71  1  0.88032428  0.94692101  0.06535419  1
