# generated using pymatgen
data_Ba8ZrNb19O36
_symmetry_space_group_name_H-M   'P 1'
_cell_length_a   4.23082558
_cell_length_b   4.23082558
_cell_length_c   49.78427884
_cell_angle_alpha   90.00000000
_cell_angle_beta   90.00000000
_cell_angle_gamma   90.00000000
_symmetry_Int_Tables_number   1
_chemical_formula_structural   Ba8ZrNb19O36
_chemical_formula_sum   'Ba8 Zr1 Nb19 O36'
_cell_volume   891.13287044
_cell_formula_units_Z   1
loop_
 _symmetry_equiv_pos_site_id
 _symmetry_equiv_pos_as_xyz
  1  'x, y, z'
loop_
 _atom_site_type_symbol
 _atom_site_label
 _atom_site_symmetry_multiplicity
 _atom_site_fract_x
 _atom_site_fract_y
 _atom_site_fract_z
 _atom_site_occupancy
  Ba  Ba0  1  -0.00000000  -0.00000000  0.20796841  1
  Ba  Ba1  1  -0.00000000  -0.00000000  0.45798882  1
  Ba  Ba2  1  0.00000000  -0.00000000  0.70801033  1
  Ba  Ba3  1  -0.00000000  -0.00000000  0.95813309  1
  Ba  Ba4  1  -0.00000000  0.00000000  0.04186691  1
  Ba  Ba5  1  -0.00000000  0.00000000  0.29198967  1
  Ba  Ba6  1  -0.00000000  0.00000000  0.54201118  1
  Ba  Ba7  1  -0.00000000  0.00000000  0.79203159  1
  Zr  Zr8  1  0.50000000  0.50000000  0.00000000  1
  Nb  Nb9  1  0.50000000  -0.00000000  0.12517963  1
  Nb  Nb10  1  0.50000000  -0.00000000  0.37499154  1
  Nb  Nb11  1  0.50000000  0.00000000  0.62500846  1
  Nb  Nb12  1  0.50000000  0.00000000  0.87482037  1
  Nb  Nb13  1  -0.00000000  0.50000000  0.12517963  1
  Nb  Nb14  1  0.00000000  0.50000000  0.37499154  1
  Nb  Nb15  1  -0.00000000  0.50000000  0.62500846  1
  Nb  Nb16  1  -0.00000000  0.50000000  0.87482037  1
  Nb  Nb17  1  0.50000000  0.50000000  0.16578043  1
  Nb  Nb18  1  0.50000000  0.50000000  0.41569414  1
  Nb  Nb19  1  0.50000000  0.50000000  0.66571146  1
  Nb  Nb20  1  0.50000000  0.50000000  0.91548430  1
  Nb  Nb21  1  0.50000000  0.50000000  0.08451570  1
  Nb  Nb22  1  0.50000000  0.50000000  0.33428854  1
  Nb  Nb23  1  0.50000000  0.50000000  0.58430586  1
  Nb  Nb24  1  0.50000000  0.50000000  0.83421957  1
  Nb  Nb25  1  0.50000000  0.50000000  0.24999121  1
  Nb  Nb26  1  0.50000000  0.50000000  0.50000000  1
  Nb  Nb27  1  0.50000000  0.50000000  0.75000879  1
  O  O28  1  0.50000000  0.50000000  0.20969211  1
  O  O29  1  0.50000000  0.50000000  0.45966398  1
  O  O30  1  0.50000000  0.50000000  0.70963363  1
  O  O31  1  0.50000000  0.50000000  0.95771067  1
  O  O32  1  0.50000000  0.50000000  0.04228933  1
  O  O33  1  0.50000000  0.50000000  0.29036637  1
  O  O34  1  0.50000000  0.50000000  0.54033602  1
  O  O35  1  0.50000000  0.50000000  0.79030789  1
  O  O36  1  -0.00000000  0.50000000  -0.00000000  1
  O  O37  1  -0.00000000  0.50000000  0.25002598  1
  O  O38  1  -0.00000000  0.50000000  0.50000000  1
  O  O39  1  0.00000000  0.50000000  0.74997402  1
  O  O40  1  0.50000000  0.00000000  0.00000000  1
  O  O41  1  0.50000000  -0.00000000  0.25002598  1
  O  O42  1  0.50000000  0.00000000  0.50000000  1
  O  O43  1  0.50000000  0.00000000  0.74997402  1
  O  O44  1  -0.00000000  0.50000000  0.16807468  1
  O  O45  1  -0.00000000  0.50000000  0.41788129  1
  O  O46  1  -0.00000000  0.50000000  0.66788044  1
  O  O47  1  -0.00000000  0.50000000  0.91750075  1
  O  O48  1  0.50000000  -0.00000000  0.16807468  1
  O  O49  1  0.50000000  -0.00000000  0.41788129  1
  O  O50  1  0.50000000  -0.00000000  0.66788044  1
  O  O51  1  0.50000000  0.00000000  0.91750075  1
  O  O52  1  -0.00000000  0.50000000  0.08249925  1
  O  O53  1  0.00000000  0.50000000  0.33211956  1
  O  O54  1  0.00000000  0.50000000  0.58211871  1
  O  O55  1  0.00000000  0.50000000  0.83192532  1
  O  O56  1  0.50000000  -0.00000000  0.08249925  1
  O  O57  1  0.50000000  0.00000000  0.33211956  1
  O  O58  1  0.50000000  0.00000000  0.58211871  1
  O  O59  1  0.50000000  0.00000000  0.83192532  1
  O  O60  1  -0.00000000  -0.00000000  0.12524851  1
  O  O61  1  -0.00000000  0.00000000  0.37500573  1
  O  O62  1  -0.00000000  -0.00000000  0.62499427  1
  O  O63  1  -0.00000000  0.00000000  0.87475149  1
