# generated using pymatgen
data_Ag2HgI4
_symmetry_space_group_name_H-M   'P 1'
_cell_length_a   6.62427719
_cell_length_b   6.62427719
_cell_length_c   8.07509414
_cell_angle_alpha   65.78466667
_cell_angle_beta   65.78466667
_cell_angle_gamma   90.00000000
_symmetry_Int_Tables_number   1
_chemical_formula_structural   Ag2HgI4
_chemical_formula_sum   'Ag2 Hg1 I4'
_cell_volume   288.63800766
_cell_formula_units_Z   1
loop_
 _symmetry_equiv_pos_site_id
 _symmetry_equiv_pos_as_xyz
  1  'x, y, z'
loop_
 _atom_site_type_symbol
 _atom_site_label
 _atom_site_symmetry_multiplicity
 _atom_site_fract_x
 _atom_site_fract_y
 _atom_site_fract_z
 _atom_site_occupancy
  Ag  Ag0  1  0.00000000  0.00000000  0.00000000  1
  Ag  Ag1  1  0.50000000  0.50000000  0.00000000  1
  Hg  Hg2  1  0.25000000  0.75000000  0.50000000  1
  I  I3  1  0.37639648  0.87639648  0.74965228  1
  I  I4  1  0.62604876  0.62360352  0.25034772  1
  I  I5  1  0.87395124  0.37395124  0.74965228  1
  I  I6  1  0.12360352  0.12604876  0.25034772  1
