# generated using pymatgen
data_Ba2LaTaO6
_symmetry_space_group_name_H-M   'P 1'
_cell_length_a   6.13586864
_cell_length_b   6.13586864
_cell_length_c   6.13586863
_cell_angle_alpha   60.69693752
_cell_angle_beta   60.69693750
_cell_angle_gamma   60.69693754
_symmetry_Int_Tables_number   1
_chemical_formula_structural   Ba2LaTaO6
_chemical_formula_sum   'Ba2 La1 Ta1 O6'
_cell_volume   165.91726436
_cell_formula_units_Z   1
loop_
 _symmetry_equiv_pos_site_id
 _symmetry_equiv_pos_as_xyz
  1  'x, y, z'
loop_
 _atom_site_type_symbol
 _atom_site_label
 _atom_site_symmetry_multiplicity
 _atom_site_fract_x
 _atom_site_fract_y
 _atom_site_fract_z
 _atom_site_occupancy
  O  O0  1  0.27679740  0.78558445  0.67089494  1
  O  O1  1  0.78558445  0.67089494  0.27679740  1
  O  O2  1  0.67089494  0.27679740  0.78558445  1
  O  O3  1  0.72320260  0.21441555  0.32910506  1
  O  O4  1  0.32910506  0.72320260  0.21441555  1
  O  O5  1  0.21441555  0.32910506  0.72320260  1
  Ba  Ba6  1  0.25232414  0.25232414  0.25232414  1
  Ba  Ba7  1  0.74767586  0.74767586  0.74767586  1
  La  La8  1  0.00000000  0.00000000  0.00000000  1
  Ta  Ta9  1  0.50000000  0.50000000  0.50000000  1
