# generated using pymatgen
data_Na2TiZn2SiO7
_symmetry_space_group_name_H-M   'P 1'
_cell_length_a   5.25690350
_cell_length_b   11.84621027
_cell_length_c   20.34714331
_cell_angle_alpha   90.00000000
_cell_angle_beta   90.00000000
_cell_angle_gamma   90.00000000
_symmetry_Int_Tables_number   1
_chemical_formula_structural   Na2TiZn2SiO7
_chemical_formula_sum   'Na16 Ti8 Zn16 Si8 O56'
_cell_volume   1267.10582047
_cell_formula_units_Z   8
loop_
 _symmetry_equiv_pos_site_id
 _symmetry_equiv_pos_as_xyz
  1  'x, y, z'
loop_
 _atom_site_type_symbol
 _atom_site_label
 _atom_site_symmetry_multiplicity
 _atom_site_fract_x
 _atom_site_fract_y
 _atom_site_fract_z
 _atom_site_occupancy
  O  O0  1  0.70022596  0.35119131  0.65154104  1
  O  O1  1  0.20022596  0.64880869  0.84845896  1
  O  O2  1  0.79977404  0.85119131  0.34845896  1
  O  O3  1  0.29977404  0.14880869  0.15154104  1
  O  O4  1  0.29977404  0.64880869  0.34845896  1
  O  O5  1  0.79977404  0.35119131  0.15154104  1
  O  O6  1  0.20022596  0.14880869  0.65154104  1
  O  O7  1  0.70022596  0.85119131  0.84845896  1
  O  O8  1  0.65365981  0.05902034  0.90234550  1
  O  O9  1  0.15365981  0.94097966  0.59765450  1
  O  O10  1  0.84634019  0.55902034  0.09765450  1
  O  O11  1  0.34634019  0.44097966  0.40234550  1
  O  O12  1  0.34634019  0.94097966  0.09765450  1
  O  O13  1  0.84634019  0.05902034  0.40234550  1
  O  O14  1  0.15365981  0.44097966  0.90234550  1
  O  O15  1  0.65365981  0.55902034  0.59765450  1
  O  O16  1  0.66682904  0.36855317  0.52130101  1
  O  O17  1  0.16682904  0.63144683  0.97869899  1
  O  O18  1  0.83317096  0.86855317  0.47869899  1
  O  O19  1  0.33317096  0.13144683  0.02130101  1
  O  O20  1  0.33317096  0.63144683  0.47869899  1
  O  O21  1  0.83317096  0.36855317  0.02130101  1
  O  O22  1  0.16682904  0.13144683  0.52130101  1
  O  O23  1  0.66682904  0.86855317  0.97869899  1
  O  O24  1  0.95163265  0.30526219  0.78673227  1
  O  O25  1  0.58576872  0.29698446  0.89078294  1
  O  O26  1  0.45163265  0.69473781  0.71326773  1
  O  O27  1  0.04836735  0.19473781  0.28673227  1
  O  O28  1  0.04836735  0.69473781  0.21326773  1
  O  O29  1  0.54836735  0.30526219  0.28673227  1
  O  O30  1  0.45163265  0.19473781  0.78673227  1
  O  O31  1  0.95163265  0.80526219  0.71326773  1
  O  O32  1  0.59058775  0.06108874  0.58305597  1
  O  O33  1  0.09058775  0.93891126  0.91694403  1
  O  O34  1  0.90941225  0.56108874  0.41694403  1
  O  O35  1  0.40941225  0.43891126  0.08305597  1
  O  O36  1  0.40941225  0.93891126  0.41694403  1
  O  O37  1  0.90941225  0.06108874  0.08305597  1
  O  O38  1  0.09058775  0.43891126  0.58305597  1
  O  O39  1  0.59058775  0.56108874  0.91694403  1
  O  O40  1  0.89689696  0.07003108  0.77504272  1
  O  O41  1  0.39689696  0.92996892  0.72495728  1
  O  O42  1  0.60310304  0.57003108  0.22495728  1
  O  O43  1  0.10310304  0.42996892  0.27504272  1
  O  O44  1  0.10310304  0.92996892  0.22495728  1
  O  O45  1  0.60310304  0.07003108  0.27504272  1
  O  O46  1  0.39689696  0.42996892  0.77504272  1
  O  O47  1  0.89689696  0.57003108  0.72495728  1
  O  O48  1  0.58576872  0.79698446  0.60921706  1
  O  O49  1  0.08576872  0.20301554  0.89078294  1
  O  O50  1  0.91423128  0.29698446  0.39078294  1
  O  O51  1  0.41423128  0.70301554  0.10921706  1
  O  O52  1  0.41423128  0.20301554  0.39078294  1
  O  O53  1  0.91423128  0.79698446  0.10921706  1
  O  O54  1  0.08576872  0.70301554  0.60921706  1
  O  O55  1  0.54836735  0.80526219  0.21326773  1
  Na  Na56  1  0.75538220  0.66396784  0.82890687  1
  Na  Na57  1  0.73545954  0.17611072  0.49755014  1
  Na  Na58  1  0.23545954  0.82388928  0.00244986  1
  Na  Na59  1  0.76454046  0.67611072  0.50244986  1
  Na  Na60  1  0.26454046  0.32388928  0.99755014  1
  Na  Na61  1  0.26454046  0.82388928  0.50244986  1
  Na  Na62  1  0.76454046  0.17611072  0.99755014  1
  Na  Na63  1  0.23545954  0.32388928  0.49755014  1
  Na  Na64  1  0.25538220  0.33603216  0.67109313  1
  Na  Na65  1  0.74461780  0.16396784  0.17109313  1
  Na  Na66  1  0.24461780  0.83603216  0.32890687  1
  Na  Na67  1  0.73545954  0.67611072  0.00244986  1
  Na  Na68  1  0.74461780  0.66396784  0.32890687  1
  Na  Na69  1  0.25538220  0.83603216  0.82890687  1
  Na  Na70  1  0.75538220  0.16396784  0.67109313  1
  Na  Na71  1  0.24461780  0.33603216  0.17109313  1
  Si  Si72  1  0.77854998  0.92911230  0.91197762  1
  Si  Si73  1  0.27854998  0.07088770  0.58802238  1
  Si  Si74  1  0.72145002  0.42911230  0.08802238  1
  Si  Si75  1  0.22145002  0.57088770  0.41197762  1
  Si  Si76  1  0.22145002  0.07088770  0.08802238  1
  Si  Si77  1  0.72145002  0.92911230  0.41197762  1
  Si  Si78  1  0.27854998  0.57088770  0.91197762  1
  Si  Si79  1  0.77854998  0.42911230  0.58802238  1
  Ti  Ti80  1  0.78999456  0.18503299  0.83509416  1
  Ti  Ti81  1  0.28999456  0.81496701  0.66490584  1
  Ti  Ti82  1  0.71000544  0.68503299  0.16490584  1
  Ti  Ti83  1  0.21000544  0.31496701  0.33509416  1
  Ti  Ti84  1  0.21000544  0.81496701  0.16490584  1
  Ti  Ti85  1  0.71000544  0.18503299  0.33509416  1
  Ti  Ti86  1  0.28999456  0.31496701  0.83509416  1
  Ti  Ti87  1  0.78999456  0.68503299  0.66490584  1
  Zn  Zn88  1  0.75318214  0.91968406  0.26076379  1
  Zn  Zn89  1  0.75318214  0.41968406  0.23923621  1
  Zn  Zn90  1  0.25318214  0.58031594  0.26076379  1
  Zn  Zn91  1  0.25318214  0.08031594  0.23923621  1
  Zn  Zn92  1  0.24681786  0.08031594  0.73923621  1
  Zn  Zn93  1  0.24681786  0.58031594  0.76076379  1
  Zn  Zn94  1  0.74681786  0.41968406  0.73923621  1
  Zn  Zn95  1  0.78599159  0.92369642  0.57002105  1
  Zn  Zn96  1  0.28599159  0.07630358  0.92997895  1
  Zn  Zn97  1  0.71400841  0.42369642  0.42997895  1
  Zn  Zn98  1  0.21400841  0.57630358  0.07002105  1
  Zn  Zn99  1  0.21400841  0.07630358  0.42997895  1
  Zn  Zn100  1  0.71400841  0.92369642  0.07002105  1
  Zn  Zn101  1  0.28599159  0.57630358  0.57002105  1
  Zn  Zn102  1  0.78599159  0.42369642  0.92997895  1
  Zn  Zn103  1  0.74681786  0.91968406  0.76076379  1
