# generated using pymatgen
data_AlH12(OF)5
_symmetry_space_group_name_H-M   'P 1'
_cell_length_a   3.73411670
_cell_length_b   8.01185968
_cell_length_c   13.63171572
_cell_angle_alpha   105.99899195
_cell_angle_beta   90.00000000
_cell_angle_gamma   90.00000000
_symmetry_Int_Tables_number   1
_chemical_formula_structural   AlH12(OF)5
_chemical_formula_sum   'Al2 H24 O10 F10'
_cell_volume   392.02663026
_cell_formula_units_Z   2
loop_
 _symmetry_equiv_pos_site_id
 _symmetry_equiv_pos_as_xyz
  1  'x, y, z'
loop_
 _atom_site_type_symbol
 _atom_site_label
 _atom_site_symmetry_multiplicity
 _atom_site_fract_x
 _atom_site_fract_y
 _atom_site_fract_z
 _atom_site_occupancy
  Al  Al0  1  0.02080302  0.25057915  0.25001268  1
  Al  Al1  1  0.97919698  0.75057915  0.75001268  1
  H  H2  1  0.76567187  0.43982566  0.59511237  1
  H  H3  1  0.78469131  0.06345019  0.90283157  1
  H  H4  1  0.21530869  0.56345019  0.40283157  1
  H  H5  1  0.23432813  0.93982566  0.09511237  1
  H  H6  1  0.22492520  0.43436871  0.10137352  1
  H  H7  1  0.24086980  0.06975824  0.40555649  1
  H  H8  1  0.75913020  0.56975824  0.90555649  1
  H  H9  1  0.77507480  0.93436871  0.60137352  1
  H  H10  1  0.45577580  0.61812577  0.14506220  1
  H  H11  1  0.45824969  0.88952274  0.36450101  1
  H  H12  1  0.54175031  0.38952274  0.86450101  1
  H  H13  1  0.54422420  0.11812577  0.64506220  1
  H  H14  1  0.79910089  0.83330526  0.22760790  1
  H  H15  1  0.80665093  0.66446920  0.26932246  1
  H  H16  1  0.19334907  0.16446920  0.76932246  1
  H  H17  1  0.20089911  0.33330526  0.72760790  1
  H  H18  1  0.79240839  0.32324948  0.47617173  1
  H  H19  1  0.81394355  0.18094002  0.02287222  1
  H  H20  1  0.18605645  0.68094002  0.52287222  1
  H  H21  1  0.20759161  0.82324948  0.97617173  1
  H  H22  1  0.47914501  0.50673778  0.00994950  1
  H  H23  1  0.52085499  0.00673778  0.50994950  1
  H  H24  1  0.51417040  0.00276202  0.99900345  1
  H  H25  1  0.48582960  0.50276202  0.49900345  1
  O  O26  1  0.32349053  0.54093292  0.08458922  1
  O  O27  1  0.34072002  0.96805568  0.42516303  1
  O  O28  1  0.65927998  0.46805568  0.92516303  1
  O  O29  1  0.67650947  0.04093292  0.58458922  1
  O  O30  1  0.64723536  0.74694634  0.24761943  1
  O  O31  1  0.35276464  0.24694634  0.74761943  1
  O  O32  1  0.62592558  0.38925991  0.53045739  1
  O  O33  1  0.64818193  0.11383320  0.96817278  1
  O  O34  1  0.35181807  0.61383320  0.46817278  1
  O  O35  1  0.37407442  0.88925991  0.03045739  1
  F  F36  1  0.52346920  0.25174021  0.24930705  1
  F  F37  1  0.47653080  0.75174021  0.74930705  1
  F  F38  1  0.02272751  0.01552302  0.19703473  1
  F  F39  1  0.02186432  0.48730581  0.30063984  1
  F  F40  1  0.97813568  0.98730581  0.80063984  1
  F  F41  1  0.97727249  0.51552302  0.69703473  1
  F  F42  1  0.03360939  0.27883208  0.12136742  1
  F  F43  1  0.02834707  0.22647661  0.37827198  1
  F  F44  1  0.97165293  0.72647661  0.87827198  1
  F  F45  1  0.96639061  0.77883208  0.62136742  1
