# generated using pymatgen
data_Ca3Ga2(SnO4)3
_symmetry_space_group_name_H-M   'P 1'
_cell_length_a   11.13986779
_cell_length_b   11.13986779
_cell_length_c   11.13986779
_cell_angle_alpha   70.20218613
_cell_angle_beta   70.20218613
_cell_angle_gamma   108.81999034
_symmetry_Int_Tables_number   1
_chemical_formula_structural   Ca3Ga2(SnO4)3
_chemical_formula_sum   'Ca12 Ga8 Sn12 O48'
_cell_volume   1064.08469079
_cell_formula_units_Z   4
loop_
 _symmetry_equiv_pos_site_id
 _symmetry_equiv_pos_as_xyz
  1  'x, y, z'
loop_
 _atom_site_type_symbol
 _atom_site_label
 _atom_site_symmetry_multiplicity
 _atom_site_fract_x
 _atom_site_fract_y
 _atom_site_fract_z
 _atom_site_occupancy
  Ca  Ca0  1  0.37500000  0.62500000  0.25000000  1
  Ca  Ca1  1  0.12500000  0.87500000  0.75000000  1
  Ca  Ca2  1  0.37709226  0.75000000  0.87290774  1
  Ca  Ca3  1  0.12290774  0.25000000  0.62709226  1
  Ca  Ca4  1  0.25000000  0.62290774  0.62709226  1
  Ca  Ca5  1  0.75000000  0.87709226  0.87290774  1
  Ca  Ca6  1  0.62500000  0.37500000  0.75000000  1
  Ca  Ca7  1  0.87500000  0.12500000  0.25000000  1
  Ca  Ca8  1  0.62290774  0.25000000  0.12709226  1
  Ca  Ca9  1  0.87709226  0.75000000  0.37290774  1
  Ca  Ca10  1  0.75000000  0.37709226  0.37290774  1
  Ca  Ca11  1  0.25000000  0.12290774  0.12709226  1
  Ga  Ga12  1  0.62639427  0.75000000  0.62360573  1
  Ga  Ga13  1  0.87360573  0.25000000  0.87639427  1
  Ga  Ga14  1  0.25000000  0.87360573  0.37639427  1
  Ga  Ga15  1  0.75000000  0.62639427  0.12360573  1
  Ga  Ga16  1  0.37360573  0.25000000  0.37639427  1
  Ga  Ga17  1  0.12639427  0.75000000  0.12360573  1
  Ga  Ga18  1  0.75000000  0.12639427  0.62360573  1
  Ga  Ga19  1  0.25000000  0.37360573  0.87639427  1
  Sn  Sn20  1  0.50000000  -0.00000000  -0.00000000  1
  Sn  Sn21  1  0.50000000  0.50000000  0.50000000  1
  Sn  Sn22  1  -0.00000000  0.50000000  -0.00000000  1
  Sn  Sn23  1  -0.00000000  -0.00000000  0.50000000  1
  Sn  Sn24  1  0.50000000  0.50000000  -0.00000000  1
  Sn  Sn25  1  0.50000000  -0.00000000  0.50000000  1
  Sn  Sn26  1  -0.00000000  0.50000000  0.50000000  1
  Sn  Sn27  1  -0.00000000  -0.00000000  -0.00000000  1
  Sn  Sn28  1  0.12500000  0.37500000  0.25000000  1
  Sn  Sn29  1  0.37500000  0.12500000  0.75000000  1
  Sn  Sn30  1  0.87500000  0.62500000  0.75000000  1
  Sn  Sn31  1  0.62500000  0.87500000  0.25000000  1
  O  O32  1  0.58072965  0.87054234  0.09445944  1
  O  O33  1  0.46500178  0.67518909  0.40554056  1
  O  O34  1  0.03499822  0.62945766  0.78981270  1
  O  O35  1  0.91927035  0.82481091  0.71018730  1
  O  O36  1  0.12253178  0.69938833  0.97975271  1
  O  O37  1  0.32085895  0.80061167  0.07685655  1
  O  O38  1  0.37746822  0.39771550  0.42314345  1
  O  O39  1  0.17914105  0.10228450  0.52024729  1
  O  O40  1  0.29804208  0.41504579  0.68317136  1
  O  O41  1  0.20195792  0.51878657  0.88299628  1
  O  O42  1  0.59821715  0.98121343  0.81682864  1
  O  O43  1  0.90178285  0.08495421  0.61700372  1
  O  O44  1  0.41927035  0.12945766  0.90554056  1
  O  O45  1  0.53499822  0.32481091  0.59445944  1
  O  O46  1  0.96500178  0.37054234  0.21018730  1
  O  O47  1  0.08072965  0.17518909  0.28981270  1
  O  O48  1  0.87746822  0.30061167  0.02024729  1
  O  O49  1  0.67914105  0.19938833  0.92314345  1
  O  O50  1  0.62253178  0.60228450  0.57685655  1
  O  O51  1  0.82085895  0.89771550  0.47975271  1
  O  O52  1  0.70195792  0.58495421  0.31682864  1
  O  O53  1  0.79804208  0.48121343  0.11700372  1
  O  O54  1  0.40178285  0.01878657  0.18317136  1
  O  O55  1  0.09821715  0.91504579  0.38299628  1
  O  O56  1  0.41504579  0.29804208  0.18317136  1
  O  O57  1  0.51878657  0.20195792  0.38299628  1
  O  O58  1  0.98121343  0.59821715  0.31682864  1
  O  O59  1  0.08495421  0.90178285  0.11700372  1
  O  O60  1  0.87054234  0.58072965  0.59445944  1
  O  O61  1  0.67518909  0.46500178  0.90554056  1
  O  O62  1  0.62945766  0.03499822  0.28981270  1
  O  O63  1  0.82481091  0.91927035  0.21018730  1
  O  O64  1  0.69938833  0.12253178  0.47975271  1
  O  O65  1  0.80061167  0.32085895  0.57685655  1
  O  O66  1  0.39771550  0.37746822  0.92314345  1
  O  O67  1  0.10228450  0.17914105  0.02024729  1
  O  O68  1  0.58495421  0.70195792  0.81682864  1
  O  O69  1  0.48121343  0.79804208  0.61700372  1
  O  O70  1  0.01878657  0.40178285  0.68317136  1
  O  O71  1  0.91504579  0.09821715  0.88299628  1
  O  O72  1  0.12945766  0.41927035  0.40554056  1
  O  O73  1  0.32481091  0.53499822  0.09445944  1
  O  O74  1  0.37054234  0.96500178  0.71018730  1
  O  O75  1  0.17518909  0.08072965  0.78981270  1
  O  O76  1  0.30061167  0.87746822  0.52024729  1
  O  O77  1  0.19938833  0.67914105  0.42314345  1
  O  O78  1  0.60228450  0.62253178  0.07685655  1
  O  O79  1  0.89771550  0.82085895  0.97975271  1
