# generated using pymatgen
data_Ti3NiS6
_symmetry_space_group_name_H-M   'P 1'
_cell_length_a   5.86780084
_cell_length_b   5.86780084
_cell_length_c   11.35800766
_cell_angle_alpha   90.00000000
_cell_angle_beta   90.00000000
_cell_angle_gamma   120.00000001
_symmetry_Int_Tables_number   1
_chemical_formula_structural   Ti3NiS6
_chemical_formula_sum   'Ti6 Ni2 S12'
_cell_volume   338.67529573
_cell_formula_units_Z   2
loop_
 _symmetry_equiv_pos_site_id
 _symmetry_equiv_pos_as_xyz
  1  'x, y, z'
loop_
 _atom_site_type_symbol
 _atom_site_label
 _atom_site_symmetry_multiplicity
 _atom_site_fract_x
 _atom_site_fract_y
 _atom_site_fract_z
 _atom_site_occupancy
  S  S0  1  0.66909793  0.66452073  0.87198734  1
  S  S1  1  0.33547927  0.00457721  0.87198734  1
  S  S2  1  0.99542279  0.33090207  0.87198734  1
  S  S3  1  0.33547927  0.33090207  0.62801266  1
  S  S4  1  0.99542279  0.66452073  0.62801266  1
  S  S5  1  0.66909793  0.00457721  0.62801266  1
  S  S6  1  0.33090207  0.33547927  0.12801266  1
  S  S7  1  0.66452073  0.99542279  0.12801266  1
  S  S8  1  0.33090207  0.99542279  0.37198734  1
  S  S9  1  0.00457721  0.33547927  0.37198734  1
  S  S10  1  0.66452073  0.66909793  0.37198734  1
  S  S11  1  0.00457721  0.66909793  0.12801266  1
  Ti  Ti12  1  0.66666667  0.33333333  0.49430292  1
  Ti  Ti13  1  0.66666667  0.33333333  0.00569708  1
  Ti  Ti14  1  0.33333333  0.66666667  0.50569708  1
  Ti  Ti15  1  0.33333333  0.66666667  0.99430292  1
  Ti  Ti16  1  0.00000000  0.00000000  0.50000000  1
  Ti  Ti17  1  0.00000000  0.00000000  0.00000000  1
  Ni  Ni18  1  0.66666667  0.33333333  0.75000000  1
  Ni  Ni19  1  0.33333333  0.66666667  0.25000000  1
