# generated using pymatgen
data_Sc5(In2Ni)2
_symmetry_space_group_name_H-M   'P 1'
_cell_length_a   3.60921537
_cell_length_b   8.00631162
_cell_length_c   18.67074901
_cell_angle_alpha   90.20039694
_cell_angle_beta   89.04511617
_cell_angle_gamma   89.41324957
_symmetry_Int_Tables_number   1
_chemical_formula_structural   Sc5(In2Ni)2
_chemical_formula_sum   'Sc10 In8 Ni4'
_cell_volume   539.41251292
_cell_formula_units_Z   2
loop_
 _symmetry_equiv_pos_site_id
 _symmetry_equiv_pos_as_xyz
  1  'x, y, z'
loop_
 _atom_site_type_symbol
 _atom_site_label
 _atom_site_symmetry_multiplicity
 _atom_site_fract_x
 _atom_site_fract_y
 _atom_site_fract_z
 _atom_site_occupancy
  Sc  Sc0  1  -0.00205182  0.88686750  0.59502711  1
  Sc  Sc1  1  -0.00077166  0.38617972  0.90397561  1
  Sc  Sc2  1  0.00027895  0.61454113  0.09483694  1
  Sc  Sc3  1  0.99890285  0.11375916  0.40574974  1
  Sc  Sc4  1  0.99952578  -0.00036884  0.00074018  1
  Sc  Sc5  1  -0.00071633  0.24028016  0.72311573  1
  Sc  Sc6  1  -0.00103594  0.25689794  0.22240080  1
  Sc  Sc7  1  0.00187684  0.74189884  0.77650582  1
  Sc  Sc8  1  0.00115076  0.50006705  0.50045615  1
  Sc  Sc9  1  -0.00285965  0.75870592  0.27721978  1
  In  In10  1  0.49992341  0.80399766  0.43063183  1
  In  In11  1  0.50019541  0.30240725  0.06913571  1
  In  In12  1  0.50336851  0.07161220  0.84404167  1
  In  In13  1  0.50113445  0.92836678  0.15623891  1
  In  In14  1  0.49846334  0.69599484  0.92957193  1
  In  In15  1  0.50286435  0.57163375  0.65611272  1
  In  In16  1  0.49924385  0.42959906  0.34426655  1
  In  In17  1  0.50055261  0.19675069  0.57038778  1
  Ni  Ni18  1  0.49960800  0.53410150  0.19354460  1
  Ni  Ni19  1  0.50010424  0.46558291  0.80653481  1
  Ni  Ni20  1  0.50049322  0.96855751  0.69296866  1
  Ni  Ni21  1  0.49974883  0.03256727  0.30653699  1
