# generated using pymatgen
data_Al4InAgSe8
_symmetry_space_group_name_H-M   'P 1'
_cell_length_a   6.84064740
_cell_length_b   6.84064740
_cell_length_c   8.27801831
_cell_angle_alpha   89.77467575
_cell_angle_beta   90.22532425
_cell_angle_gamma   74.52208138
_symmetry_Int_Tables_number   1
_chemical_formula_structural   Al4InAgSe8
_chemical_formula_sum   'Al4 In1 Ag1 Se8'
_cell_volume   373.30906041
_cell_formula_units_Z   1
loop_
 _symmetry_equiv_pos_site_id
 _symmetry_equiv_pos_as_xyz
  1  'x, y, z'
loop_
 _atom_site_type_symbol
 _atom_site_label
 _atom_site_symmetry_multiplicity
 _atom_site_fract_x
 _atom_site_fract_y
 _atom_site_fract_z
 _atom_site_occupancy
  Al  Al0  1  0.01205234  0.01205234  0.50000000  1
  Al  Al1  1  0.48826809  0.48826809  -0.00000000  1
  Al  Al2  1  0.00988868  0.48921605  0.75436390  1
  Al  Al3  1  0.48921605  0.00988868  0.24563610  1
  In  In4  1  0.49781814  0.49781814  0.50000000  1
  Ag  Ag5  1  0.00058113  0.00058113  -0.00000000  1
  Se  Se6  1  0.59865642  0.12710167  0.99905290  1
  Se  Se7  1  0.09514021  0.63530744  0.49832693  1
  Se  Se8  1  0.12710167  0.59865642  0.00094710  1
  Se  Se9  1  0.63530744  0.09514021  0.50167307  1
  Se  Se10  1  0.13201843  0.14328626  0.26550974  1
  Se  Se11  1  0.63655559  0.63410956  0.76714687  1
  Se  Se12  1  0.14328626  0.13201843  0.73449026  1
  Se  Se13  1  0.63410956  0.63655559  0.23285313  1
