# generated using pymatgen
data_Zn3As2
_symmetry_space_group_name_H-M   'P 1'
_cell_length_a   8.44019492
_cell_length_b   8.44019492
_cell_length_c   11.92928082
_cell_angle_alpha   90.00000000
_cell_angle_beta   90.00000000
_cell_angle_gamma   90.00000000
_symmetry_Int_Tables_number   1
_chemical_formula_structural   Zn3As2
_chemical_formula_sum   'Zn24 As16'
_cell_volume   849.80486898
_cell_formula_units_Z   8
loop_
 _symmetry_equiv_pos_site_id
 _symmetry_equiv_pos_as_xyz
  1  'x, y, z'
loop_
 _atom_site_type_symbol
 _atom_site_label
 _atom_site_symmetry_multiplicity
 _atom_site_fract_x
 _atom_site_fract_y
 _atom_site_fract_z
 _atom_site_occupancy
  Zn  Zn0  1  0.25000000  0.97376512  0.86014207  1
  Zn  Zn1  1  0.52623488  0.25000000  0.36014207  1
  Zn  Zn2  1  0.97376512  0.25000000  0.36014207  1
  Zn  Zn3  1  0.75000000  0.02623488  0.13985793  1
  Zn  Zn4  1  0.75000000  0.47376512  0.13985793  1
  Zn  Zn5  1  0.25000000  0.52623488  0.86014207  1
  Zn  Zn6  1  0.47376512  0.75000000  0.63985793  1
  Zn  Zn7  1  0.02623488  0.75000000  0.63985793  1
  Zn  Zn8  1  0.25000000  0.02920416  0.13600976  1
  Zn  Zn9  1  0.47079584  0.25000000  0.63600976  1
  Zn  Zn10  1  0.02920416  0.25000000  0.63600976  1
  Zn  Zn11  1  0.75000000  0.97079584  0.86399024  1
  Zn  Zn12  1  0.75000000  0.52920416  0.86399024  1
  Zn  Zn13  1  0.25000000  0.47079584  0.13600976  1
  Zn  Zn14  1  0.52920416  0.75000000  0.36399024  1
  Zn  Zn15  1  0.97079584  0.75000000  0.36399024  1
  Zn  Zn16  1  0.25000000  0.99607516  0.39644879  1
  Zn  Zn17  1  0.50392484  0.25000000  0.89644879  1
  Zn  Zn18  1  0.99607516  0.25000000  0.89644879  1
  Zn  Zn19  1  0.75000000  0.00392484  0.60355121  1
  Zn  Zn20  1  0.75000000  0.49607516  0.60355121  1
  Zn  Zn21  1  0.25000000  0.50392484  0.39644879  1
  Zn  Zn22  1  0.49607516  0.75000000  0.10355121  1
  Zn  Zn23  1  0.00392484  0.75000000  0.10355121  1
  As  As24  1  0.25000000  0.75000000  0.99569263  1
  As  As25  1  0.75000000  0.25000000  0.49569263  1
  As  As26  1  0.75000000  0.25000000  0.00430737  1
  As  As27  1  0.25000000  0.75000000  0.50430737  1
  As  As28  1  0.25000000  0.25000000  0.99625618  1
  As  As29  1  0.25000000  0.25000000  0.49625618  1
  As  As30  1  0.75000000  0.75000000  0.00374382  1
  As  As31  1  0.75000000  0.75000000  0.50374382  1
  As  As32  1  0.50264816  0.00264816  0.75000000  1
  As  As33  1  0.49735184  0.50264816  0.25000000  1
  As  As34  1  0.00264816  0.99735184  0.25000000  1
  As  As35  1  0.99735184  0.49735184  0.75000000  1
  As  As36  1  0.49735184  0.99735184  0.25000000  1
  As  As37  1  0.50264816  0.49735184  0.75000000  1
  As  As38  1  0.99735184  0.00264816  0.75000000  1
  As  As39  1  0.00264816  0.50264816  0.25000000  1
