# generated using pymatgen
data_Li4UF8
_symmetry_space_group_name_H-M   'P 1'
_cell_length_a   5.89348286
_cell_length_b   10.12788535
_cell_length_c   9.96480326
_cell_angle_alpha   90.00000000
_cell_angle_beta   90.00000000
_cell_angle_gamma   90.00000000
_symmetry_Int_Tables_number   1
_chemical_formula_structural   Li4UF8
_chemical_formula_sum   'Li16 U4 F32'
_cell_volume   594.78434591
_cell_formula_units_Z   4
loop_
 _symmetry_equiv_pos_site_id
 _symmetry_equiv_pos_as_xyz
  1  'x, y, z'
loop_
 _atom_site_type_symbol
 _atom_site_label
 _atom_site_symmetry_multiplicity
 _atom_site_fract_x
 _atom_site_fract_y
 _atom_site_fract_z
 _atom_site_occupancy
  Li  Li0  1  0.87046831  0.42037240  0.89946093  1
  Li  Li1  1  0.37046831  0.57962760  0.60053907  1
  Li  Li2  1  0.12953169  0.92037240  0.10053907  1
  Li  Li3  1  0.62953169  0.07962760  0.39946093  1
  Li  Li4  1  0.87046831  0.07962760  0.89946093  1
  Li  Li5  1  0.37046831  0.92037240  0.60053907  1
  Li  Li6  1  0.37877648  0.44598576  0.87206055  1
  Li  Li7  1  0.87877648  0.55401424  0.62793945  1
  Li  Li8  1  0.62122352  0.94598576  0.12793945  1
  Li  Li9  1  0.12122352  0.05401424  0.37206055  1
  Li  Li10  1  0.62122352  0.55401424  0.12793945  1
  Li  Li11  1  0.12122352  0.44598576  0.37206055  1
  Li  Li12  1  0.37877648  0.05401424  0.87206055  1
  Li  Li13  1  0.87877648  0.94598576  0.62793945  1
  Li  Li14  1  0.12953169  0.57962760  0.10053907  1
  Li  Li15  1  0.62953169  0.42037240  0.39946093  1
  F  F16  1  0.11040530  0.61588337  0.48182526  1
  F  F17  1  0.11040530  0.88411663  0.48182526  1
  F  F18  1  0.38959470  0.61588337  0.98182526  1
  F  F19  1  0.88959470  0.38411663  0.51817474  1
  F  F20  1  0.62579961  0.96851596  0.76197986  1
  F  F21  1  0.12579961  0.03148404  0.73802014  1
  F  F22  1  0.37420039  0.46851596  0.23802014  1
  F  F23  1  0.61040530  0.11588337  0.01817474  1
  F  F24  1  0.37420039  0.03148404  0.23802014  1
  F  F25  1  0.87420039  0.96851596  0.26197986  1
  F  F26  1  0.62579961  0.53148404  0.76197986  1
  F  F27  1  0.12579961  0.46851596  0.73802014  1
  F  F28  1  0.87813251  0.75000000  0.69773459  1
  F  F29  1  0.37813251  0.25000000  0.80226541  1
  F  F30  1  0.12186749  0.25000000  0.30226541  1
  F  F31  1  0.62186749  0.75000000  0.19773459  1
  F  F32  1  0.37543873  0.75000000  0.70202230  1
  F  F33  1  0.87543873  0.25000000  0.79797770  1
  F  F34  1  0.62456127  0.25000000  0.29797770  1
  F  F35  1  0.12456127  0.75000000  0.20202230  1
  F  F36  1  0.88959470  0.11588337  0.51817474  1
  F  F37  1  0.38959470  0.88411663  0.98182526  1
  F  F38  1  0.36219337  0.38934898  0.51606989  1
  F  F39  1  0.86219337  0.61065102  0.98393011  1
  F  F40  1  0.63780663  0.88934898  0.48393011  1
  F  F41  1  0.13780663  0.11065102  0.01606989  1
  F  F42  1  0.63780663  0.61065102  0.48393011  1
  F  F43  1  0.13780663  0.38934898  0.01606989  1
  F  F44  1  0.36219337  0.11065102  0.51606989  1
  F  F45  1  0.86219337  0.88934898  0.98393011  1
  F  F46  1  0.87420039  0.53148404  0.26197986  1
  F  F47  1  0.61040530  0.38411663  0.01817474  1
  U  U48  1  0.86883672  0.75000000  0.36287732  1
  U  U49  1  0.36883672  0.25000000  0.13712268  1
  U  U50  1  0.13116328  0.25000000  0.63712268  1
  U  U51  1  0.63116328  0.75000000  0.86287732  1
