# generated using pymatgen
data_Ba6Cu11F34
_symmetry_space_group_name_H-M   'P 1'
_cell_length_a   7.57664351
_cell_length_b   10.15855677
_cell_length_c   10.44867635
_cell_angle_alpha   83.99196333
_cell_angle_beta   74.44622710
_cell_angle_gamma   70.29508138
_symmetry_Int_Tables_number   1
_chemical_formula_structural   Ba6Cu11F34
_chemical_formula_sum   'Ba6 Cu11 F34'
_cell_volume   729.30156060
_cell_formula_units_Z   1
loop_
 _symmetry_equiv_pos_site_id
 _symmetry_equiv_pos_as_xyz
  1  'x, y, z'
loop_
 _atom_site_type_symbol
 _atom_site_label
 _atom_site_symmetry_multiplicity
 _atom_site_fract_x
 _atom_site_fract_y
 _atom_site_fract_z
 _atom_site_occupancy
  F  F0  1  0.29746263  0.61655334  0.60294260  1
  F  F1  1  0.70253737  0.38344666  0.39705740  1
  F  F2  1  0.51279397  0.85869633  0.56419451  1
  F  F3  1  0.48720603  0.14130367  0.43580549  1
  F  F4  1  0.75408259  0.10449044  0.61220526  1
  F  F5  1  0.24591741  0.89550956  0.38779474  1
  F  F6  1  0.68118381  0.86409185  0.77030903  1
  F  F7  1  0.31881619  0.13590815  0.22969097  1
  F  F8  1  0.93727328  0.12556215  0.83457297  1
  F  F9  1  0.06272672  0.87443785  0.16542703  1
  F  F10  1  0.93396937  0.65643197  0.21387432  1
  F  F11  1  0.06603063  0.34356803  0.78612568  1
  F  F12  1  0.53898341  0.61644709  0.75761796  1
  F  F13  1  0.46101659  0.38355291  0.24238204  1
  F  F14  1  0.89997539  0.85903762  0.46099052  1
  F  F15  1  0.10002461  0.14096238  0.53900948  1
  F  F16  1  0.88301037  0.40731056  0.08560072  1
  F  F17  1  0.58045014  0.64629875  0.26106593  1
  F  F18  1  0.41954986  0.35370125  0.73893407  1
  F  F19  1  0.43849689  0.88852302  0.10825068  1
  F  F20  1  0.56150311  0.11147698  0.89174932  1
  F  F21  1  0.07548970  0.39439459  0.29434271  1
  F  F22  1  0.92451030  0.60560541  0.70565729  1
  F  F23  1  0.05838890  0.87814445  0.69982918  1
  F  F24  1  0.94161110  0.12185555  0.30017082  1
  F  F25  1  0.85153504  0.84694803  0.99594116  1
  F  F26  1  0.14846496  0.15305197  0.00405884  1
  F  F27  1  0.32723859  0.61722565  0.07787239  1
  F  F28  1  0.67276141  0.38277435  0.92212761  1
  F  F29  1  0.19408788  0.39720930  0.51141789  1
  F  F30  1  0.80591212  0.60279070  0.48858211  1
  F  F31  1  0.71294615  0.14322677  0.13504400  1
  F  F32  1  0.28705385  0.85677323  0.86495600  1
  F  F33  1  0.11698963  0.59268944  0.91439928  1
  Cu  Cu34  1  0.18611758  0.01108227  0.18190292  1
  Cu  Cu35  1  0.81388242  0.98891773  0.81809708  1
  Cu  Cu36  1  0.10027670  0.74211447  0.02614526  1
  Cu  Cu37  1  0.89972330  0.25788553  0.97385474  1
  Cu  Cu38  1  0.29796049  0.74389796  0.72877364  1
  Cu  Cu39  1  0.70203951  0.25610204  0.27122636  1
  Cu  Cu40  1  0.73927093  0.74139922  0.62021923  1
  Cu  Cu41  1  0.26072907  0.25860078  0.37978077  1
  Cu  Cu42  1  0.81719660  0.51878235  0.29396630  1
  Cu  Cu43  1  0.18280340  0.48121765  0.70603370  1
  Cu  Cu44  1  0.00000000  0.00000000  0.50000000  1
  Ba  Ba45  1  0.66844233  0.65702265  0.97222795  1
  Ba  Ba46  1  0.33155767  0.34297735  0.02777205  1
  Ba  Ba47  1  0.63754206  0.91078397  0.28489943  1
  Ba  Ba48  1  0.36245794  0.08921603  0.71510057  1
  Ba  Ba49  1  0.21789655  0.63767665  0.35286090  1
  Ba  Ba50  1  0.78210345  0.36232335  0.64713910  1
