# generated using pymatgen
data_Ga8(Pb3O7)3
_symmetry_space_group_name_H-M   'P 1'
_cell_length_a   13.67694457
_cell_length_b   13.67694457
_cell_length_c   13.67694457
_cell_angle_alpha   90.00000000
_cell_angle_beta   90.00000000
_cell_angle_gamma   90.00000000
_symmetry_Int_Tables_number   1
_chemical_formula_structural   Ga8(Pb3O7)3
_chemical_formula_sum   'Ga32 Pb36 O84'
_cell_volume   2558.39301360
_cell_formula_units_Z   4
loop_
 _symmetry_equiv_pos_site_id
 _symmetry_equiv_pos_as_xyz
  1  'x, y, z'
loop_
 _atom_site_type_symbol
 _atom_site_label
 _atom_site_symmetry_multiplicity
 _atom_site_fract_x
 _atom_site_fract_y
 _atom_site_fract_z
 _atom_site_occupancy
  O  O0  1  0.05695924  0.05088866  0.21042971  1
  O  O1  1  0.21042971  0.05695924  0.05088866  1
  O  O2  1  0.05088866  0.21042971  0.05695924  1
  O  O3  1  0.44911134  0.78957029  0.55695924  1
  O  O4  1  0.71042971  0.44304076  0.94911134  1
  O  O5  1  0.94911134  0.71042971  0.44304076  1
  O  O6  1  0.28957029  0.94304076  0.55088866  1
  O  O7  1  0.78957029  0.55695924  0.44911134  1
  O  O8  1  0.55088866  0.28957029  0.94304076  1
  O  O9  1  0.55695924  0.44911134  0.78957029  1
  O  O10  1  0.94304076  0.55088866  0.28957029  1
  O  O11  1  0.44304076  0.94911134  0.71042971  1
  O  O12  1  0.94304076  0.94911134  0.78957029  1
  O  O13  1  0.78957029  0.94304076  0.94911134  1
  O  O14  1  0.94911134  0.78957029  0.94304076  1
  O  O15  1  0.55088866  0.21042971  0.44304076  1
  O  O16  1  0.28957029  0.55695924  0.05088866  1
  O  O17  1  0.05088866  0.28957029  0.55695924  1
  O  O18  1  0.71042971  0.05695924  0.44911134  1
  O  O19  1  0.21042971  0.44304076  0.55088866  1
  O  O20  1  0.44911134  0.71042971  0.05695924  1
  O  O21  1  0.44304076  0.55088866  0.21042971  1
  O  O22  1  0.05695924  0.44911134  0.71042971  1
  O  O23  1  0.55695924  0.05088866  0.28957029  1
  O  O24  1  0.70738306  0.62582097  0.81229323  1
  O  O25  1  0.81229323  0.70738306  0.62582097  1
  O  O26  1  0.62582097  0.81229323  0.70738306  1
  O  O27  1  0.87417903  0.18770677  0.20738306  1
  O  O28  1  0.31229323  0.79261694  0.37417903  1
  O  O29  1  0.37417903  0.31229323  0.79261694  1
  O  O30  1  0.68770677  0.29261694  0.12582097  1
  O  O31  1  0.18770677  0.20738306  0.87417903  1
  O  O32  1  0.12582097  0.68770677  0.29261694  1
  O  O33  1  0.20738306  0.87417903  0.18770677  1
  O  O34  1  0.29261694  0.12582097  0.68770677  1
  O  O35  1  0.79261694  0.37417903  0.31229323  1
  O  O36  1  0.29261694  0.37417903  0.18770677  1
  O  O37  1  0.18770677  0.29261694  0.37417903  1
  O  O38  1  0.37417903  0.18770677  0.29261694  1
  O  O39  1  0.12582097  0.81229323  0.79261694  1
  O  O40  1  0.68770677  0.20738306  0.62582097  1
  O  O41  1  0.62582097  0.68770677  0.20738306  1
  O  O42  1  0.31229323  0.70738306  0.87417903  1
  O  O43  1  0.81229323  0.79261694  0.12582097  1
  O  O44  1  0.87417903  0.31229323  0.70738306  1
  O  O45  1  0.79261694  0.12582097  0.81229323  1
  O  O46  1  0.70738306  0.87417903  0.31229323  1
  O  O47  1  0.20738306  0.62582097  0.68770677  1
  O  O48  1  0.00000000  0.00000000  0.00000000  1
  O  O49  1  0.50000000  0.00000000  0.50000000  1
  O  O50  1  0.50000000  0.50000000  0.00000000  1
  O  O51  1  0.00000000  0.50000000  0.50000000  1
  O  O52  1  0.39460795  0.50865689  0.67179400  1
  O  O53  1  0.67179400  0.39460795  0.50865689  1
  O  O54  1  0.50865689  0.67179400  0.39460795  1
  O  O55  1  0.99134311  0.32820600  0.89460795  1
  O  O56  1  0.17179400  0.10539205  0.49134311  1
  O  O57  1  0.49134311  0.17179400  0.10539205  1
  O  O58  1  0.82820600  0.60539205  0.00865689  1
  O  O59  1  0.32820600  0.89460795  0.99134311  1
  O  O60  1  0.00865689  0.82820600  0.60539205  1
  O  O61  1  0.89460795  0.99134311  0.32820600  1
  O  O62  1  0.60539205  0.00865689  0.82820600  1
  O  O63  1  0.10539205  0.49134311  0.17179400  1
  O  O64  1  0.60539205  0.49134311  0.32820600  1
  O  O65  1  0.32820600  0.60539205  0.49134311  1
  O  O66  1  0.49134311  0.32820600  0.60539205  1
  O  O67  1  0.00865689  0.67179400  0.10539205  1
  O  O68  1  0.82820600  0.89460795  0.50865689  1
  O  O69  1  0.50865689  0.82820600  0.89460795  1
  O  O70  1  0.17179400  0.39460795  0.99134311  1
  O  O71  1  0.67179400  0.10539205  0.00865689  1
  O  O72  1  0.99134311  0.17179400  0.39460795  1
  O  O73  1  0.10539205  0.00865689  0.67179400  1
  O  O74  1  0.39460795  0.99134311  0.17179400  1
  O  O75  1  0.89460795  0.50865689  0.82820600  1
  O  O76  1  0.39168911  0.39168911  0.39168911  1
  O  O77  1  0.10831089  0.60831089  0.89168911  1
  O  O78  1  0.89168911  0.10831089  0.60831089  1
  O  O79  1  0.60831089  0.89168911  0.10831089  1
  O  O80  1  0.60831089  0.60831089  0.60831089  1
  O  O81  1  0.89168911  0.39168911  0.10831089  1
  O  O82  1  0.10831089  0.89168911  0.39168911  1
  O  O83  1  0.39168911  0.10831089  0.89168911  1
  Ga  Ga84  1  0.21863230  0.45291246  0.10613477  1
  Ga  Ga85  1  0.10613477  0.21863230  0.45291246  1
  Ga  Ga86  1  0.45291246  0.10613477  0.21863230  1
  Ga  Ga87  1  0.04708754  0.89386523  0.71863230  1
  Ga  Ga88  1  0.60613477  0.28136770  0.54708754  1
  Ga  Ga89  1  0.54708754  0.60613477  0.28136770  1
  Ga  Ga90  1  0.39386523  0.78136770  0.95291246  1
  Ga  Ga91  1  0.89386523  0.71863230  0.04708754  1
  Ga  Ga92  1  0.95291246  0.39386523  0.78136770  1
  Ga  Ga93  1  0.71863230  0.04708754  0.89386523  1
  Ga  Ga94  1  0.78136770  0.95291246  0.39386523  1
  Ga  Ga95  1  0.28136770  0.54708754  0.60613477  1
  Ga  Ga96  1  0.78136770  0.54708754  0.89386523  1
  Ga  Ga97  1  0.89386523  0.78136770  0.54708754  1
  Ga  Ga98  1  0.54708754  0.89386523  0.78136770  1
  Ga  Ga99  1  0.95291246  0.10613477  0.28136770  1
  Ga  Ga100  1  0.39386523  0.71863230  0.45291246  1
  Ga  Ga101  1  0.45291246  0.39386523  0.71863230  1
  Ga  Ga102  1  0.60613477  0.21863230  0.04708754  1
  Ga  Ga103  1  0.10613477  0.28136770  0.95291246  1
  Ga  Ga104  1  0.04708754  0.60613477  0.21863230  1
  Ga  Ga105  1  0.28136770  0.95291246  0.10613477  1
  Ga  Ga106  1  0.21863230  0.04708754  0.60613477  1
  Ga  Ga107  1  0.71863230  0.45291246  0.39386523  1
  Ga  Ga108  1  0.07681518  0.07681518  0.07681518  1
  Ga  Ga109  1  0.42318482  0.92318482  0.57681518  1
  Ga  Ga110  1  0.57681518  0.42318482  0.92318482  1
  Ga  Ga111  1  0.92318482  0.57681518  0.42318482  1
  Ga  Ga112  1  0.92318482  0.92318482  0.92318482  1
  Ga  Ga113  1  0.57681518  0.07681518  0.42318482  1
  Ga  Ga114  1  0.42318482  0.57681518  0.07681518  1
  Ga  Ga115  1  0.07681518  0.42318482  0.57681518  1
  Pb  Pb116  1  0.26130355  0.95923953  0.37738415  1
  Pb  Pb117  1  0.37738415  0.26130355  0.95923953  1
  Pb  Pb118  1  0.95923953  0.37738415  0.26130355  1
  Pb  Pb119  1  0.54076047  0.62261585  0.76130355  1
  Pb  Pb120  1  0.87738415  0.23869645  0.04076047  1
  Pb  Pb121  1  0.04076047  0.87738415  0.23869645  1
  Pb  Pb122  1  0.12261585  0.73869645  0.45923953  1
  Pb  Pb123  1  0.62261585  0.76130355  0.54076047  1
  Pb  Pb124  1  0.45923953  0.12261585  0.73869645  1
  Pb  Pb125  1  0.76130355  0.54076047  0.62261585  1
  Pb  Pb126  1  0.73869645  0.45923953  0.12261585  1
  Pb  Pb127  1  0.23869645  0.04076047  0.87738415  1
  Pb  Pb128  1  0.73869645  0.04076047  0.62261585  1
  Pb  Pb129  1  0.62261585  0.73869645  0.04076047  1
  Pb  Pb130  1  0.04076047  0.62261585  0.73869645  1
  Pb  Pb131  1  0.45923953  0.37738415  0.23869645  1
  Pb  Pb132  1  0.12261585  0.76130355  0.95923953  1
  Pb  Pb133  1  0.95923953  0.12261585  0.76130355  1
  Pb  Pb134  1  0.87738415  0.26130355  0.54076047  1
  Pb  Pb135  1  0.37738415  0.23869645  0.45923953  1
  Pb  Pb136  1  0.54076047  0.87738415  0.26130355  1
  Pb  Pb137  1  0.23869645  0.45923953  0.37738415  1
  Pb  Pb138  1  0.26130355  0.54076047  0.87738415  1
  Pb  Pb139  1  0.76130355  0.95923953  0.12261585  1
  Pb  Pb140  1  0.50000000  0.50000000  0.50000000  1
  Pb  Pb141  1  0.00000000  0.50000000  0.00000000  1
  Pb  Pb142  1  0.00000000  0.00000000  0.50000000  1
  Pb  Pb143  1  0.50000000  0.00000000  0.00000000  1
  Pb  Pb144  1  0.22572018  0.22572018  0.22572018  1
  Pb  Pb145  1  0.27427982  0.77427982  0.72572018  1
  Pb  Pb146  1  0.72572018  0.27427982  0.77427982  1
  Pb  Pb147  1  0.77427982  0.72572018  0.27427982  1
  Pb  Pb148  1  0.77427982  0.77427982  0.77427982  1
  Pb  Pb149  1  0.72572018  0.22572018  0.27427982  1
  Pb  Pb150  1  0.27427982  0.72572018  0.22572018  1
  Pb  Pb151  1  0.22572018  0.27427982  0.72572018  1
