# generated using pymatgen
data_P4S3
_symmetry_space_group_name_H-M   'P 1'
_cell_length_a   7.17819095
_cell_length_b   10.97953564
_cell_length_c   11.99968118
_cell_angle_alpha   90.00000000
_cell_angle_beta   90.00000000
_cell_angle_gamma   90.00000000
_symmetry_Int_Tables_number   1
_chemical_formula_structural   P4S3
_chemical_formula_sum   'P16 S12'
_cell_volume   945.73331317
_cell_formula_units_Z   4
loop_
 _symmetry_equiv_pos_site_id
 _symmetry_equiv_pos_as_xyz
  1  'x, y, z'
loop_
 _atom_site_type_symbol
 _atom_site_label
 _atom_site_symmetry_multiplicity
 _atom_site_fract_x
 _atom_site_fract_y
 _atom_site_fract_z
 _atom_site_occupancy
  P  P0  1  0.74582434  0.85283371  0.07134729  1
  P  P1  1  0.24582434  0.14716629  0.42865271  1
  P  P2  1  0.25417566  0.35283371  0.92865271  1
  P  P3  1  0.75417566  0.64716629  0.57134729  1
  P  P4  1  0.84208313  0.25000000  0.33644807  1
  P  P5  1  0.34208313  0.75000000  0.16355193  1
  P  P6  1  0.15791687  0.75000000  0.66355193  1
  P  P7  1  0.65791687  0.25000000  0.83644807  1
  P  P8  1  0.09819809  0.25000000  0.56522186  1
  P  P9  1  0.59819809  0.75000000  0.93477814  1
  P  P10  1  0.90180191  0.75000000  0.43477814  1
  P  P11  1  0.40180191  0.25000000  0.06522186  1
  P  P12  1  0.25417566  0.14716629  0.92865271  1
  P  P13  1  0.75417566  0.85283371  0.57134729  1
  P  P14  1  0.24582434  0.35283371  0.42865271  1
  P  P15  1  0.74582434  0.64716629  0.07134729  1
  S  S16  1  0.96945405  0.89716476  0.68298309  1
  S  S17  1  0.46945405  0.39716476  0.81701691  1
  S  S18  1  0.03054595  0.10283524  0.31701691  1
  S  S19  1  0.53054595  0.89716476  0.18298309  1
  S  S20  1  0.46945405  0.10283524  0.81701691  1
  S  S21  1  0.96945405  0.60283524  0.68298309  1
  S  S22  1  0.53054595  0.60283524  0.18298309  1
  S  S23  1  0.03054595  0.39716476  0.31701691  1
  S  S24  1  0.68117040  0.25000000  0.01257371  1
  S  S25  1  0.18117040  0.75000000  0.48742629  1
  S  S26  1  0.31882960  0.75000000  0.98742629  1
  S  S27  1  0.81882960  0.25000000  0.51257371  1
