# generated using pymatgen
data_Cd(HN2)4
_symmetry_space_group_name_H-M   'P 1'
_cell_length_a   7.96841097
_cell_length_b   11.92724442
_cell_length_c   12.76897435
_cell_angle_alpha   90.00000000
_cell_angle_beta   94.60262067
_cell_angle_gamma   90.00000000
_symmetry_Int_Tables_number   1
_chemical_formula_structural   Cd(HN2)4
_chemical_formula_sum   'Cd8 H32 N64'
_cell_volume   1209.66492020
_cell_formula_units_Z   8
loop_
 _symmetry_equiv_pos_site_id
 _symmetry_equiv_pos_as_xyz
  1  'x, y, z'
loop_
 _atom_site_type_symbol
 _atom_site_label
 _atom_site_symmetry_multiplicity
 _atom_site_fract_x
 _atom_site_fract_y
 _atom_site_fract_z
 _atom_site_occupancy
  Cd  Cd0  1  0.77710774  0.03263620  0.88917981  1
  Cd  Cd1  1  0.72289226  0.53263620  0.11082019  1
  Cd  Cd2  1  0.84317978  0.43555125  0.40404821  1
  Cd  Cd3  1  0.34317978  0.06444875  0.40404821  1
  Cd  Cd4  1  0.27710774  0.46736380  0.88917981  1
  Cd  Cd5  1  0.65682022  0.93555125  0.59595179  1
  Cd  Cd6  1  0.15682022  0.56444875  0.59595179  1
  Cd  Cd7  1  0.22289226  0.96736380  0.11082019  1
  H  H8  1  0.64787934  0.72506201  0.24059014  1
  H  H9  1  0.75756436  0.17168203  0.58771706  1
  H  H10  1  0.82621621  0.19442466  0.05328717  1
  H  H11  1  0.04063490  0.88311103  0.28332896  1
  H  H12  1  0.67378379  0.69442466  0.94671283  1
  H  H13  1  0.14787934  0.77493799  0.24059014  1
  H  H14  1  0.17378379  0.80557534  0.94671283  1
  H  H15  1  0.38980094  0.83778009  0.32841769  1
  H  H16  1  0.62321137  0.51871736  0.85842859  1
  H  H17  1  0.74243564  0.67168203  0.41228294  1
  H  H18  1  0.12321137  0.98128264  0.85842859  1
  H  H19  1  0.49352414  0.37344614  0.18658977  1
  H  H20  1  0.48667972  0.67745922  0.99481605  1
  H  H21  1  0.95936510  0.11688897  0.71667104  1
  H  H22  1  0.98667972  0.82254078  0.99481605  1
  H  H23  1  0.01332028  0.17745922  0.00518395  1
  H  H24  1  0.24243564  0.82831797  0.41228294  1
  H  H25  1  0.51332028  0.32254078  0.00518395  1
  H  H26  1  0.32621621  0.30557534  0.05328717  1
  H  H27  1  0.45936510  0.38311103  0.71667104  1
  H  H28  1  0.25756436  0.32831797  0.58771706  1
  H  H29  1  0.99352414  0.12655386  0.18658977  1
  H  H30  1  0.37678863  0.48128264  0.14157141  1
  H  H31  1  0.11019906  0.33778009  0.67158231  1
  H  H32  1  0.50647586  0.62655386  0.81341023  1
  H  H33  1  0.85212066  0.22506201  0.75940986  1
  H  H34  1  0.88980094  0.66221991  0.32841769  1
  H  H35  1  0.61019906  0.16221991  0.67158231  1
  H  H36  1  0.35212066  0.27493799  0.75940986  1
  H  H37  1  0.00647586  0.87344614  0.81341023  1
  H  H38  1  0.54063490  0.61688897  0.28332896  1
  H  H39  1  0.87678863  0.01871736  0.14157141  1
  N  N40  1  0.22032043  0.37303116  0.65118757  1
  N  N41  1  0.15629972  0.85886754  0.26016586  1
  N  N42  1  0.28979265  0.04738447  0.64272145  1
  N  N43  1  0.41733717  0.24463679  0.47406619  1
  N  N44  1  0.62138285  0.17841758  0.17199041  1
  N  N45  1  0.91604022  0.37849151  0.93191177  1
  N  N46  1  0.05260987  0.10993677  0.38598085  1
  N  N47  1  0.77967957  0.62696884  0.34881243  1
  N  N48  1  0.58266283  0.75536321  0.52593381  1
  N  N49  1  0.79293872  0.40388065  0.97245354  1
  N  N50  1  0.44739013  0.60993677  0.61401915  1
  N  N51  1  0.22396312  0.09829590  0.70663214  1
  N  N52  1  0.53545268  0.15209630  0.88946302  1
  N  N53  1  0.27603688  0.59829590  0.29336786  1
  N  N54  1  0.20706128  0.59611935  0.02754646  1
  N  N55  1  0.12138285  0.32158242  0.17199041  1
  N  N56  1  0.98696236  0.18385795  0.42935736  1
  N  N57  1  0.99883051  0.63472220  0.80079411  1
  N  N58  1  0.35731304  0.99475277  0.57769739  1
  N  N59  1  0.70706128  0.90388065  0.02754646  1
  N  N60  1  0.91199485  0.13610673  0.03191386  1
  N  N61  1  0.96454732  0.65209630  0.11053698  1
  N  N62  1  0.41199485  0.36389327  0.03191386  1
  N  N63  1  0.71020735  0.95261553  0.35727855  1
  N  N64  1  0.62456451  0.90924274  0.77317958  1
  N  N65  1  0.46454732  0.84790370  0.11053698  1
  N  N66  1  0.72032043  0.12696884  0.65118757  1
  N  N67  1  0.65629972  0.64113246  0.26016586  1
  N  N68  1  0.94739013  0.89006323  0.61401915  1
  N  N69  1  0.37543549  0.09075726  0.22682042  1
  N  N70  1  0.03545268  0.34790370  0.88946302  1
  N  N71  1  0.27967957  0.87303116  0.34881243  1
  N  N72  1  0.87543549  0.40924274  0.22682042  1
  N  N73  1  0.87861715  0.67841758  0.82800959  1
  N  N74  1  0.41604022  0.12150849  0.93191177  1
  N  N75  1  0.34370028  0.35886754  0.73983414  1
  N  N76  1  0.48696236  0.31614205  0.42935736  1
  N  N77  1  0.14268696  0.49475277  0.42230261  1
  N  N78  1  0.85731304  0.50524723  0.57769739  1
  N  N79  1  0.08266283  0.74463679  0.52593381  1
  N  N80  1  0.01303764  0.81614205  0.57064264  1
  N  N81  1  0.72396312  0.40170410  0.70663214  1
  N  N82  1  0.29293872  0.09611935  0.97245354  1
  N  N83  1  0.49883051  0.86527780  0.80079411  1
  N  N84  1  0.64268696  0.00524723  0.42230261  1
  N  N85  1  0.12456451  0.59075726  0.77317958  1
  N  N86  1  0.08800515  0.86389327  0.96808614  1
  N  N87  1  0.58395978  0.87849151  0.06808823  1
  N  N88  1  0.58800515  0.63610673  0.96808614  1
  N  N89  1  0.02891268  0.92726851  0.87605752  1
  N  N90  1  0.77603688  0.90170410  0.29336786  1
  N  N91  1  0.97108732  0.07273149  0.12394248  1
  N  N92  1  0.55260987  0.39006323  0.38598085  1
  N  N93  1  0.21020735  0.54738447  0.35727855  1
  N  N94  1  0.47108732  0.42726851  0.12394248  1
  N  N95  1  0.52891268  0.57273149  0.87605752  1
  N  N96  1  0.84370028  0.14113246  0.73983414  1
  N  N97  1  0.78979265  0.45261553  0.64272145  1
  N  N98  1  0.51303764  0.68385795  0.57064264  1
  N  N99  1  0.50116949  0.13472220  0.19920589  1
  N  N100  1  0.37861715  0.82158242  0.82800959  1
  N  N101  1  0.00116949  0.36527780  0.19920589  1
  N  N102  1  0.08395978  0.62150849  0.06808823  1
  N  N103  1  0.91733717  0.25536321  0.47406619  1
