# generated using pymatgen
data_Y3Si3O10F
_symmetry_space_group_name_H-M   'P 1'
_cell_length_a   7.40423868
_cell_length_b   10.49961622
_cell_length_c   11.29627335
_cell_angle_alpha   90.00000000
_cell_angle_beta   90.00000000
_cell_angle_gamma   97.25172214
_symmetry_Int_Tables_number   1
_chemical_formula_structural   Y3Si3O10F
_chemical_formula_sum   'Y12 Si12 O40 F4'
_cell_volume   871.16657988
_cell_formula_units_Z   4
loop_
 _symmetry_equiv_pos_site_id
 _symmetry_equiv_pos_as_xyz
  1  'x, y, z'
loop_
 _atom_site_type_symbol
 _atom_site_label
 _atom_site_symmetry_multiplicity
 _atom_site_fract_x
 _atom_site_fract_y
 _atom_site_fract_z
 _atom_site_occupancy
  O  O0  1  0.47226914  0.13037008  0.91126366  1
  O  O1  1  0.02773086  0.36962992  0.41126366  1
  O  O2  1  0.52773086  0.86962992  0.08873634  1
  O  O3  1  0.97226914  0.63037008  0.58873634  1
  O  O4  1  0.03350777  0.13861829  0.52242913  1
  O  O5  1  0.46649223  0.36138171  0.02242913  1
  O  O6  1  0.96649223  0.86138171  0.47757087  1
  O  O7  1  0.53350777  0.63861829  0.97757087  1
  O  O8  1  0.31338530  0.80806362  0.89594201  1
  O  O9  1  0.18661470  0.69193638  0.39594201  1
  O  O10  1  0.68661470  0.19193638  0.10405799  1
  O  O11  1  0.81338530  0.30806362  0.60405799  1
  O  O12  1  0.17821575  0.37715745  0.60955579  1
  O  O13  1  0.32178425  0.12284255  0.10955579  1
  O  O14  1  0.82178425  0.62284255  0.39044421  1
  O  O15  1  0.67821575  0.87715745  0.89044421  1
  O  O16  1  0.29049640  0.80258657  0.64299832  1
  O  O17  1  0.48126441  0.37875384  0.72646076  1
  O  O18  1  0.51873559  0.62124616  0.27353924  1
  O  O19  1  0.98126441  0.87875384  0.77353924  1
  O  O20  1  0.23038820  0.51730539  0.81851456  1
  O  O21  1  0.26961180  0.98269461  0.31851456  1
  O  O22  1  0.76961180  0.48269461  0.18148544  1
  O  O23  1  0.73038820  0.01730539  0.68148544  1
  O  O24  1  0.15390633  0.26943725  0.82265694  1
  O  O25  1  0.34609367  0.23056275  0.32265694  1
  O  O26  1  0.84609367  0.73056275  0.17734306  1
  O  O27  1  0.65390633  0.76943725  0.67734306  1
  O  O28  1  0.98731700  0.63711896  0.97551141  1
  O  O29  1  0.51268300  0.86288104  0.47551141  1
  O  O30  1  0.01268300  0.36288104  0.02448859  1
  O  O31  1  0.48731700  0.13711896  0.52448859  1
  O  O32  1  0.96010327  0.10876941  0.95051227  1
  O  O33  1  0.53989673  0.39123059  0.45051227  1
  O  O34  1  0.03989673  0.89123059  0.04948773  1
  O  O35  1  0.46010327  0.60876941  0.54948773  1
  O  O36  1  0.79049640  0.30258657  0.85700168  1
  O  O37  1  0.70950360  0.19741343  0.35700168  1
  O  O38  1  0.20950360  0.69741343  0.14299832  1
  O  O39  1  0.01873559  0.12124616  0.22646076  1
  F  F40  1  0.69626236  0.94069086  0.28500830  1
  F  F41  1  0.80373764  0.55930914  0.78500830  1
  F  F42  1  0.19626236  0.44069086  0.21499170  1
  F  F43  1  0.30373764  0.05930914  0.71499170  1
  Si  Si44  1  0.00552128  0.29142747  0.53765329  1
  Si  Si45  1  0.23471819  0.11089191  0.24489959  1
  Si  Si46  1  0.73471819  0.61089191  0.25510041  1
  Si  Si47  1  0.76528181  0.88910809  0.75510041  1
  Si  Si48  1  0.47524763  0.75963743  0.58577568  1
  Si  Si49  1  0.02475237  0.74036257  0.08577568  1
  Si  Si50  1  0.52475237  0.24036257  0.41422432  1
  Si  Si51  1  0.97524763  0.25963743  0.91422432  1
  Si  Si52  1  0.50552128  0.79142747  0.96234671  1
  Si  Si53  1  0.99447872  0.70857253  0.46234671  1
  Si  Si54  1  0.26528181  0.38910809  0.74489959  1
  Si  Si55  1  0.49447872  0.20857253  0.03765329  1
  Y  Y56  1  0.23759596  0.98168807  0.53074917  1
  Y  Y57  1  0.26240404  0.51831193  0.03074917  1
  Y  Y58  1  0.76240404  0.01831193  0.46925083  1
  Y  Y59  1  0.73759596  0.48168807  0.96925083  1
  Y  Y60  1  0.09399760  0.68892511  0.77001930  1
  Y  Y61  1  0.40600240  0.81107489  0.27001930  1
  Y  Y62  1  0.90600240  0.31107489  0.22998070  1
  Y  Y63  1  0.59399760  0.18892511  0.72998070  1
  Y  Y64  1  0.19793589  0.00301924  0.90177676  1
  Y  Y65  1  0.30206411  0.49698076  0.40177676  1
  Y  Y66  1  0.80206411  0.99698076  0.09822324  1
  Y  Y67  1  0.69793589  0.50301924  0.59822324  1
