# generated using pymatgen
data_Ba2Nb6Te2O21
_symmetry_space_group_name_H-M   'P 1'
_cell_length_a   5.78320411
_cell_length_b   8.96369586
_cell_length_c   9.83049072
_cell_angle_alpha   96.47336538
_cell_angle_beta   90.00000000
_cell_angle_gamma   108.81965261
_symmetry_Int_Tables_number   1
_chemical_formula_structural   Ba2Nb6Te2O21
_chemical_formula_sum   'Ba2 Nb6 Te2 O21'
_cell_volume   478.92385292
_cell_formula_units_Z   1
loop_
 _symmetry_equiv_pos_site_id
 _symmetry_equiv_pos_as_xyz
  1  'x, y, z'
loop_
 _atom_site_type_symbol
 _atom_site_label
 _atom_site_symmetry_multiplicity
 _atom_site_fract_x
 _atom_site_fract_y
 _atom_site_fract_z
 _atom_site_occupancy
  O  O0  1  0.58155465  0.16310929  0.27853966  1
  O  O1  1  0.41844535  0.83689071  0.72146034  1
  O  O2  1  0.79080217  0.58160434  0.15061467  1
  O  O3  1  0.20919783  0.41839566  0.84938533  1
  O  O4  1  0.00000000  0.00000000  0.00000000  1
  O  O5  1  0.30583589  0.13009253  0.77924148  1
  O  O6  1  0.17574336  0.86990747  0.22075852  1
  O  O7  1  0.69416411  0.86990747  0.22075852  1
  O  O8  1  0.82425664  0.13009253  0.77924148  1
  O  O9  1  0.60572727  0.70982817  0.94702224  1
  O  O10  1  0.27776128  0.00000000  0.50000000  1
  O  O11  1  0.72223872  0.00000000  0.50000000  1
  O  O12  1  0.35787943  0.71575886  0.39575315  1
  O  O13  1  0.64212057  0.28424114  0.60424685  1
  O  O14  1  0.97758015  0.43595060  0.33125731  1
  O  O15  1  0.54162955  0.56404940  0.66874269  1
  O  O16  1  0.02241985  0.56404940  0.66874269  1
  O  O17  1  0.45837045  0.43595060  0.33125731  1
  O  O18  1  0.10410090  0.70982817  0.94702224  1
  O  O19  1  0.39427273  0.29017183  0.05297776  1
  O  O20  1  0.89589910  0.29017183  0.05297776  1
  Nb  Nb21  1  0.67656979  0.35313957  0.16803392  1
  Nb  Nb22  1  0.32343021  0.64686043  0.83196608  1
  Nb  Nb23  1  0.48113655  0.96227311  0.33759529  1
  Nb  Nb24  1  0.51886345  0.03772689  0.66240471  1
  Nb  Nb25  1  0.09772098  0.19544196  0.91400400  1
  Nb  Nb26  1  0.90227902  0.80455804  0.08599600  1
  Te  Te27  1  0.72616974  0.45233948  0.75068952  1
  Te  Te28  1  0.27383026  0.54766052  0.24931048  1
  Ba  Ba29  1  0.85961884  0.71923767  0.47128799  1
  Ba  Ba30  1  0.14038116  0.28076233  0.52871201  1
