# generated using pymatgen
data_As2O5
_symmetry_space_group_name_H-M   'P 1'
_cell_length_a   4.71591622
_cell_length_b   8.69093263
_cell_length_c   8.81563443
_cell_angle_alpha   90.00000000
_cell_angle_beta   90.00000000
_cell_angle_gamma   90.00000000
_symmetry_Int_Tables_number   1
_chemical_formula_structural   As2O5
_chemical_formula_sum   'As8 O20'
_cell_volume   361.31503760
_cell_formula_units_Z   4
loop_
 _symmetry_equiv_pos_site_id
 _symmetry_equiv_pos_as_xyz
  1  'x, y, z'
loop_
 _atom_site_type_symbol
 _atom_site_label
 _atom_site_symmetry_multiplicity
 _atom_site_fract_x
 _atom_site_fract_y
 _atom_site_fract_z
 _atom_site_occupancy
  O  O0  1  0.30091032  0.75448730  0.22633585  1
  O  O1  1  0.80091032  0.24551270  0.27366415  1
  O  O2  1  0.19908968  0.25448730  0.77366415  1
  O  O3  1  0.69908968  0.74551270  0.72633585  1
  O  O4  1  0.45614759  0.97469886  0.00222602  1
  O  O5  1  0.95614759  0.02530114  0.49777398  1
  O  O6  1  0.04385241  0.47469886  0.99777398  1
  O  O7  1  0.54385241  0.52530114  0.50222602  1
  O  O8  1  0.14757098  0.56521007  0.70375069  1
  O  O9  1  0.64757098  0.43478993  0.79624931  1
  O  O10  1  0.35242902  0.06521007  0.29624931  1
  O  O11  1  0.85242902  0.93478993  0.20375069  1
  O  O12  1  0.37862633  0.85652997  0.50903493  1
  O  O13  1  0.87862633  0.14347003  0.99096507  1
  O  O14  1  0.12137367  0.35652997  0.49096507  1
  O  O15  1  0.62137367  0.64347003  0.00903493  1
  O  O16  1  0.91804410  0.73019977  0.41490953  1
  O  O17  1  0.41804410  0.26980023  0.08509047  1
  O  O18  1  0.58195590  0.23019977  0.58509047  1
  O  O19  1  0.08195590  0.76980023  0.91490953  1
  As  As20  1  0.13096438  0.28289896  0.96575123  1
  As  As21  1  0.63096438  0.71710104  0.53424877  1
  As  As22  1  0.36903562  0.78289896  0.03424877  1
  As  As23  1  0.86903562  0.21710104  0.46575123  1
  As  As24  1  0.12630525  0.90320513  0.34764115  1
  As  As25  1  0.62630525  0.09679487  0.15235885  1
  As  As26  1  0.37369475  0.40320513  0.65235885  1
  As  As27  1  0.87369475  0.59679487  0.84764115  1
