# generated using pymatgen
data_OsC3IO3
_symmetry_space_group_name_H-M   'P 1'
_cell_length_a   6.51874198
_cell_length_b   7.42982124
_cell_length_c   14.18496968
_cell_angle_alpha   90.00000000
_cell_angle_beta   90.00000000
_cell_angle_gamma   91.11487667
_symmetry_Int_Tables_number   1
_chemical_formula_structural   OsC3IO3
_chemical_formula_sum   'Os4 C12 I4 O12'
_cell_volume   686.89182120
_cell_formula_units_Z   4
loop_
 _symmetry_equiv_pos_site_id
 _symmetry_equiv_pos_as_xyz
  1  'x, y, z'
loop_
 _atom_site_type_symbol
 _atom_site_label
 _atom_site_symmetry_multiplicity
 _atom_site_fract_x
 _atom_site_fract_y
 _atom_site_fract_z
 _atom_site_occupancy
  Os  Os0  1  0.75145578  0.71800381  0.65133130  1
  Os  Os1  1  0.24854422  0.28199619  0.34866870  1
  Os  Os2  1  0.24854422  0.28199619  0.15133130  1
  Os  Os3  1  0.75145578  0.71800381  0.84866870  1
  C  C4  1  0.87798238  0.49648245  0.87321673  1
  C  C5  1  0.38531655  0.25488006  0.46802607  1
  C  C6  1  0.00752768  0.15133069  0.11914935  1
  C  C7  1  0.00752768  0.15133069  0.38085065  1
  C  C8  1  0.61468345  0.74511994  0.53197393  1
  C  C9  1  0.99247232  0.84866931  0.61914935  1
  C  C10  1  0.12201762  0.50351755  0.12678327  1
  C  C11  1  0.99247232  0.84866931  0.88085065  1
  C  C12  1  0.61468345  0.74511994  0.96802607  1
  C  C13  1  0.38531655  0.25488006  0.03197393  1
  C  C14  1  0.12201762  0.50351755  0.37321673  1
  C  C15  1  0.87798238  0.49648245  0.62678327  1
  I  I16  1  0.43710943  0.53944673  0.75000000  1
  I  I17  1  0.56289057  0.46055327  0.25000000  1
  I  I18  1  0.61007997  0.01348992  0.75000000  1
  I  I19  1  0.38992003  0.98651008  0.25000000  1
  O  O20  1  0.14128224  0.92748236  0.59756248  1
  O  O21  1  0.46664214  0.24555805  0.54092280  1
  O  O22  1  0.03992978  0.63759293  0.10951712  1
  O  O23  1  0.03992978  0.63759293  0.39048288  1
  O  O24  1  0.96007022  0.36240707  0.60951712  1
  O  O25  1  0.53335786  0.75444195  0.45907720  1
  O  O26  1  0.85871776  0.07251764  0.09756248  1
  O  O27  1  0.96007022  0.36240707  0.89048288  1
  O  O28  1  0.46664214  0.24555805  0.95907720  1
  O  O29  1  0.14128224  0.92748236  0.90243752  1
  O  O30  1  0.85871776  0.07251764  0.40243752  1
  O  O31  1  0.53335786  0.75444195  0.04092280  1
