# generated using pymatgen
data_Tb2MgPd2
_symmetry_space_group_name_H-M   'P 1'
_cell_length_a   3.85846095
_cell_length_b   7.66843983
_cell_length_c   7.66843983
_cell_angle_alpha   90.00000000
_cell_angle_beta   90.00000000
_cell_angle_gamma   90.00000000
_symmetry_Int_Tables_number   1
_chemical_formula_structural   Tb2MgPd2
_chemical_formula_sum   'Tb4 Mg2 Pd4'
_cell_volume   226.89667820
_cell_formula_units_Z   2
loop_
 _symmetry_equiv_pos_site_id
 _symmetry_equiv_pos_as_xyz
  1  'x, y, z'
loop_
 _atom_site_type_symbol
 _atom_site_label
 _atom_site_symmetry_multiplicity
 _atom_site_fract_x
 _atom_site_fract_y
 _atom_site_fract_z
 _atom_site_occupancy
  Mg  Mg0  1  0.00000000  0.50000000  0.50000000  1
  Mg  Mg1  1  0.00000000  0.00000000  0.00000000  1
  Pd  Pd2  1  0.00000000  0.63242437  0.13242437  1
  Pd  Pd3  1  0.00000000  0.86757563  0.63242437  1
  Pd  Pd4  1  0.00000000  0.36757563  0.86757563  1
  Pd  Pd5  1  0.00000000  0.13242437  0.36757563  1
  Tb  Tb6  1  0.50000000  0.83132290  0.33132290  1
  Tb  Tb7  1  0.50000000  0.66867710  0.83132290  1
  Tb  Tb8  1  0.50000000  0.33132290  0.16867710  1
  Tb  Tb9  1  0.50000000  0.16867710  0.66867710  1
