# generated using pymatgen
data_Ba2CdSe3
_symmetry_space_group_name_H-M   'P 1'
_cell_length_a   4.55906317
_cell_length_b   9.41543434
_cell_length_c   18.18918618
_cell_angle_alpha   90.00000000
_cell_angle_beta   90.00000000
_cell_angle_gamma   90.00000000
_symmetry_Int_Tables_number   1
_chemical_formula_structural   Ba2CdSe3
_chemical_formula_sum   'Ba8 Cd4 Se12'
_cell_volume   780.78100143
_cell_formula_units_Z   4
loop_
 _symmetry_equiv_pos_site_id
 _symmetry_equiv_pos_as_xyz
  1  'x, y, z'
loop_
 _atom_site_type_symbol
 _atom_site_label
 _atom_site_symmetry_multiplicity
 _atom_site_fract_x
 _atom_site_fract_y
 _atom_site_fract_z
 _atom_site_occupancy
  Se  Se0  1  0.25000000  0.48498597  0.90412613  1
  Se  Se1  1  0.75000000  0.51501403  0.09587387  1
  Se  Se2  1  0.25000000  0.98498597  0.59587387  1
  Se  Se3  1  0.75000000  0.01501403  0.40412613  1
  Se  Se4  1  0.25000000  0.61813483  0.42792380  1
  Se  Se5  1  0.75000000  0.38186517  0.57207620  1
  Se  Se6  1  0.25000000  0.11813483  0.07207620  1
  Se  Se7  1  0.75000000  0.68562705  0.72282831  1
  Se  Se8  1  0.25000000  0.81437295  0.22282831  1
  Se  Se9  1  0.75000000  0.18562705  0.77717169  1
  Se  Se10  1  0.25000000  0.31437295  0.27717169  1
  Se  Se11  1  0.75000000  0.88186517  0.92792380  1
  Cd  Cd12  1  0.75000000  0.62447858  0.86679147  1
  Cd  Cd13  1  0.75000000  0.12447858  0.63320853  1
  Cd  Cd14  1  0.25000000  0.37552142  0.13320853  1
  Cd  Cd15  1  0.25000000  0.87552142  0.36679147  1
  Ba  Ba16  1  0.25000000  0.26022223  0.46043753  1
  Ba  Ba17  1  0.75000000  0.23977777  0.96043753  1
  Ba  Ba18  1  0.25000000  0.76022223  0.03956247  1
  Ba  Ba19  1  0.75000000  0.73977777  0.53956247  1
  Ba  Ba20  1  0.25000000  0.92215503  0.78440737  1
  Ba  Ba21  1  0.75000000  0.07784497  0.21559263  1
  Ba  Ba22  1  0.25000000  0.42215503  0.71559263  1
  Ba  Ba23  1  0.75000000  0.57784497  0.28440737  1
