# generated using pymatgen
data_SiP2O7
_symmetry_space_group_name_H-M   'P 1'
_cell_length_a   4.80548061
_cell_length_b   7.76794246
_cell_length_c   12.19356991
_cell_angle_alpha   90.00000000
_cell_angle_beta   90.00000000
_cell_angle_gamma   88.87654833
_symmetry_Int_Tables_number   1
_chemical_formula_structural   SiP2O7
_chemical_formula_sum   'Si4 P8 O28'
_cell_volume   455.08257765
_cell_formula_units_Z   4
loop_
 _symmetry_equiv_pos_site_id
 _symmetry_equiv_pos_as_xyz
  1  'x, y, z'
loop_
 _atom_site_type_symbol
 _atom_site_label
 _atom_site_symmetry_multiplicity
 _atom_site_fract_x
 _atom_site_fract_y
 _atom_site_fract_z
 _atom_site_occupancy
  O  O0  1  0.51782782  0.15937939  0.26486429  1
  O  O1  1  0.98217218  0.34062061  0.76486429  1
  O  O2  1  0.48217218  0.84062061  0.73513571  1
  O  O3  1  0.01782782  0.65937939  0.23513571  1
  O  O4  1  0.02487576  0.07213972  0.24032535  1
  O  O5  1  0.47512424  0.42786028  0.74032535  1
  O  O6  1  0.97512424  0.92786028  0.75967465  1
  O  O7  1  0.52487576  0.57213972  0.25967465  1
  O  O8  1  0.63696411  0.86710060  0.18795390  1
  O  O9  1  0.86303589  0.63289940  0.68795390  1
  O  O10  1  0.36303589  0.13289940  0.81204610  1
  O  O11  1  0.13696411  0.36710060  0.31204610  1
  O  O12  1  0.21461219  0.62591600  0.42387890  1
  O  O13  1  0.28538781  0.87408400  0.92387890  1
  O  O14  1  0.78538781  0.37408400  0.57612110  1
  O  O15  1  0.71461219  0.12591600  0.07612110  1
  O  O16  1  0.57308648  0.76286486  0.53647776  1
  O  O17  1  0.92691352  0.73713514  0.03647776  1
  O  O18  1  0.42691352  0.23713514  0.46352224  1
  O  O19  1  0.07308648  0.26286486  0.96352224  1
  O  O20  1  0.06735063  0.85017857  0.56196046  1
  O  O21  1  0.43264937  0.64982143  0.06196046  1
  O  O22  1  0.93264937  0.14982143  0.43803954  1
  O  O23  1  0.56735063  0.35017857  0.93803954  1
  O  O24  1  0.31997677  0.93789195  0.39057251  1
  O  O25  1  0.18002323  0.56210805  0.89057251  1
  O  O26  1  0.68002323  0.06210805  0.60942749  1
  O  O27  1  0.81997677  0.43789195  0.10942749  1
  Si  Si28  1  0.22637139  0.15409053  0.35202743  1
  Si  Si29  1  0.27362861  0.34590947  0.85202743  1
  Si  Si30  1  0.77362861  0.84590947  0.64797257  1
  Si  Si31  1  0.72637139  0.65409053  0.14797257  1
  P  P32  1  0.72744486  0.05215518  0.19939579  1
  P  P33  1  0.77255514  0.44784482  0.69939579  1
  P  P34  1  0.27255514  0.94784482  0.80060421  1
  P  P35  1  0.22744486  0.55215518  0.30060421  1
  P  P36  1  0.79422849  0.30329955  0.01898679  1
  P  P37  1  0.70577151  0.19670045  0.51898679  1
  P  P38  1  0.20577151  0.69670045  0.98101321  1
  P  P39  1  0.29422849  0.80329955  0.48101321  1
