# generated using pymatgen
data_CsNa3Li12(GeO4)4
_symmetry_space_group_name_H-M   'P 1'
_cell_length_a   6.56140401
_cell_length_b   8.65819104
_cell_length_c   8.65819104
_cell_angle_alpha   81.74522280
_cell_angle_beta   67.73362624
_cell_angle_gamma   67.73362623
_symmetry_Int_Tables_number   1
_chemical_formula_structural   CsNa3Li12(GeO4)4
_chemical_formula_sum   'Cs1 Na3 Li12 Ge4 O16'
_cell_volume   421.25044744
_cell_formula_units_Z   1
loop_
 _symmetry_equiv_pos_site_id
 _symmetry_equiv_pos_as_xyz
  1  'x, y, z'
loop_
 _atom_site_type_symbol
 _atom_site_label
 _atom_site_symmetry_multiplicity
 _atom_site_fract_x
 _atom_site_fract_y
 _atom_site_fract_z
 _atom_site_occupancy
  Li  Li0  1  0.28446621  0.79302197  0.63804561  1
  Li  Li1  1  0.92251182  0.36195439  0.79302197  1
  Li  Li2  1  0.07748818  0.63804561  0.20697803  1
  Li  Li3  1  0.71553379  0.20697803  0.36195439  1
  Li  Li4  1  0.97783944  0.66464689  0.86861444  1
  Li  Li5  1  0.84645388  0.13138556  0.66464689  1
  Li  Li6  1  0.64248633  0.86861444  0.33535311  1
  Li  Li7  1  0.51110077  0.33535311  0.13138556  1
  Li  Li8  1  0.35751367  0.13138556  0.66464689  1
  Li  Li9  1  0.48889923  0.66464689  0.86861444  1
  Li  Li10  1  0.02216056  0.33535311  0.13138556  1
  Li  Li11  1  0.15354612  0.86861444  0.33535311  1
  O  O12  1  0.56766112  0.27086504  0.59381272  1
  O  O13  1  0.90183796  0.77807662  0.41824747  1
  O  O14  1  0.67991457  0.41824747  0.22192338  1
  O  O15  1  0.09816204  0.22192338  0.58175253  1
  O  O16  1  0.18700535  0.28150169  0.89416363  1
  O  O17  1  0.08116898  0.10583637  0.28150169  1
  O  O18  1  0.46850704  0.89416363  0.71849831  1
  O  O19  1  0.36267067  0.71849831  0.10583637  1
  O  O20  1  0.81299465  0.71849831  0.10583637  1
  O  O21  1  0.91883102  0.89416363  0.71849831  1
  O  O22  1  0.53149296  0.10583637  0.28150169  1
  O  O23  1  0.63732933  0.28150169  0.89416363  1
  O  O24  1  0.83852616  0.59381272  0.72913496  1
  O  O25  1  0.43233888  0.72913496  0.40618728  1
  O  O26  1  0.32008543  0.58175253  0.77807662  1
  O  O27  1  0.16147384  0.40618728  0.27086504  1
  Na  Na28  1  0.25000000  0.50000000  0.50000000  1
  Na  Na29  1  0.75000000  0.50000000  0.50000000  1
  Na  Na30  1  0.50000000  0.00000000  0.00000000  1
  Ge  Ge31  1  0.78113248  0.79930725  0.63842780  1
  Ge  Ge32  1  0.41956028  0.36157220  0.79930725  1
  Ge  Ge33  1  0.58043972  0.63842780  0.20069275  1
  Ge  Ge34  1  0.21886752  0.20069275  0.36157220  1
  Cs  Cs35  1  0.00000000  0.00000000  0.00000000  1
