# generated using pymatgen
data_LaPdO3
_symmetry_space_group_name_H-M   'P 1'
_cell_length_a   5.64433579
_cell_length_b   6.03527423
_cell_length_c   7.86131216
_cell_angle_alpha   90.00000000
_cell_angle_beta   90.00000000
_cell_angle_gamma   90.00000000
_symmetry_Int_Tables_number   1
_chemical_formula_structural   LaPdO3
_chemical_formula_sum   'La4 Pd4 O12'
_cell_volume   267.79649758
_cell_formula_units_Z   4
loop_
 _symmetry_equiv_pos_site_id
 _symmetry_equiv_pos_as_xyz
  1  'x, y, z'
loop_
 _atom_site_type_symbol
 _atom_site_label
 _atom_site_symmetry_multiplicity
 _atom_site_fract_x
 _atom_site_fract_y
 _atom_site_fract_z
 _atom_site_occupancy
  O  O0  1  0.69407970  0.30089504  0.44799648  1
  O  O1  1  0.19407970  0.19910496  0.55200352  1
  O  O2  1  0.80592030  0.80089504  0.05200352  1
  O  O3  1  0.30592030  0.69910496  0.94799648  1
  O  O4  1  0.30592030  0.69910496  0.55200352  1
  O  O5  1  0.80592030  0.80089504  0.44799648  1
  O  O6  1  0.19407970  0.19910496  0.94799648  1
  O  O7  1  0.69407970  0.30089504  0.05200352  1
  O  O8  1  0.11017838  0.46025258  0.25000000  1
  O  O9  1  0.61017838  0.03974742  0.75000000  1
  O  O10  1  0.38982162  0.96025258  0.25000000  1
  O  O11  1  0.88982162  0.53974742  0.75000000  1
  Pd  Pd12  1  0.50000000  0.00000000  0.50000000  1
  Pd  Pd13  1  0.00000000  0.50000000  0.50000000  1
  Pd  Pd14  1  0.00000000  0.50000000  0.00000000  1
  Pd  Pd15  1  0.50000000  0.00000000  0.00000000  1
  La  La16  1  0.02043008  0.92950878  0.75000000  1
  La  La17  1  0.52043008  0.57049122  0.25000000  1
  La  La18  1  0.47956992  0.42950878  0.75000000  1
  La  La19  1  0.97956992  0.07049122  0.25000000  1
