# generated using pymatgen
data_PrS2
_symmetry_space_group_name_H-M   'P 1'
_cell_length_a   4.10327905
_cell_length_b   8.08621086
_cell_length_c   16.36673274
_cell_angle_alpha   90.00000000
_cell_angle_beta   90.00000000
_cell_angle_gamma   90.00000000
_symmetry_Int_Tables_number   1
_chemical_formula_structural   PrS2
_chemical_formula_sum   'Pr8 S16'
_cell_volume   543.04785869
_cell_formula_units_Z   8
loop_
 _symmetry_equiv_pos_site_id
 _symmetry_equiv_pos_as_xyz
  1  'x, y, z'
loop_
 _atom_site_type_symbol
 _atom_site_label
 _atom_site_symmetry_multiplicity
 _atom_site_fract_x
 _atom_site_fract_y
 _atom_site_fract_z
 _atom_site_occupancy
  S  S0  1  0.74103295  0.37474167  0.43352063  1
  S  S1  1  0.24103295  0.12525833  0.56647937  1
  S  S2  1  0.75896705  0.87474167  0.06647937  1
  S  S3  1  0.25896705  0.62525833  0.93352063  1
  S  S4  1  0.25896705  0.62525833  0.56647937  1
  S  S5  1  0.75896705  0.87474167  0.43352063  1
  S  S6  1  0.24103295  0.12525833  0.93352063  1
  S  S7  1  0.74103295  0.37474167  0.06647937  1
  S  S8  1  0.14365598  0.39071730  0.25000000  1
  S  S9  1  0.64365598  0.10928270  0.75000000  1
  S  S10  1  0.35634402  0.89071730  0.25000000  1
  S  S11  1  0.85634402  0.60928270  0.75000000  1
  S  S12  1  0.66448151  0.10093589  0.25000000  1
  S  S13  1  0.16448151  0.39906411  0.75000000  1
  S  S14  1  0.83551849  0.60093589  0.25000000  1
  S  S15  1  0.33551849  0.89906411  0.75000000  1
  Pr  Pr16  1  0.21824107  0.12865750  0.38801891  1
  Pr  Pr17  1  0.71824107  0.37134250  0.61198109  1
  Pr  Pr18  1  0.28175893  0.62865750  0.11198109  1
  Pr  Pr19  1  0.78175893  0.87134250  0.88801891  1
  Pr  Pr20  1  0.78175893  0.87134250  0.61198109  1
  Pr  Pr21  1  0.28175893  0.62865750  0.38801891  1
  Pr  Pr22  1  0.71824107  0.37134250  0.88801891  1
  Pr  Pr23  1  0.21824107  0.12865750  0.11198109  1
