# generated using pymatgen
data_TeF6
_symmetry_space_group_name_H-M   'P 1'
_cell_length_a   5.28110556
_cell_length_b   9.06405833
_cell_length_c   10.11022045
_cell_angle_alpha   90.00000000
_cell_angle_beta   90.00000000
_cell_angle_gamma   90.00000000
_symmetry_Int_Tables_number   1
_chemical_formula_structural   TeF6
_chemical_formula_sum   'Te4 F24'
_cell_volume   483.95854836
_cell_formula_units_Z   4
loop_
 _symmetry_equiv_pos_site_id
 _symmetry_equiv_pos_as_xyz
  1  'x, y, z'
loop_
 _atom_site_type_symbol
 _atom_site_label
 _atom_site_symmetry_multiplicity
 _atom_site_fract_x
 _atom_site_fract_y
 _atom_site_fract_z
 _atom_site_occupancy
  F  F0  1  0.55478499  0.39534493  0.73125075  1
  F  F1  1  0.05478499  0.60465507  0.76874925  1
  F  F2  1  0.44521501  0.89534493  0.26874925  1
  F  F3  1  0.94521501  0.10465507  0.23125075  1
  F  F4  1  0.18249923  0.75000000  0.98495352  1
  F  F5  1  0.68249923  0.25000000  0.51504648  1
  F  F6  1  0.81750077  0.25000000  0.01504648  1
  F  F7  1  0.31750077  0.75000000  0.48495352  1
  F  F8  1  0.62257566  0.75000000  0.75991757  1
  F  F9  1  0.12257566  0.25000000  0.74008243  1
  F  F10  1  0.37742434  0.25000000  0.24008243  1
  F  F11  1  0.87742434  0.75000000  0.25991757  1
  F  F12  1  0.75000767  0.89548138  0.97549471  1
  F  F13  1  0.25000767  0.10451862  0.52450529  1
  F  F14  1  0.24999233  0.39548138  0.02450529  1
  F  F15  1  0.74999233  0.60451862  0.47549471  1
  F  F16  1  0.24999233  0.10451862  0.02450529  1
  F  F17  1  0.74999233  0.89548138  0.47549471  1
  F  F18  1  0.75000767  0.60451862  0.97549471  1
  F  F19  1  0.25000767  0.39548138  0.52450529  1
  F  F20  1  0.05478499  0.89534493  0.76874925  1
  F  F21  1  0.55478499  0.10465507  0.73125075  1
  F  F22  1  0.94521501  0.39534493  0.23125075  1
  F  F23  1  0.44521501  0.60465507  0.26874925  1
  Te  Te24  1  0.59715780  0.75000000  0.37230518  1
  Te  Te25  1  0.09715780  0.25000000  0.12769482  1
  Te  Te26  1  0.40284220  0.25000000  0.62769482  1
  Te  Te27  1  0.90284220  0.75000000  0.87230518  1
