# generated using pymatgen
data_LiFe(SiO3)2
_symmetry_space_group_name_H-M   'P 1'
_cell_length_a   5.33871978
_cell_length_b   8.80676653
_cell_length_c   9.37971204
_cell_angle_alpha   90.00000000
_cell_angle_beta   101.90695086
_cell_angle_gamma   90.00000000
_symmetry_Int_Tables_number   1
_chemical_formula_structural   LiFe(SiO3)2
_chemical_formula_sum   'Li4 Fe4 Si8 O24'
_cell_volume   431.51592361
_cell_formula_units_Z   4
loop_
 _symmetry_equiv_pos_site_id
 _symmetry_equiv_pos_as_xyz
  1  'x, y, z'
loop_
 _atom_site_type_symbol
 _atom_site_label
 _atom_site_symmetry_multiplicity
 _atom_site_fract_x
 _atom_site_fract_y
 _atom_site_fract_z
 _atom_site_occupancy
  Li  Li0  1  0.00976042  0.00452578  0.24756684  1
  Li  Li1  1  0.49023958  0.50452578  0.75243316  1
  Li  Li2  1  0.99023958  0.99547422  0.75243316  1
  Li  Li3  1  0.50976042  0.49547422  0.24756684  1
  O  O4  1  0.77190405  0.49698211  0.62214103  1
  O  O5  1  0.58122792  0.77055629  0.60336063  1
  O  O6  1  0.91877208  0.27055629  0.39663937  1
  O  O7  1  0.41877208  0.22944371  0.39663937  1
  O  O8  1  0.08122792  0.72944371  0.60336063  1
  O  O9  1  0.02650358  0.23337698  0.10723205  1
  O  O10  1  0.47349642  0.73337698  0.89276795  1
  O  O11  1  0.97349642  0.76662302  0.89276795  1
  O  O12  1  0.52650358  0.26662302  0.10723205  1
  O  O13  1  0.22852869  0.83521378  0.36667388  1
  O  O14  1  0.72809595  0.99698211  0.37785897  1
  O  O15  1  0.22809595  0.50301789  0.37785897  1
  O  O16  1  0.70657888  0.33307822  0.86757638  1
  O  O17  1  0.79342112  0.83307822  0.13242362  1
  O  O18  1  0.29342112  0.66692178  0.13242362  1
  O  O19  1  0.20657888  0.16692178  0.86757638  1
  O  O20  1  0.77147131  0.16478622  0.63332612  1
  O  O21  1  0.27147131  0.33521378  0.63332612  1
  O  O22  1  0.30290105  0.99340643  0.11779247  1
  O  O23  1  0.72852869  0.66478622  0.36667388  1
  O  O24  1  0.80290105  0.50659357  0.11779247  1
  O  O25  1  0.69709895  0.00659357  0.88220753  1
  O  O26  1  0.19709895  0.49340643  0.88220753  1
  O  O27  1  0.27190405  0.00301789  0.62214103  1
  Si  Si28  1  0.22870665  0.66153768  0.95222656  1
  Si  Si29  1  0.79119777  0.66107120  0.54733234  1
  Si  Si30  1  0.70880223  0.16107120  0.45266766  1
  Si  Si31  1  0.20880223  0.33892880  0.45266766  1
  Si  Si32  1  0.29119777  0.83892880  0.54733234  1
  Si  Si33  1  0.27129335  0.16153768  0.04777344  1
  Si  Si34  1  0.72870665  0.83846232  0.95222656  1
  Si  Si35  1  0.77129335  0.33846232  0.04777344  1
  Fe  Fe36  1  0.01242391  0.64722881  0.25031470  1
  Fe  Fe37  1  0.51242391  0.85277119  0.25031470  1
  Fe  Fe38  1  0.98757609  0.35277119  0.74968530  1
  Fe  Fe39  1  0.48757609  0.14722881  0.74968530  1
