# generated using pymatgen
data_Sr4Mn3O10
_symmetry_space_group_name_H-M   'P 1'
_cell_length_a   5.54850397
_cell_length_b   6.85932165
_cell_length_c   12.89182104
_cell_angle_alpha   90.00000000
_cell_angle_beta   90.00000000
_cell_angle_gamma   113.85665996
_symmetry_Int_Tables_number   1
_chemical_formula_structural   Sr4Mn3O10
_chemical_formula_sum   'Sr8 Mn6 O20'
_cell_volume   448.72845829
_cell_formula_units_Z   2
loop_
 _symmetry_equiv_pos_site_id
 _symmetry_equiv_pos_as_xyz
  1  'x, y, z'
loop_
 _atom_site_type_symbol
 _atom_site_label
 _atom_site_symmetry_multiplicity
 _atom_site_fract_x
 _atom_site_fract_y
 _atom_site_fract_z
 _atom_site_occupancy
  O  O0  1  0.36479790  0.22959740  0.75000019  1
  O  O1  1  0.13520205  0.77040249  0.25000006  1
  O  O2  1  0.63520044  0.77040249  0.25000006  1
  O  O3  1  0.86479809  0.22959740  0.75000019  1
  O  O4  1  0.16131381  0.78044455  0.46241741  1
  O  O5  1  0.38086940  0.21955534  0.53758284  1
  O  O6  1  0.33868614  0.21955534  0.96241754  1
  O  O7  1  0.11913055  0.78044455  0.03758271  1
  O  O8  1  0.83868634  0.21955534  0.53758284  1
  O  O9  1  0.61913075  0.78044455  0.46241741  1
  O  O10  1  0.66131400  0.78044455  0.03758271  1
  O  O11  1  0.88086960  0.21955534  0.96241754  1
  O  O12  1  0.77717706  0.55435373  0.65560112  1
  O  O13  1  0.22282308  0.44564617  0.34439835  1
  O  O14  1  0.03685017  0.07370035  0.14484058  1
  O  O15  1  0.96314997  0.92629955  0.85515967  1
  O  O16  1  0.46314978  0.92629955  0.64484071  1
  O  O17  1  0.72282328  0.44564617  0.15560178  1
  O  O18  1  0.27717687  0.55435373  0.84439847  1
  O  O19  1  0.53685037  0.07370035  0.35515954  1
  Mn  Mn20  1  0.63213612  0.26427184  0.65252621  1
  Mn  Mn21  1  0.36786403  0.73572806  0.34747404  1
  Mn  Mn22  1  0.86786423  0.73572806  0.15252608  1
  Mn  Mn23  1  0.13213592  0.26427184  0.84747417  1
  Mn  Mn24  1  0.50000020  0.00000000  0.50000013  1
  Mn  Mn25  1  0.00000000  0.00000000  0.00000000  1
  Sr  Sr26  1  0.23726424  0.47452848  0.11340720  1
  Sr  Sr27  1  0.76273591  0.52547142  0.88659227  1
  Sr  Sr28  1  0.73726444  0.47452848  0.38659293  1
  Sr  Sr29  1  0.26273571  0.52547142  0.61340732  1
  Sr  Sr30  1  0.97036043  0.94072046  0.64375251  1
  Sr  Sr31  1  0.02964051  0.05928103  0.35624696  1
  Sr  Sr32  1  0.52964071  0.05928103  0.14375316  1
  Sr  Sr33  1  0.47036023  0.94072046  0.85624709  1
