# generated using pymatgen
data_TlV3O8
_symmetry_space_group_name_H-M   'P 1'
_cell_length_a   5.15875490
_cell_length_b   8.12385487
_cell_length_c   8.74944229
_cell_angle_alpha   90.00000000
_cell_angle_beta   90.00000000
_cell_angle_gamma   100.26723843
_symmetry_Int_Tables_number   1
_chemical_formula_structural   TlV3O8
_chemical_formula_sum   'Tl2 V6 O16'
_cell_volume   360.80856092
_cell_formula_units_Z   2
loop_
 _symmetry_equiv_pos_site_id
 _symmetry_equiv_pos_as_xyz
  1  'x, y, z'
loop_
 _atom_site_type_symbol
 _atom_site_label
 _atom_site_symmetry_multiplicity
 _atom_site_fract_x
 _atom_site_fract_y
 _atom_site_fract_z
 _atom_site_occupancy
  O  O0  1  0.12852957  0.70941378  0.39514794  1
  O  O1  1  0.87147077  0.29058583  0.89514794  1
  O  O2  1  0.87147077  0.29058583  0.60485205  1
  O  O3  1  0.12852957  0.70941378  0.10485206  1
  O  O4  1  0.41205037  0.16942200  0.44617338  1
  O  O5  1  0.58794997  0.83057762  0.94617337  1
  O  O6  1  0.58794997  0.83057762  0.55382662  1
  O  O7  1  0.41205037  0.16942200  0.05382662  1
  O  O8  1  0.07528282  0.40387884  0.25000000  1
  O  O9  1  0.92471752  0.59612078  0.75000000  1
  O  O10  1  0.59564581  0.74693542  0.25000000  1
  O  O11  1  0.40435483  0.25306543  0.75000000  1
  O  O12  1  0.67110874  0.50272213  0.40977631  1
  O  O13  1  0.32889160  0.49727748  0.59022368  1
  O  O14  1  0.32889160  0.49727748  0.90977631  1
  O  O15  1  0.67110874  0.50272213  0.09022369  1
  V  V16  1  0.45196613  0.67742184  0.44235523  1
  V  V17  1  0.54803421  0.32257777  0.94235523  1
  V  V18  1  0.54803421  0.32257777  0.55764477  1
  V  V19  1  0.45196613  0.67742184  0.05764477  1
  V  V20  1  0.92215552  0.56255296  0.25000000  1
  V  V21  1  0.07784481  0.43744665  0.75000000  1
  Tl  Tl22  1  -0.00072405  0.95173891  0.75000000  1
  Tl  Tl23  1  1.00072439  0.04826070  0.25000000  1
