# generated using pymatgen
data_Dy2SiSeO4
_symmetry_space_group_name_H-M   'P 1'
_cell_length_a   6.06530181
_cell_length_b   6.98394431
_cell_length_c   10.85430213
_cell_angle_alpha   90.00000000
_cell_angle_beta   90.00000000
_cell_angle_gamma   90.00000000
_symmetry_Int_Tables_number   1
_chemical_formula_structural   Dy2SiSeO4
_chemical_formula_sum   'Dy8 Si4 Se4 O16'
_cell_volume   459.78530826
_cell_formula_units_Z   4
loop_
 _symmetry_equiv_pos_site_id
 _symmetry_equiv_pos_as_xyz
  1  'x, y, z'
loop_
 _atom_site_type_symbol
 _atom_site_label
 _atom_site_symmetry_multiplicity
 _atom_site_fract_x
 _atom_site_fract_y
 _atom_site_fract_z
 _atom_site_occupancy
  O  O0  1  0.27777460  0.43142726  0.03155178  1
  O  O1  1  0.27777460  0.06857274  0.96844822  1
  O  O2  1  0.72222540  0.93142726  0.46844822  1
  O  O3  1  0.72222540  0.56857274  0.53155178  1
  O  O4  1  0.72222540  0.56857274  0.96844822  1
  O  O5  1  0.72222540  0.93142726  0.03155178  1
  O  O6  1  0.27777460  0.06857274  0.53155178  1
  O  O7  1  0.27777460  0.43142726  0.46844822  1
  O  O8  1  0.05171266  0.73977223  0.12063652  1
  O  O9  1  0.05171266  0.73977223  0.37936348  1
  O  O10  1  0.94828734  0.23977223  0.37936348  1
  O  O11  1  0.94828734  0.26022777  0.62063652  1
  O  O12  1  0.94828734  0.26022777  0.87936348  1
  O  O13  1  0.94828734  0.23977223  0.12063652  1
  O  O14  1  0.05171266  0.76022777  0.62063652  1
  O  O15  1  0.05171266  0.76022777  0.87936348  1
  Si  Si16  1  0.11474987  0.25000000  0.50000000  1
  Si  Si17  1  0.88525013  0.75000000  0.50000000  1
  Si  Si18  1  0.88525013  0.75000000  0.00000000  1
  Si  Si19  1  0.11474987  0.25000000  0.00000000  1
  Se  Se20  1  0.57101601  0.86951072  0.75000000  1
  Se  Se21  1  0.57101601  0.63048928  0.25000000  1
  Se  Se22  1  0.42898399  0.36951072  0.75000000  1
  Se  Se23  1  0.42898399  0.13048928  0.25000000  1
  Dy  Dy24  1  0.60958385  0.25000000  0.50000000  1
  Dy  Dy25  1  0.60958385  0.25000000  0.00000000  1
  Dy  Dy26  1  0.39041615  0.75000000  0.50000000  1
  Dy  Dy27  1  0.39041615  0.75000000  0.00000000  1
  Dy  Dy28  1  0.86619700  0.52871871  0.75000000  1
  Dy  Dy29  1  0.86619700  0.97128129  0.25000000  1
  Dy  Dy30  1  0.13380300  0.02871871  0.75000000  1
  Dy  Dy31  1  0.13380300  0.47128129  0.25000000  1
