# generated using pymatgen
data_CaV3O7
_symmetry_space_group_name_H-M   'P 1'
_cell_length_a   5.38057890
_cell_length_b   10.45324456
_cell_length_c   10.89504236
_cell_angle_alpha   90.00000000
_cell_angle_beta   90.00000000
_cell_angle_gamma   90.00000000
_symmetry_Int_Tables_number   1
_chemical_formula_structural   CaV3O7
_chemical_formula_sum   'Ca4 V12 O28'
_cell_volume   612.78628755
_cell_formula_units_Z   4
loop_
 _symmetry_equiv_pos_site_id
 _symmetry_equiv_pos_as_xyz
  1  'x, y, z'
loop_
 _atom_site_type_symbol
 _atom_site_label
 _atom_site_symmetry_multiplicity
 _atom_site_fract_x
 _atom_site_fract_y
 _atom_site_fract_z
 _atom_site_occupancy
  O  O0  1  0.93272190  0.11911999  0.72168844  1
  O  O1  1  0.43272190  0.88088001  0.77831156  1
  O  O2  1  0.06727810  0.61911999  0.27831156  1
  O  O3  1  0.56727810  0.38088001  0.22168844  1
  O  O4  1  0.06727810  0.88088001  0.27831156  1
  O  O5  1  0.56727810  0.11911999  0.22168844  1
  O  O6  1  0.93272190  0.38088001  0.72168844  1
  O  O7  1  0.43272190  0.61911999  0.77831156  1
  O  O8  1  0.45738444  0.11863946  0.71703336  1
  O  O9  1  0.95738444  0.88136054  0.78296664  1
  O  O10  1  0.54261556  0.61863946  0.28296664  1
  O  O11  1  0.04261556  0.38136054  0.21703336  1
  O  O12  1  0.54261556  0.88136054  0.28296664  1
  O  O13  1  0.04261556  0.11863946  0.21703336  1
  O  O14  1  0.45738444  0.38136054  0.71703336  1
  O  O15  1  0.95738444  0.61863946  0.78296664  1
  O  O16  1  0.17555253  0.75000000  0.56403453  1
  O  O17  1  0.67555253  0.25000000  0.93596547  1
  O  O18  1  0.82444747  0.25000000  0.43596547  1
  O  O19  1  0.32444747  0.75000000  0.06403453  1
  O  O20  1  0.21706235  0.42261195  0.95493593  1
  O  O21  1  0.71706235  0.57738805  0.54506407  1
  O  O22  1  0.78293765  0.92261195  0.04506407  1
  O  O23  1  0.28293765  0.07738805  0.45493593  1
  O  O24  1  0.78293765  0.57738805  0.04506407  1
  O  O25  1  0.28293765  0.42261195  0.45493593  1
  O  O26  1  0.21706235  0.07738805  0.95493593  1
  O  O27  1  0.71706235  0.92261195  0.54506407  1
  Ca  Ca28  1  0.68053859  0.75000000  0.92119984  1
  Ca  Ca29  1  0.18053859  0.25000000  0.57880016  1
  Ca  Ca30  1  0.31946141  0.25000000  0.07880016  1
  Ca  Ca31  1  0.81946141  0.75000000  0.42119984  1
  V  V32  1  0.30153475  0.02407576  0.31186321  1
  V  V33  1  0.80153475  0.97592424  0.18813679  1
  V  V34  1  0.69846525  0.52407576  0.68813679  1
  V  V35  1  0.19846525  0.47592424  0.81186321  1
  V  V36  1  0.30969379  0.75000000  0.21626371  1
  V  V37  1  0.80969379  0.25000000  0.28373629  1
  V  V38  1  0.69030621  0.25000000  0.78373629  1
  V  V39  1  0.19030621  0.75000000  0.71626371  1
  V  V40  1  0.80153475  0.52407576  0.18813679  1
  V  V41  1  0.30153475  0.47592424  0.31186321  1
  V  V42  1  0.19846525  0.02407576  0.81186321  1
  V  V43  1  0.69846525  0.97592424  0.68813679  1
