# generated using pymatgen
data_NdCo(BO2)5
_symmetry_space_group_name_H-M   'P 1'
_cell_length_a   7.67707721
_cell_length_b   8.78948338
_cell_length_c   9.51653486
_cell_angle_alpha   92.76561849
_cell_angle_beta   90.00000000
_cell_angle_gamma   90.00000000
_symmetry_Int_Tables_number   1
_chemical_formula_structural   NdCo(BO2)5
_chemical_formula_sum   'Nd4 Co4 B20 O40'
_cell_volume   641.40445187
_cell_formula_units_Z   4
loop_
 _symmetry_equiv_pos_site_id
 _symmetry_equiv_pos_as_xyz
  1  'x, y, z'
loop_
 _atom_site_type_symbol
 _atom_site_label
 _atom_site_symmetry_multiplicity
 _atom_site_fract_x
 _atom_site_fract_y
 _atom_site_fract_z
 _atom_site_occupancy
  B  B0  1  0.42018059  0.08888972  0.73643922  1
  B  B1  1  0.81513638  0.57133837  0.08560116  1
  B  B2  1  0.31513638  0.92866163  0.41439884  1
  B  B3  1  0.18486362  0.42866163  0.91439884  1
  B  B4  1  0.68486362  0.07133837  0.58560116  1
  B  B5  1  0.09533164  0.65327587  0.49754139  1
  B  B6  1  0.59533164  0.84672413  0.00245861  1
  B  B7  1  0.90466836  0.34672413  0.50245861  1
  B  B8  1  0.40466836  0.15327587  0.99754139  1
  B  B9  1  0.92018059  0.41111028  0.76356078  1
  B  B10  1  0.57981941  0.91111028  0.26356078  1
  B  B11  1  0.07981941  0.58888972  0.23643922  1
  B  B12  1  0.67275496  0.51488837  0.60809222  1
  B  B13  1  0.17275496  0.98511163  0.89190778  1
  B  B14  1  0.32724504  0.48511163  0.39190778  1
  B  B15  1  0.82724504  0.01488837  0.10809222  1
  B  B16  1  0.46626325  0.28184793  0.55259878  1
  B  B17  1  0.96626325  0.21815207  0.94740122  1
  B  B18  1  0.53373675  0.71815207  0.44740122  1
  B  B19  1  0.03373675  0.78184793  0.05259878  1
  O  O20  1  0.78237871  0.52655030  0.73816664  1
  O  O21  1  0.34593779  0.49803027  0.93109330  1
  O  O22  1  0.84593779  0.00196973  0.56890670  1
  O  O23  1  0.65406221  0.50196973  0.06890670  1
  O  O24  1  0.15406221  0.99803027  0.43109330  1
  O  O25  1  0.54289873  0.76812745  0.88427415  1
  O  O26  1  0.04289873  0.73187255  0.61572585  1
  O  O27  1  0.45710127  0.23187255  0.11572585  1
  O  O28  1  0.28237871  0.97344970  0.76183336  1
  O  O29  1  0.95710127  0.26812745  0.38427415  1
  O  O30  1  0.71762129  0.02655030  0.23816664  1
  O  O31  1  0.21762129  0.47344970  0.26183336  1
  O  O32  1  0.46587977  0.18370456  0.86603222  1
  O  O33  1  0.96587977  0.31629544  0.63396778  1
  O  O34  1  0.53412023  0.81629544  0.13396778  1
  O  O35  1  0.03412023  0.68370456  0.36603222  1
  O  O36  1  0.58360015  0.01298424  0.69023318  1
  O  O37  1  0.08360015  0.48701576  0.80976682  1
  O  O38  1  0.41639985  0.98701576  0.30976682  1
  O  O39  1  0.91639985  0.51298424  0.19023318  1
  O  O40  1  0.34852971  0.18685136  0.63041386  1
  O  O41  1  0.84852971  0.31314864  0.86958614  1
  O  O42  1  0.65147029  0.81314864  0.36958614  1
  O  O43  1  0.15147029  0.68685136  0.13041386  1
  O  O44  1  0.52330020  0.41557723  0.64428805  1
  O  O45  1  0.02330020  0.08442277  0.85571195  1
  O  O46  1  0.47669980  0.58442277  0.35571195  1
  O  O47  1  0.97669980  0.91557723  0.14428805  1
  O  O48  1  0.60771074  0.67127453  0.58500173  1
  O  O49  1  0.10771074  0.82872547  0.91499827  1
  O  O50  1  0.39228926  0.32872547  0.41499827  1
  O  O51  1  0.87445125  0.68885896  0.00876292  1
  O  O52  1  0.77667490  0.45800933  0.48765313  1
  O  O53  1  0.27667490  0.04199067  0.01234687  1
  O  O54  1  0.22332510  0.54199067  0.51234687  1
  O  O55  1  0.72332510  0.95800933  0.98765313  1
  O  O56  1  0.62554875  0.18885896  0.50876292  1
  O  O57  1  0.12554875  0.31114104  0.99123708  1
  O  O58  1  0.37445125  0.81114104  0.49123708  1
  O  O59  1  0.89228926  0.17127453  0.08500173  1
  Co  Co60  1  0.90922780  0.89977582  0.37417671  1
  Co  Co61  1  0.40922780  0.60022418  0.12582329  1
  Co  Co62  1  0.09077220  0.10022418  0.62582329  1
  Co  Co63  1  0.59077220  0.39977582  0.87417671  1
  Nd  Nd64  1  0.68673621  0.31734391  0.26378450  1
  Nd  Nd65  1  0.18673621  0.18265609  0.23621550  1
  Nd  Nd66  1  0.31326379  0.68265609  0.73621550  1
  Nd  Nd67  1  0.81326379  0.81734391  0.76378450  1
