# generated using pymatgen
data_Cs3Mo5P7O24
_symmetry_space_group_name_H-M   'P 1'
_cell_length_a   12.54066214
_cell_length_b   12.54066182
_cell_length_c   9.60148312
_cell_angle_alpha   90.00000000
_cell_angle_beta   90.00000000
_cell_angle_gamma   120.00000085
_symmetry_Int_Tables_number   1
_chemical_formula_structural   Cs3Mo5P7O24
_chemical_formula_sum   'Cs6 Mo10 P14 O48'
_cell_volume   1307.70527235
_cell_formula_units_Z   2
loop_
 _symmetry_equiv_pos_site_id
 _symmetry_equiv_pos_as_xyz
  1  'x, y, z'
loop_
 _atom_site_type_symbol
 _atom_site_label
 _atom_site_symmetry_multiplicity
 _atom_site_fract_x
 _atom_site_fract_y
 _atom_site_fract_z
 _atom_site_occupancy
  Cs  Cs0  1  0.60585464  0.68734590  0.52585548  1
  Cs  Cs1  1  0.31265410  0.91850874  0.52585548  1
  Cs  Cs2  1  0.39414536  0.08149126  0.02585548  1
  Cs  Cs3  1  0.68734590  0.60585464  0.02585548  1
  Cs  Cs4  1  0.91850874  0.31265410  0.02585548  1
  Cs  Cs5  1  0.08149126  0.39414536  0.52585548  1
  Mo  Mo6  1  0.19384664  0.67755155  0.12144891  1
  Mo  Mo7  1  0.67755155  0.19384664  0.62144891  1
  Mo  Mo8  1  0.00000000  0.00000000  0.97326660  1
  Mo  Mo9  1  0.51629509  0.32244845  0.62144891  1
  Mo  Mo10  1  0.00000000  0.00000000  0.47326660  1
  Mo  Mo11  1  0.48370491  0.80615336  0.12144891  1
  Mo  Mo12  1  0.66666700  0.33333300  0.34906993  1
  Mo  Mo13  1  0.80615336  0.48370491  0.62144891  1
  Mo  Mo14  1  0.33333300  0.66666700  0.84906993  1
  Mo  Mo15  1  0.32244845  0.51629509  0.12144891  1
  P  P16  1  0.14905186  0.23059326  0.22697502  1
  P  P17  1  0.65282543  0.06828402  0.29639549  1
  P  P18  1  0.41545859  0.34717457  0.29639549  1
  P  P19  1  0.58454141  0.93171598  0.79639549  1
  P  P20  1  0.33333300  0.66666700  0.29962070  1
  P  P21  1  0.66666700  0.33333300  0.79962070  1
  P  P22  1  0.34717457  0.41545859  0.79639549  1
  P  P23  1  0.76940674  0.91845860  0.22697502  1
  P  P24  1  0.93171598  0.58454141  0.29639549  1
  P  P25  1  0.23059326  0.14905186  0.72697502  1
  P  P26  1  0.85094814  0.08154140  0.72697502  1
  P  P27  1  0.91845860  0.76940674  0.72697502  1
  P  P28  1  0.08154140  0.85094814  0.22697502  1
  P  P29  1  0.06828402  0.65282543  0.79639549  1
  O  O30  1  0.34267498  0.40803465  0.95603969  1
  O  O31  1  0.04453262  0.76025865  0.73626217  1
  O  O32  1  0.52775923  0.96625749  0.23859923  1
  O  O33  1  0.07355281  0.90903782  0.09271498  1
  O  O34  1  0.19021960  0.82568343  0.22261361  1
  O  O35  1  0.83548501  0.92644719  0.09271498  1
  O  O36  1  0.09096218  0.16451499  0.09271498  1
  O  O37  1  0.49083013  0.80668492  0.73387196  1
  O  O38  1  0.82568343  0.19021960  0.72261361  1
  O  O39  1  0.45870145  0.66485196  0.00047309  1
  O  O40  1  0.56150173  0.03374251  0.73859923  1
  O  O41  1  0.16451499  0.09096218  0.59271498  1
  O  O42  1  0.17431657  0.36453616  0.22261361  1
  O  O43  1  0.19331508  0.68414521  0.73387196  1
  O  O44  1  0.43849827  0.47224077  0.23859923  1
  O  O45  1  0.80668492  0.49083013  0.23387196  1
  O  O46  1  0.79384949  0.33514804  0.50047309  1
  O  O47  1  0.50916987  0.31585479  0.23387196  1
  O  O48  1  0.16916793  0.07598688  0.85776463  1
  O  O49  1  0.90903782  0.07355281  0.59271498  1
  O  O50  1  0.68414521  0.19331508  0.23387196  1
  O  O51  1  0.59196535  0.93464034  0.95603969  1
  O  O52  1  0.36453616  0.17431657  0.72261361  1
  O  O53  1  0.95546738  0.71572603  0.23626217  1
  O  O54  1  0.96625749  0.52775923  0.73859923  1
  O  O55  1  0.33514804  0.79384949  0.00047309  1
  O  O56  1  0.76025865  0.04453262  0.23626217  1
  O  O57  1  0.03374251  0.56150173  0.23859923  1
  O  O58  1  0.66485196  0.45870145  0.50047309  1
  O  O59  1  0.92644719  0.83548501  0.59271498  1
  O  O60  1  0.93464034  0.59196535  0.45603969  1
  O  O61  1  0.83083207  0.90681895  0.35776463  1
  O  O62  1  0.23974135  0.28427397  0.73626217  1
  O  O63  1  0.65732502  0.06535966  0.45603969  1
  O  O64  1  0.92401312  0.09318105  0.85776463  1
  O  O65  1  0.90681895  0.83083207  0.85776463  1
  O  O66  1  0.80978040  0.63546384  0.72261361  1
  O  O67  1  0.63546384  0.80978040  0.22261361  1
  O  O68  1  0.31585479  0.50916987  0.73387196  1
  O  O69  1  0.47224077  0.43849827  0.73859923  1
  O  O70  1  0.07598688  0.16916793  0.35776463  1
  O  O71  1  0.09318105  0.92401312  0.35776463  1
  O  O72  1  0.06535966  0.65732502  0.95603969  1
  O  O73  1  0.20615051  0.54129855  0.00047309  1
  O  O74  1  0.54129855  0.20615051  0.50047309  1
  O  O75  1  0.28427397  0.23974135  0.23626217  1
  O  O76  1  0.40803465  0.34267498  0.45603969  1
  O  O77  1  0.71572603  0.95546738  0.73626217  1
