# generated using pymatgen
data_Na5Nd(WO4)4
_symmetry_space_group_name_H-M   'P 1'
_cell_length_a   10.14003095
_cell_length_b   10.14003095
_cell_length_c   10.14003094
_cell_angle_alpha   108.93094804
_cell_angle_beta   108.93094802
_cell_angle_gamma   110.55725501
_symmetry_Int_Tables_number   1
_chemical_formula_structural   Na5Nd(WO4)4
_chemical_formula_sum   'Na10 Nd2 W8 O32'
_cell_volume   802.37733629
_cell_formula_units_Z   2
loop_
 _symmetry_equiv_pos_site_id
 _symmetry_equiv_pos_as_xyz
  1  'x, y, z'
loop_
 _atom_site_type_symbol
 _atom_site_label
 _atom_site_symmetry_multiplicity
 _atom_site_fract_x
 _atom_site_fract_y
 _atom_site_fract_z
 _atom_site_occupancy
  O  O0  1  0.79880233  0.17019133  0.92616921  1
  O  O1  1  0.67019133  0.24402212  0.37138900  1
  O  O2  1  0.37263311  0.29880233  0.12861100  1
  O  O3  1  0.74402212  0.87263311  0.57383079  1
  O  O4  1  0.20119767  0.82980867  0.07383079  1
  O  O5  1  0.32980867  0.75597788  0.62861100  1
  O  O6  1  0.62736689  0.70119767  0.87138900  1
  O  O7  1  0.25597788  0.12736689  0.42616921  1
  O  O8  1  0.85551255  0.50721831  0.98547144  1
  O  O9  1  0.00721831  0.52174687  0.65170576  1
  O  O10  1  0.37004112  0.35551255  0.84829424  1
  O  O11  1  0.02174687  0.87004112  0.51452856  1
  O  O12  1  0.14448745  0.49278169  0.01452856  1
  O  O13  1  0.99278169  0.47825313  0.34829424  1
  O  O14  1  0.62995888  0.64448745  0.15170576  1
  O  O15  1  0.97825313  0.12995888  0.48547144  1
  O  O16  1  0.54838827  0.19831590  0.71615256  1
  O  O17  1  0.69831590  0.48216334  0.64992764  1
  O  O18  1  0.33223570  0.04838827  0.85007236  1
  O  O19  1  0.98216334  0.83223570  0.78384744  1
  O  O20  1  0.92805394  0.85432858  0.19628238  1
  O  O21  1  0.35432858  0.65804620  0.92627464  1
  O  O22  1  0.23177156  0.42805394  0.57372536  1
  O  O23  1  0.15804620  0.73177156  0.30371762  1
  O  O24  1  0.07194606  0.14567142  0.80371762  1
  O  O25  1  0.64567142  0.34195380  0.07372536  1
  O  O26  1  0.76822844  0.57194606  0.42627464  1
  O  O27  1  0.84195380  0.26822844  0.69628238  1
  O  O28  1  0.01783666  0.16776430  0.21615256  1
  O  O29  1  0.66776430  0.95161173  0.14992764  1
  O  O30  1  0.30168410  0.51783666  0.35007236  1
  O  O31  1  0.45161173  0.80168410  0.28384744  1
  Na  Na32  1  0.29717183  0.96305469  0.57605300  1
  Na  Na33  1  0.22111883  0.79717183  0.83411714  1
  Na  Na34  1  0.62500000  0.87500000  0.75000000  1
  Na  Na35  1  0.37500000  0.12500000  0.25000000  1
  Na  Na36  1  0.77888117  0.20282817  0.16588286  1
  Na  Na37  1  0.70282817  0.03694531  0.42394700  1
  Na  Na38  1  0.11299831  0.27888117  0.07605300  1
  Na  Na39  1  0.53694531  0.61299831  0.33411714  1
  Na  Na40  1  0.46305469  0.38700169  0.66588286  1
  Na  Na41  1  0.88700169  0.72111883  0.92394700  1
  Nd  Nd42  1  0.12500000  0.37500000  0.75000000  1
  Nd  Nd43  1  0.87500000  0.62500000  0.25000000  1
  W  W44  1  0.04479347  0.07291475  0.33703492  1
  W  W45  1  0.57291475  0.73587983  0.02812128  1
  W  W46  1  0.20775855  0.54479347  0.47187872  1
  W  W47  1  0.23587983  0.70775855  0.16296508  1
  W  W48  1  0.95520653  0.92708525  0.66296508  1
  W  W49  1  0.42708525  0.26412017  0.97187872  1
  W  W50  1  0.79224145  0.45520653  0.52812128  1
  W  W51  1  0.76412017  0.29224145  0.83703492  1
