# generated using pymatgen
data_KMn4(PO4)3
_symmetry_space_group_name_H-M   'P 1'
_cell_length_a   6.51203250
_cell_length_b   10.05300131
_cell_length_c   16.83897103
_cell_angle_alpha   90.00000000
_cell_angle_beta   90.00000000
_cell_angle_gamma   90.00000000
_symmetry_Int_Tables_number   1
_chemical_formula_structural   KMn4(PO4)3
_chemical_formula_sum   'K4 Mn16 P12 O48'
_cell_volume   1102.37117390
_cell_formula_units_Z   4
loop_
 _symmetry_equiv_pos_site_id
 _symmetry_equiv_pos_as_xyz
  1  'x, y, z'
loop_
 _atom_site_type_symbol
 _atom_site_label
 _atom_site_symmetry_multiplicity
 _atom_site_fract_x
 _atom_site_fract_y
 _atom_site_fract_z
 _atom_site_occupancy
  O  O0  1  0.50000070  0.86921413  0.47785148  1
  O  O1  1  0.50000070  0.13078627  0.52214830  1
  O  O2  1  0.00000000  0.36921393  0.02214811  1
  O  O3  1  0.00000000  0.63078648  0.97785166  1
  O  O4  1  0.80324846  0.59241217  0.67462281  1
  O  O5  1  0.80324846  0.40758824  0.32537696  1
  O  O6  1  0.69675055  0.09241196  0.82537715  1
  O  O7  1  0.69675055  0.90758844  0.17462263  1
  O  O8  1  0.19675140  0.40758824  0.32537696  1
  O  O9  1  0.19675140  0.59241217  0.67462281  1
  O  O10  1  0.30324930  0.90758844  0.17462263  1
  O  O11  1  0.30324930  0.09241196  0.82537715  1
  O  O12  1  0.30902954  0.32817424  0.58596745  1
  O  O13  1  0.30902954  0.67182517  0.41403232  1
  O  O14  1  0.19096961  0.82817445  0.91403250  1
  O  O15  1  0.19096961  0.17182596  0.08596727  1
  O  O16  1  0.69097032  0.67182517  0.41403232  1
  O  O17  1  0.69097032  0.32817424  0.58596745  1
  O  O18  1  0.80903024  0.17182596  0.08596727  1
  O  O19  1  0.19344979  0.91562017  0.62340039  1
  O  O20  1  0.50000070  0.34974456  0.45412704  1
  O  O21  1  0.50000070  0.65025485  0.54587274  1
  O  O22  1  0.00000000  0.84974476  0.04587315  1
  O  O23  1  0.00000000  0.15025564  0.95412722  1
  O  O24  1  0.00000000  0.11345504  0.24652528  1
  O  O25  1  0.00000000  0.88654437  0.75347449  1
  O  O26  1  0.50000070  0.61345525  0.25347431  1
  O  O27  1  0.50000070  0.38654516  0.74652546  1
  O  O28  1  0.50000070  0.89516110  0.30181428  1
  O  O29  1  0.50000070  0.10483930  0.69818549  1
  O  O30  1  0.00000000  0.39516090  0.19818590  1
  O  O31  1  0.00000000  0.60483851  0.80181446  1
  O  O32  1  0.50000070  0.61229868  0.81514088  1
  O  O33  1  0.50000070  0.38770073  0.18485948  1
  O  O34  1  0.00000000  0.11229948  0.68485907  1
  O  O35  1  0.00000000  0.88770093  0.31514070  1
  O  O36  1  0.50000070  0.88668402  0.77501221  1
  O  O37  1  0.50000070  0.11331539  0.22498757  1
  O  O38  1  0.00000000  0.38668481  0.72498775  1
  O  O39  1  0.00000000  0.61331560  0.27501262  1
  O  O40  1  0.69345049  0.41561997  0.87659957  1
  O  O41  1  0.69345049  0.58437944  0.12340020  1
  O  O42  1  0.80655007  0.91562017  0.62340039  1
  O  O43  1  0.80655007  0.08438024  0.37659939  1
  O  O44  1  0.30654936  0.58437944  0.12340020  1
  O  O45  1  0.30654936  0.41561997  0.87659957  1
  O  O46  1  0.19344979  0.08438024  0.37659939  1
  O  O47  1  0.80903024  0.82817445  0.91403250  1
  P  P48  1  0.50000070  0.71618762  0.46425597  1
  P  P49  1  0.50000070  0.28381179  0.53574439  1
  P  P50  1  0.00000000  0.21618841  0.03574421  1
  P  P51  1  0.00000000  0.78381199  0.96425556  1
  P  P52  1  0.00000000  0.45868487  0.28484105  1
  P  P53  1  0.00000000  0.54131554  0.71515931  1
  P  P54  1  0.50000070  0.95868507  0.21515913  1
  P  P55  1  0.50000070  0.45824032  0.83172073  1
  P  P56  1  0.00000000  0.04175989  0.33172054  1
  P  P57  1  0.00000000  0.95824052  0.66827923  1
  P  P58  1  0.50000070  0.54176009  0.16827964  1
  P  P59  1  0.50000070  0.04131533  0.78484064  1
  K  K60  1  0.50000070  0.78780476  0.03462323  1
  K  K61  1  0.00000000  0.71219585  0.53462341  1
  K  K62  1  0.00000000  0.28780456  0.46537696  1
  K  K63  1  0.50000070  0.21219564  0.96537655  1
  Mn  Mn64  1  0.25186910  0.24923944  0.20342905  1
  Mn  Mn65  1  0.75186825  0.25076076  0.70342923  1
  Mn  Mn66  1  0.74813076  0.24923944  0.20342905  1
  Mn  Mn67  1  0.74813076  0.75076097  0.79657072  1
  Mn  Mn68  1  0.50000070  0.48130094  0.36149208  1
  Mn  Mn69  1  0.50000070  0.51869847  0.63850828  1
  Mn  Mn70  1  0.00000000  0.98130115  0.13850810  1
  Mn  Mn71  1  0.00000000  0.01869826  0.86149167  1
  Mn  Mn72  1  0.50000070  0.04145896  0.40372402  1
  Mn  Mn73  1  0.50000070  0.95854145  0.59627575  1
  Mn  Mn74  1  0.00000000  0.54145916  0.09627557  1
  Mn  Mn75  1  0.00000000  0.45854124  0.90372421  1
  Mn  Mn76  1  0.25186910  0.75076097  0.79657072  1
  Mn  Mn77  1  0.24813161  0.74923964  0.29657054  1
  Mn  Mn78  1  0.24813161  0.25076076  0.70342923  1
  Mn  Mn79  1  0.75186825  0.74923964  0.29657054  1
