# generated using pymatgen
data_Mn3P
_symmetry_space_group_name_H-M   'P 1'
_cell_length_a   4.44867326
_cell_length_b   6.70221596
_cell_length_c   6.70221595
_cell_angle_alpha   83.67633450
_cell_angle_beta   70.61702926
_cell_angle_gamma   70.61702928
_symmetry_Int_Tables_number   1
_chemical_formula_structural   Mn3P
_chemical_formula_sum   'Mn12 P4'
_cell_volume   177.82247992
_cell_formula_units_Z   4
loop_
 _symmetry_equiv_pos_site_id
 _symmetry_equiv_pos_as_xyz
  1  'x, y, z'
loop_
 _atom_site_type_symbol
 _atom_site_label
 _atom_site_symmetry_multiplicity
 _atom_site_fract_x
 _atom_site_fract_y
 _atom_site_fract_z
 _atom_site_occupancy
  P  P0  1  0.20130399  0.25023832  0.33142753  1
  P  P1  1  0.46726848  0.33142753  0.74976168  1
  P  P2  1  0.54845769  0.66857247  0.25023832  1
  P  P3  1  0.78296984  0.74976168  0.66857247  1
  Mn  Mn4  1  0.34240986  0.67403043  0.61483386  1
  Mn  Mn5  1  0.04275628  0.61483386  0.32596957  1
  Mn  Mn6  1  0.98355970  0.38516614  0.67403043  1
  Mn  Mn7  1  0.63127416  0.32596957  0.38516614  1
  Mn  Mn8  1  0.92957956  0.04687223  0.60723234  1
  Mn  Mn9  1  0.46318810  0.60723234  0.95312777  1
  Mn  Mn10  1  0.02354821  0.39276766  0.04687223  1
  Mn  Mn11  1  0.58368413  0.95312777  0.39276766  1
  Mn  Mn12  1  0.13530065  0.97712579  0.18921737  1
  Mn  Mn13  1  0.67548198  0.18921737  0.02287421  1
  Mn  Mn14  1  0.88757356  0.81078263  0.97712579  1
  Mn  Mn15  1  0.30164380  0.02287421  0.81078263  1
