# generated using pymatgen
data_RbIn5S8
_symmetry_space_group_name_H-M   'P 1'
_cell_length_a   3.92696111
_cell_length_b   9.39676524
_cell_length_c   9.85152905
_cell_angle_alpha   102.01253479
_cell_angle_beta   101.49644819
_cell_angle_gamma   90.00000002
_symmetry_Int_Tables_number   1
_chemical_formula_structural   RbIn5S8
_chemical_formula_sum   'Rb1 In5 S8'
_cell_volume   348.10791462
_cell_formula_units_Z   1
loop_
 _symmetry_equiv_pos_site_id
 _symmetry_equiv_pos_as_xyz
  1  'x, y, z'
loop_
 _atom_site_type_symbol
 _atom_site_label
 _atom_site_symmetry_multiplicity
 _atom_site_fract_x
 _atom_site_fract_y
 _atom_site_fract_z
 _atom_site_occupancy
  S  S0  1  0.83414290  0.52037124  0.66828580  1
  S  S1  1  0.92633289  0.20723117  0.85266578  1
  S  S2  1  0.07366711  0.79276883  0.14733422  1
  S  S3  1  0.58374461  0.12965304  0.16748921  1
  S  S4  1  0.41625539  0.87034696  0.83251079  1
  S  S5  1  0.76371586  0.84733908  0.52743172  1
  S  S6  1  0.23628414  0.15266092  0.47256828  1
  S  S7  1  0.16585710  0.47962876  0.33171420  1
  Rb  Rb8  1  0.50000000  0.50000000  0.00000000  1
  In  In9  1  0.71171450  0.33917288  0.42342900  1
  In  In10  1  0.64746600  0.91889608  0.29493200  1
  In  In11  1  0.35253400  0.08110392  0.70506800  1
  In  In12  1  0.28828550  0.66082712  0.57657100  1
  In  In13  1  0.00000000  0.00000000  0.00000000  1
