# generated using pymatgen
data_DyCuSb2
_symmetry_space_group_name_H-M   'P 1'
_cell_length_a   4.32048036
_cell_length_b   4.32047619
_cell_length_c   9.80848014
_cell_angle_alpha   89.99975420
_cell_angle_beta   89.99996706
_cell_angle_gamma   89.99996340
_symmetry_Int_Tables_number   1
_chemical_formula_structural   DyCuSb2
_chemical_formula_sum   'Dy2 Cu2 Sb4'
_cell_volume   183.09031355
_cell_formula_units_Z   2
loop_
 _symmetry_equiv_pos_site_id
 _symmetry_equiv_pos_as_xyz
  1  'x, y, z'
loop_
 _atom_site_type_symbol
 _atom_site_label
 _atom_site_symmetry_multiplicity
 _atom_site_fract_x
 _atom_site_fract_y
 _atom_site_fract_z
 _atom_site_occupancy
  Dy  Dy0  1  0.25000422  0.25000764  0.25090612  1
  Dy  Dy1  1  0.75000504  0.75000692  0.74909549  1
  Cu  Cu2  1  0.74999202  0.25000198  -0.00000674  1
  Cu  Cu3  1  0.24998168  0.74995651  0.00000195  1
  Sb  Sb4  1  0.25000352  0.25000307  0.83845282  1
  Sb  Sb5  1  0.75000350  0.75000805  0.16154859  1
  Sb  Sb6  1  0.25000495  0.75000778  0.50000084  1
  Sb  Sb7  1  0.75000508  0.25000805  0.50000092  1
