# generated using pymatgen
data_Pb3O4
_symmetry_space_group_name_H-M   'P 1'
_cell_length_a   6.78126610
_cell_length_b   8.72224335
_cell_length_c   9.32949446
_cell_angle_alpha   90.00000000
_cell_angle_beta   90.00000000
_cell_angle_gamma   90.00000000
_symmetry_Int_Tables_number   1
_chemical_formula_structural   Pb3O4
_chemical_formula_sum   'Pb12 O16'
_cell_volume   551.81956824
_cell_formula_units_Z   4
loop_
 _symmetry_equiv_pos_site_id
 _symmetry_equiv_pos_as_xyz
  1  'x, y, z'
loop_
 _atom_site_type_symbol
 _atom_site_label
 _atom_site_symmetry_multiplicity
 _atom_site_fract_x
 _atom_site_fract_y
 _atom_site_fract_z
 _atom_site_occupancy
  O  O0  1  0.50000000  0.09794910  0.37128622  1
  O  O1  1  0.50000000  0.90205090  0.62871378  1
  O  O2  1  0.50000000  0.59794910  0.12871378  1
  O  O3  1  0.50000000  0.40205090  0.87128622  1
  O  O4  1  0.00000000  0.13935713  0.40906050  1
  O  O5  1  0.00000000  0.86064287  0.59093950  1
  O  O6  1  0.00000000  0.63935713  0.09093950  1
  O  O7  1  0.00000000  0.36064287  0.90906050  1
  O  O8  1  0.75082598  0.32870163  0.17089153  1
  O  O9  1  0.75082598  0.67129837  0.82910847  1
  O  O10  1  0.24917402  0.82870163  0.32910847  1
  O  O11  1  0.24917402  0.17129837  0.67089153  1
  O  O12  1  0.75082598  0.82870163  0.32910847  1
  O  O13  1  0.75082598  0.17129837  0.67089153  1
  O  O14  1  0.24917402  0.32870163  0.17089153  1
  O  O15  1  0.24917402  0.67129837  0.82910847  1
  Pb  Pb16  1  0.50000000  0.36738343  0.32535336  1
  Pb  Pb17  1  0.50000000  0.63261657  0.67464664  1
  Pb  Pb18  1  0.50000000  0.86738343  0.17464664  1
  Pb  Pb19  1  0.50000000  0.13261657  0.82535336  1
  Pb  Pb20  1  0.00000000  0.65836163  0.34322431  1
  Pb  Pb21  1  0.00000000  0.34163837  0.65677569  1
  Pb  Pb22  1  0.00000000  0.15836163  0.15677569  1
  Pb  Pb23  1  0.00000000  0.84163837  0.84322431  1
  Pb  Pb24  1  0.75075651  0.00000000  0.50000000  1
  Pb  Pb25  1  0.24924349  0.50000000  0.00000000  1
  Pb  Pb26  1  0.24924349  0.00000000  0.50000000  1
  Pb  Pb27  1  0.75075651  0.50000000  0.00000000  1
