# generated using pymatgen
data_URhS3
_symmetry_space_group_name_H-M   'P 1'
_cell_length_a   6.08346926
_cell_length_b   7.10613123
_cell_length_c   8.45104721
_cell_angle_alpha   90.00000000
_cell_angle_beta   90.00000000
_cell_angle_gamma   90.00000000
_symmetry_Int_Tables_number   1
_chemical_formula_structural   URhS3
_chemical_formula_sum   'U4 Rh4 S12'
_cell_volume   365.33818688
_cell_formula_units_Z   4
loop_
 _symmetry_equiv_pos_site_id
 _symmetry_equiv_pos_as_xyz
  1  'x, y, z'
loop_
 _atom_site_type_symbol
 _atom_site_label
 _atom_site_symmetry_multiplicity
 _atom_site_fract_x
 _atom_site_fract_y
 _atom_site_fract_z
 _atom_site_occupancy
  U  U0  1  0.43395048  0.12537135  0.75000000  1
  U  U1  1  0.93395048  0.37462865  0.25000000  1
  U  U2  1  0.56604952  0.87462865  0.25000000  1
  U  U3  1  0.06604952  0.62537135  0.75000000  1
  Rh  Rh4  1  0.50000000  0.50000000  -0.00000000  1
  Rh  Rh5  1  -0.00000000  0.00000000  0.00000000  1
  Rh  Rh6  1  -0.00000000  0.00000000  0.50000000  1
  Rh  Rh7  1  0.50000000  0.50000000  0.50000000  1
  S  S8  1  0.65656785  0.17910833  0.05427999  1
  S  S9  1  0.84343215  0.67910833  0.44572001  1
  S  S10  1  0.84343215  0.67910833  0.05427999  1
  S  S11  1  0.16528092  0.05709819  0.25000000  1
  S  S12  1  0.15656785  0.32089167  0.55427999  1
  S  S13  1  0.33471908  0.55709819  0.25000000  1
  S  S14  1  0.83471908  0.94290181  0.75000000  1
  S  S15  1  0.15656785  0.32089167  0.94572001  1
  S  S16  1  0.34343215  0.82089167  0.94572001  1
  S  S17  1  0.65656785  0.17910833  0.44572001  1
  S  S18  1  0.66528092  0.44290181  0.75000000  1
  S  S19  1  0.34343215  0.82089167  0.55427999  1
