# generated using pymatgen
data_BaLi4
_symmetry_space_group_name_H-M   'P 1'
_cell_length_a   8.73791453
_cell_length_b   10.86040791
_cell_length_c   10.86040791
_cell_angle_alpha   120.20158034
_cell_angle_beta   90.00000000
_cell_angle_gamma   90.00000000
_symmetry_Int_Tables_number   1
_chemical_formula_structural   BaLi4
_chemical_formula_sum   'Ba6 Li24'
_cell_volume   890.72767541
_cell_formula_units_Z   6
loop_
 _symmetry_equiv_pos_site_id
 _symmetry_equiv_pos_as_xyz
  1  'x, y, z'
loop_
 _atom_site_type_symbol
 _atom_site_label
 _atom_site_symmetry_multiplicity
 _atom_site_fract_x
 _atom_site_fract_y
 _atom_site_fract_z
 _atom_site_occupancy
  Ba  Ba0  1  0.75000000  0.52819637  0.05653863  1
  Ba  Ba1  1  0.75000000  0.52816284  0.47183716  1
  Ba  Ba2  1  0.75000000  0.94346137  0.47180363  1
  Ba  Ba3  1  0.25000000  0.47180363  0.94346137  1
  Ba  Ba4  1  0.25000000  0.47183716  0.52816284  1
  Ba  Ba5  1  0.25000000  0.05653863  0.52819637  1
  Li  Li6  1  0.50000000  0.00000000  0.00000000  1
  Li  Li7  1  0.00000000  0.00000000  0.00000000  1
  Li  Li8  1  0.08481738  0.66666473  0.33333527  1
  Li  Li9  1  0.91518262  0.33333527  0.66666473  1
  Li  Li10  1  0.58481738  0.33333527  0.66666473  1
  Li  Li11  1  0.41518262  0.66666473  0.33333527  1
  Li  Li12  1  0.75000000  0.90049239  0.80101345  1
  Li  Li13  1  0.75000000  0.90037628  0.09962372  1
  Li  Li14  1  0.75000000  0.19898655  0.09950761  1
  Li  Li15  1  0.25000000  0.09950761  0.19898655  1
  Li  Li16  1  0.25000000  0.09962372  0.90037628  1
  Li  Li17  1  0.25000000  0.80101345  0.90049239  1
  Li  Li18  1  0.06664776  0.83654731  0.67319320  1
  Li  Li19  1  0.06669998  0.83654748  0.16345252  1
  Li  Li20  1  0.06664776  0.32680680  0.16345269  1
  Li  Li21  1  0.93335224  0.16345269  0.32680680  1
  Li  Li22  1  0.93330002  0.16345252  0.83654748  1
  Li  Li23  1  0.93335224  0.67319320  0.83654731  1
  Li  Li24  1  0.56664776  0.16345269  0.32680680  1
  Li  Li25  1  0.56669998  0.16345252  0.83654748  1
  Li  Li26  1  0.56664776  0.67319320  0.83654731  1
  Li  Li27  1  0.43335224  0.83654731  0.67319320  1
  Li  Li28  1  0.43330002  0.83654748  0.16345252  1
  Li  Li29  1  0.43335224  0.32680680  0.16345269  1
