# generated using pymatgen
data_TmMg2
_symmetry_space_group_name_H-M   'P 1'
_cell_length_a   6.00127033
_cell_length_b   6.00127033
_cell_length_c   9.75044166
_cell_angle_alpha   90.00000000
_cell_angle_beta   90.00000000
_cell_angle_gamma   120.00000004
_symmetry_Int_Tables_number   1
_chemical_formula_structural   TmMg2
_chemical_formula_sum   'Tm4 Mg8'
_cell_volume   304.11742189
_cell_formula_units_Z   4
loop_
 _symmetry_equiv_pos_site_id
 _symmetry_equiv_pos_as_xyz
  1  'x, y, z'
loop_
 _atom_site_type_symbol
 _atom_site_label
 _atom_site_symmetry_multiplicity
 _atom_site_fract_x
 _atom_site_fract_y
 _atom_site_fract_z
 _atom_site_occupancy
  Mg  Mg0  1  0.82898615  0.65797230  0.75000000  1
  Mg  Mg1  1  0.17101385  0.82898615  0.25000000  1
  Mg  Mg2  1  0.65797230  0.82898615  0.25000000  1
  Mg  Mg3  1  0.34202770  0.17101385  0.75000000  1
  Mg  Mg4  1  0.00000000  0.00000000  0.00000000  1
  Mg  Mg5  1  0.00000000  0.00000000  0.50000000  1
  Mg  Mg6  1  0.17101385  0.34202770  0.25000000  1
  Mg  Mg7  1  0.82898615  0.17101385  0.75000000  1
  Tm  Tm8  1  0.33333333  0.66666667  0.93642192  1
  Tm  Tm9  1  0.66666667  0.33333333  0.43642192  1
  Tm  Tm10  1  0.66666667  0.33333333  0.06357808  1
  Tm  Tm11  1  0.33333333  0.66666667  0.56357808  1
