# generated using pymatgen
data_Ta11(NiSe4)2
_symmetry_space_group_name_H-M   'P 1'
_cell_length_a   3.44139497
_cell_length_b   12.10240136
_cell_length_c   19.65458600
_cell_angle_alpha   90.00000000
_cell_angle_beta   90.00000000
_cell_angle_gamma   90.00000000
_symmetry_Int_Tables_number   1
_chemical_formula_structural   Ta11(NiSe4)2
_chemical_formula_sum   'Ta22 Ni4 Se16'
_cell_volume   818.59666617
_cell_formula_units_Z   2
loop_
 _symmetry_equiv_pos_site_id
 _symmetry_equiv_pos_as_xyz
  1  'x, y, z'
loop_
 _atom_site_type_symbol
 _atom_site_label
 _atom_site_symmetry_multiplicity
 _atom_site_fract_x
 _atom_site_fract_y
 _atom_site_fract_z
 _atom_site_occupancy
  Ni  Ni0  1  0.00000000  0.09264740  0.87076321  1
  Ni  Ni1  1  0.00000000  0.90735260  0.12923679  1
  Ni  Ni2  1  0.50000000  0.59264740  0.62923679  1
  Ni  Ni3  1  0.50000000  0.40735260  0.37076321  1
  Se  Se4  1  0.50000000  0.29261683  0.55488566  1
  Se  Se5  1  0.50000000  0.70738317  0.44511434  1
  Se  Se6  1  0.00000000  0.79261683  0.94511434  1
  Se  Se7  1  0.00000000  0.20738317  0.05488566  1
  Se  Se8  1  0.50000000  0.04176038  0.67422167  1
  Se  Se9  1  0.50000000  0.95823962  0.32577833  1
  Se  Se10  1  0.00000000  0.54176038  0.82577833  1
  Se  Se11  1  0.00000000  0.45823962  0.17422167  1
  Se  Se12  1  0.50000000  0.39192969  0.94598808  1
  Se  Se13  1  0.50000000  0.60807031  0.05401192  1
  Se  Se14  1  0.00000000  0.89192969  0.55401192  1
  Se  Se15  1  0.00000000  0.10807031  0.44598808  1
  Se  Se16  1  0.00000000  0.28521971  0.71348662  1
  Se  Se17  1  0.00000000  0.71478029  0.28651338  1
  Se  Se18  1  0.50000000  0.78521971  0.78651338  1
  Se  Se19  1  0.50000000  0.21478029  0.21348662  1
  Ta  Ta20  1  0.50000000  0.81914065  0.05123942  1
  Ta  Ta21  1  0.50000000  0.18085935  0.94876058  1
  Ta  Ta22  1  0.00000000  0.68085935  0.55123942  1
  Ta  Ta23  1  0.00000000  0.31914065  0.44876058  1
  Ta  Ta24  1  0.50000000  0.44849078  0.74211768  1
  Ta  Ta25  1  0.50000000  0.55150922  0.25788232  1
  Ta  Ta26  1  0.00000000  0.94849078  0.75788232  1
  Ta  Ta27  1  0.00000000  0.05150922  0.24211768  1
  Ta  Ta28  1  0.50000000  0.06237194  0.11466747  1
  Ta  Ta29  1  0.50000000  0.93762806  0.88533253  1
  Ta  Ta30  1  0.00000000  0.56237194  0.38533253  1
  Ta  Ta31  1  0.00000000  0.43762806  0.61466747  1
  Ta  Ta32  1  0.50000000  0.17410772  0.35412274  1
  Ta  Ta33  1  0.50000000  0.82589228  0.64587726  1
  Ta  Ta34  1  0.00000000  0.67410772  0.14587726  1
  Ta  Ta35  1  0.00000000  0.32589228  0.85412274  1
  Ta  Ta36  1  0.50000000  0.15665179  0.78724850  1
  Ta  Ta37  1  0.50000000  0.84334821  0.21275150  1
  Ta  Ta38  1  0.00000000  0.65665179  0.71275150  1
  Ta  Ta39  1  0.00000000  0.34334821  0.28724850  1
  Ta  Ta40  1  0.50000000  0.50000000  0.50000000  1
  Ta  Ta41  1  0.00000000  0.00000000  0.00000000  1
