# generated using pymatgen
data_NaSn2(PO4)3
_symmetry_space_group_name_H-M   'P 1'
_cell_length_a   9.05838688
_cell_length_b   9.05838689
_cell_length_c   9.05838689
_cell_angle_alpha   57.79778472
_cell_angle_beta   57.79778472
_cell_angle_gamma   57.79778471
_symmetry_Int_Tables_number   1
_chemical_formula_structural   NaSn2(PO4)3
_chemical_formula_sum   'Na2 Sn4 P6 O24'
_cell_volume   498.99952204
_cell_formula_units_Z   2
loop_
 _symmetry_equiv_pos_site_id
 _symmetry_equiv_pos_as_xyz
  1  'x, y, z'
loop_
 _atom_site_type_symbol
 _atom_site_label
 _atom_site_symmetry_multiplicity
 _atom_site_fract_x
 _atom_site_fract_y
 _atom_site_fract_z
 _atom_site_occupancy
  O  O0  1  0.77401924  0.41900327  0.56381487  1
  O  O1  1  0.41900327  0.56381487  0.77401924  1
  O  O2  1  0.56381487  0.77401924  0.41900327  1
  O  O3  1  0.93618513  0.08099673  0.72598076  1
  O  O4  1  0.08099673  0.72598076  0.93618513  1
  O  O5  1  0.72598076  0.93618513  0.08099673  1
  O  O6  1  0.22598076  0.58099673  0.43618513  1
  O  O7  1  0.58099673  0.43618513  0.22598076  1
  O  O8  1  0.43618513  0.22598076  0.58099673  1
  O  O9  1  0.06381487  0.91900327  0.27401924  1
  O  O10  1  0.91900327  0.27401924  0.06381487  1
  O  O11  1  0.27401924  0.06381487  0.91900327  1
  O  O12  1  0.38070125  0.98598878  0.21268957  1
  O  O13  1  0.21268957  0.38070125  0.98598878  1
  O  O14  1  0.98598878  0.21268957  0.38070125  1
  O  O15  1  0.51401122  0.11929875  0.28731043  1
  O  O16  1  0.28731043  0.51401122  0.11929875  1
  O  O17  1  0.11929875  0.28731043  0.51401122  1
  O  O18  1  0.61929875  0.01401122  0.78731043  1
  O  O19  1  0.78731043  0.61929875  0.01401122  1
  O  O20  1  0.01401122  0.78731043  0.61929875  1
  O  O21  1  0.48598878  0.88070125  0.71268957  1
  O  O22  1  0.71268957  0.48598878  0.88070125  1
  O  O23  1  0.88070125  0.71268957  0.48598878  1
  Na  Na24  1  0.00000000  0.00000000  0.00000000  1
  Na  Na25  1  0.50000000  0.50000000  0.50000000  1
  P  P26  1  0.75000000  0.45717741  0.04282259  1
  P  P27  1  0.45717741  0.04282259  0.75000000  1
  P  P28  1  0.25000000  0.54282259  0.95717741  1
  P  P29  1  0.54282259  0.95717741  0.25000000  1
  P  P30  1  0.04282259  0.75000000  0.45717741  1
  P  P31  1  0.95717741  0.25000000  0.54282259  1
  Sn  Sn32  1  0.35419991  0.35419991  0.35419991  1
  Sn  Sn33  1  0.14580009  0.14580009  0.14580009  1
  Sn  Sn34  1  0.85419991  0.85419991  0.85419991  1
  Sn  Sn35  1  0.64580009  0.64580009  0.64580009  1
