# generated using pymatgen
data_K3Na(SO4)2
_symmetry_space_group_name_H-M   'P 1'
_cell_length_a   5.76536838
_cell_length_b   5.76536838
_cell_length_c   7.41233127
_cell_angle_alpha   90.00000000
_cell_angle_beta   90.00000000
_cell_angle_gamma   120.00000000
_symmetry_Int_Tables_number   1
_chemical_formula_structural   K3Na(SO4)2
_chemical_formula_sum   'K3 Na1 S2 O8'
_cell_volume   213.37305533
_cell_formula_units_Z   1
loop_
 _symmetry_equiv_pos_site_id
 _symmetry_equiv_pos_as_xyz
  1  'x, y, z'
loop_
 _atom_site_type_symbol
 _atom_site_label
 _atom_site_symmetry_multiplicity
 _atom_site_fract_x
 _atom_site_fract_y
 _atom_site_fract_z
 _atom_site_occupancy
  O  O0  1  0.19238314  0.80761686  0.80276816  1
  O  O1  1  0.19238314  0.38476629  0.80276816  1
  O  O2  1  0.61523371  0.80761686  0.80276816  1
  O  O3  1  0.38476629  0.19238314  0.19723184  1
  O  O4  1  0.80761686  0.61523371  0.19723184  1
  O  O5  1  0.80761686  0.19238314  0.19723184  1
  O  O6  1  0.66666667  0.33333333  0.46697528  1
  O  O7  1  0.33333333  0.66666667  0.53302472  1
  Na  Na8  1  0.00000000  0.00000000  0.00000000  1
  S  S9  1  0.66666667  0.33333333  0.26830589  1
  S  S10  1  0.33333333  0.66666667  0.73169411  1
  K  K11  1  0.33333333  0.66666667  0.17633307  1
  K  K12  1  0.00000000  0.00000000  0.50000000  1
  K  K13  1  0.66666667  0.33333333  0.82366693  1
