# generated using pymatgen
data_MoPCl9
_symmetry_space_group_name_H-M   'P 1'
_cell_length_a   7.23355992
_cell_length_b   9.29794600
_cell_length_c   9.83693659
_cell_angle_alpha   100.96297134
_cell_angle_beta   96.36451460
_cell_angle_gamma   95.69650097
_symmetry_Int_Tables_number   1
_chemical_formula_structural   MoPCl9
_chemical_formula_sum   'Mo2 P2 Cl18'
_cell_volume   640.59922443
_cell_formula_units_Z   2
loop_
 _symmetry_equiv_pos_site_id
 _symmetry_equiv_pos_as_xyz
  1  'x, y, z'
loop_
 _atom_site_type_symbol
 _atom_site_label
 _atom_site_symmetry_multiplicity
 _atom_site_fract_x
 _atom_site_fract_y
 _atom_site_fract_z
 _atom_site_occupancy
  P  P0  1  0.54680384  0.18907132  0.77899091  1
  P  P1  1  0.45319616  0.81092868  0.22100909  1
  Cl  Cl2  1  0.65326137  0.89340257  0.12876652  1
  Cl  Cl3  1  0.34673863  0.10659743  0.87123348  1
  Cl  Cl4  1  0.20545570  0.48422347  0.45206421  1
  Cl  Cl5  1  0.79454430  0.51577653  0.54793579  1
  Cl  Cl6  1  0.08143849  0.83079478  0.55763123  1
  Cl  Cl7  1  0.91856151  0.16920522  0.44236877  1
  Cl  Cl8  1  0.99244958  0.76333516  0.86518106  1
  Cl  Cl9  1  0.00755042  0.23666484  0.13481894  1
  Cl  Cl10  1  0.12281253  0.42444405  0.77889816  1
  Cl  Cl11  1  0.87718747  0.57555595  0.22110184  1
  Cl  Cl12  1  0.42600752  0.71442620  0.75682536  1
  Cl  Cl13  1  0.57399248  0.28557380  0.24317464  1
  Cl  Cl14  1  0.44444800  0.19982833  0.58900798  1
  Cl  Cl15  1  0.55555200  0.80017167  0.41099202  1
  Cl  Cl16  1  0.74550904  0.05937140  0.77126127  1
  Cl  Cl17  1  0.25449096  0.94062860  0.22873873  1
  Cl  Cl18  1  0.65137836  0.38552857  0.88355406  1
  Cl  Cl19  1  0.34862164  0.61447143  0.11644594  1
  Mo  Mo20  1  0.88883396  0.36950860  0.32974050  1
  Mo  Mo21  1  0.11116604  0.63049140  0.67025950  1
