# generated using pymatgen
data_HgI2
_symmetry_space_group_name_H-M   'P 1'
_cell_length_a   4.52063271
_cell_length_b   4.52063271
_cell_length_c   13.86966881
_cell_angle_alpha   90.00000000
_cell_angle_beta   90.00000000
_cell_angle_gamma   90.00000000
_symmetry_Int_Tables_number   1
_chemical_formula_structural   HgI2
_chemical_formula_sum   'Hg2 I4'
_cell_volume   283.44221753
_cell_formula_units_Z   2
loop_
 _symmetry_equiv_pos_site_id
 _symmetry_equiv_pos_as_xyz
  1  'x, y, z'
loop_
 _atom_site_type_symbol
 _atom_site_label
 _atom_site_symmetry_multiplicity
 _atom_site_fract_x
 _atom_site_fract_y
 _atom_site_fract_z
 _atom_site_occupancy
  I  I0  1  0.25000000  0.25000000  0.37754322  1
  I  I1  1  0.25000000  0.25000000  0.87754322  1
  I  I2  1  0.75000000  0.75000000  0.62245678  1
  I  I3  1  0.75000000  0.75000000  0.12245678  1
  Hg  Hg4  1  0.75000000  0.25000000  0.75000000  1
  Hg  Hg5  1  0.25000000  0.75000000  0.25000000  1
