# generated using pymatgen
data_Ba2TaBiO6
_symmetry_space_group_name_H-M   'P 1'
_cell_length_a   6.09727691
_cell_length_b   6.09727691
_cell_length_c   6.09727692
_cell_angle_alpha   60.58654776
_cell_angle_beta   60.58654770
_cell_angle_gamma   60.58654770
_symmetry_Int_Tables_number   1
_chemical_formula_structural   Ba2TaBiO6
_chemical_formula_sum   'Ba2 Ta1 Bi1 O6'
_cell_volume   162.40847431
_cell_formula_units_Z   1
loop_
 _symmetry_equiv_pos_site_id
 _symmetry_equiv_pos_as_xyz
  1  'x, y, z'
loop_
 _atom_site_type_symbol
 _atom_site_label
 _atom_site_symmetry_multiplicity
 _atom_site_fract_x
 _atom_site_fract_y
 _atom_site_fract_z
 _atom_site_occupancy
  O  O0  1  0.27448982  0.78114444  0.67796546  1
  O  O1  1  0.78114444  0.67796546  0.27448982  1
  O  O2  1  0.67796546  0.27448982  0.78114444  1
  O  O3  1  0.72551018  0.21885556  0.32203454  1
  O  O4  1  0.32203454  0.72551018  0.21885556  1
  O  O5  1  0.21885556  0.32203454  0.72551018  1
  Ba  Ba6  1  0.25118449  0.25118449  0.25118449  1
  Ba  Ba7  1  0.74881551  0.74881551  0.74881551  1
  Ta  Ta8  1  0.50000000  0.50000000  0.50000000  1
  Bi  Bi9  1  0.00000000  0.00000000  0.00000000  1
