# generated using pymatgen
data_Ba(HO2)2
_symmetry_space_group_name_H-M   'P 1'
_cell_length_a   4.19257539
_cell_length_b   9.56523155
_cell_length_c   8.54948683
_cell_angle_alpha   90.00000000
_cell_angle_beta   81.61550188
_cell_angle_gamma   90.00000000
_symmetry_Int_Tables_number   1
_chemical_formula_structural   Ba(HO2)2
_chemical_formula_sum   'Ba4 H8 O16'
_cell_volume   339.19513458
_cell_formula_units_Z   4
loop_
 _symmetry_equiv_pos_site_id
 _symmetry_equiv_pos_as_xyz
  1  'x, y, z'
loop_
 _atom_site_type_symbol
 _atom_site_label
 _atom_site_symmetry_multiplicity
 _atom_site_fract_x
 _atom_site_fract_y
 _atom_site_fract_z
 _atom_site_occupancy
  Ba  Ba0  1  0.37332673  0.29569459  0.63000437  1
  Ba  Ba1  1  0.62667327  0.79569459  0.86999563  1
  Ba  Ba2  1  0.62667327  0.70430541  0.36999563  1
  Ba  Ba3  1  0.37332673  0.20430541  0.13000437  1
  H  H4  1  0.04372994  0.60376035  0.65170990  1
  H  H5  1  0.95627006  0.10376035  0.84829010  1
  H  H6  1  0.95627006  0.39623965  0.34829010  1
  H  H7  1  0.04372994  0.89623965  0.15170990  1
  H  H8  1  0.20671258  0.92850822  0.62694673  1
  H  H9  1  0.79328742  0.42850822  0.87305327  1
  H  H10  1  0.79328742  0.07149178  0.37305327  1
  H  H11  1  0.20671258  0.57149178  0.12694673  1
  O  O12  1  0.84507175  0.49676722  0.64921794  1
  O  O13  1  0.15492825  0.99676722  0.85078206  1
  O  O14  1  0.15492825  0.50323278  0.35078206  1
  O  O15  1  0.84507175  0.00323278  0.14921794  1
  O  O16  1  0.20322798  0.69897024  0.65905888  1
  O  O17  1  0.79677202  0.19897024  0.84094112  1
  O  O18  1  0.79677202  0.30102976  0.34094112  1
  O  O19  1  0.20322798  0.80102976  0.15905888  1
  O  O20  1  0.04993202  0.80768210  0.56789014  1
  O  O21  1  0.95006798  0.30768210  0.93210986  1
  O  O22  1  0.95006798  0.19231790  0.43210986  1
  O  O23  1  0.04993202  0.69231790  0.06789014  1
  O  O24  1  0.33653314  0.00183292  0.68736570  1
  O  O25  1  0.66346686  0.50183292  0.81263430  1
  O  O26  1  0.66346686  0.99816708  0.31263430  1
  O  O27  1  0.33653314  0.49816708  0.18736570  1
