# generated using pymatgen
data_ZnH8(NO5)2
_symmetry_space_group_name_H-M   'P 1'
_cell_length_a   5.38794594
_cell_length_b   5.76886516
_cell_length_c   27.32356755
_cell_angle_alpha   90.00000000
_cell_angle_beta   90.00000000
_cell_angle_gamma   112.10530657
_symmetry_Int_Tables_number   1
_chemical_formula_structural   ZnH8(NO5)2
_chemical_formula_sum   'Zn4 H32 N8 O40'
_cell_volume   786.85286422
_cell_formula_units_Z   4
loop_
 _symmetry_equiv_pos_site_id
 _symmetry_equiv_pos_as_xyz
  1  'x, y, z'
loop_
 _atom_site_type_symbol
 _atom_site_label
 _atom_site_symmetry_multiplicity
 _atom_site_fract_x
 _atom_site_fract_y
 _atom_site_fract_z
 _atom_site_occupancy
  H  H0  1  0.90192258  0.07624156  0.66883345  1
  H  H1  1  0.59807742  0.42375844  0.16883345  1
  H  H2  1  0.09807742  0.92375844  0.33116655  1
  H  H3  1  0.40192258  0.57624156  0.83116655  1
  H  H4  1  0.76531422  0.16876706  0.71246229  1
  H  H5  1  0.73468578  0.33123294  0.21246229  1
  H  H6  1  0.23468578  0.83123294  0.28753771  1
  H  H7  1  0.26531422  0.66876706  0.78753771  1
  H  H8  1  0.86018193  0.56683499  0.55908310  1
  H  H9  1  0.63981807  0.93316501  0.05908310  1
  H  H10  1  0.13981807  0.43316501  0.44091690  1
  H  H11  1  0.36018193  0.06683499  0.94091690  1
  H  H12  1  0.00992009  0.41855501  0.58621099  1
  H  H13  1  0.49007991  0.08144499  0.08621099  1
  H  H14  1  0.99007991  0.58144499  0.41378901  1
  H  H15  1  0.50992009  0.91855501  0.91378901  1
  H  H16  1  0.52217116  0.77030835  0.60882637  1
  H  H17  1  0.97782884  0.72969165  0.10882637  1
  H  H18  1  0.47782884  0.22969165  0.39117363  1
  H  H19  1  0.02217116  0.27030835  0.89117363  1
  H  H20  1  0.56621866  0.88098443  0.55377867  1
  H  H21  1  0.93378134  0.61901557  0.05377867  1
  H  H22  1  0.43378134  0.11901557  0.44622133  1
  H  H23  1  0.06621866  0.38098443  0.94622133  1
  H  H24  1  0.19858057  0.84757581  0.68070091  1
  H  H25  1  0.30141943  0.65242419  0.18070091  1
  H  H26  1  0.80141943  0.15242419  0.31929909  1
  H  H27  1  0.69858057  0.34757581  0.81929909  1
  H  H28  1  0.05818234  0.79882567  0.62932259  1
  H  H29  1  0.44181766  0.70117433  0.12932259  1
  H  H30  1  0.94181766  0.20117433  0.37067741  1
  H  H31  1  0.55818234  0.29882567  0.87067741  1
  N  N32  1  0.38992725  0.50800926  0.70464538  1
  N  N33  1  0.11007275  0.99199074  0.20464538  1
  N  N34  1  0.61007275  0.49199074  0.29535462  1
  N  N35  1  0.88992725  0.00800926  0.79535462  1
  N  N36  1  0.26482067  0.26240453  0.52526380  1
  N  N37  1  0.23517933  0.23759547  0.02526380  1
  N  N38  1  0.73517933  0.73759547  0.47473620  1
  N  N39  1  0.76482067  0.76240453  0.97473620  1
  O  O40  1  0.79236652  0.17614665  0.67658285  1
  O  O41  1  0.70763348  0.32385335  0.17658285  1
  O  O42  1  0.20763348  0.82385335  0.32341715  1
  O  O43  1  0.29236652  0.67614665  0.82341715  1
  O  O44  1  0.88243052  0.50427786  0.59201441  1
  O  O45  1  0.61756948  0.99572214  0.09201441  1
  O  O46  1  0.11756948  0.49572214  0.40798559  1
  O  O47  1  0.38243052  0.00427786  0.90798559  1
  O  O48  1  0.58920999  0.92423274  0.58914152  1
  O  O49  1  0.91079001  0.57576726  0.08914152  1
  O  O50  1  0.41079001  0.07576726  0.41085848  1
  O  O51  1  0.08920999  0.42423274  0.91085848  1
  O  O52  1  0.14848113  0.93503210  0.65308520  1
  O  O53  1  0.35151887  0.56496790  0.15308520  1
  O  O54  1  0.85151887  0.06496790  0.34691480  1
  O  O55  1  0.64848113  0.43503210  0.84691480  1
  O  O56  1  0.40951736  0.34139662  0.73099175  1
  O  O57  1  0.09048264  0.15860338  0.23099175  1
  O  O58  1  0.59048264  0.65860338  0.26900825  1
  O  O59  1  0.90951736  0.84139662  0.76900825  1
  O  O60  1  0.31044772  0.67386500  0.72100109  1
  O  O61  1  0.18955228  0.82613500  0.22100109  1
  O  O62  1  0.68955228  0.32613500  0.27899891  1
  O  O63  1  0.81044772  0.17386500  0.77899891  1
  O  O64  1  0.45058440  0.51710046  0.65826751  1
  O  O65  1  0.04941560  0.98289954  0.15826751  1
  O  O66  1  0.54941560  0.48289954  0.34173249  1
  O  O67  1  0.95058440  0.01710046  0.84173249  1
  O  O68  1  0.07929166  0.27869811  0.49985523  1
  O  O69  1  0.42070834  0.22130189  0.99985523  1
  O  O70  1  0.92070834  0.72130189  0.50014477  1
  O  O71  1  0.57929166  0.77869811  0.00014477  1
  O  O72  1  0.45979083  0.22225091  0.50758814  1
  O  O73  1  0.04020917  0.27774909  0.00758814  1
  O  O74  1  0.54020917  0.77774909  0.49241186  1
  O  O75  1  0.95979083  0.72225091  0.99241186  1
  O  O76  1  0.25567157  0.29100724  0.57237267  1
  O  O77  1  0.24432843  0.20899276  0.07237267  1
  O  O78  1  0.74432843  0.70899276  0.42762733  1
  O  O79  1  0.75567157  0.79100724  0.92762733  1
  Zn  Zn80  1  0.52725274  0.21684831  0.62509844  1
  Zn  Zn81  1  0.97274726  0.28315169  0.12509844  1
  Zn  Zn82  1  0.47274726  0.78315169  0.37490156  1
  Zn  Zn83  1  0.02725274  0.71684831  0.87490156  1
