# generated using pymatgen
data_K2MgH8(SO6)2
_symmetry_space_group_name_H-M   'P 1'
_cell_length_a   9.62058372
_cell_length_b   10.01633189
_cell_length_c   11.85834129
_cell_angle_alpha   95.60590968
_cell_angle_beta   90.00000000
_cell_angle_gamma   90.00000000
_symmetry_Int_Tables_number   1
_chemical_formula_structural   K2MgH8(SO6)2
_chemical_formula_sum   'K8 Mg4 H32 S8 O48'
_cell_volume   1137.23968078
_cell_formula_units_Z   4
loop_
 _symmetry_equiv_pos_site_id
 _symmetry_equiv_pos_as_xyz
  1  'x, y, z'
loop_
 _atom_site_type_symbol
 _atom_site_label
 _atom_site_symmetry_multiplicity
 _atom_site_fract_x
 _atom_site_fract_y
 _atom_site_fract_z
 _atom_site_occupancy
  H  H0  1  0.51384943  0.72620549  0.44570822  1
  H  H1  1  0.01384943  0.27379451  0.05429178  1
  H  H2  1  0.48615057  0.27379451  0.55429178  1
  H  H3  1  0.98615057  0.72620549  0.94570822  1
  H  H4  1  0.48100782  0.73561083  0.57558905  1
  H  H5  1  0.98100782  0.26438917  0.92441095  1
  H  H6  1  0.51899218  0.26438917  0.42441095  1
  H  H7  1  0.01899218  0.73561083  0.07558905  1
  H  H8  1  0.22059396  0.95357083  0.55354999  1
  H  H9  1  0.72059396  0.04642917  0.94645001  1
  H  H10  1  0.77940604  0.04642917  0.44645001  1
  H  H11  1  0.27940604  0.95357083  0.05354999  1
  H  H12  1  0.22135328  0.03383933  0.44147959  1
  H  H13  1  0.72135328  0.96616067  0.05852041  1
  H  H14  1  0.77864672  0.96616067  0.55852041  1
  H  H15  1  0.27864672  0.03383933  0.94147959  1
  H  H16  1  0.13509617  0.72885005  0.58947235  1
  H  H17  1  0.63509617  0.27114995  0.91052765  1
  H  H18  1  0.86490383  0.27114995  0.41052765  1
  H  H19  1  0.36490383  0.72885005  0.08947235  1
  H  H20  1  0.75436813  0.38911267  0.42003267  1
  H  H21  1  0.25436813  0.61088733  0.07996733  1
  H  H22  1  0.13644096  0.27236835  0.41929345  1
  H  H23  1  0.63644096  0.72763165  0.08070655  1
  H  H24  1  0.86355904  0.72763165  0.58070655  1
  H  H25  1  0.36355904  0.27236835  0.91929345  1
  H  H26  1  0.23645036  0.39673347  0.42021943  1
  H  H27  1  0.73645036  0.60326653  0.07978057  1
  H  H28  1  0.76354964  0.60326653  0.57978057  1
  H  H29  1  0.26354964  0.39673347  0.92021943  1
  H  H30  1  0.24563187  0.61088733  0.57996733  1
  H  H31  1  0.74563187  0.38911267  0.92003267  1
  O  O32  1  0.84645323  0.54737413  0.17800048  1
  O  O33  1  0.34645323  0.45262587  0.32199952  1
  O  O34  1  0.15354677  0.45262587  0.82199952  1
  O  O35  1  0.65354677  0.54737413  0.67800048  1
  O  O36  1  0.01107753  0.05811993  0.17188341  1
  O  O37  1  0.51107753  0.94188007  0.32811659  1
  O  O38  1  0.98892247  0.94188007  0.82811659  1
  O  O39  1  0.48892247  0.05811993  0.67188341  1
  O  O40  1  0.50573852  0.09529310  0.17966428  1
  O  O41  1  0.00573852  0.90470690  0.32033572  1
  O  O42  1  0.49426148  0.90470690  0.82033572  1
  O  O43  1  0.99426148  0.09529310  0.67966428  1
  O  O44  1  0.51164415  0.43828108  0.16677688  1
  O  O45  1  0.01164415  0.56171892  0.33322312  1
  O  O46  1  0.48835585  0.56171892  0.83322312  1
  O  O47  1  0.98835585  0.43828108  0.66677688  1
  O  O48  1  0.02532871  0.37675114  0.18247561  1
  O  O49  1  0.52532871  0.62324886  0.31752439  1
  O  O50  1  0.41042565  0.60639013  0.64663777  1
  O  O51  1  0.47467129  0.37675114  0.68247561  1
  O  O52  1  0.34125002  0.35987095  0.96337628  1
  O  O53  1  0.84125002  0.64012905  0.53662372  1
  O  O54  1  0.65874998  0.64012905  0.03662372  1
  O  O55  1  0.15874998  0.35987095  0.46337628  1
  O  O56  1  0.34204950  0.64097673  0.04618403  1
  O  O57  1  0.84204950  0.35902327  0.45381597  1
  O  O58  1  0.91042565  0.39360987  0.85336223  1
  O  O59  1  0.15795050  0.64097673  0.54618403  1
  O  O60  1  0.21892571  0.98784062  0.99469992  1
  O  O61  1  0.71892571  0.01215938  0.50530008  1
  O  O62  1  0.78107429  0.01215938  0.00530008  1
  O  O63  1  0.28107429  0.98784062  0.49469992  1
  O  O64  1  0.99021170  0.79108058  0.01454287  1
  O  O65  1  0.49021170  0.20891942  0.48545713  1
  O  O66  1  0.00978830  0.20891942  0.98545713  1
  O  O67  1  0.50978830  0.79108058  0.51454287  1
  O  O68  1  0.58957435  0.39360987  0.35336223  1
  O  O69  1  0.08957435  0.60639013  0.14663777  1
  O  O70  1  0.12530859  0.88543082  0.65804539  1
  O  O71  1  0.62530859  0.11456918  0.84195461  1
  O  O72  1  0.87469141  0.11456918  0.34195461  1
  O  O73  1  0.37469141  0.88543082  0.15804539  1
  O  O74  1  0.12943250  0.11760269  0.34966850  1
  O  O75  1  0.62943250  0.88239731  0.15033150  1
  O  O76  1  0.87056750  0.88239731  0.65033150  1
  O  O77  1  0.37056750  0.11760269  0.84966850  1
  O  O78  1  0.65795050  0.35902327  0.95381597  1
  O  O79  1  0.97467129  0.62324886  0.81752439  1
  Mg  Mg80  1  0.50000000  0.00000000  0.50000000  1
  Mg  Mg81  1  0.00000000  0.00000000  0.00000000  1
  Mg  Mg82  1  0.50000000  0.50000000  0.00000000  1
  Mg  Mg83  1  0.00000000  0.50000000  0.50000000  1
  S  S84  1  0.50683493  0.52157721  0.70916855  1
  S  S85  1  0.49499411  0.04581383  0.79565808  1
  S  S86  1  0.00500589  0.04581383  0.29565808  1
  S  S87  1  0.50500589  0.95418617  0.20434192  1
  S  S88  1  0.99316507  0.52157721  0.20916855  1
  S  S89  1  0.49316507  0.47842279  0.29083145  1
  S  S90  1  0.99499411  0.95418617  0.70434192  1
  S  S91  1  0.00683493  0.47842279  0.79083145  1
  K  K92  1  0.75820664  0.25911229  0.66685336  1
  K  K93  1  0.25820664  0.74088771  0.83314664  1
  K  K94  1  0.24179336  0.74088771  0.33314664  1
  K  K95  1  0.74179336  0.25911229  0.16685336  1
  K  K96  1  0.23093579  0.23956457  0.66597908  1
  K  K97  1  0.73093579  0.76043543  0.83402092  1
  K  K98  1  0.76906421  0.76043543  0.33402092  1
  K  K99  1  0.26906421  0.23956457  0.16597908  1
