# generated using pymatgen
data_Zn3B7ClO13
_symmetry_space_group_name_H-M   'P 1'
_cell_length_a   8.65923842
_cell_length_b   8.65923842
_cell_length_c   8.65923842
_cell_angle_alpha   59.80068656
_cell_angle_beta   59.80068657
_cell_angle_gamma   59.80068660
_symmetry_Int_Tables_number   1
_chemical_formula_structural   Zn3B7ClO13
_chemical_formula_sum   'Zn6 B14 Cl2 O26'
_cell_volume   457.04045361
_cell_formula_units_Z   2
loop_
 _symmetry_equiv_pos_site_id
 _symmetry_equiv_pos_as_xyz
  1  'x, y, z'
loop_
 _atom_site_type_symbol
 _atom_site_label
 _atom_site_symmetry_multiplicity
 _atom_site_fract_x
 _atom_site_fract_y
 _atom_site_fract_z
 _atom_site_occupancy
  B  B0  1  0.57288118  0.57335446  0.26689109  1
  B  B1  1  0.60312668  0.60312668  0.60312668  1
  B  B2  1  0.10312668  0.10312668  0.10312668  1
  B  B3  1  0.57335446  0.26689109  0.57288118  1
  B  B4  1  0.26689109  0.57288118  0.57335446  1
  B  B5  1  0.76689109  0.07335446  0.07288118  1
  B  B6  1  0.07335446  0.07288118  0.76689109  1
  B  B7  1  0.07288118  0.76689109  0.07335446  1
  B  B8  1  0.24663748  0.75416640  0.24785389  1
  B  B9  1  0.24785389  0.24663748  0.75416640  1
  B  B10  1  0.75416640  0.24785389  0.24663748  1
  B  B11  1  0.25416640  0.74663748  0.74785389  1
  B  B12  1  0.74785389  0.25416640  0.74663748  1
  B  B13  1  0.74663748  0.74785389  0.25416640  1
  O  O14  1  0.43490835  0.18943116  0.61263353  1
  O  O15  1  0.61263353  0.43490835  0.18943116  1
  O  O16  1  0.71477094  0.10053106  0.24833028  1
  O  O17  1  0.24833028  0.71477094  0.10053106  1
  O  O18  1  0.10053106  0.24833028  0.71477094  1
  O  O19  1  0.21477094  0.74833028  0.60053106  1
  O  O20  1  0.60053106  0.21477094  0.74833028  1
  O  O21  1  0.74833028  0.60053106  0.21477094  1
  O  O22  1  0.98793683  0.98793683  0.98793683  1
  O  O23  1  0.48793683  0.48793683  0.48793683  1
  O  O24  1  0.94566633  0.26483910  0.10663514  1
  O  O25  1  0.10663514  0.94566633  0.26483910  1
  O  O26  1  0.26483910  0.10663514  0.94566633  1
  O  O27  1  0.76483910  0.44566633  0.60663514  1
  O  O28  1  0.60663514  0.76483910  0.44566633  1
  O  O29  1  0.44566633  0.60663514  0.76483910  1
  O  O30  1  0.25298548  0.93524344  0.70025038  1
  O  O31  1  0.70025038  0.25298548  0.93524344  1
  O  O32  1  0.93524344  0.70025038  0.25298548  1
  O  O33  1  0.43524344  0.75298548  0.20025038  1
  O  O34  1  0.20025038  0.43524344  0.75298548  1
  O  O35  1  0.75298548  0.20025038  0.43524344  1
  O  O36  1  0.11263353  0.68943116  0.93490835  1
  O  O37  1  0.93490835  0.11263353  0.68943116  1
  O  O38  1  0.68943116  0.93490835  0.11263353  1
  O  O39  1  0.18943116  0.61263353  0.43490835  1
  Cl  Cl40  1  0.76966282  0.76966282  0.76966282  1
  Cl  Cl41  1  0.26966282  0.26966282  0.26966282  1
  Zn  Zn42  1  0.97127294  0.53559778  0.97239327  1
  Zn  Zn43  1  0.53559778  0.97239327  0.97127294  1
  Zn  Zn44  1  0.97239327  0.97127294  0.53559778  1
  Zn  Zn45  1  0.47239327  0.03559778  0.47127294  1
  Zn  Zn46  1  0.03559778  0.47127294  0.47239327  1
  Zn  Zn47  1  0.47127294  0.47239327  0.03559778  1
