# generated using pymatgen
data_LiPH2O3
_symmetry_space_group_name_H-M   'P 1'
_cell_length_a   5.13508801
_cell_length_b   5.26013668
_cell_length_c   11.17583592
_cell_angle_alpha   90.00000000
_cell_angle_beta   90.00000000
_cell_angle_gamma   90.00000000
_symmetry_Int_Tables_number   1
_chemical_formula_structural   LiPH2O3
_chemical_formula_sum   'Li4 P4 H8 O12'
_cell_volume   301.87346336
_cell_formula_units_Z   4
loop_
 _symmetry_equiv_pos_site_id
 _symmetry_equiv_pos_as_xyz
  1  'x, y, z'
loop_
 _atom_site_type_symbol
 _atom_site_label
 _atom_site_symmetry_multiplicity
 _atom_site_fract_x
 _atom_site_fract_y
 _atom_site_fract_z
 _atom_site_occupancy
  H  H0  1  0.99320443  0.61867163  0.16060020  1
  H  H1  1  0.00679557  0.11867163  0.83939980  1
  H  H2  1  0.50679557  0.61867163  0.66060020  1
  H  H3  1  0.49320443  0.11867163  0.33939980  1
  H  H4  1  0.56544018  0.15006263  0.63030467  1
  H  H5  1  0.06544018  0.65006263  0.86969533  1
  H  H6  1  0.93455982  0.15006263  0.13030467  1
  H  H7  1  0.43455982  0.65006263  0.36969533  1
  Li  Li8  1  0.98108548  0.26186492  0.42072301  1
  Li  Li9  1  0.48108548  0.76186492  0.07927699  1
  Li  Li10  1  0.51891452  0.26186492  0.92072301  1
  Li  Li11  1  0.01891452  0.76186492  0.57927699  1
  O  O12  1  0.88407638  0.62740481  0.42820716  1
  O  O13  1  0.61592362  0.62740481  0.92820716  1
  O  O14  1  0.11592362  0.12740481  0.57179284  1
  O  O15  1  0.38407638  0.12740481  0.07179284  1
  O  O16  1  0.16237616  0.54178857  0.12379865  1
  O  O17  1  0.73420732  0.70586339  0.21092976  1
  O  O18  1  0.33762384  0.54178857  0.62379865  1
  O  O19  1  0.83762384  0.04178857  0.87620135  1
  O  O20  1  0.76579268  0.70586339  0.71092976  1
  O  O21  1  0.23420732  0.20586339  0.28907024  1
  O  O22  1  0.66237616  0.04178857  0.37620135  1
  O  O23  1  0.26579268  0.20586339  0.78907024  1
  P  P24  1  0.68489246  0.74494405  0.34460497  1
  P  P25  1  0.31510754  0.24494405  0.65539503  1
  P  P26  1  0.81510754  0.74494405  0.84460497  1
  P  P27  1  0.18489246  0.24494405  0.15539503  1
