# generated using pymatgen
data_Ca3Al2H6S(OF)8
_symmetry_space_group_name_H-M   'P 1'
_cell_length_a   8.28714129
_cell_length_b   8.28714129
_cell_length_c   10.10521283
_cell_angle_alpha   87.03676558
_cell_angle_beta   87.03676556
_cell_angle_gamma   63.34904428
_symmetry_Int_Tables_number   1
_chemical_formula_structural   Ca3Al2H6S(OF)8
_chemical_formula_sum   'Ca6 Al4 H12 S2 O16 F16'
_cell_volume   619.11462737
_cell_formula_units_Z   2
loop_
 _symmetry_equiv_pos_site_id
 _symmetry_equiv_pos_as_xyz
  1  'x, y, z'
loop_
 _atom_site_type_symbol
 _atom_site_label
 _atom_site_symmetry_multiplicity
 _atom_site_fract_x
 _atom_site_fract_y
 _atom_site_fract_z
 _atom_site_occupancy
  H  H0  1  0.23150895  0.50765925  0.07403910  1
  H  H1  1  0.49234075  0.76849105  0.42596090  1
  H  H2  1  0.76849105  0.49234075  0.92596090  1
  H  H3  1  0.50765925  0.23150895  0.57403910  1
  H  H4  1  0.68544869  0.42171391  0.36853843  1
  H  H5  1  0.57828609  0.31455131  0.13146157  1
  H  H6  1  0.31455131  0.57828609  0.63146157  1
  H  H7  1  0.42171391  0.68544869  0.86853843  1
  H  H8  1  0.82296793  0.30347680  0.47688699  1
  H  H9  1  0.69652320  0.17703207  0.02311301  1
  H  H10  1  0.17703207  0.69652320  0.52311301  1
  H  H11  1  0.30347680  0.82296793  0.97688699  1
  O  O12  1  0.11798989  0.49787898  0.06381237  1
  O  O13  1  0.50212102  0.88201011  0.43618763  1
  O  O14  1  0.88201011  0.50212102  0.93618763  1
  O  O15  1  0.49787898  0.11798989  0.56381237  1
  O  O16  1  0.81395212  0.33203908  0.38124069  1
  O  O17  1  0.66796092  0.18604788  0.11875931  1
  O  O18  1  0.18604788  0.66796092  0.61875931  1
  O  O19  1  0.33203908  0.81395212  0.88124069  1
  O  O20  1  0.40523769  0.52073961  0.14429230  1
  O  O21  1  0.68069591  0.16536431  0.81031961  1
  O  O22  1  0.59476231  0.47926039  0.85570770  1
  O  O23  1  0.52073961  0.40523769  0.64429230  1
  O  O24  1  0.16536431  0.68069591  0.31031961  1
  O  O25  1  0.31930409  0.83463569  0.18968039  1
  O  O26  1  0.83463569  0.31930409  0.68968039  1
  O  O27  1  0.47926039  0.59476231  0.35570770  1
  F  F28  1  0.97814490  0.74175998  0.84796951  1
  F  F29  1  0.32288754  0.20499203  0.32143913  1
  F  F30  1  0.20499203  0.32288754  0.82143913  1
  F  F31  1  0.67711246  0.79500797  0.67856087  1
  F  F32  1  0.86400215  0.66627233  0.47637799  1
  F  F33  1  0.33372767  0.13599785  0.02362201  1
  F  F34  1  0.13599785  0.33372767  0.52362201  1
  F  F35  1  0.66627233  0.86400215  0.97637799  1
  F  F36  1  0.95553895  0.86295737  0.07756773  1
  F  F37  1  0.13704263  0.04446105  0.42243227  1
  F  F38  1  0.04446105  0.13704263  0.92243227  1
  F  F39  1  0.86295737  0.95553895  0.57756773  1
  F  F40  1  0.02185510  0.25824002  0.15203049  1
  F  F41  1  0.74175998  0.97814490  0.34796951  1
  F  F42  1  0.25824002  0.02185510  0.65203049  1
  F  F43  1  0.79500797  0.67711246  0.17856087  1
  Al  Al44  1  0.69731940  0.89927211  0.51297818  1
  Al  Al45  1  0.10072789  0.30268060  0.98702182  1
  Al  Al46  1  0.89927211  0.69731940  0.01297818  1
  Al  Al47  1  0.30268060  0.10072789  0.48702182  1
  S  S48  1  0.65506855  0.34493145  0.75000000  1
  S  S49  1  0.34493145  0.65506855  0.25000000  1
  Ca  Ca50  1  0.97017310  0.02982690  0.25000000  1
  Ca  Ca51  1  0.02982690  0.97017310  0.75000000  1
  Ca  Ca52  1  0.02800157  0.46580839  0.30690409  1
  Ca  Ca53  1  0.53419161  0.97199843  0.19309591  1
  Ca  Ca54  1  0.97199843  0.53419161  0.69309591  1
  Ca  Ca55  1  0.46580839  0.02800157  0.80690409  1
