# generated using pymatgen
data_Mg3Si2H4O9
_symmetry_space_group_name_H-M   'P 1'
_cell_length_a   5.37139392
_cell_length_b   5.37139392
_cell_length_c   14.80712716
_cell_angle_alpha   90.00000000
_cell_angle_beta   90.00000000
_cell_angle_gamma   119.99999999
_symmetry_Int_Tables_number   1
_chemical_formula_structural   Mg3Si2H4O9
_chemical_formula_sum   'Mg6 Si4 H8 O18'
_cell_volume   369.97761150
_cell_formula_units_Z   2
loop_
 _symmetry_equiv_pos_site_id
 _symmetry_equiv_pos_as_xyz
  1  'x, y, z'
loop_
 _atom_site_type_symbol
 _atom_site_label
 _atom_site_symmetry_multiplicity
 _atom_site_fract_x
 _atom_site_fract_y
 _atom_site_fract_z
 _atom_site_occupancy
  H  H0  1  0.00000000  0.00000000  0.58249132  1
  H  H1  1  0.00000000  0.00000000  0.08249132  1
  H  H2  1  0.35116691  0.00000000  0.85393068  1
  H  H3  1  0.35116691  0.35116691  0.35393068  1
  H  H4  1  0.00000000  0.64883309  0.35393068  1
  H  H5  1  0.00000000  0.35116691  0.85393068  1
  H  H6  1  0.64883309  0.64883309  0.85393068  1
  H  H7  1  0.64883309  0.00000000  0.35393068  1
  O  O8  1  0.00000000  0.00000000  0.64778738  1
  O  O9  1  0.00000000  0.00000000  0.14778738  1
  O  O10  1  0.33333333  0.66666667  0.14086686  1
  O  O11  1  0.66666667  0.33333333  0.64086686  1
  O  O12  1  0.33333333  0.66666667  0.64086686  1
  O  O13  1  0.66666667  0.33333333  0.14086686  1
  O  O14  1  0.48816464  0.00000000  0.99076419  1
  O  O15  1  0.48816464  0.48816464  0.49076419  1
  O  O16  1  0.00000000  0.51183536  0.49076419  1
  O  O17  1  0.00000000  0.48816464  0.99076419  1
  O  O18  1  0.51183536  0.51183536  0.99076419  1
  O  O19  1  0.51183536  0.00000000  0.49076419  1
  O  O20  1  0.66385341  0.00000000  0.28854743  1
  O  O21  1  0.66385341  0.66385341  0.78854743  1
  O  O22  1  0.00000000  0.33614659  0.78854743  1
  O  O23  1  0.00000000  0.66385341  0.28854743  1
  O  O24  1  0.33614659  0.33614659  0.28854743  1
  O  O25  1  0.33614659  0.00000000  0.78854743  1
  Mg  Mg26  1  0.33125189  0.00000000  0.22241923  1
  Mg  Mg27  1  0.33125189  0.33125189  0.72241923  1
  Mg  Mg28  1  0.00000000  0.66874811  0.72241923  1
  Mg  Mg29  1  0.00000000  0.33125189  0.22241923  1
  Mg  Mg30  1  0.66874811  0.00000000  0.72241923  1
  Mg  Mg31  1  0.66874811  0.66874811  0.22241923  1
  Si  Si32  1  0.33333333  0.66666667  0.03215150  1
  Si  Si33  1  0.66666667  0.33333333  0.53215150  1
  Si  Si34  1  0.33333333  0.66666667  0.53215150  1
  Si  Si35  1  0.66666667  0.33333333  0.03215150  1
