# generated using pymatgen
data_Co2TeSO8
_symmetry_space_group_name_H-M   'P 1'
_cell_length_a   7.30338359
_cell_length_b   8.45606967
_cell_length_c   10.13901895
_cell_angle_alpha   90.00000000
_cell_angle_beta   90.00000000
_cell_angle_gamma   90.00000000
_symmetry_Int_Tables_number   1
_chemical_formula_structural   Co2TeSO8
_chemical_formula_sum   'Co8 Te4 S4 O32'
_cell_volume   626.16472589
_cell_formula_units_Z   4
loop_
 _symmetry_equiv_pos_site_id
 _symmetry_equiv_pos_as_xyz
  1  'x, y, z'
loop_
 _atom_site_type_symbol
 _atom_site_label
 _atom_site_symmetry_multiplicity
 _atom_site_fract_x
 _atom_site_fract_y
 _atom_site_fract_z
 _atom_site_occupancy
  Co  Co0  1  0.31351417  0.45081337  0.58159563  1
  Co  Co1  1  0.68648583  0.95081337  0.41840437  1
  Co  Co2  1  0.31351417  0.54918663  0.91840437  1
  Co  Co3  1  0.68648583  0.04918663  0.08159563  1
  Co  Co4  1  0.68648583  0.54918663  0.41840437  1
  Co  Co5  1  0.31351417  0.04918663  0.58159563  1
  Co  Co6  1  0.68648583  0.45081337  0.08159563  1
  Co  Co7  1  0.31351417  0.95081337  0.91840437  1
  Te  Te8  1  0.37072016  0.25000000  0.28605281  1
  Te  Te9  1  0.62927984  0.75000000  0.71394719  1
  Te  Te10  1  0.37072016  0.75000000  0.21394719  1
  Te  Te11  1  0.62927984  0.25000000  0.78605281  1
  S  S12  1  0.94367536  0.25000000  0.46984319  1
  S  S13  1  0.05632464  0.75000000  0.53015681  1
  S  S14  1  0.94367536  0.75000000  0.03015681  1
  S  S15  1  0.05632464  0.25000000  0.96984319  1
  O  O16  1  0.56370718  0.25000000  0.16051977  1
  O  O17  1  0.43629282  0.75000000  0.83948023  1
  O  O18  1  0.56370718  0.75000000  0.33948023  1
  O  O19  1  0.43629282  0.25000000  0.66051977  1
  O  O20  1  0.96486680  0.25000000  0.32763988  1
  O  O21  1  0.03513320  0.75000000  0.67236012  1
  O  O22  1  0.96486680  0.75000000  0.17236012  1
  O  O23  1  0.03513320  0.25000000  0.82763988  1
  O  O24  1  0.13458002  0.25000000  0.53351319  1
  O  O25  1  0.86541998  0.75000000  0.46648681  1
  O  O26  1  0.13458002  0.75000000  0.96648681  1
  O  O27  1  0.86541998  0.25000000  0.03351319  1
  O  O28  1  0.24297334  0.50000000  0.75000000  1
  O  O29  1  0.75702666  0.00000000  0.25000000  1
  O  O30  1  0.75702666  0.50000000  0.25000000  1
  O  O31  1  0.24297334  0.00000000  0.75000000  1
  O  O32  1  0.44941297  0.08191458  0.39973039  1
  O  O33  1  0.55058703  0.58191458  0.60026961  1
  O  O34  1  0.44941297  0.91808542  0.10026961  1
  O  O35  1  0.55058703  0.41808542  0.89973039  1
  O  O36  1  0.55058703  0.91808542  0.60026961  1
  O  O37  1  0.44941297  0.41808542  0.39973039  1
  O  O38  1  0.55058703  0.08191458  0.89973039  1
  O  O39  1  0.44941297  0.58191458  0.10026961  1
  O  O40  1  0.15498242  0.60698462  0.47857631  1
  O  O41  1  0.84501758  0.10698462  0.52142369  1
  O  O42  1  0.15498242  0.39301538  0.02142369  1
  O  O43  1  0.84501758  0.89301538  0.97857631  1
  O  O44  1  0.84501758  0.39301538  0.52142369  1
  O  O45  1  0.15498242  0.89301538  0.47857631  1
  O  O46  1  0.84501758  0.60698462  0.97857631  1
  O  O47  1  0.15498242  0.10698462  0.02142369  1
