# generated using pymatgen
data_K5ThF9
_symmetry_space_group_name_H-M   'P 1'
_cell_length_a   7.61806415
_cell_length_b   7.61806415
_cell_length_c   10.91048507
_cell_angle_alpha   90.00000000
_cell_angle_beta   90.00000000
_cell_angle_gamma   117.27933661
_symmetry_Int_Tables_number   1
_chemical_formula_structural   K5ThF9
_chemical_formula_sum   'K10 Th2 F18'
_cell_volume   562.76728923
_cell_formula_units_Z   2
loop_
 _symmetry_equiv_pos_site_id
 _symmetry_equiv_pos_as_xyz
  1  'x, y, z'
loop_
 _atom_site_type_symbol
 _atom_site_label
 _atom_site_symmetry_multiplicity
 _atom_site_fract_x
 _atom_site_fract_y
 _atom_site_fract_z
 _atom_site_occupancy
  F  F0  1  0.05362665  0.49538287  0.22842577  1
  F  F1  1  0.94637335  0.50461713  0.72842577  1
  F  F2  1  0.50461713  0.94637335  0.22842577  1
  F  F3  1  0.49538287  0.05362665  0.72842577  1
  F  F4  1  0.15032608  0.21517238  0.32135872  1
  F  F5  1  0.84967392  0.78482762  0.82135872  1
  F  F6  1  0.78482762  0.84967392  0.32135872  1
  F  F7  1  0.21517238  0.15032608  0.82135872  1
  F  F8  1  0.48251653  0.51748347  0.04020936  1
  F  F9  1  0.51748347  0.48251653  0.54020936  1
  F  F10  1  0.75584613  0.24415387  0.05070776  1
  F  F11  1  0.24415387  0.75584613  0.55070776  1
  F  F12  1  0.04049390  0.95950610  0.59374426  1
  F  F13  1  0.95950610  0.04049390  0.09374426  1
  F  F14  1  0.19961065  0.80038935  0.95860709  1
  F  F15  1  0.80038935  0.19961065  0.45860709  1
  F  F16  1  0.34821356  0.65178644  0.77585145  1
  F  F17  1  0.65178644  0.34821356  0.27585145  1
  K  K18  1  0.35511219  0.14308338  0.09938377  1
  K  K19  1  0.64488781  0.85691662  0.59938377  1
  K  K20  1  0.85691662  0.64488781  0.09938377  1
  K  K21  1  0.14308338  0.35511219  0.59938377  1
  K  K22  1  0.39529134  0.12308316  0.44684606  1
  K  K23  1  0.60470866  0.87691684  0.94684606  1
  K  K24  1  0.87691684  0.60470866  0.44684606  1
  K  K25  1  0.12308316  0.39529134  0.94684606  1
  K  K26  1  0.42205324  0.57794676  0.28407995  1
  K  K27  1  0.57794676  0.42205324  0.78407995  1
  Th  Th28  1  0.83819767  0.16180233  0.25027151  1
  Th  Th29  1  0.16180233  0.83819767  0.75027151  1
