# generated using pymatgen
data_LiCu(PO3)4
_symmetry_space_group_name_H-M   'P 1'
_cell_length_a   8.03803175
_cell_length_b   8.03803174
_cell_length_c   7.81247988
_cell_angle_alpha   86.78809560
_cell_angle_beta   93.21190441
_cell_angle_gamma   71.20070085
_symmetry_Int_Tables_number   1
_chemical_formula_structural   LiCu(PO3)4
_chemical_formula_sum   'Li2 Cu2 P8 O24'
_cell_volume   475.61799203
_cell_formula_units_Z   2
loop_
 _symmetry_equiv_pos_site_id
 _symmetry_equiv_pos_as_xyz
  1  'x, y, z'
loop_
 _atom_site_type_symbol
 _atom_site_label
 _atom_site_symmetry_multiplicity
 _atom_site_fract_x
 _atom_site_fract_y
 _atom_site_fract_z
 _atom_site_occupancy
  Li  Li0  1  0.50817590  0.18468077  0.18373707  1
  Li  Li1  1  0.81531923  0.49182410  0.68373707  1
  O  O2  1  0.58714484  0.62081052  0.19818366  1
  O  O3  1  0.87278999  0.87146009  0.79470694  1
  O  O4  1  0.12853991  0.12721001  0.29470694  1
  O  O5  1  0.10448346  0.36814208  0.81265739  1
  O  O6  1  0.01059175  0.70329104  0.54234608  1
  O  O7  1  0.16869192  0.64875623  0.84639978  1
  O  O8  1  0.36050625  0.10315534  0.68170216  1
  O  O9  1  0.07107730  0.86312253  0.16193080  1
  O  O10  1  0.13687747  0.92892270  0.66193080  1
  O  O11  1  0.36039436  0.37813928  0.02688382  1
  O  O12  1  0.37918948  0.41285516  0.69818366  1
  O  O13  1  0.43742903  0.26780461  0.41505599  1
  O  O14  1  0.35124377  0.83130808  0.34639978  1
  O  O15  1  0.29670896  0.98940825  0.04234608  1
  O  O16  1  0.92713674  0.31580786  0.49878408  1
  O  O17  1  0.65242600  0.15467084  0.67209023  1
  O  O18  1  0.68419214  0.07286326  0.99878408  1
  O  O19  1  0.62186072  0.63960564  0.52688382  1
  O  O20  1  0.83628859  0.08120677  0.35209570  1
  O  O21  1  0.73219539  0.56257097  0.91505599  1
  O  O22  1  0.91879323  0.16371141  0.85209570  1
  O  O23  1  0.63185792  0.89551654  0.31265739  1
  O  O24  1  0.84532916  0.34757400  0.17209023  1
  O  O25  1  0.89684466  0.63949375  0.18170216  1
  P  P26  1  0.56085875  0.74191064  0.36005507  1
  P  P27  1  0.76746677  0.55334420  0.10328101  1
  P  P28  1  0.04837217  0.78891872  0.69616583  1
  P  P29  1  0.25808936  0.43914125  0.86005507  1
  P  P30  1  0.44665580  0.23253323  0.60328101  1
  P  P31  1  0.92986443  0.22064506  0.34121485  1
  P  P32  1  0.77935494  0.07013557  0.84121485  1
  P  P33  1  0.21108128  0.95162783  0.19616583  1
  Cu  Cu34  1  0.86442690  0.86407910  0.25908617  1
  Cu  Cu35  1  0.13592090  0.13557310  0.75908617  1
