# generated using pymatgen
data_TiBr4
_symmetry_space_group_name_H-M   'P 1'
_cell_length_a   7.44178431
_cell_length_b   11.21976925
_cell_length_c   11.21654911
_cell_angle_alpha   101.40233542
_cell_angle_beta   90.00000000
_cell_angle_gamma   90.00000000
_symmetry_Int_Tables_number   1
_chemical_formula_structural   TiBr4
_chemical_formula_sum   'Ti4 Br16'
_cell_volume   918.04279861
_cell_formula_units_Z   4
loop_
 _symmetry_equiv_pos_site_id
 _symmetry_equiv_pos_as_xyz
  1  'x, y, z'
loop_
 _atom_site_type_symbol
 _atom_site_label
 _atom_site_symmetry_multiplicity
 _atom_site_fract_x
 _atom_site_fract_y
 _atom_site_fract_z
 _atom_site_occupancy
  Ti  Ti0  1  0.42202242  0.74995261  0.63227169  1
  Ti  Ti1  1  0.92202242  0.25004739  0.86772831  1
  Ti  Ti2  1  0.57797758  0.25004739  0.36772831  1
  Ti  Ti3  1  0.07797758  0.74995261  0.13227169  1
  Br  Br4  1  0.42074357  0.91742061  0.79368953  1
  Br  Br5  1  0.92074357  0.08257939  0.70631047  1
  Br  Br6  1  0.57925643  0.08257939  0.20631047  1
  Br  Br7  1  0.07925643  0.91742061  0.29368953  1
  Br  Br8  1  0.12635901  0.69222537  0.57864694  1
  Br  Br9  1  0.62635901  0.30777463  0.92135306  1
  Br  Br10  1  0.87364099  0.30777463  0.42135306  1
  Br  Br11  1  0.37364099  0.69222537  0.07864694  1
  Br  Br12  1  0.57274564  0.58833566  0.69169413  1
  Br  Br13  1  0.07274564  0.41166434  0.80830587  1
  Br  Br14  1  0.42725436  0.41166434  0.30830587  1
  Br  Br15  1  0.92725436  0.58833566  0.19169413  1
  Br  Br16  1  0.56919558  0.80214454  0.46577356  1
  Br  Br17  1  0.06919558  0.19785546  0.03422644  1
  Br  Br18  1  0.43080442  0.19785546  0.53422644  1
  Br  Br19  1  0.93080442  0.80214454  0.96577356  1
