# generated using pymatgen
data_Bi2WO6
_symmetry_space_group_name_H-M   'P 1'
_cell_length_a   5.49103044
_cell_length_b   5.52309489
_cell_length_c   17.09647703
_cell_angle_alpha   90.00000000
_cell_angle_beta   90.00000000
_cell_angle_gamma   90.00000000
_symmetry_Int_Tables_number   1
_chemical_formula_structural   Bi2WO6
_chemical_formula_sum   'Bi8 W4 O24'
_cell_volume   518.49310219
_cell_formula_units_Z   4
loop_
 _symmetry_equiv_pos_site_id
 _symmetry_equiv_pos_as_xyz
  1  'x, y, z'
loop_
 _atom_site_type_symbol
 _atom_site_label
 _atom_site_symmetry_multiplicity
 _atom_site_fract_x
 _atom_site_fract_y
 _atom_site_fract_z
 _atom_site_occupancy
  O  O0  1  0.91760343  0.42897007  0.35709891  1
  O  O1  1  0.08239624  0.92896963  0.64290155  1
  O  O2  1  0.58239698  0.92896963  0.35709891  1
  O  O3  1  0.41760269  0.42897007  0.64290155  1
  O  O4  1  0.27120850  0.67314648  0.27012023  1
  O  O5  1  0.72879118  0.17314693  0.72988023  1
  O  O6  1  0.22879044  0.17314693  0.27012023  1
  O  O7  1  0.77120923  0.67314648  0.72988023  1
  O  O8  1  0.77741880  0.71921548  0.22924142  1
  O  O9  1  0.22258087  0.21921592  0.77075845  1
  O  O10  1  0.72258160  0.21921592  0.22924142  1
  O  O11  1  0.27741987  0.71921548  0.77075845  1
  O  O12  1  0.91994871  0.91566865  0.85786906  1
  O  O13  1  0.08005096  0.41566730  0.14213080  1
  O  O14  1  0.58005170  0.41566730  0.85786906  1
  O  O15  1  0.41994797  0.91566865  0.14213080  1
  O  O16  1  0.73878832  0.74351971  0.00063620  1
  O  O17  1  0.26121135  0.24352016  0.99936366  1
  O  O18  1  0.26097247  0.75914891  0.49924949  1
  O  O19  1  0.23878758  0.74351971  0.99936366  1
  O  O20  1  0.76097321  0.75914891  0.50075097  1
  O  O21  1  0.23902646  0.25914935  0.49924949  1
  O  O22  1  0.73902720  0.25914935  0.50075097  1
  O  O23  1  0.76121209  0.24352016  0.00063620  1
  W  W24  1  0.49757184  0.97292402  0.24964586  1
  W  W25  1  0.50242783  0.47292446  0.75035400  1
  W  W26  1  0.00242709  0.47292446  0.24964586  1
  W  W27  1  0.99757258  0.97292402  0.75035400  1
  Bi  Bi28  1  0.47516095  0.52000301  0.07557694  1
  Bi  Bi29  1  0.97515988  0.52000301  0.92442352  1
  Bi  Bi30  1  0.02483979  0.02000166  0.07557694  1
  Bi  Bi31  1  0.52483872  0.02000166  0.92442352  1
  Bi  Bi32  1  0.97525379  0.03590338  0.42444588  1
  Bi  Bi33  1  0.02474768  0.53590473  0.57555399  1
  Bi  Bi34  1  0.52474662  0.53590473  0.42444588  1
  Bi  Bi35  1  0.47525305  0.03590338  0.57555399  1
