# generated using pymatgen
data_U3(HO5)2
_symmetry_space_group_name_H-M   'P 1'
_cell_length_a   6.88737917
_cell_length_b   7.13224019
_cell_length_c   5.64767295
_cell_angle_alpha   107.59302003
_cell_angle_beta   125.06564134
_cell_angle_gamma   89.08684708
_symmetry_Int_Tables_number   1
_chemical_formula_structural   U3(HO5)2
_chemical_formula_sum   'U3 H2 O10'
_cell_volume   211.98375498
_cell_formula_units_Z   1
loop_
 _symmetry_equiv_pos_site_id
 _symmetry_equiv_pos_as_xyz
  1  'x, y, z'
loop_
 _atom_site_type_symbol
 _atom_site_label
 _atom_site_symmetry_multiplicity
 _atom_site_fract_x
 _atom_site_fract_y
 _atom_site_fract_z
 _atom_site_occupancy
  U  U0  1  0.00000000  0.00000000  0.00000000  1
  U  U1  1  0.55907257  0.74136663  0.02021564  1
  U  U2  1  0.44092743  0.25863337  0.97978436  1
  H  H3  1  0.22001111  0.58374644  0.33889101  1
  H  H4  1  0.77998889  0.41625356  0.66110899  1
  O  O5  1  0.92436680  0.75381669  0.01981557  1
  O  O6  1  0.07563320  0.24618331  0.98018443  1
  O  O7  1  0.67616593  0.45559005  0.01000963  1
  O  O8  1  0.32383407  0.54440995  0.98999037  1
  O  O9  1  0.31684151  0.95814305  0.00887253  1
  O  O10  1  0.68315849  0.04185695  0.99112747  1
  O  O11  1  0.22559055  0.14156435  0.52592397  1
  O  O12  1  0.77440945  0.85843565  0.47407603  1
  O  O13  1  0.35457760  0.65208454  0.55761184  1
  O  O14  1  0.64542240  0.34791546  0.44238816  1
