# generated using pymatgen
data_Zr2P2O9
_symmetry_space_group_name_H-M   'P 1'
_cell_length_a   5.54342314
_cell_length_b   5.54342315
_cell_length_c   12.03667364
_cell_angle_alpha   90.00000000
_cell_angle_beta   90.00000000
_cell_angle_gamma   105.04116934
_symmetry_Int_Tables_number   1
_chemical_formula_structural   Zr2P2O9
_chemical_formula_sum   'Zr4 P4 O18'
_cell_volume   357.20916188
_cell_formula_units_Z   2
loop_
 _symmetry_equiv_pos_site_id
 _symmetry_equiv_pos_as_xyz
  1  'x, y, z'
loop_
 _atom_site_type_symbol
 _atom_site_label
 _atom_site_symmetry_multiplicity
 _atom_site_fract_x
 _atom_site_fract_y
 _atom_site_fract_z
 _atom_site_occupancy
  O  O0  1  0.43723258  0.56276742  0.62360241  1
  O  O1  1  0.06276742  0.93723258  0.12360241  1
  O  O2  1  0.56276742  0.43723258  0.37639759  1
  O  O3  1  0.93723258  0.06276742  0.87639759  1
  O  O4  1  0.00000000  0.00000000  0.50000000  1
  O  O5  1  0.50000000  0.50000000  0.00000000  1
  O  O6  1  0.13875112  0.86124888  0.72934292  1
  O  O7  1  0.36124888  0.63875112  0.22934292  1
  O  O8  1  0.36500145  0.98447710  0.91515441  1
  O  O9  1  0.13499855  0.51552290  0.41515441  1
  O  O10  1  0.98447710  0.36500145  0.08484559  1
  O  O11  1  0.51552290  0.13499855  0.58484559  1
  O  O12  1  0.63499855  0.01552290  0.08484559  1
  O  O13  1  0.86500145  0.48447710  0.58484559  1
  O  O14  1  0.01552290  0.63499855  0.91515441  1
  O  O15  1  0.48447710  0.86500145  0.41515441  1
  O  O16  1  0.63875112  0.36124888  0.77065708  1
  O  O17  1  0.86124888  0.13875112  0.27065708  1
  P  P18  1  0.60674488  0.39325512  0.64661122  1
  P  P19  1  0.89325512  0.10674488  0.14661122  1
  P  P20  1  0.39325512  0.60674488  0.35338878  1
  P  P21  1  0.10674488  0.89325512  0.85338878  1
  Zr  Zr22  1  0.70610835  0.29389165  0.93696800  1
  Zr  Zr23  1  0.79389165  0.20610835  0.43696800  1
  Zr  Zr24  1  0.29389165  0.70610835  0.06303200  1
  Zr  Zr25  1  0.20610835  0.79389165  0.56303200  1
