# generated using pymatgen
data_WSCl4
_symmetry_space_group_name_H-M   'P 1'
_cell_length_a   6.96832880
_cell_length_b   8.38234530
_cell_length_c   8.67566406
_cell_angle_alpha   77.82210673
_cell_angle_beta   104.06693430
_cell_angle_gamma   93.30914569
_symmetry_Int_Tables_number   1
_chemical_formula_structural   WSCl4
_chemical_formula_sum   'W2 S2 Cl8'
_cell_volume   480.48491119
_cell_formula_units_Z   2
loop_
 _symmetry_equiv_pos_site_id
 _symmetry_equiv_pos_as_xyz
  1  'x, y, z'
loop_
 _atom_site_type_symbol
 _atom_site_label
 _atom_site_symmetry_multiplicity
 _atom_site_fract_x
 _atom_site_fract_y
 _atom_site_fract_z
 _atom_site_occupancy
  W  W0  1  0.14359214  0.23634633  0.21548500  1
  W  W1  1  0.85640786  0.76365367  0.78451500  1
  S  S2  1  0.29559626  0.01322401  0.28235344  1
  S  S3  1  0.70440374  0.98677599  0.71764656  1
  Cl  Cl4  1  0.85590113  0.67595614  0.05542907  1
  Cl  Cl5  1  0.14409887  0.32404386  0.94457093  1
  Cl  Cl6  1  0.61354609  0.57112829  0.73357837  1
  Cl  Cl7  1  0.38645391  0.42887171  0.26642163  1
  Cl  Cl8  1  0.93880293  0.73341934  0.55079457  1
  Cl  Cl9  1  0.06119707  0.26658066  0.44920543  1
  Cl  Cl10  1  0.18299747  0.83423591  0.87334783  1
  Cl  Cl11  1  0.81700253  0.16576409  0.12665217  1
