# generated using pymatgen
data_KMoPO6
_symmetry_space_group_name_H-M   'P 1'
_cell_length_a   8.49597489
_cell_length_b   8.49597489
_cell_length_c   9.67728878
_cell_angle_alpha   113.15725480
_cell_angle_beta   113.15725486
_cell_angle_gamma   95.97693343
_symmetry_Int_Tables_number   1
_chemical_formula_structural   KMoPO6
_chemical_formula_sum   'K4 Mo4 P4 O24'
_cell_volume   562.14745250
_cell_formula_units_Z   4
loop_
 _symmetry_equiv_pos_site_id
 _symmetry_equiv_pos_as_xyz
  1  'x, y, z'
loop_
 _atom_site_type_symbol
 _atom_site_label
 _atom_site_symmetry_multiplicity
 _atom_site_fract_x
 _atom_site_fract_y
 _atom_site_fract_z
 _atom_site_occupancy
  O  O0  1  0.03610179  0.90225331  0.09370798  1
  O  O1  1  0.80854532  0.44239381  0.40629202  1
  O  O2  1  0.09774669  0.96389821  0.40629202  1
  O  O3  1  0.55760619  0.19145468  0.09370798  1
  O  O4  1  0.96389821  0.09774669  0.90629202  1
  O  O5  1  0.19145468  0.55760619  0.59370798  1
  O  O6  1  0.90225331  0.03610179  0.59370798  1
  O  O7  1  0.44239381  0.80854532  0.90629202  1
  O  O8  1  0.96722708  0.60682531  0.14180690  1
  O  O9  1  0.46501841  0.32542018  0.35819310  1
  O  O10  1  0.39317469  0.03277292  0.35819310  1
  O  O11  1  0.67457982  0.53498159  0.14180690  1
  O  O12  1  0.68092452  0.60331239  0.91378936  1
  O  O13  1  0.68952302  0.26713516  0.58621064  1
  O  O14  1  0.39668761  0.31907548  0.58621064  1
  O  O15  1  0.73286484  0.31047698  0.91378936  1
  O  O16  1  0.31907548  0.39668761  0.08621064  1
  O  O17  1  0.31047698  0.73286484  0.41378936  1
  O  O18  1  0.60331239  0.68092452  0.41378936  1
  O  O19  1  0.26713516  0.68952302  0.08621064  1
  O  O20  1  0.32542018  0.46501841  0.85819310  1
  O  O21  1  0.60682531  0.96722708  0.64180690  1
  O  O22  1  0.53498159  0.67457982  0.64180690  1
  O  O23  1  0.03277292  0.39317469  0.85819310  1
  P  P24  1  0.49014381  0.24014381  0.48028761  1
  P  P25  1  0.75985619  0.50985619  0.01971239  1
  P  P26  1  0.50985619  0.75985619  0.51971239  1
  P  P27  1  0.24014381  0.49014381  0.98028761  1
  K  K28  1  0.09510876  0.34510876  0.25000000  1
  K  K29  1  0.65489124  0.90489124  0.25000000  1
  K  K30  1  0.90489124  0.65489124  0.75000000  1
  K  K31  1  0.34510876  0.09510876  0.75000000  1
  Mo  Mo32  1  0.15422884  0.84577116  0.25000000  1
  Mo  Mo33  1  0.59577116  0.40422884  0.25000000  1
  Mo  Mo34  1  0.84577116  0.15422884  0.75000000  1
  Mo  Mo35  1  0.40422884  0.59577116  0.75000000  1
