# generated using pymatgen
data_Ba(TeO3)2
_symmetry_space_group_name_H-M   'P 1'
_cell_length_a   5.66291862
_cell_length_b   7.15062761
_cell_length_c   7.46171565
_cell_angle_alpha   90.00000000
_cell_angle_beta   90.00000000
_cell_angle_gamma   113.32670495
_symmetry_Int_Tables_number   1
_chemical_formula_structural   Ba(TeO3)2
_chemical_formula_sum   'Ba2 Te4 O12'
_cell_volume   277.45320916
_cell_formula_units_Z   2
loop_
 _symmetry_equiv_pos_site_id
 _symmetry_equiv_pos_as_xyz
  1  'x, y, z'
loop_
 _atom_site_type_symbol
 _atom_site_label
 _atom_site_symmetry_multiplicity
 _atom_site_fract_x
 _atom_site_fract_y
 _atom_site_fract_z
 _atom_site_occupancy
  O  O0  1  0.65831515  0.78989234  0.04475430  1
  O  O1  1  0.86842281  0.21010766  0.95524570  1
  O  O2  1  0.34168485  0.21010766  0.54475430  1
  O  O3  1  0.13157719  0.78989234  0.45524570  1
  O  O4  1  0.34168485  0.21010766  0.95524570  1
  O  O5  1  0.13157719  0.78989234  0.04475430  1
  O  O6  1  0.95158378  0.90316757  0.75000000  1
  O  O7  1  0.04841622  0.09683243  0.25000000  1
  O  O8  1  0.72591063  0.45182126  0.75000000  1
  O  O9  1  0.27408937  0.54817874  0.25000000  1
  O  O10  1  0.86842281  0.21010766  0.54475430  1
  O  O11  1  0.65831515  0.78989234  0.45524570  1
  Te  Te12  1  0.00000000  0.00000000  0.00000000  1
  Te  Te13  1  0.00000000  0.00000000  0.50000000  1
  Te  Te14  1  0.41520895  0.83041790  0.25000000  1
  Te  Te15  1  0.58479105  0.16958210  0.75000000  1
  Ba  Ba16  1  0.27792308  0.55584616  0.75000000  1
  Ba  Ba17  1  0.72207692  0.44415384  0.25000000  1
