# generated using pymatgen
data_Cu5(PO5)2
_symmetry_space_group_name_H-M   'P 1'
_cell_length_a   5.34238652
_cell_length_b   5.36416275
_cell_length_c   7.72993994
_cell_angle_alpha   82.34867818
_cell_angle_beta   89.19620693
_cell_angle_gamma   67.56821826
_symmetry_Int_Tables_number   1
_chemical_formula_structural   Cu5(PO5)2
_chemical_formula_sum   'Cu5 P2 O10'
_cell_volume   202.77215444
_cell_formula_units_Z   1
loop_
 _symmetry_equiv_pos_site_id
 _symmetry_equiv_pos_as_xyz
  1  'x, y, z'
loop_
 _atom_site_type_symbol
 _atom_site_label
 _atom_site_symmetry_multiplicity
 _atom_site_fract_x
 _atom_site_fract_y
 _atom_site_fract_z
 _atom_site_occupancy
  O  O0  1  0.04653051  0.68194312  0.88477508  1
  O  O1  1  0.95346949  0.31805688  0.11522492  1
  O  O2  1  0.50749912  0.10283922  0.23655101  1
  O  O3  1  0.49250088  0.89716078  0.76344899  1
  O  O4  1  0.37433793  0.75068808  0.11320190  1
  O  O5  1  0.62566207  0.24931192  0.88679810  1
  O  O6  1  0.69345686  0.62012367  0.38544001  1
  O  O7  1  0.80938029  0.09842261  0.60089491  1
  O  O8  1  0.19061971  0.90157739  0.39910509  1
  O  O9  1  0.30654314  0.37987633  0.61455999  1
  P  P10  1  0.44825096  0.84229630  0.28660077  1
  P  P11  1  0.55174904  0.15770370  0.71339923  1
  Cu  Cu12  1  0.71460251  0.62260783  0.94818716  1
  Cu  Cu13  1  0.28539749  0.37739217  0.05181284  1
  Cu  Cu14  1  0.11579533  0.74956429  0.63880283  1
  Cu  Cu15  1  0.88420467  0.25043571  0.36119717  1
  Cu  Cu16  1  0.00000000  0.00000000  0.00000000  1
