# generated using pymatgen
data_Sb4F15
_symmetry_space_group_name_H-M   'P 1'
_cell_length_a   11.18202810
_cell_length_b   11.41240123
_cell_length_c   19.65754346
_cell_angle_alpha   90.00000000
_cell_angle_beta   90.00000000
_cell_angle_gamma   90.00000000
_symmetry_Int_Tables_number   1
_chemical_formula_structural   Sb4F15
_chemical_formula_sum   'Sb32 F120'
_cell_volume   2508.57364744
_cell_formula_units_Z   8
loop_
 _symmetry_equiv_pos_site_id
 _symmetry_equiv_pos_as_xyz
  1  'x, y, z'
loop_
 _atom_site_type_symbol
 _atom_site_label
 _atom_site_symmetry_multiplicity
 _atom_site_fract_x
 _atom_site_fract_y
 _atom_site_fract_z
 _atom_site_occupancy
  F  F0  1  0.73340131  0.24466823  0.06014372  1
  F  F1  1  0.26659869  0.75533177  0.56014372  1
  F  F2  1  0.26659869  0.74466823  0.06014372  1
  F  F3  1  0.73340131  0.25533177  0.56014372  1
  F  F4  1  0.75878026  0.04616100  0.13052410  1
  F  F5  1  0.24121974  0.95383900  0.63052410  1
  F  F6  1  0.24121974  0.54616100  0.13052410  1
  F  F7  1  0.75878026  0.45383900  0.63052410  1
  F  F8  1  0.75600158  0.04809746  0.98207749  1
  F  F9  1  0.24399842  0.95190254  0.48207749  1
  F  F10  1  0.24399842  0.54809746  0.98207749  1
  F  F11  1  0.75600158  0.45190254  0.48207749  1
  F  F12  1  0.81856160  0.91094315  0.86631446  1
  F  F13  1  0.18143840  0.08905685  0.36631446  1
  F  F14  1  0.18143840  0.41094315  0.86631446  1
  F  F15  1  0.81856160  0.58905685  0.36631446  1
  F  F16  1  0.00926593  0.98105223  0.94885801  1
  F  F17  1  0.99073407  0.01894777  0.44885801  1
  F  F18  1  0.99073407  0.48105223  0.94885801  1
  F  F19  1  0.00926593  0.51894777  0.44885801  1
  F  F20  1  0.01393953  0.99103925  0.80964962  1
  F  F21  1  0.98606047  0.00896075  0.30964962  1
  F  F22  1  0.98606047  0.49103925  0.80964962  1
  F  F23  1  0.01393953  0.50896075  0.30964962  1
  F  F24  1  0.80054130  0.92136518  0.24727821  1
  F  F25  1  0.19945870  0.07863482  0.74727821  1
  F  F26  1  0.19945870  0.42136518  0.24727821  1
  F  F27  1  0.80054130  0.57863482  0.74727821  1
  F  F28  1  0.99565558  0.98320450  0.16704852  1
  F  F29  1  0.00434442  0.01679550  0.66704852  1
  F  F30  1  0.00434442  0.48320450  0.16704852  1
  F  F31  1  0.99565558  0.51679550  0.66704852  1
  F  F32  1  0.93131973  0.22856650  0.98286473  1
  F  F33  1  0.06868027  0.77143350  0.48286473  1
  F  F34  1  0.06868027  0.72856650  0.98286473  1
  F  F35  1  0.93131973  0.27143350  0.48286473  1
  F  F36  1  0.93693663  0.22789623  0.12839510  1
  F  F37  1  0.06306337  0.77210377  0.62839510  1
  F  F38  1  0.06306337  0.72789623  0.12839510  1
  F  F39  1  0.93693663  0.27210377  0.62839510  1
  F  F40  1  0.08608316  0.18527961  0.86972323  1
  F  F41  1  0.91391684  0.81472039  0.36972323  1
  F  F42  1  0.91391684  0.68527961  0.86972323  1
  F  F43  1  0.08608316  0.31472039  0.36972323  1
  F  F44  1  0.08069482  0.29955119  0.75200662  1
  F  F45  1  0.91930518  0.70044881  0.25200662  1
  F  F46  1  0.91930518  0.79955119  0.75200662  1
  F  F47  1  0.08069482  0.20044881  0.25200662  1
  F  F48  1  0.27541833  0.24827999  0.96037925  1
  F  F49  1  0.72458167  0.75172001  0.46037925  1
  F  F50  1  0.72458167  0.74827999  0.96037925  1
  F  F51  1  0.27541833  0.25172001  0.46037925  1
  F  F52  1  0.25298336  0.25169684  0.15290837  1
  F  F53  1  0.74701664  0.74830316  0.65290837  1
  F  F54  1  0.74701664  0.75169684  0.15290837  1
  F  F55  1  0.25298336  0.24830316  0.65290837  1
  F  F56  1  0.12081388  0.34719551  0.05161007  1
  F  F57  1  0.87918612  0.65280449  0.55161007  1
  F  F58  1  0.87918612  0.84719551  0.05161007  1
  F  F59  1  0.12081388  0.15280449  0.55161007  1
  F  F60  1  0.36083382  0.38357316  0.05984944  1
  F  F61  1  0.63916618  0.61642684  0.55984944  1
  F  F62  1  0.63916618  0.88357316  0.05984944  1
  F  F63  1  0.36083382  0.11642684  0.55984944  1
  F  F64  1  0.15242778  0.11207355  0.05285481  1
  F  F65  1  0.84757222  0.88792645  0.55285481  1
  F  F66  1  0.84757222  0.61207355  0.05285481  1
  F  F67  1  0.15242778  0.38792645  0.55285481  1
  F  F68  1  0.40008291  0.14956247  0.06315981  1
  F  F69  1  0.59991709  0.85043753  0.56315981  1
  F  F70  1  0.59991709  0.64956247  0.06315981  1
  F  F71  1  0.40008291  0.35043753  0.56315981  1
  F  F72  1  0.49911330  0.13355743  0.33929433  1
  F  F73  1  0.50088670  0.86644257  0.83929433  1
  F  F74  1  0.50088670  0.63355743  0.33929433  1
  F  F75  1  0.49911330  0.36644257  0.83929433  1
  F  F76  1  0.66034102  0.95258392  0.36523643  1
  F  F77  1  0.33965898  0.04741608  0.86523643  1
  F  F78  1  0.33965898  0.45258392  0.36523643  1
  F  F79  1  0.66034102  0.54741608  0.86523643  1
  F  F80  1  0.50195005  0.01975139  0.46145303  1
  F  F81  1  0.49804995  0.98024861  0.96145303  1
  F  F82  1  0.49804995  0.51975139  0.46145303  1
  F  F83  1  0.50195005  0.48024861  0.96145303  1
  F  F84  1  0.58304030  0.24634645  0.45044616  1
  F  F85  1  0.41695970  0.75365355  0.95044616  1
  F  F86  1  0.41695970  0.74634645  0.45044616  1
  F  F87  1  0.58304030  0.25365355  0.95044616  1
  F  F88  1  0.74119430  0.17266471  0.35150181  1
  F  F89  1  0.25880570  0.82733529  0.85150181  1
  F  F90  1  0.25880570  0.67266471  0.35150181  1
  F  F91  1  0.74119430  0.32733529  0.85150181  1
  F  F92  1  0.73755911  0.07070931  0.47495202  1
  F  F93  1  0.26244089  0.92929069  0.97495202  1
  F  F94  1  0.26244089  0.57070931  0.47495202  1
  F  F95  1  0.73755911  0.42929069  0.97495202  1
  F  F96  1  0.68528886  0.92425305  0.74613741  1
  F  F97  1  0.31471114  0.07574695  0.24613741  1
  F  F98  1  0.31471114  0.42425305  0.74613741  1
  F  F99  1  0.68528886  0.57574695  0.24613741  1
  F  F100  1  0.56509731  0.11010039  0.80346066  1
  F  F101  1  0.43490269  0.88989961  0.30346066  1
  F  F102  1  0.43490269  0.61010039  0.80346066  1
  F  F103  1  0.56509731  0.38989961  0.30346066  1
  F  F104  1  0.74172053  0.06003152  0.63930966  1
  F  F105  1  0.25827947  0.93996848  0.13930966  1
  F  F106  1  0.25827947  0.56003152  0.63930966  1
  F  F107  1  0.74172053  0.43996848  0.13930966  1
  F  F108  1  0.50839786  0.03240058  0.67446602  1
  F  F109  1  0.49160214  0.96759942  0.17446602  1
  F  F110  1  0.49160214  0.53240058  0.67446602  1
  F  F111  1  0.50839786  0.46759942  0.17446602  1
  F  F112  1  0.62386238  0.24437284  0.69304998  1
  F  F113  1  0.37613762  0.75562716  0.19304998  1
  F  F114  1  0.37613762  0.74437284  0.69304998  1
  F  F115  1  0.62386238  0.25562716  0.19304998  1
  F  F116  1  0.79720831  0.12973375  0.76525693  1
  F  F117  1  0.20279169  0.87026625  0.26525693  1
  F  F118  1  0.20279169  0.62973375  0.76525693  1
  F  F119  1  0.79720831  0.37026625  0.26525693  1
  Sb  Sb120  1  0.64032888  0.08368436  0.05391666  1
  Sb  Sb121  1  0.35967112  0.91631564  0.55391666  1
  Sb  Sb122  1  0.35967112  0.58368436  0.05391666  1
  Sb  Sb123  1  0.64032888  0.41631564  0.55391666  1
  Sb  Sb124  1  0.91497094  0.07091860  0.88556899  1
  Sb  Sb125  1  0.08502906  0.92908140  0.38556899  1
  Sb  Sb126  1  0.08502906  0.57091860  0.88556899  1
  Sb  Sb127  1  0.91497094  0.42908140  0.38556899  1
  Sb  Sb128  1  0.88422789  0.07190723  0.22063133  1
  Sb  Sb129  1  0.11577211  0.92809277  0.72063133  1
  Sb  Sb130  1  0.11577211  0.57190723  0.22063133  1
  Sb  Sb131  1  0.88422789  0.42809277  0.72063133  1
  Sb  Sb132  1  0.89585141  0.34236412  0.05597608  1
  Sb  Sb133  1  0.10414859  0.65763588  0.55597608  1
  Sb  Sb134  1  0.10414859  0.84236412  0.05597608  1
  Sb  Sb135  1  0.89585141  0.15763588  0.55597608  1
  Sb  Sb136  1  0.21507998  0.25477657  0.80957538  1
  Sb  Sb137  1  0.78492002  0.74522343  0.30957538  1
  Sb  Sb138  1  0.78492002  0.75477657  0.80957538  1
  Sb  Sb139  1  0.21507998  0.24522343  0.30957538  1
  Sb  Sb140  1  0.25781855  0.24182408  0.05667476  1
  Sb  Sb141  1  0.74218145  0.75817592  0.55667476  1
  Sb  Sb142  1  0.74218145  0.74182408  0.05667476  1
  Sb  Sb143  1  0.25781855  0.25817592  0.55667476  1
  Sb  Sb144  1  0.61798165  0.09992486  0.40534194  1
  Sb  Sb145  1  0.38201835  0.90007514  0.90534194  1
  Sb  Sb146  1  0.38201835  0.59992486  0.40534194  1
  Sb  Sb147  1  0.61798165  0.40007514  0.90534194  1
  Sb  Sb148  1  0.64857099  0.08519368  0.72100492  1
  Sb  Sb149  1  0.35142901  0.91480632  0.22100492  1
  Sb  Sb150  1  0.35142901  0.58519368  0.72100492  1
  Sb  Sb151  1  0.64857099  0.41480632  0.22100492  1
