# generated using pymatgen
data_BF3
_symmetry_space_group_name_H-M   'P 1'
_cell_length_a   4.81414481
_cell_length_b   7.51828913
_cell_length_c   14.31127118
_cell_angle_alpha   87.10251588
_cell_angle_beta   89.16342402
_cell_angle_gamma   72.71976622
_symmetry_Int_Tables_number   1
_chemical_formula_structural   BF3
_chemical_formula_sum   'B8 F24'
_cell_volume   493.97161408
_cell_formula_units_Z   8
loop_
 _symmetry_equiv_pos_site_id
 _symmetry_equiv_pos_as_xyz
  1  'x, y, z'
loop_
 _atom_site_type_symbol
 _atom_site_label
 _atom_site_symmetry_multiplicity
 _atom_site_fract_x
 _atom_site_fract_y
 _atom_site_fract_z
 _atom_site_occupancy
  B  B0  1  0.13547533  0.23878485  0.63591308  1
  B  B1  1  0.86452467  0.76121515  0.36408692  1
  B  B2  1  0.52009689  0.72571382  0.61651766  1
  B  B3  1  0.47990311  0.27428618  0.38348234  1
  B  B4  1  0.13972354  0.73440011  0.86502100  1
  B  B5  1  0.86027646  0.26559989  0.13497900  1
  B  B6  1  0.47452344  0.77880473  0.11618590  1
  B  B7  1  0.52547656  0.22119527  0.88381410  1
  F  F8  1  0.22928350  0.29557179  0.55520427  1
  F  F9  1  0.77071650  0.70442821  0.44479573  1
  F  F10  1  0.92642618  0.15740113  0.63732275  1
  F  F11  1  0.07357382  0.84259887  0.36267725  1
  F  F12  1  0.25347084  0.26545084  0.71562833  1
  F  F13  1  0.74652916  0.73454916  0.28437167  1
  F  F14  1  0.28750419  0.69984909  0.57812645  1
  F  F15  1  0.71249581  0.30015091  0.42187355  1
  F  F16  1  0.73316156  0.58046242  0.65015399  1
  F  F17  1  0.26683844  0.41953758  0.34984601  1
  F  F18  1  0.54255950  0.89715514  0.62235113  1
  F  F19  1  0.45744050  0.10284486  0.37764887  1
  F  F20  1  0.92988709  0.65384380  0.86445767  1
  F  F21  1  0.07011291  0.34615620  0.13554233  1
  F  F22  1  0.24972506  0.78119233  0.78474753  1
  F  F23  1  0.75027494  0.21880767  0.21525247  1
  F  F24  1  0.24213940  0.77065756  0.94539699  1
  F  F25  1  0.75786060  0.22934244  0.05460301  1
  F  F26  1  0.46074384  0.60588294  0.13333370  1
  F  F27  1  0.53925616  0.39411706  0.86666630  1
  F  F28  1  0.70397528  0.80815392  0.07361040  1
  F  F29  1  0.29602472  0.19184608  0.92638960  1
  F  F30  1  0.25554423  0.92201459  0.14272605  1
  F  F31  1  0.74445577  0.07798541  0.85727395  1
