# generated using pymatgen
data_Na4Br2O
_symmetry_space_group_name_H-M   'P 1'
_cell_length_a   4.56260056
_cell_length_b   4.56260056
_cell_length_c   8.20524760
_cell_angle_alpha   106.14262986
_cell_angle_beta   106.14262991
_cell_angle_gamma   89.99999999
_symmetry_Int_Tables_number   1
_chemical_formula_structural   Na4Br2O
_chemical_formula_sum   'Na4 Br2 O1'
_cell_volume   157.05346614
_cell_formula_units_Z   1
loop_
 _symmetry_equiv_pos_site_id
 _symmetry_equiv_pos_as_xyz
  1  'x, y, z'
loop_
 _atom_site_type_symbol
 _atom_site_label
 _atom_site_symmetry_multiplicity
 _atom_site_fract_x
 _atom_site_fract_y
 _atom_site_fract_z
 _atom_site_occupancy
  O  O0  1  0.00000000  0.00000000  0.00000000  1
  Na  Na1  1  0.15204491  0.15204491  0.30408982  1
  Na  Na2  1  0.00000000  0.50000000  0.00000000  1
  Na  Na3  1  0.84795509  0.84795509  0.69591018  1
  Na  Na4  1  0.50000000  0.00000000  0.00000000  1
  Br  Br5  1  0.34857213  0.34857213  0.69714427  1
  Br  Br6  1  0.65142787  0.65142787  0.30285573  1
