# generated using pymatgen
data_TiPCl9
_symmetry_space_group_name_H-M   'P 1'
_cell_length_a   7.27727148
_cell_length_b   9.25107430
_cell_length_c   9.86307457
_cell_angle_alpha   101.35200293
_cell_angle_beta   97.11138144
_cell_angle_gamma   95.33356236
_symmetry_Int_Tables_number   1
_chemical_formula_structural   TiPCl9
_chemical_formula_sum   'Ti2 P2 Cl18'
_cell_volume   641.29484534
_cell_formula_units_Z   2
loop_
 _symmetry_equiv_pos_site_id
 _symmetry_equiv_pos_as_xyz
  1  'x, y, z'
loop_
 _atom_site_type_symbol
 _atom_site_label
 _atom_site_symmetry_multiplicity
 _atom_site_fract_x
 _atom_site_fract_y
 _atom_site_fract_z
 _atom_site_occupancy
  P  P0  1  0.05202606  0.19571767  0.77689212  1
  P  P1  1  0.94797394  0.80428233  0.22310788  1
  Cl  Cl2  1  0.92110656  0.71149423  0.75008473  1
  Cl  Cl3  1  0.83713172  0.60955285  0.11497613  1
  Cl  Cl4  1  0.37476405  0.57113525  0.22371796  1
  Cl  Cl5  1  0.62523595  0.42886475  0.77628204  1
  Cl  Cl6  1  0.41970259  0.17086999  0.43939541  1
  Cl  Cl7  1  0.58029741  0.82913001  0.56060459  1
  Cl  Cl8  1  0.07889344  0.28850577  0.24991527  1
  Cl  Cl9  1  0.48222859  0.75855536  0.85881808  1
  Cl  Cl10  1  0.51777141  0.24144464  0.14118192  1
  Cl  Cl11  1  0.30017902  0.51639292  0.54517553  1
  Cl  Cl12  1  0.14327393  0.88471821  0.12877158  1
  Cl  Cl13  1  0.69982098  0.48360708  0.45482447  1
  Cl  Cl14  1  0.94366127  0.21054196  0.58987024  1
  Cl  Cl15  1  0.05633873  0.78945804  0.41012976  1
  Cl  Cl16  1  0.24536167  0.06113004  0.76422303  1
  Cl  Cl17  1  0.75463833  0.93886996  0.23577697  1
  Cl  Cl18  1  0.85672607  0.11528179  0.87122842  1
  Cl  Cl19  1  0.16286828  0.39044715  0.88502387  1
  Ti  Ti20  1  0.38812802  0.36400376  0.32452805  1
  Ti  Ti21  1  0.61187198  0.63599624  0.67547195  1
