# generated using pymatgen
data_Rb3Ge2Br7
_symmetry_space_group_name_H-M   'P 1'
_cell_length_a   10.41361593
_cell_length_b   13.03604796
_cell_length_c   13.50915146
_cell_angle_alpha   90.00000000
_cell_angle_beta   101.95312610
_cell_angle_gamma   90.00000000
_symmetry_Int_Tables_number   1
_chemical_formula_structural   Rb3Ge2Br7
_chemical_formula_sum   'Rb12 Ge8 Br28'
_cell_volume   1794.13591246
_cell_formula_units_Z   4
loop_
 _symmetry_equiv_pos_site_id
 _symmetry_equiv_pos_as_xyz
  1  'x, y, z'
loop_
 _atom_site_type_symbol
 _atom_site_label
 _atom_site_symmetry_multiplicity
 _atom_site_fract_x
 _atom_site_fract_y
 _atom_site_fract_z
 _atom_site_occupancy
  Ge  Ge0  1  0.64406433  0.04935129  0.43116641  1
  Ge  Ge1  1  0.35593567  0.54935129  0.06883359  1
  Ge  Ge2  1  0.35593567  0.95064871  0.56883359  1
  Ge  Ge3  1  0.64406433  0.45064871  0.93116641  1
  Ge  Ge4  1  0.18506432  0.01045396  0.14493791  1
  Ge  Ge5  1  0.81493568  0.51045396  0.35506209  1
  Ge  Ge6  1  0.81493568  0.98954604  0.85506209  1
  Ge  Ge7  1  0.18506432  0.48954604  0.64493791  1
  Br  Br8  1  0.16543811  0.44051494  0.45861445  1
  Br  Br9  1  0.72206854  0.22564916  0.88665229  1
  Br  Br10  1  0.27793146  0.72564916  0.61334771  1
  Br  Br11  1  0.27793146  0.77435084  0.11334771  1
  Br  Br12  1  0.72206854  0.27435084  0.38665229  1
  Br  Br13  1  0.08904763  0.31599960  0.69898422  1
  Br  Br14  1  0.91095237  0.81599960  0.80101578  1
  Br  Br15  1  0.91095237  0.68400040  0.30101578  1
  Br  Br16  1  0.08904763  0.18400040  0.19898422  1
  Br  Br17  1  0.81529177  0.99508503  0.32745321  1
  Br  Br18  1  0.83456189  0.94051494  0.04138555  1
  Br  Br19  1  0.83456189  0.55948506  0.54138555  1
  Br  Br20  1  0.19082319  0.94062050  0.40044176  1
  Br  Br21  1  0.80917681  0.44062050  0.09955824  1
  Br  Br22  1  0.80917681  0.05937950  0.59955824  1
  Br  Br23  1  0.19082319  0.55937950  0.90044176  1
  Br  Br24  1  0.58510272  0.84955959  0.45768371  1
  Br  Br25  1  0.18470823  0.49508503  0.17254679  1
  Br  Br26  1  0.18470823  0.00491497  0.67254679  1
  Br  Br27  1  0.81529177  0.50491497  0.82745321  1
  Br  Br28  1  0.42873540  0.44054416  0.69843266  1
  Br  Br29  1  0.41489728  0.34955959  0.04231629  1
  Br  Br30  1  0.41489728  0.15044041  0.54231629  1
  Br  Br31  1  0.58510272  0.65044041  0.95768371  1
  Br  Br32  1  0.42873540  0.05945584  0.19843266  1
  Br  Br33  1  0.57126460  0.55945584  0.30156734  1
  Br  Br34  1  0.57126460  0.94054416  0.80156734  1
  Br  Br35  1  0.16543811  0.05948506  0.95861445  1
  Rb  Rb36  1  0.04948207  0.17727609  0.46649018  1
  Rb  Rb37  1  0.38819138  0.30729034  0.30821393  1
  Rb  Rb38  1  0.61180862  0.80729034  0.19178607  1
  Rb  Rb39  1  0.61180862  0.69270966  0.69178607  1
  Rb  Rb40  1  0.38819138  0.19270966  0.80821393  1
  Rb  Rb41  1  0.72518670  0.18455521  0.14011685  1
  Rb  Rb42  1  0.27481330  0.68455521  0.35988315  1
  Rb  Rb43  1  0.27481330  0.81544479  0.85988315  1
  Rb  Rb44  1  0.72518670  0.31544479  0.64011685  1
  Rb  Rb45  1  0.04948207  0.32272391  0.96649018  1
  Rb  Rb46  1  0.95051793  0.82272391  0.53350982  1
  Rb  Rb47  1  0.95051793  0.67727609  0.03350982  1
