# generated using pymatgen
data_NaSb5O8
_symmetry_space_group_name_H-M   'P 1'
_cell_length_a   7.37573667
_cell_length_b   7.53648684
_cell_length_c   9.83893841
_cell_angle_alpha   74.64383583
_cell_angle_beta   73.93193890
_cell_angle_gamma   86.36077497
_symmetry_Int_Tables_number   1
_chemical_formula_structural   NaSb5O8
_chemical_formula_sum   'Na2 Sb10 O16'
_cell_volume   506.76074104
_cell_formula_units_Z   2
loop_
 _symmetry_equiv_pos_site_id
 _symmetry_equiv_pos_as_xyz
  1  'x, y, z'
loop_
 _atom_site_type_symbol
 _atom_site_label
 _atom_site_symmetry_multiplicity
 _atom_site_fract_x
 _atom_site_fract_y
 _atom_site_fract_z
 _atom_site_occupancy
  O  O0  1  0.93909346  0.50987373  0.23049037  1
  O  O1  1  0.06090654  0.49012627  0.76950963  1
  O  O2  1  0.17767383  0.54253559  0.42604667  1
  O  O3  1  0.82232617  0.45746441  0.57395333  1
  O  O4  1  0.19078011  0.80310663  0.16114527  1
  O  O5  1  0.80921989  0.19689337  0.83885473  1
  O  O6  1  0.14586477  0.18913168  0.19574692  1
  O  O7  1  0.85413523  0.81086832  0.80425308  1
  O  O8  1  0.46001763  0.44553521  0.18210999  1
  O  O9  1  0.53998237  0.55446479  0.81789001  1
  O  O10  1  0.54856090  0.35803515  0.44175697  1
  O  O11  1  0.45143910  0.64196485  0.55824303  1
  O  O12  1  0.24715112  0.81581146  0.79805471  1
  O  O13  1  0.75284888  0.18418854  0.20194529  1
  O  O14  1  0.50611948  0.89773571  0.91612318  1
  O  O15  1  0.49388052  0.10226429  0.08387682  1
  Na  Na16  1  0.74413661  0.43904315  0.96725630  1
  Na  Na17  1  0.25586339  0.56095685  0.03274370  1
  Sb  Sb18  1  0.46343192  0.17892329  0.27747395  1
  Sb  Sb19  1  0.53656808  0.82107671  0.72252605  1
  Sb  Sb20  1  0.25695772  0.05485225  0.03024233  1
  Sb  Sb21  1  0.74304228  0.94514775  0.96975767  1
  Sb  Sb22  1  0.46255401  0.59884792  0.33435014  1
  Sb  Sb23  1  0.53744599  0.40115208  0.66564986  1
  Sb  Sb24  1  0.89796847  0.23807166  0.32904617  1
  Sb  Sb25  1  0.10203153  0.76192834  0.67095383  1
  Sb  Sb26  1  0.02177156  0.31126533  0.66134118  1
  Sb  Sb27  1  0.97822844  0.68873467  0.33865882  1
