# generated using pymatgen
data_KMnBr3
_symmetry_space_group_name_H-M   'P 1'
_cell_length_a   4.09905193
_cell_length_b   9.46228540
_cell_length_c   15.44821262
_cell_angle_alpha   90.00000000
_cell_angle_beta   90.00000000
_cell_angle_gamma   90.00000000
_symmetry_Int_Tables_number   1
_chemical_formula_structural   KMnBr3
_chemical_formula_sum   'K4 Mn4 Br12'
_cell_volume   599.18054209
_cell_formula_units_Z   4
loop_
 _symmetry_equiv_pos_site_id
 _symmetry_equiv_pos_as_xyz
  1  'x, y, z'
loop_
 _atom_site_type_symbol
 _atom_site_label
 _atom_site_symmetry_multiplicity
 _atom_site_fract_x
 _atom_site_fract_y
 _atom_site_fract_z
 _atom_site_occupancy
  K  K0  1  0.75000000  0.56872270  0.17700401  1
  K  K1  1  0.25000000  0.43127730  0.82299599  1
  K  K2  1  0.75000000  0.06872270  0.32299599  1
  K  K3  1  0.25000000  0.93127730  0.67700401  1
  Mn  Mn4  1  0.25000000  0.16530472  0.05361473  1
  Mn  Mn5  1  0.75000000  0.83469528  0.94638527  1
  Mn  Mn6  1  0.25000000  0.66530472  0.44638527  1
  Mn  Mn7  1  0.75000000  0.33469528  0.55361473  1
  Br  Br8  1  0.25000000  0.28294737  0.20432807  1
  Br  Br9  1  0.75000000  0.71705263  0.79567193  1
  Br  Br10  1  0.25000000  0.78294737  0.29567193  1
  Br  Br11  1  0.75000000  0.21705263  0.70432807  1
  Br  Br12  1  0.75000000  0.32616453  0.99191472  1
  Br  Br13  1  0.25000000  0.67383547  0.00808528  1
  Br  Br14  1  0.75000000  0.82616453  0.50808528  1
  Br  Br15  1  0.25000000  0.17383547  0.49191472  1
  Br  Br16  1  0.25000000  0.01897219  0.90044730  1
  Br  Br17  1  0.75000000  0.98102781  0.09955270  1
  Br  Br18  1  0.25000000  0.51897219  0.59955270  1
  Br  Br19  1  0.75000000  0.48102781  0.40044730  1
