# generated using pymatgen
data_LaAs2
_symmetry_space_group_name_H-M   'P 1'
_cell_length_a   9.14267331
_cell_length_b   9.18703608
_cell_length_c   9.75411191
_cell_angle_alpha   118.07077082
_cell_angle_beta   117.92309186
_cell_angle_gamma   90.04519034
_symmetry_Int_Tables_number   1
_chemical_formula_structural   LaAs2
_chemical_formula_sum   'La8 As16'
_cell_volume   612.51354696
_cell_formula_units_Z   8
loop_
 _symmetry_equiv_pos_site_id
 _symmetry_equiv_pos_as_xyz
  1  'x, y, z'
loop_
 _atom_site_type_symbol
 _atom_site_label
 _atom_site_symmetry_multiplicity
 _atom_site_fract_x
 _atom_site_fract_y
 _atom_site_fract_z
 _atom_site_occupancy
  As  As0  1  0.11442687  0.65341375  0.25210817  1
  As  As1  1  0.36231871  0.40130558  0.74789183  1
  As  As2  1  0.86017527  0.53493791  0.24802308  1
  As  As3  1  0.11215219  0.28691483  0.75197692  1
  As  As4  1  0.05420157  0.91999449  0.25542721  1
  As  As5  1  0.29877436  0.66456729  0.74457279  1
  As  As6  1  0.74141510  0.45090733  0.49788685  1
  As  As7  1  0.74352825  0.95302048  0.50211315  1
  As  As8  1  0.87355298  0.87273100  0.74524836  1
  As  As9  1  0.62830462  0.12748265  0.25475164  1
  As  As10  1  0.74809516  0.99763342  0.95432034  1
  As  As11  1  0.29377482  0.04331308  0.04567966  1
  As  As12  1  0.45749442  0.73084992  0.25416912  1
  As  As13  1  0.70332531  0.47668080  0.74583088  1
  As  As14  1  0.50417501  0.07154240  0.76181691  1
  As  As15  1  0.24235810  0.30972549  0.23818309  1
  La  La16  1  0.11843893  0.90164393  0.60320245  1
  La  La17  1  0.01523647  0.29844147  0.39679755  1
  La  La18  1  0.49344503  0.67336697  0.55965435  1
  La  La19  1  0.43379068  0.11371262  0.44034565  1
  La  La20  1  0.47314946  0.35510540  0.08351286  1
  La  La21  1  0.88963660  0.27159254  0.91648714  1
  La  La22  1  0.09149014  0.66707341  0.91791018  1
  La  La23  1  0.67357997  0.74916323  0.08208982  1
