# generated using pymatgen
data_Na7Au5S6
_symmetry_space_group_name_H-M   'P 1'
_cell_length_a   7.14545873
_cell_length_b   10.62679104
_cell_length_c   22.67033618
_cell_angle_alpha   90.00000000
_cell_angle_beta   90.00000000
_cell_angle_gamma   90.00000000
_symmetry_Int_Tables_number   1
_chemical_formula_structural   Na7Au5S6
_chemical_formula_sum   'Na28 Au20 S24'
_cell_volume   1721.43336591
_cell_formula_units_Z   4
loop_
 _symmetry_equiv_pos_site_id
 _symmetry_equiv_pos_as_xyz
  1  'x, y, z'
loop_
 _atom_site_type_symbol
 _atom_site_label
 _atom_site_symmetry_multiplicity
 _atom_site_fract_x
 _atom_site_fract_y
 _atom_site_fract_z
 _atom_site_occupancy
  Na  Na0  1  0.00154076  0.00000000  0.75000000  1
  Na  Na1  1  0.49845924  0.50000000  0.25000000  1
  Na  Na2  1  0.99845924  0.00000000  0.25000000  1
  Na  Na3  1  0.50154076  0.50000000  0.75000000  1
  Na  Na4  1  0.49676077  0.73956743  0.40915968  1
  Na  Na5  1  0.49676077  0.26043257  0.09084032  1
  Na  Na6  1  0.00323923  0.23956743  0.59084032  1
  Na  Na7  1  0.00323923  0.76043257  0.90915968  1
  Na  Na8  1  0.50323923  0.26043257  0.59084032  1
  Na  Na9  1  0.50323923  0.73956743  0.90915968  1
  Na  Na10  1  0.99676077  0.76043257  0.40915968  1
  Na  Na11  1  0.99676077  0.23956743  0.09084032  1
  Na  Na12  1  0.66208602  0.62280193  0.62082583  1
  Na  Na13  1  0.66208602  0.37719807  0.87917417  1
  Na  Na14  1  0.83791398  0.12280193  0.37917417  1
  Na  Na15  1  0.83791398  0.87719807  0.12082583  1
  Na  Na16  1  0.33791398  0.37719807  0.37917417  1
  Na  Na17  1  0.33791398  0.62280193  0.12082583  1
  Na  Na18  1  0.16208602  0.87719807  0.62082583  1
  Na  Na19  1  0.16208602  0.12280193  0.87917417  1
  Na  Na20  1  0.87615846  0.39284958  0.45641202  1
  Na  Na21  1  0.87615846  0.60715042  0.04358798  1
  Na  Na22  1  0.62384154  0.89284958  0.54358798  1
  Na  Na23  1  0.62384154  0.10715042  0.95641202  1
  Na  Na24  1  0.12384154  0.60715042  0.54358798  1
  Na  Na25  1  0.12384154  0.39284958  0.95641202  1
  Na  Na26  1  0.37615846  0.10715042  0.45641202  1
  Na  Na27  1  0.37615846  0.89284958  0.04358798  1
  S  S28  1  0.24913180  0.85695516  0.49872099  1
  S  S29  1  0.74038975  0.12197862  0.16630135  1
  S  S30  1  0.74038975  0.87802138  0.33369865  1
  S  S31  1  0.75961025  0.62197862  0.83369865  1
  S  S32  1  0.75961025  0.37802138  0.66630135  1
  S  S33  1  0.25961025  0.87802138  0.83369865  1
  S  S34  1  0.25961025  0.12197862  0.66630135  1
  S  S35  1  0.24038975  0.37802138  0.16630135  1
  S  S36  1  0.24038975  0.62197862  0.33369865  1
  S  S37  1  0.28835061  0.36628727  0.83739277  1
  S  S38  1  0.28835061  0.63371273  0.66260723  1
  S  S39  1  0.21164939  0.86628727  0.16260723  1
  S  S40  1  0.21164939  0.13371273  0.33739277  1
  S  S41  1  0.71164939  0.63371273  0.16260723  1
  S  S42  1  0.71164939  0.36628727  0.33739277  1
  S  S43  1  0.78835061  0.13371273  0.83739277  1
  S  S44  1  0.78835061  0.86628727  0.66260723  1
  S  S45  1  0.24913180  0.14304484  0.00127901  1
  S  S46  1  0.25086820  0.64304484  0.99872099  1
  S  S47  1  0.25086820  0.35695516  0.50127901  1
  S  S48  1  0.74913180  0.64304484  0.49872099  1
  S  S49  1  0.74913180  0.35695516  0.00127901  1
  S  S50  1  0.75086820  0.85695516  0.99872099  1
  S  S51  1  0.75086820  0.14304484  0.50127901  1
  Au  Au52  1  0.77185559  0.25665073  0.75194246  1
  Au  Au53  1  0.77185559  0.74334927  0.74805754  1
  Au  Au54  1  0.50000000  0.50000000  0.50000000  1
  Au  Au55  1  0.72814441  0.75665073  0.24805754  1
  Au  Au56  1  0.72814441  0.24334927  0.25194246  1
  Au  Au57  1  0.22814441  0.74334927  0.24805754  1
  Au  Au58  1  0.22814441  0.25665073  0.25194246  1
  Au  Au59  1  0.27185559  0.24334927  0.75194246  1
  Au  Au60  1  0.27185559  0.75665073  0.74805754  1
  Au  Au61  1  0.02918742  0.49813498  0.82973610  1
  Au  Au62  1  0.02918742  0.50186502  0.67026390  1
  Au  Au63  1  0.47081258  0.99813498  0.17026390  1
  Au  Au64  1  0.47081258  0.00186502  0.32973610  1
  Au  Au65  1  0.97081258  0.50186502  0.17026390  1
  Au  Au66  1  0.97081258  0.49813498  0.32973610  1
  Au  Au67  1  0.52918742  0.00186502  0.82973610  1
  Au  Au68  1  0.52918742  0.99813498  0.67026390  1
  Au  Au69  1  0.00000000  0.00000000  0.00000000  1
  Au  Au70  1  0.00000000  0.00000000  0.50000000  1
  Au  Au71  1  0.50000000  0.50000000  0.00000000  1
