# generated using pymatgen
data_KAuI4
_symmetry_space_group_name_H-M   'P 1'
_cell_length_a   7.15487722
_cell_length_b   10.34637359
_cell_length_c   14.25586655
_cell_angle_alpha   101.62353250
_cell_angle_beta   90.00000000
_cell_angle_gamma   90.00000000
_symmetry_Int_Tables_number   1
_chemical_formula_structural   KAuI4
_chemical_formula_sum   'K4 Au4 I16'
_cell_volume   1033.67761961
_cell_formula_units_Z   4
loop_
 _symmetry_equiv_pos_site_id
 _symmetry_equiv_pos_as_xyz
  1  'x, y, z'
loop_
 _atom_site_type_symbol
 _atom_site_label
 _atom_site_symmetry_multiplicity
 _atom_site_fract_x
 _atom_site_fract_y
 _atom_site_fract_z
 _atom_site_occupancy
  K  K0  1  0.06363900  0.79770999  0.31665771  1
  K  K1  1  0.56363900  0.20229001  0.18334229  1
  K  K2  1  0.93636100  0.20229001  0.68334229  1
  K  K3  1  0.43636100  0.79770999  0.81665771  1
  I  I4  1  0.93439646  0.91255332  0.81234016  1
  I  I5  1  0.43439646  0.08744668  0.68765984  1
  I  I6  1  0.06560354  0.08744668  0.18765984  1
  I  I7  1  0.56560354  0.91255332  0.31234016  1
  I  I8  1  0.29377194  0.14178542  0.95887143  1
  I  I9  1  0.79377194  0.85821458  0.54112857  1
  I  I10  1  0.70622806  0.85821458  0.04112857  1
  I  I11  1  0.20622806  0.14178542  0.45887143  1
  I  I12  1  0.15359600  0.49911624  0.82875826  1
  I  I13  1  0.65359600  0.50088376  0.67124174  1
  I  I14  1  0.84640400  0.50088376  0.17124174  1
  I  I15  1  0.34640400  0.49911624  0.32875826  1
  I  I16  1  0.72287463  0.34457159  0.91599609  1
  I  I17  1  0.22287463  0.65542841  0.58400391  1
  I  I18  1  0.27712537  0.65542841  0.08400391  1
  I  I19  1  0.77712537  0.34457159  0.41599609  1
  Au  Au20  1  0.50000000  0.50000000  0.50000000  1
  Au  Au21  1  0.00000000  0.50000000  0.00000000  1
  Au  Au22  1  0.50000000  0.00000000  0.50000000  1
  Au  Au23  1  0.00000000  0.00000000  0.00000000  1
