# generated using pymatgen
data_Cd2As3Br
_symmetry_space_group_name_H-M   'P 1'
_cell_length_a   6.41327694
_cell_length_b   6.41327694
_cell_length_c   8.18268891
_cell_angle_alpha   97.33872662
_cell_angle_beta   97.33872663
_cell_angle_gamma   97.60594184
_symmetry_Int_Tables_number   1
_chemical_formula_structural   Cd2As3Br
_chemical_formula_sum   'Cd4 As6 Br2'
_cell_volume   327.26046374
_cell_formula_units_Z   2
loop_
 _symmetry_equiv_pos_site_id
 _symmetry_equiv_pos_as_xyz
  1  'x, y, z'
loop_
 _atom_site_type_symbol
 _atom_site_label
 _atom_site_symmetry_multiplicity
 _atom_site_fract_x
 _atom_site_fract_y
 _atom_site_fract_z
 _atom_site_occupancy
  As  As0  1  0.92032702  0.82584088  0.02829999  1
  As  As1  1  0.17415912  0.07967298  0.47170001  1
  As  As2  1  0.07967298  0.17415912  0.97170001  1
  As  As3  1  0.79090249  0.20909751  0.75000000  1
  As  As4  1  0.20909751  0.79090249  0.25000000  1
  As  As5  1  0.82584088  0.92032702  0.52829999  1
  Br  Br6  1  0.36162669  0.63837331  0.75000000  1
  Br  Br7  1  0.63837331  0.36162669  0.25000000  1
  Cd  Cd8  1  0.91299742  0.61177379  0.70804924  1
  Cd  Cd9  1  0.38822621  0.08700258  0.79195076  1
  Cd  Cd10  1  0.61177379  0.91299742  0.20804924  1
  Cd  Cd11  1  0.08700258  0.38822621  0.29195076  1
