# generated using pymatgen
data_CaAl2O4
_symmetry_space_group_name_H-M   'P 1'
_cell_length_a   8.21673466
_cell_length_b   8.78282043
_cell_length_c   15.35008380
_cell_angle_alpha   90.23892746
_cell_angle_beta   90.00000000
_cell_angle_gamma   90.00000000
_symmetry_Int_Tables_number   1
_chemical_formula_structural   CaAl2O4
_chemical_formula_sum   'Ca12 Al24 O48'
_cell_volume   1107.74612898
_cell_formula_units_Z   12
loop_
 _symmetry_equiv_pos_site_id
 _symmetry_equiv_pos_as_xyz
  1  'x, y, z'
loop_
 _atom_site_type_symbol
 _atom_site_label
 _atom_site_symmetry_multiplicity
 _atom_site_fract_x
 _atom_site_fract_y
 _atom_site_fract_z
 _atom_site_occupancy
  O  O0  1  0.74347971  0.57682672  0.30390639  1
  O  O1  1  0.24347971  0.92317328  0.19609361  1
  O  O2  1  0.25652029  0.42317328  0.69609361  1
  O  O3  1  0.75652029  0.07682672  0.80390639  1
  O  O4  1  0.22703339  0.75211706  0.36713733  1
  O  O5  1  0.72703339  0.74788294  0.13286267  1
  O  O6  1  0.77296661  0.24788294  0.63286267  1
  O  O7  1  0.27296661  0.25211706  0.86713733  1
  O  O8  1  0.85664140  0.74459438  0.45444923  1
  O  O9  1  0.35664140  0.75540562  0.04555077  1
  O  O10  1  0.14335860  0.25540562  0.54555077  1
  O  O11  1  0.64335860  0.24459438  0.95444923  1
  O  O12  1  0.52372283  0.82203369  0.44698103  1
  O  O13  1  0.02372283  0.67796631  0.05301897  1
  O  O14  1  0.47627717  0.17796631  0.55301897  1
  O  O15  1  0.97627717  0.32203369  0.94698103  1
  O  O16  1  0.72732194  0.91570055  0.30565993  1
  O  O17  1  0.22732194  0.58429945  0.19434007  1
  O  O18  1  0.27267806  0.08429945  0.69434007  1
  O  O19  1  0.77267806  0.41570055  0.80565993  1
  O  O20  1  0.36385246  0.44432485  0.35136219  1
  O  O21  1  0.02536365  0.06793436  0.31204324  1
  O  O22  1  0.97463635  0.93206564  0.68795676  1
  O  O23  1  0.47463635  0.56793436  0.81204324  1
  O  O24  1  0.35468552  0.06815052  0.35873064  1
  O  O25  1  0.85468552  0.43184948  0.14126936  1
  O  O26  1  0.64531448  0.93184948  0.64126936  1
  O  O27  1  0.14531448  0.56815052  0.85873064  1
  O  O28  1  0.75985138  0.06491884  0.47395202  1
  O  O29  1  0.25985138  0.43508116  0.02604798  1
  O  O30  1  0.24014862  0.93508116  0.52604798  1
  O  O31  1  0.74014862  0.56491884  0.97395202  1
  O  O32  1  0.74474178  0.25065558  0.29704609  1
  O  O33  1  0.24474178  0.24934442  0.20295391  1
  O  O34  1  0.25525822  0.74934442  0.70295391  1
  O  O35  1  0.75525822  0.75065558  0.79704609  1
  O  O36  1  0.76010863  0.92352840  0.97597540  1
  O  O37  1  0.26010863  0.57647160  0.52402460  1
  O  O38  1  0.23989137  0.07647160  0.02402460  1
  O  O39  1  0.73989137  0.42352840  0.47597540  1
  O  O40  1  0.46796488  0.98360000  0.88976584  1
  O  O41  1  0.96796488  0.51640000  0.61023416  1
  O  O42  1  0.53203512  0.01640000  0.11023416  1
  O  O43  1  0.03203512  0.48360000  0.38976584  1
  O  O44  1  0.13614754  0.94432485  0.85136219  1
  O  O45  1  0.63614754  0.55567515  0.64863781  1
  O  O46  1  0.86385246  0.05567515  0.14863781  1
  O  O47  1  0.52536365  0.43206564  0.18795676  1
  Al  Al48  1  0.83582696  0.56111263  0.40758101  1
  Al  Al49  1  0.33582696  0.93888737  0.09241899  1
  Al  Al50  1  0.16417304  0.43888737  0.59241899  1
  Al  Al51  1  0.66417304  0.06111263  0.90758101  1
  Al  Al52  1  0.22673497  0.56291981  0.40924111  1
  Al  Al53  1  0.72673497  0.93708019  0.09075889  1
  Al  Al54  1  0.77326503  0.43708019  0.59075889  1
  Al  Al55  1  0.27326503  0.06291981  0.90924111  1
  Al  Al56  1  0.72015554  0.88815730  0.42061610  1
  Al  Al57  1  0.22015554  0.61184270  0.07938390  1
  Al  Al58  1  0.27984446  0.11184270  0.57938390  1
  Al  Al59  1  0.77984446  0.38815730  0.92061610  1
  Al  Al60  1  0.33129317  0.90107882  0.42201482  1
  Al  Al61  1  0.83129317  0.59892118  0.07798518  1
  Al  Al62  1  0.66870683  0.09892118  0.57798518  1
  Al  Al63  1  0.16870683  0.40107882  0.92201482  1
  Al  Al64  1  0.22440131  0.08279505  0.26726980  1
  Al  Al65  1  0.72440131  0.41720495  0.23273020  1
  Al  Al66  1  0.77559869  0.91720495  0.73273020  1
  Al  Al67  1  0.27559869  0.58279505  0.76726980  1
  Al  Al68  1  0.82961774  0.07535596  0.26201931  1
  Al  Al69  1  0.32961774  0.42464404  0.23798069  1
  Al  Al70  1  0.17038226  0.92464404  0.73798069  1
  Al  Al71  1  0.67038226  0.57535596  0.76201931  1
  Ca  Ca72  1  0.04549834  0.76152620  0.25340069  1
  Ca  Ca73  1  0.54549834  0.73847380  0.24659931  1
  Ca  Ca74  1  0.95450166  0.23847380  0.74659931  1
  Ca  Ca75  1  0.45450166  0.26152620  0.75340069  1
  Ca  Ca76  1  0.96796451  0.23215300  0.42969931  1
  Ca  Ca77  1  0.46796451  0.26784700  0.07030069  1
  Ca  Ca78  1  0.03203549  0.76784700  0.57030069  1
  Ca  Ca79  1  0.53203549  0.73215300  0.92969931  1
  Ca  Ca80  1  0.53480786  0.26055213  0.41012741  1
  Ca  Ca81  1  0.03480786  0.23944787  0.08987259  1
  Ca  Ca82  1  0.46519214  0.73944787  0.58987259  1
  Ca  Ca83  1  0.96519214  0.76055213  0.91012741  1
