# generated using pymatgen
data_In3SnI5
_symmetry_space_group_name_H-M   'P 1'
_cell_length_a   9.08662914
_cell_length_b   9.08662914
_cell_length_c   17.83981381
_cell_angle_alpha   97.46541937
_cell_angle_beta   97.46541936
_cell_angle_gamma   90.20803991
_symmetry_Int_Tables_number   1
_chemical_formula_structural   In3SnI5
_chemical_formula_sum   'In12 Sn4 I20'
_cell_volume   1447.79596562
_cell_formula_units_Z   4
loop_
 _symmetry_equiv_pos_site_id
 _symmetry_equiv_pos_as_xyz
  1  'x, y, z'
loop_
 _atom_site_type_symbol
 _atom_site_label
 _atom_site_symmetry_multiplicity
 _atom_site_fract_x
 _atom_site_fract_y
 _atom_site_fract_z
 _atom_site_occupancy
  In  In0  1  0.96080197  0.03919803  0.75000000  1
  In  In1  1  0.03919803  0.96080197  0.25000000  1
  In  In2  1  0.46639254  0.25594889  0.74890734  1
  In  In3  1  0.74405111  0.53360746  0.75109266  1
  In  In4  1  0.53360746  0.74405111  0.25109266  1
  In  In5  1  0.25594889  0.46639254  0.24890734  1
  In  In6  1  0.24440200  0.75559800  0.75000000  1
  In  In7  1  0.75559800  0.24440200  0.25000000  1
  In  In8  1  0.55624158  0.79451669  0.52731234  1
  In  In9  1  0.20548331  0.44375842  0.97268766  1
  In  In10  1  0.44375842  0.20548331  0.47268766  1
  In  In11  1  0.79451669  0.55624158  0.02731234  1
  Sn  Sn12  1  0.05946450  0.34614290  0.58585959  1
  Sn  Sn13  1  0.65385710  0.94053550  0.91414041  1
  Sn  Sn14  1  0.94053550  0.65385710  0.41414041  1
  Sn  Sn15  1  0.34614290  0.05946450  0.08585959  1
  I  I16  1  0.75136323  0.19629765  0.61340113  1
  I  I17  1  0.80370235  0.24863677  0.88659887  1
  I  I18  1  0.24863677  0.80370235  0.38659887  1
  I  I19  1  0.19629765  0.75136323  0.11340113  1
  I  I20  1  0.10787125  0.40422312  0.76146424  1
  I  I21  1  0.59577688  0.89212875  0.73853576  1
  I  I22  1  0.89212875  0.59577688  0.23853576  1
  I  I23  1  0.40422312  0.10787125  0.26146424  1
  I  I24  1  0.23581797  0.05727623  0.60529415  1
  I  I25  1  0.94272377  0.76418203  0.89470585  1
  I  I26  1  0.76418203  0.94272377  0.39470585  1
  I  I27  1  0.05727623  0.23581797  0.10529415  1
  I  I28  1  0.90673159  0.67790589  0.60361148  1
  I  I29  1  0.32209411  0.09326841  0.89638852  1
  I  I30  1  0.09326841  0.32209411  0.39638852  1
  I  I31  1  0.67790589  0.90673159  0.10361148  1
  I  I32  1  0.37629469  0.51508173  0.60292117  1
  I  I33  1  0.48491827  0.62370531  0.89707883  1
  I  I34  1  0.62370531  0.48491827  0.39707883  1
  I  I35  1  0.51508173  0.37629469  0.10292117  1
