# generated using pymatgen
data_GaBH6
_symmetry_space_group_name_H-M   'P 1'
_cell_length_a   8.40971188
_cell_length_b   8.40971188
_cell_length_c   9.53381574
_cell_angle_alpha   102.40958990
_cell_angle_beta   109.69912094
_cell_angle_gamma   111.97727025
_symmetry_Int_Tables_number   1
_chemical_formula_structural   GaBH6
_chemical_formula_sum   'Ga6 B6 H36'
_cell_volume   541.89984013
_cell_formula_units_Z   6
loop_
 _symmetry_equiv_pos_site_id
 _symmetry_equiv_pos_as_xyz
  1  'x, y, z'
loop_
 _atom_site_type_symbol
 _atom_site_label
 _atom_site_symmetry_multiplicity
 _atom_site_fract_x
 _atom_site_fract_y
 _atom_site_fract_z
 _atom_site_occupancy
  H  H0  1  0.68590962  0.00999049  0.84375740  1
  H  H1  1  0.66623310  0.84215222  0.65624260  1
  H  H2  1  0.31409038  0.99000951  0.15624260  1
  H  H3  1  0.33376690  0.15784778  0.34375740  1
  H  H4  1  0.42104814  0.77993866  0.66277369  1
  H  H5  1  0.61716497  0.75827446  0.83722631  1
  H  H6  1  0.57895186  0.22006134  0.33722631  1
  H  H7  1  0.38283503  0.24172554  0.16277369  1
  H  H8  1  0.71556351  0.43665319  0.12750488  1
  H  H9  1  0.80914830  0.58805863  0.37249512  1
  H  H10  1  0.28443649  0.56334681  0.87249512  1
  H  H11  1  0.19085170  0.41194137  0.62750488  1
  H  H12  1  0.01898272  0.16540720  0.13602175  1
  H  H13  1  0.52938545  0.88296097  0.36397825  1
  H  H14  1  0.98101728  0.83459280  0.86397825  1
  H  H15  1  0.47061455  0.11703903  0.63602175  1
  H  H16  1  0.36636664  0.50612172  0.37455197  1
  H  H17  1  0.63156975  -0.00818532  0.12544803  1
  H  H18  1  0.63363336  0.49387828  0.62544803  1
  H  H19  1  0.36843025  1.00818532  0.87455197  1
  H  H20  1  0.88997989  0.34409694  0.70448329  1
  H  H21  1  0.13961366  0.18549661  0.79551671  1
  H  H22  1  0.11002011  0.65590306  0.29551671  1
  H  H23  1  0.86038634  0.81450339  0.20448329  1
  H  H24  1  0.94967123  0.14625012  0.47790259  1
  H  H25  1  0.16834753  0.47176864  0.02209741  1
  H  H26  1  0.05032877  0.85374988  0.52209741  1
  H  H27  1  0.83165247  0.52823136  0.97790259  1
  H  H28  1  0.02039673  0.35678796  0.40342614  1
  H  H29  1  0.45336182  0.61697059  0.09657386  1
  H  H30  1  0.97960327  0.64321204  0.59657386  1
  H  H31  1  0.54663818  0.38302941  0.90342614  1
  H  H32  1  0.19358654  0.23146281  0.46581957  1
  H  H33  1  0.26564323  0.72776697  0.03418043  1
  H  H34  1  0.80641346  0.76853719  0.53418043  1
  H  H35  1  0.73435677  0.27223303  0.96581957  1
  B  B36  1  0.59201058  0.84201058  0.75000000  1
  B  B37  1  0.40798942  0.15798942  0.25000000  1
  B  B38  1  0.70539502  0.40864376  0.98930317  1
  B  B39  1  0.91934059  0.71609186  0.51069683  1
  B  B40  1  0.29460498  0.59135624  0.01069683  1
  B  B41  1  0.08065941  0.28390814  0.48930317  1
  Ga  Ga42  1  0.92777670  0.67777670  0.25000000  1
  Ga  Ga43  1  0.07222330  0.32222330  0.75000000  1
  Ga  Ga44  1  0.49006684  0.08018287  0.79053223  1
  Ga  Ga45  1  0.78965065  0.69953461  0.70946777  1
  Ga  Ga46  1  0.50993316  0.91981713  0.20946777  1
  Ga  Ga47  1  0.21034935  0.30046539  0.29053223  1
