# generated using pymatgen
data_Ba3P4O13
_symmetry_space_group_name_H-M   'P 1'
_cell_length_a   7.68279160
_cell_length_b   8.77616802
_cell_length_c   10.77285418
_cell_angle_alpha   108.10358094
_cell_angle_beta   104.22072591
_cell_angle_gamma   102.51862483
_symmetry_Int_Tables_number   1
_chemical_formula_structural   Ba3P4O13
_chemical_formula_sum   'Ba6 P8 O26'
_cell_volume   634.48682735
_cell_formula_units_Z   2
loop_
 _symmetry_equiv_pos_site_id
 _symmetry_equiv_pos_as_xyz
  1  'x, y, z'
loop_
 _atom_site_type_symbol
 _atom_site_label
 _atom_site_symmetry_multiplicity
 _atom_site_fract_x
 _atom_site_fract_y
 _atom_site_fract_z
 _atom_site_occupancy
  O  O0  1  0.30026090  0.16853044  0.77729191  1
  O  O1  1  0.69973910  0.83146956  0.22270809  1
  O  O2  1  0.95209626  0.10432717  0.75702108  1
  O  O3  1  0.04790374  0.89567283  0.24297892  1
  O  O4  1  0.19179282  0.12227776  0.97452787  1
  O  O5  1  0.80820718  0.87772224  0.02547213  1
  O  O6  1  0.19646808  0.38879701  0.93011036  1
  O  O7  1  0.80353192  0.61120299  0.06988964  1
  O  O8  1  0.70322850  0.14317325  0.48431075  1
  O  O9  1  0.29677150  0.85682675  0.51568925  1
  O  O10  1  0.82268097  0.19838241  0.29380519  1
  O  O11  1  0.17731903  0.80161759  0.70619481  1
  O  O12  1  0.46848043  0.11294661  0.25927858  1
  O  O13  1  0.53151957  0.88705339  0.74072142  1
  O  O14  1  0.69125074  0.40548188  0.43702117  1
  O  O15  1  0.30874926  0.59451812  0.56297883  1
  O  O16  1  0.28159058  0.69421768  0.96957055  1
  O  O17  1  0.71840942  0.30578232  0.03042945  1
  O  O18  1  0.73820469  0.71158834  0.48386574  1
  O  O19  1  0.26179531  0.28841166  0.51613426  1
  O  O20  1  0.46038492  0.48803760  0.27371353  1
  O  O21  1  0.53961508  0.51196240  0.72628647  1
  O  O22  1  0.80346286  0.53480988  0.27892418  1
  O  O23  1  0.19653714  0.46519012  0.72107582  1
  O  O24  1  0.94360169  0.50024289  0.81907378  1
  O  O25  1  0.05639831  0.49975711  0.18092622  1
  P  P26  1  0.15262903  0.52259719  0.86461977  1
  P  P27  1  0.84737097  0.47740281  0.13538023  1
  P  P28  1  0.33770042  0.46089889  0.63299086  1
  P  P29  1  0.66229958  0.53910111  0.36700914  1
  P  P30  1  0.32710496  0.79819318  0.63686347  1
  P  P31  1  0.67289504  0.20180682  0.36313653  1
  P  P32  1  0.83991433  0.81601426  0.14487840  1
  P  P33  1  0.16008567  0.18398574  0.85512160  1
  Ba  Ba34  1  0.15132094  0.23013832  0.23043963  1
  Ba  Ba35  1  0.84867906  0.76986168  0.76956037  1
  Ba  Ba36  1  0.63685203  0.22415004  0.73060386  1
  Ba  Ba37  1  0.36314797  0.77584996  0.26939614  1
  Ba  Ba38  1  0.00000000  0.00000000  0.50000000  1
  Ba  Ba39  1  0.50000000  0.00000000  0.00000000  1
