# generated using pymatgen
data_Ni6Mo6C
_symmetry_space_group_name_H-M   'P 1'
_cell_length_a   7.71503760
_cell_length_b   7.71503760
_cell_length_c   7.71503759
_cell_angle_alpha   60.00000000
_cell_angle_beta   59.99999999
_cell_angle_gamma   59.99999997
_symmetry_Int_Tables_number   1
_chemical_formula_structural   Ni6Mo6C
_chemical_formula_sum   'Ni12 Mo12 C2'
_cell_volume   324.71260083
_cell_formula_units_Z   2
loop_
 _symmetry_equiv_pos_site_id
 _symmetry_equiv_pos_as_xyz
  1  'x, y, z'
loop_
 _atom_site_type_symbol
 _atom_site_label
 _atom_site_symmetry_multiplicity
 _atom_site_fract_x
 _atom_site_fract_y
 _atom_site_fract_z
 _atom_site_occupancy
  C  C0  1  0.12500000  0.12500000  0.12500000  1
  C  C1  1  0.87500000  0.87500000  0.87500000  1
  Ni  Ni2  1  0.29146253  0.29146253  0.62561240  1
  Ni  Ni3  1  0.29146253  0.62561240  0.29146253  1
  Ni  Ni4  1  0.37438760  0.70853747  0.70853747  1
  Ni  Ni5  1  0.70853747  0.37438760  0.70853747  1
  Ni  Ni6  1  0.62561240  0.29146253  0.29146253  1
  Ni  Ni7  1  0.29146253  0.29146253  0.29146253  1
  Ni  Ni8  1  0.50000000  0.50000000  0.50000000  1
  Ni  Ni9  1  0.50000000  0.50000000  0.00000000  1
  Ni  Ni10  1  0.00000000  0.50000000  0.50000000  1
  Ni  Ni11  1  0.50000000  0.00000000  0.50000000  1
  Ni  Ni12  1  0.70853747  0.70853747  0.37438760  1
  Ni  Ni13  1  0.70853747  0.70853747  0.70853747  1
  Mo  Mo14  1  0.32306721  0.32306721  0.92693279  1
  Mo  Mo15  1  0.92693279  0.32306721  0.32306721  1
  Mo  Mo16  1  0.92693279  0.32306721  0.92693279  1
  Mo  Mo17  1  0.32306721  0.92693279  0.32306721  1
  Mo  Mo18  1  0.07306721  0.67693279  0.07306721  1
  Mo  Mo19  1  0.07306721  0.07306721  0.67693279  1
  Mo  Mo20  1  0.67693279  0.67693279  0.07306721  1
  Mo  Mo21  1  0.67693279  0.07306721  0.67693279  1
  Mo  Mo22  1  0.32306721  0.92693279  0.92693279  1
  Mo  Mo23  1  0.07306721  0.67693279  0.67693279  1
  Mo  Mo24  1  0.67693279  0.07306721  0.07306721  1
  Mo  Mo25  1  0.92693279  0.92693279  0.32306721  1
