# generated using pymatgen
data_Ca11Ga7
_symmetry_space_group_name_H-M   'P 1'
_cell_length_a   11.39469843
_cell_length_b   11.39469843
_cell_length_c   11.39469843
_cell_angle_alpha   59.99999998
_cell_angle_beta   59.99999998
_cell_angle_gamma   60.00000000
_symmetry_Int_Tables_number   1
_chemical_formula_structural   Ca11Ga7
_chemical_formula_sum   'Ca22 Ga14'
_cell_volume   1046.14891606
_cell_formula_units_Z   2
loop_
 _symmetry_equiv_pos_site_id
 _symmetry_equiv_pos_as_xyz
  1  'x, y, z'
loop_
 _atom_site_type_symbol
 _atom_site_label
 _atom_site_symmetry_multiplicity
 _atom_site_fract_x
 _atom_site_fract_y
 _atom_site_fract_z
 _atom_site_occupancy
  Ca  Ca0  1  0.00000000  0.00000000  0.00000000  1
  Ca  Ca1  1  0.50000000  0.50000000  0.50000000  1
  Ca  Ca2  1  0.12960882  0.12960882  0.12960882  1
  Ca  Ca3  1  0.87039118  0.87039118  0.38882646  1
  Ca  Ca4  1  0.38882646  0.87039118  0.87039118  1
  Ca  Ca5  1  0.87039118  0.38882646  0.87039118  1
  Ca  Ca6  1  0.61117354  0.12960882  0.12960882  1
  Ca  Ca7  1  0.12960882  0.61117354  0.12960882  1
  Ca  Ca8  1  0.12960882  0.12960882  0.61117354  1
  Ca  Ca9  1  0.87039118  0.87039118  0.87039118  1
  Ca  Ca10  1  0.83494334  0.50000000  0.50000000  1
  Ca  Ca11  1  0.50000000  0.50000000  0.83494334  1
  Ca  Ca12  1  0.83494334  0.16505666  0.50000000  1
  Ca  Ca13  1  0.50000000  0.83494334  0.16505666  1
  Ca  Ca14  1  0.50000000  0.16505666  0.83494334  1
  Ca  Ca15  1  0.50000000  0.83494334  0.50000000  1
  Ca  Ca16  1  0.83494334  0.50000000  0.16505666  1
  Ca  Ca17  1  0.16505666  0.83494334  0.50000000  1
  Ca  Ca18  1  0.50000000  0.16505666  0.50000000  1
  Ca  Ca19  1  0.16505666  0.50000000  0.83494334  1
  Ca  Ca20  1  0.50000000  0.50000000  0.16505666  1
  Ca  Ca21  1  0.16505666  0.50000000  0.50000000  1
  Ga  Ga22  1  0.78083229  0.21916771  0.21916771  1
  Ga  Ga23  1  0.78083229  0.78083229  0.21916771  1
  Ga  Ga24  1  0.21916771  0.21916771  0.78083229  1
  Ga  Ga25  1  0.78083229  0.21916771  0.78083229  1
  Ga  Ga26  1  0.21916771  0.78083229  0.21916771  1
  Ga  Ga27  1  0.21916771  0.78083229  0.78083229  1
  Ga  Ga28  1  0.30938750  0.30938750  0.30938750  1
  Ga  Ga29  1  0.69061250  0.69061250  0.92816249  1
  Ga  Ga30  1  0.92816249  0.69061250  0.69061250  1
  Ga  Ga31  1  0.69061250  0.92816249  0.69061250  1
  Ga  Ga32  1  0.07183751  0.30938750  0.30938750  1
  Ga  Ga33  1  0.30938750  0.07183751  0.30938750  1
  Ga  Ga34  1  0.30938750  0.30938750  0.07183751  1
  Ga  Ga35  1  0.69061250  0.69061250  0.69061250  1
