# generated using pymatgen
data_Sr5Al2F16
_symmetry_space_group_name_H-M   'P 1'
_cell_length_a   7.36031455
_cell_length_b   7.36031455
_cell_length_c   14.30435522
_cell_angle_alpha   90.00000000
_cell_angle_beta   90.00000000
_cell_angle_gamma   117.93740159
_symmetry_Int_Tables_number   1
_chemical_formula_structural   Sr5Al2F16
_chemical_formula_sum   'Sr10 Al4 F32'
_cell_volume   684.61737949
_cell_formula_units_Z   2
loop_
 _symmetry_equiv_pos_site_id
 _symmetry_equiv_pos_as_xyz
  1  'x, y, z'
loop_
 _atom_site_type_symbol
 _atom_site_label
 _atom_site_symmetry_multiplicity
 _atom_site_fract_x
 _atom_site_fract_y
 _atom_site_fract_z
 _atom_site_occupancy
  F  F0  1  0.26787328  0.43092367  0.46277704  1
  F  F1  1  0.23212672  0.06907633  0.46277704  1
  F  F2  1  0.93092367  0.76787328  0.03722296  1
  F  F3  1  0.56907633  0.73212672  0.03722296  1
  F  F4  1  0.73212672  0.56907633  0.53722296  1
  F  F5  1  0.76787328  0.93092367  0.53722296  1
  F  F6  1  0.06907633  0.23212672  0.96277704  1
  F  F7  1  0.43092367  0.26787328  0.96277704  1
  F  F8  1  0.96561435  0.13189673  0.37231255  1
  F  F9  1  0.53438565  0.36810327  0.37231255  1
  F  F10  1  0.63189673  0.46561435  0.12768745  1
  F  F11  1  0.86810327  0.03438565  0.12768745  1
  F  F12  1  0.03438565  0.86810327  0.62768745  1
  F  F13  1  0.46561435  0.63189673  0.62768745  1
  F  F14  1  0.41941857  0.25047803  0.77986739  1
  F  F15  1  0.08058143  0.24952197  0.77986739  1
  F  F16  1  0.75047803  0.91941857  0.72013261  1
  F  F17  1  0.74952197  0.58058143  0.72013261  1
  F  F18  1  0.58058143  0.74952197  0.22013261  1
  F  F19  1  0.91941857  0.75047803  0.22013261  1
  F  F20  1  0.24952197  0.08058143  0.27986739  1
  F  F21  1  0.25047803  0.41941857  0.27986739  1
  F  F22  1  0.61324031  0.00778868  0.89612873  1
  F  F23  1  0.88675969  0.49221132  0.89612873  1
  F  F24  1  0.50778868  0.11324031  0.60387127  1
  F  F25  1  0.99221132  0.38675969  0.60387127  1
  F  F26  1  0.38675969  0.99221132  0.10387127  1
  F  F27  1  0.11324031  0.50778868  0.10387127  1
  F  F28  1  0.49221132  0.88675969  0.39612873  1
  F  F29  1  0.00778868  0.61324031  0.39612873  1
  F  F30  1  0.13189673  0.96561435  0.87231255  1
  F  F31  1  0.36810327  0.53438565  0.87231255  1
  Al  Al32  1  0.25000000  0.25000000  0.37180870  1
  Al  Al33  1  0.75000000  0.75000000  0.12819130  1
  Al  Al34  1  0.75000000  0.75000000  0.62819130  1
  Al  Al35  1  0.25000000  0.25000000  0.87180870  1
  Sr  Sr36  1  0.75000000  0.25000000  0.46775878  1
  Sr  Sr37  1  0.75000000  0.25000000  0.03224122  1
  Sr  Sr38  1  0.25000000  0.75000000  0.53224122  1
  Sr  Sr39  1  0.25000000  0.75000000  0.96775878  1
  Sr  Sr40  1  0.25000000  0.75000000  0.25000000  1
  Sr  Sr41  1  0.75000000  0.25000000  0.75000000  1
  Sr  Sr42  1  0.75000000  0.75000000  0.37684278  1
  Sr  Sr43  1  0.25000000  0.25000000  0.12315722  1
  Sr  Sr44  1  0.25000000  0.25000000  0.62315722  1
  Sr  Sr45  1  0.75000000  0.75000000  0.87684278  1
