# generated using pymatgen
data_SmCu6
_symmetry_space_group_name_H-M   'P 1'
_cell_length_a   5.03038806
_cell_length_b   8.05754246
_cell_length_c   10.10427509
_cell_angle_alpha   90.00000000
_cell_angle_beta   90.00000000
_cell_angle_gamma   90.00000000
_symmetry_Int_Tables_number   1
_chemical_formula_structural   SmCu6
_chemical_formula_sum   'Sm4 Cu24'
_cell_volume   409.55219074
_cell_formula_units_Z   4
loop_
 _symmetry_equiv_pos_site_id
 _symmetry_equiv_pos_as_xyz
  1  'x, y, z'
loop_
 _atom_site_type_symbol
 _atom_site_label
 _atom_site_symmetry_multiplicity
 _atom_site_fract_x
 _atom_site_fract_y
 _atom_site_fract_z
 _atom_site_occupancy
  Cu  Cu0  1  0.75000000  0.85353820  0.85754678  1
  Cu  Cu1  1  0.25000000  0.14646180  0.14245322  1
  Cu  Cu2  1  0.75000000  0.35353820  0.64245322  1
  Cu  Cu3  1  0.25000000  0.64646180  0.35754678  1
  Cu  Cu4  1  0.75000000  0.18350901  0.24448000  1
  Cu  Cu5  1  0.25000000  0.81649099  0.75552000  1
  Cu  Cu6  1  0.75000000  0.68350901  0.25552000  1
  Cu  Cu7  1  0.25000000  0.31649099  0.74448000  1
  Cu  Cu8  1  0.75000000  0.43838659  0.40424068  1
  Cu  Cu9  1  0.25000000  0.56161341  0.59575932  1
  Cu  Cu10  1  0.75000000  0.93838659  0.09575932  1
  Cu  Cu11  1  0.25000000  0.06161341  0.90424068  1
  Cu  Cu12  1  0.75000000  0.09854162  0.48337490  1
  Cu  Cu13  1  0.25000000  0.90145838  0.51662510  1
  Cu  Cu14  1  0.75000000  0.59854162  0.01662510  1
  Cu  Cu15  1  0.25000000  0.40145838  0.98337490  1
  Cu  Cu16  1  0.99433272  0.56467185  0.80904446  1
  Cu  Cu17  1  0.49433272  0.43532815  0.19095554  1
  Cu  Cu18  1  0.50566728  0.06467185  0.69095554  1
  Cu  Cu19  1  0.00566728  0.93532815  0.30904446  1
  Cu  Cu20  1  0.00566728  0.43532815  0.19095554  1
  Cu  Cu21  1  0.50566728  0.56467185  0.80904446  1
  Cu  Cu22  1  0.49433272  0.93532815  0.30904446  1
  Cu  Cu23  1  0.99433272  0.06467185  0.69095554  1
  Sm  Sm24  1  0.75000000  0.73981833  0.56449225  1
  Sm  Sm25  1  0.25000000  0.26018167  0.43550775  1
  Sm  Sm26  1  0.75000000  0.23981833  0.93550775  1
  Sm  Sm27  1  0.25000000  0.76018167  0.06449225  1
