# generated using pymatgen
data_Mo(HO2)2
_symmetry_space_group_name_H-M   'P 1'
_cell_length_a   8.04102448
_cell_length_b   3.81524697
_cell_length_c   6.40964973
_cell_angle_alpha   111.31157053
_cell_angle_beta   112.63473232
_cell_angle_gamma   93.09695586
_symmetry_Int_Tables_number   1
_chemical_formula_structural   Mo(HO2)2
_chemical_formula_sum   'Mo2 H4 O8'
_cell_volume   164.72694009
_cell_formula_units_Z   2
loop_
 _symmetry_equiv_pos_site_id
 _symmetry_equiv_pos_as_xyz
  1  'x, y, z'
loop_
 _atom_site_type_symbol
 _atom_site_label
 _atom_site_symmetry_multiplicity
 _atom_site_fract_x
 _atom_site_fract_y
 _atom_site_fract_z
 _atom_site_occupancy
  Mo  Mo0  1  0.78524535  0.20967492  0.91711671  1
  Mo  Mo1  1  0.20027033  0.85387678  0.07987038  1
  H  H2  1  0.92051150  0.50822510  0.42814177  1
  H  H3  1  0.16203903  0.34741794  0.62428381  1
  H  H4  1  0.70065567  0.94568647  0.45738460  1
  H  H5  1  0.31192905  0.96143896  0.53104939  1
  O  O6  1  0.54870071  0.12146176  0.78694412  1
  O  O7  1  0.43619137  0.93791597  0.19705116  1
  O  O8  1  0.13201234  0.30083334  0.05821646  1
  O  O9  1  0.86631313  0.71674892  0.95327322  1
  O  O10  1  0.83069641  0.37454504  0.25135486  1
  O  O11  1  0.13711232  0.58254007  0.73548563  1
  O  O12  1  0.80778216  0.97856732  0.61017581  1
  O  O13  1  0.20146164  0.00079041  0.41182408  1
