# generated using pymatgen
data_Y10H21
_symmetry_space_group_name_H-M   'P 1'
_cell_length_a   7.36390700
_cell_length_b   18.42621616
_cell_length_c   9.74790357
_cell_angle_alpha   19.09763079
_cell_angle_beta   55.41452013
_cell_angle_gamma   59.90938679
_symmetry_Int_Tables_number   1
_chemical_formula_structural   Y10H21
_chemical_formula_sum   'Y10 H21'
_cell_volume   353.25285908
_cell_formula_units_Z   1
loop_
 _symmetry_equiv_pos_site_id
 _symmetry_equiv_pos_as_xyz
  1  'x, y, z'
loop_
 _atom_site_type_symbol
 _atom_site_label
 _atom_site_symmetry_multiplicity
 _atom_site_fract_x
 _atom_site_fract_y
 _atom_site_fract_z
 _atom_site_occupancy
  H  H0  1  0.12450378  0.14928273  0.25187241  1
  H  H1  1  0.12553002  0.34913177  0.25091720  1
  H  H2  1  0.12561952  0.55085264  0.24882609  1
  H  H3  1  0.37446998  0.05086823  0.74908280  1
  H  H4  1  0.62360345  0.15092762  0.24948154  1
  H  H5  1  0.37549622  0.25071727  0.74812759  1
  H  H6  1  0.13365169  0.75051363  0.24584430  1
  H  H7  1  0.62152795  0.34055138  0.27022110  1
  H  H8  1  0.87847205  0.05944862  0.72977890  1
  H  H9  1  0.62354856  0.55031019  0.24926281  1
  H  H10  1  0.37474998  0.44999066  0.75092024  1
  H  H11  1  0.12525002  0.95000934  0.24907976  1
  H  H12  1  0.62101263  0.75117397  0.24461259  1
  H  H13  1  0.36634831  0.64948637  0.75415570  1
  H  H14  1  0.87639655  0.24907238  0.75051846  1
  H  H15  1  0.37438048  0.84914736  0.75117391  1
  H  H16  1  0.87834309  0.44433156  0.75537505  1
  H  H17  1  0.62165691  0.95566844  0.24462495  1
  H  H18  1  0.75000000  0.70000000  0.50000000  1
  H  H19  1  0.87898737  0.64882603  0.75538741  1
  H  H20  1  0.87645144  0.84968981  0.75073719  1
  Y  Y21  1  0.99712161  0.99874946  0.00231047  1
  Y  Y22  1  0.00007815  0.19953435  0.00085184  1
  Y  Y23  1  0.99772203  0.40264950  0.99537746  1
  Y  Y24  1  0.50227797  0.99735050  0.00462254  1
  Y  Y25  1  0.00049785  0.59952282  0.00117632  1
  Y  Y26  1  0.49992185  0.20046565  0.99914816  1
  Y  Y27  1  0.99774330  0.79998098  0.00270445  1
  Y  Y28  1  0.50287839  0.40125054  0.99768953  1
  Y  Y29  1  0.50225670  0.60001902  0.99729555  1
  Y  Y30  1  0.49950215  0.80047718  0.99882368  1
