# generated using pymatgen
data_K3Bi
_symmetry_space_group_name_H-M   'P 1'
_cell_length_a   10.81089975
_cell_length_b   10.81089975
_cell_length_c   11.09068731
_cell_angle_alpha   90.00000000
_cell_angle_beta   90.00000000
_cell_angle_gamma   119.99999998
_symmetry_Int_Tables_number   1
_chemical_formula_structural   K3Bi
_chemical_formula_sum   'K18 Bi6'
_cell_volume   1122.56829692
_cell_formula_units_Z   6
loop_
 _symmetry_equiv_pos_site_id
 _symmetry_equiv_pos_as_xyz
  1  'x, y, z'
loop_
 _atom_site_type_symbol
 _atom_site_label
 _atom_site_symmetry_multiplicity
 _atom_site_fract_x
 _atom_site_fract_y
 _atom_site_fract_z
 _atom_site_occupancy
  K  K0  1  0.00000000  0.00000000  0.78407232  1
  K  K1  1  0.00000000  0.00000000  0.28407232  1
  K  K2  1  0.66666667  0.33333333  0.23052555  1
  K  K3  1  0.33333333  0.66666667  0.73052555  1
  K  K4  1  0.66666667  0.33333333  0.73052555  1
  K  K5  1  0.33333333  0.66666667  0.23052555  1
  K  K6  1  0.31087242  0.31087242  0.08108978  1
  K  K7  1  0.00000000  0.31087242  0.58108978  1
  K  K8  1  0.31087242  0.00000000  0.58108978  1
  K  K9  1  0.68912758  0.00000000  0.08108978  1
  K  K10  1  0.00000000  0.68912758  0.08108978  1
  K  K11  1  0.68912758  0.68912758  0.58108978  1
  K  K12  1  0.35361822  0.35361822  0.41981132  1
  K  K13  1  0.00000000  0.35361822  0.91981132  1
  K  K14  1  0.35361822  0.00000000  0.91981132  1
  K  K15  1  0.64638178  0.00000000  0.41981132  1
  K  K16  1  0.00000000  0.64638178  0.41981132  1
  K  K17  1  0.64638178  0.64638178  0.91981132  1
  Bi  Bi18  1  0.66801804  0.66801804  0.25072442  1
  Bi  Bi19  1  0.00000000  0.66801804  0.75072442  1
  Bi  Bi20  1  0.66801804  0.00000000  0.75072442  1
  Bi  Bi21  1  0.33198196  0.00000000  0.25072442  1
  Bi  Bi22  1  0.00000000  0.33198196  0.25072442  1
  Bi  Bi23  1  0.33198196  0.33198196  0.75072442  1
