# generated using pymatgen
data_CSO
_symmetry_space_group_name_H-M   'P 1'
_cell_length_a   5.20143287
_cell_length_b   4.24497125
_cell_length_c   4.45898449
_cell_angle_alpha   97.50136722
_cell_angle_beta   125.55034528
_cell_angle_gamma   77.33114241
_symmetry_Int_Tables_number   1
_chemical_formula_structural   CSO
_chemical_formula_sum   'C1 S1 O1'
_cell_volume   78.15196442
_cell_formula_units_Z   1
loop_
 _symmetry_equiv_pos_site_id
 _symmetry_equiv_pos_as_xyz
  1  'x, y, z'
loop_
 _atom_site_type_symbol
 _atom_site_label
 _atom_site_symmetry_multiplicity
 _atom_site_fract_x
 _atom_site_fract_y
 _atom_site_fract_z
 _atom_site_occupancy
  C  C0  1  0.41961346  0.24834529  0.00099271  1
  S  S1  1  0.68697294  0.99850457  0.99830166  1
  O  O2  1  0.21696660  0.43642914  0.00241064  1
