# generated using pymatgen
data_Ca5(Ga3O7)2
_symmetry_space_group_name_H-M   'P 1'
_cell_length_a   8.14450810
_cell_length_b   8.14450810
_cell_length_c   10.59712276
_cell_angle_alpha   90.00000000
_cell_angle_beta   90.00000000
_cell_angle_gamma   91.11679100
_symmetry_Int_Tables_number   1
_chemical_formula_structural   Ca5(Ga3O7)2
_chemical_formula_sum   'Ca10 Ga12 O28'
_cell_volume   702.80554468
_cell_formula_units_Z   2
loop_
 _symmetry_equiv_pos_site_id
 _symmetry_equiv_pos_as_xyz
  1  'x, y, z'
loop_
 _atom_site_type_symbol
 _atom_site_label
 _atom_site_symmetry_multiplicity
 _atom_site_fract_x
 _atom_site_fract_y
 _atom_site_fract_z
 _atom_site_occupancy
  O  O0  1  0.70185608  0.70185608  0.11723419  1
  O  O1  1  0.29814392  0.29814392  0.61723419  1
  O  O2  1  0.25141242  0.50082150  0.36932948  1
  O  O3  1  0.74858758  0.49917850  0.86932948  1
  O  O4  1  0.49917850  0.74858758  0.86932948  1
  O  O5  1  0.50082150  0.25141242  0.36932948  1
  O  O6  1  0.98902410  0.98902410  0.13821768  1
  O  O7  1  0.01097590  0.01097590  0.63821768  1
  O  O8  1  0.81001488  0.48857756  0.33723184  1
  O  O9  1  0.18998512  0.51142244  0.83723184  1
  O  O10  1  0.51142244  0.18998512  0.83723184  1
  O  O11  1  0.48857756  0.81001488  0.33723184  1
  O  O12  1  0.85323294  0.85323294  0.87854678  1
  O  O13  1  0.14676706  0.14676706  0.37854678  1
  O  O14  1  0.06069415  0.80785311  0.37951857  1
  O  O15  1  0.93930585  0.19214689  0.87951857  1
  O  O16  1  0.19214689  0.93930585  0.87951857  1
  O  O17  1  0.80785311  0.06069415  0.37951857  1
  O  O18  1  0.76341775  0.29376596  0.59319253  1
  O  O19  1  0.23658225  0.70623404  0.09319253  1
  O  O20  1  0.70623404  0.23658225  0.09319253  1
  O  O21  1  0.29376596  0.76341775  0.59319253  1
  O  O22  1  0.56513616  0.99176101  0.58524138  1
  O  O23  1  0.43486384  0.00823899  0.08524138  1
  O  O24  1  0.00823899  0.43486384  0.08524138  1
  O  O25  1  0.99176101  0.56513616  0.58524138  1
  O  O26  1  0.61261200  0.61261200  0.57552998  1
  O  O27  1  0.38738800  0.38738800  0.07552998  1
  Ca  Ca28  1  0.25820821  0.94113779  0.24968205  1
  Ca  Ca29  1  0.74179179  0.05886221  0.74968205  1
  Ca  Ca30  1  0.05886221  0.74179179  0.74968205  1
  Ca  Ca31  1  0.94113779  0.25820821  0.24968205  1
  Ca  Ca32  1  0.67205278  0.95803624  0.20204282  1
  Ca  Ca33  1  0.32794722  0.04196376  0.70204282  1
  Ca  Ca34  1  0.04196376  0.32794722  0.70204282  1
  Ca  Ca35  1  0.95803624  0.67205278  0.20204282  1
  Ca  Ca36  1  0.52700989  0.52700989  0.24748765  1
  Ca  Ca37  1  0.47299011  0.47299011  0.74748765  1
  Ga  Ga38  1  0.49783923  0.21117945  0.00966225  1
  Ga  Ga39  1  0.50216077  0.78882055  0.50966225  1
  Ga  Ga40  1  0.21117945  0.49783923  0.00966225  1
  Ga  Ga41  1  0.78882055  0.50216077  0.50966225  1
  Ga  Ga42  1  0.29992243  0.29992243  0.44375578  1
  Ga  Ga43  1  0.70007757  0.70007757  0.94375578  1
  Ga  Ga44  1  0.00043712  0.00043712  0.46692078  1
  Ga  Ga45  1  0.99956288  0.99956288  0.96692078  1
  Ga  Ga46  1  0.64774025  0.15917401  0.47855266  1
  Ga  Ga47  1  0.35225975  0.84082599  0.97855266  1
  Ga  Ga48  1  0.84082599  0.35225975  0.97855266  1
  Ga  Ga49  1  0.15917401  0.64774025  0.47855266  1
