# generated using pymatgen
data_Li2V2(PO4)3
_symmetry_space_group_name_H-M   'P 1'
_cell_length_a   8.62616743
_cell_length_b   8.74979350
_cell_length_c   12.15662427
_cell_angle_alpha   90.00000000
_cell_angle_beta   90.11760781
_cell_angle_gamma   90.00000000
_symmetry_Int_Tables_number   1
_chemical_formula_structural   Li2V2(PO4)3
_chemical_formula_sum   'Li8 V8 P12 O48'
_cell_volume   917.54582995
_cell_formula_units_Z   4
loop_
 _symmetry_equiv_pos_site_id
 _symmetry_equiv_pos_as_xyz
  1  'x, y, z'
loop_
 _atom_site_type_symbol
 _atom_site_label
 _atom_site_symmetry_multiplicity
 _atom_site_fract_x
 _atom_site_fract_y
 _atom_site_fract_z
 _atom_site_occupancy
  Li  Li0  1  0.21370166  0.78044892  0.18069697  1
  Li  Li1  1  0.22024708  0.72492395  0.81378391  1
  Li  Li2  1  0.27975292  0.22492368  0.68621584  1
  Li  Li3  1  0.28629845  0.28044866  0.31930264  1
  Li  Li4  1  0.71370176  0.71955073  0.68069740  1
  Li  Li5  1  0.72024729  0.77507686  0.31378419  1
  Li  Li6  1  0.77975312  0.27507659  0.18621530  1
  Li  Li7  1  0.78629855  0.21955046  0.81930307  1
  O  O8  1  0.05778162  0.64360308  0.57045564  1
  O  O9  1  0.06223363  0.86815697  0.43507076  1
  O  O10  1  0.07177174  0.89044936  0.84429874  1
  O  O11  1  0.07611077  0.59654536  0.15420907  1
  O  O12  1  0.13966335  0.33004302  0.58548792  1
  O  O13  1  0.15230827  0.43893258  0.97423722  1
  O  O14  1  0.15611205  0.23484203  0.82487229  1
  O  O15  1  0.14918007  0.16160885  0.42033100  1
  O  O16  1  0.17064051  0.98810782  0.23396955  1
  O  O17  1  0.16249332  0.05113102  0.03553391  1
  O  O18  1  0.16952959  0.26850170  0.17690525  1
  O  O19  1  0.17648459  0.51643733  0.77687969  1
  O  O20  1  0.32351541  0.01643821  0.72312007  1
  O  O21  1  0.33047051  0.76850197  0.32309519  1
  O  O22  1  0.33750679  0.55113129  0.46446569  1
  O  O23  1  0.32935960  0.48810755  0.26603089  1
  O  O24  1  0.35082003  0.66160797  0.07966860  1
  O  O25  1  0.34388796  0.73484230  0.67512829  1
  O  O26  1  0.34769174  0.93893285  0.52576253  1
  O  O27  1  0.36033666  0.83004214  0.91451183  1
  O  O28  1  0.42388933  0.09654509  0.34579054  1
  O  O29  1  0.42822827  0.39045024  0.65570102  1
  O  O30  1  0.43776647  0.36815785  0.06492884  1
  O  O31  1  0.44221839  0.14360282  0.92954411  1
  O  O32  1  0.55778182  0.85639772  0.07045593  1
  O  O33  1  0.56223374  0.63184269  0.93507119  1
  O  O34  1  0.57177194  0.60955029  0.34429902  1
  O  O35  1  0.57611087  0.90345430  0.65420950  1
  O  O36  1  0.63966355  0.16995725  0.08548821  1
  O  O37  1  0.65230847  0.06106768  0.47423750  1
  O  O38  1  0.65611225  0.26515709  0.32487175  1
  O  O39  1  0.64918018  0.33839142  0.92033144  1
  O  O40  1  0.67064061  0.51189184  0.73396915  1
  O  O41  1  0.66249342  0.44886924  0.53553435  1
  O  O42  1  0.66952970  0.23149857  0.67690485  1
  O  O43  1  0.67648363  0.98356233  0.27687997  1
  O  O44  1  0.82351562  0.48356206  0.22312035  1
  O  O45  1  0.83047062  0.73149884  0.82309479  1
  O  O46  1  0.83750573  0.94886836  0.96446612  1
  O  O47  1  0.82935970  0.01189272  0.76603049  1
  O  O48  1  0.85082014  0.83839169  0.57966903  1
  O  O49  1  0.84388816  0.76515736  0.17512775  1
  O  O50  1  0.84769194  0.56106680  0.02576282  1
  O  O51  1  0.86033686  0.66995752  0.41451212  1
  O  O52  1  0.92388944  0.40345518  0.84579014  1
  O  O53  1  0.92822731  0.10955002  0.15570130  1
  O  O54  1  0.93776657  0.13184242  0.56492928  1
  O  O55  1  0.94221743  0.35639745  0.42954440  1
  P  P56  1  0.03826616  0.24863881  0.50019910  1
  P  P57  1  0.10410865  0.39720279  0.85516747  1
  P  P58  1  0.10693336  0.10589453  0.14724780  1
  P  P59  1  0.39306675  0.60589365  0.35275181  1
  P  P60  1  0.39589136  0.89720306  0.64483311  1
  P  P61  1  0.46173395  0.74863793  -0.00019950  1
  P  P62  1  0.53826626  0.25136146  1.00019954  1
  P  P63  1  0.60410885  0.10279633  0.35516693  1
  P  P64  1  0.60693346  0.39410573  0.64724823  1
  P  P65  1  0.89306685  0.89410600  0.85275224  1
  P  P66  1  0.89589156  0.60279659  0.14483256  1
  P  P67  1  0.96173289  0.75136173  0.49980093  1
  V  V68  1  0.24813763  0.53501788  0.61450130  1
  V  V69  1  0.24553158  0.96335465  0.38822906  1
  V  V70  1  0.25186237  0.03501876  0.88549845  1
  V  V71  1  0.25446852  0.46335438  0.11177138  1
  V  V72  1  0.74553052  0.53664501  0.88822866  1
  V  V73  1  0.74813667  0.96498177  0.11450159  1
  V  V74  1  0.75446863  0.03664474  0.61177098  1
  V  V75  1  0.75186257  0.46498150  0.38549873  1
