# generated using pymatgen
data_Ga3Pd7
_symmetry_space_group_name_H-M   'P 1'
_cell_length_a   4.11814360
_cell_length_b   5.53947628
_cell_length_c   7.18704245
_cell_angle_alpha   104.38510011
_cell_angle_beta   106.64839975
_cell_angle_gamma   89.99999995
_symmetry_Int_Tables_number   1
_chemical_formula_structural   Ga3Pd7
_chemical_formula_sum   'Ga3 Pd7'
_cell_volume   151.70762166
_cell_formula_units_Z   1
loop_
 _symmetry_equiv_pos_site_id
 _symmetry_equiv_pos_as_xyz
  1  'x, y, z'
loop_
 _atom_site_type_symbol
 _atom_site_label
 _atom_site_symmetry_multiplicity
 _atom_site_fract_x
 _atom_site_fract_y
 _atom_site_fract_z
 _atom_site_occupancy
  Ga  Ga0  1  0.00000000  0.00000000  0.00000000  1
  Ga  Ga1  1  0.80899107  0.33772181  0.61798214  1
  Ga  Ga2  1  0.19100893  0.66227819  0.38201786  1
  Pd  Pd3  1  0.00000000  0.50000000  0.00000000  1
  Pd  Pd4  1  0.79388815  0.86154624  0.58777629  1
  Pd  Pd5  1  0.20611185  0.13845376  0.41222371  1
  Pd  Pd6  1  0.62561499  0.38508463  0.25122999  1
  Pd  Pd7  1  0.37438501  0.61491537  0.74877001  1
  Pd  Pd8  1  0.58217258  0.85544667  0.16434516  1
  Pd  Pd9  1  0.41782742  0.14455333  0.83565484  1
