# generated using pymatgen
data_CaP4O11
_symmetry_space_group_name_H-M   'P 1'
_cell_length_a   8.80597109
_cell_length_b   8.93758045
_cell_length_c   12.94270233
_cell_angle_alpha   90.00000000
_cell_angle_beta   90.00000000
_cell_angle_gamma   92.45365582
_symmetry_Int_Tables_number   1
_chemical_formula_structural   CaP4O11
_chemical_formula_sum   'Ca4 P16 O44'
_cell_volume   1017.70949959
_cell_formula_units_Z   4
loop_
 _symmetry_equiv_pos_site_id
 _symmetry_equiv_pos_as_xyz
  1  'x, y, z'
loop_
 _atom_site_type_symbol
 _atom_site_label
 _atom_site_symmetry_multiplicity
 _atom_site_fract_x
 _atom_site_fract_y
 _atom_site_fract_z
 _atom_site_occupancy
  O  O0  1  0.13870478  0.63707446  0.60206365  1
  O  O1  1  0.36129522  0.86292554  0.10206365  1
  O  O2  1  0.86129522  0.36292554  0.39793635  1
  O  O3  1  0.63870478  0.13707446  0.89793635  1
  O  O4  1  0.16143876  0.67405378  0.80157435  1
  O  O5  1  0.33856124  0.82594622  0.30157435  1
  O  O6  1  0.83856124  0.32594622  0.19842565  1
  O  O7  1  0.66143876  0.17405378  0.69842565  1
  O  O8  1  0.02470509  0.76482538  0.39290799  1
  O  O9  1  0.47529491  0.73517462  0.89290799  1
  O  O10  1  0.97529491  0.23517462  0.60709201  1
  O  O11  1  0.52470509  0.26482538  0.10709201  1
  O  O12  1  0.70877065  0.47775916  0.59967701  1
  O  O13  1  0.79122935  0.02224084  0.09967701  1
  O  O14  1  0.29122935  0.52224084  0.40032299  1
  O  O15  1  0.97829235  0.71892627  0.02365020  1
  O  O16  1  0.20877065  0.97775916  0.90032299  1
  O  O17  1  0.74099608  0.98180652  0.48432140  1
  O  O18  1  0.24099608  0.48180652  0.01567860  1
  O  O19  1  0.25900392  0.01819348  0.51567860  1
  O  O20  1  0.28989061  0.25854276  0.90465127  1
  O  O21  1  0.21010939  0.24145724  0.40465127  1
  O  O22  1  0.71010939  0.74145724  0.09534873  1
  O  O23  1  0.78989061  0.75854276  0.59534873  1
  O  O24  1  0.23353964  0.22115140  0.09701916  1
  O  O25  1  0.26646036  0.27884860  0.59701916  1
  O  O26  1  0.76646036  0.77884860  0.90298084  1
  O  O27  1  0.73353964  0.72115140  0.40298084  1
  O  O28  1  0.14139200  0.14482155  0.75153560  1
  O  O29  1  0.35860800  0.35517845  0.25153560  1
  O  O30  1  0.85860800  0.85517845  0.24846440  1
  O  O31  1  0.64139200  0.64482155  0.74846440  1
  O  O32  1  0.41124321  0.09442264  0.77555395  1
  O  O33  1  0.08875679  0.40557736  0.27555395  1
  O  O34  1  0.58875679  0.90557736  0.22444605  1
  O  O35  1  0.91124321  0.59442264  0.72444605  1
  O  O36  1  0.62522289  0.91705657  0.77007693  1
  O  O37  1  0.87477711  0.58294343  0.27007693  1
  O  O38  1  0.37477711  0.08294343  0.22992307  1
  O  O39  1  0.12522289  0.41705657  0.72992307  1
  O  O40  1  0.47829235  0.21892627  0.47634980  1
  O  O41  1  0.02170765  0.28107373  0.97634980  1
  O  O42  1  0.52170765  0.78107373  0.52365020  1
  O  O43  1  0.75900392  0.51819348  0.98432140  1
  P  P44  1  0.59741867  0.09613558  0.79012929  1
  P  P45  1  0.90258133  0.40386442  0.29012929  1
  P  P46  1  0.40258133  0.90386442  0.20987071  1
  P  P47  1  0.09741867  0.59613558  0.70987071  1
  P  P48  1  0.11636218  0.26856074  0.66433727  1
  P  P49  1  0.38363782  0.23143926  0.16433727  1
  P  P50  1  0.88363782  0.73143926  0.33566273  1
  P  P51  1  0.61636218  0.76856074  0.83566273  1
  P  P52  1  0.76180892  0.60908467  0.65963016  1
  P  P53  1  0.73819108  0.89091533  0.15963016  1
  P  P54  1  0.23819108  0.39091533  0.34036984  1
  P  P55  1  0.26180892  0.10908467  0.84036984  1
  P  P56  1  0.81700477  0.67452320  0.00196895  1
  P  P57  1  0.68299523  0.82547680  0.50196895  1
  P  P58  1  0.18299523  0.32547680  0.99803105  1
  P  P59  1  0.31700477  0.17452320  0.49803105  1
  Ca  Ca60  1  0.73149111  0.23429288  0.53131177  1
  Ca  Ca61  1  0.76850889  0.26570712  0.03131177  1
  Ca  Ca62  1  0.26850889  0.76570712  0.46868823  1
  Ca  Ca63  1  0.23149111  0.73429288  0.96868823  1
