# generated using pymatgen
data_Mg2GeO4
_symmetry_space_group_name_H-M   'P 1'
_cell_length_a   5.90429430
_cell_length_b   5.90429430
_cell_length_c   5.90429430
_cell_angle_alpha   60.00000000
_cell_angle_beta   60.00000002
_cell_angle_gamma   60.00000003
_symmetry_Int_Tables_number   1
_chemical_formula_structural   Mg2GeO4
_chemical_formula_sum   'Mg4 Ge2 O8'
_cell_volume   145.54221933
_cell_formula_units_Z   2
loop_
 _symmetry_equiv_pos_site_id
 _symmetry_equiv_pos_as_xyz
  1  'x, y, z'
loop_
 _atom_site_type_symbol
 _atom_site_label
 _atom_site_symmetry_multiplicity
 _atom_site_fract_x
 _atom_site_fract_y
 _atom_site_fract_z
 _atom_site_occupancy
  O  O0  1  0.25016940  0.25016940  0.74949179  1
  O  O1  1  0.74983060  0.74983060  0.74983060  1
  O  O2  1  0.74983060  0.25050821  0.74983060  1
  O  O3  1  0.25050821  0.74983060  0.74983060  1
  O  O4  1  0.74949179  0.25016940  0.25016940  1
  O  O5  1  0.25016940  0.25016940  0.25016940  1
  O  O6  1  0.74983060  0.74983060  0.25050821  1
  O  O7  1  0.25016940  0.74949179  0.25016940  1
  Mg  Mg8  1  0.00000000  0.50000000  0.00000000  1
  Mg  Mg9  1  0.50000000  0.00000000  0.00000000  1
  Mg  Mg10  1  0.00000000  0.00000000  0.50000000  1
  Mg  Mg11  1  0.00000000  0.00000000  0.00000000  1
  Ge  Ge12  1  0.37500000  0.37500000  0.37500000  1
  Ge  Ge13  1  0.62500000  0.62500000  0.62500000  1
