# generated using pymatgen
data_NaNd3Ti2(SbO7)2
_symmetry_space_group_name_H-M   'P 1'
_cell_length_a   7.43327679
_cell_length_b   14.84612178
_cell_length_c   12.88073407
_cell_angle_alpha   29.81823030
_cell_angle_beta   54.39618561
_cell_angle_gamma   59.66222640
_symmetry_Int_Tables_number   1
_chemical_formula_structural   NaNd3Ti2(SbO7)2
_chemical_formula_sum   'Na2 Nd6 Ti4 Sb4 O28'
_cell_volume   574.68840050
_cell_formula_units_Z   2
loop_
 _symmetry_equiv_pos_site_id
 _symmetry_equiv_pos_as_xyz
  1  'x, y, z'
loop_
 _atom_site_type_symbol
 _atom_site_label
 _atom_site_symmetry_multiplicity
 _atom_site_fract_x
 _atom_site_fract_y
 _atom_site_fract_z
 _atom_site_occupancy
  Na  Na0  1  0.00000002  0.75000000  0.49999991  1
  Na  Na1  1  -0.00000005  0.74999996  0.00000014  1
  Nd  Nd2  1  0.00003141  0.97944699  0.02051974  1
  Nd  Nd3  1  0.50002420  0.99202531  0.00795136  1
  Nd  Nd4  1  0.49997584  0.50797437  0.99204917  1
  Nd  Nd5  1  0.00000001  0.24999997  0.00000004  1
  Nd  Nd6  1  0.99996905  0.52055304  0.97948000  1
  Nd  Nd7  1  -0.00000027  0.25000000  0.49999999  1
  O  O8  1  0.12564730  0.00138144  0.12151333  1
  O  O9  1  0.18358611  0.19669214  0.17571687  1
  O  O10  1  0.57552074  0.00010132  0.17433947  1
  O  O11  1  0.12561913  0.49863131  0.12430705  1
  O  O12  1  0.57620522  0.20373399  0.16908668  1
  O  O13  1  0.18168822  0.69513464  0.18578970  1
  O  O14  1  0.18355337  0.30329454  0.56910044  1
  O  O15  1  0.42382000  0.20371555  0.42346533  1
  O  O16  1  0.18044859  0.48180087  0.58744778  1
  O  O17  1  0.57551071  0.49989697  0.17455456  1
  O  O18  1  0.81955144  0.01819917  0.41255224  1
  O  O19  1  0.42448947  0.00010300  0.82544536  1
  O  O20  1  0.57168492  0.70100274  0.17671245  1
  O  O21  1  0.81644691  0.19670553  0.43089942  1
  O  O22  1  0.57617989  0.29628443  0.57653468  1
  O  O23  1  0.42831651  0.70100847  0.42127403  1
  O  O24  1  0.18168861  0.80485869  0.57607648  1
  O  O25  1  0.42379481  0.29626587  0.83091345  1
  O  O26  1  0.81954306  0.48179735  0.44894905  1
  O  O27  1  0.18045685  0.01820250  0.55105105  1
  O  O28  1  0.87438087  0.00136881  0.87569283  1
  O  O29  1  0.42447919  0.49989858  0.82566069  1
  O  O30  1  0.81831111  0.69514139  0.42392351  1
  O  O31  1  0.57168354  0.79899145  0.57872608  1
  O  O32  1  0.81641365  0.30330798  0.82428312  1
  O  O33  1  0.42831508  0.79899719  0.82328757  1
  O  O34  1  0.87435274  0.49861864  0.87848659  1
  O  O35  1  0.81831193  0.80486560  0.81420995  1
  Sb  Sb36  1  0.50002142  0.00506292  0.49492906  1
  Sb  Sb37  1  0.49997859  0.49493701  0.50507102  1
  Sb  Sb38  1  0.50000040  0.75000007  0.49999972  1
  Sb  Sb39  1  0.49999970  0.75000000  0.00000015  1
  Ti  Ti40  1  0.50000000  0.25000001  0.50000001  1
  Ti  Ti41  1  0.49999984  0.25000004  0.00000000  1
  Ti  Ti42  1  1.00000251  0.48786804  0.51213160  1
  Ti  Ti43  1  -0.00000266  0.01213211  0.48786833  1
