# generated using pymatgen
data_Nd2EuS4
_symmetry_space_group_name_H-M   'P 1'
_cell_length_a   7.48070480
_cell_length_b   7.48070487
_cell_length_c   7.48070498
_cell_angle_alpha   109.31181583
_cell_angle_beta   109.31181601
_cell_angle_gamma   109.79050273
_symmetry_Int_Tables_number   1
_chemical_formula_structural   Nd2EuS4
_chemical_formula_sum   'Nd4 Eu2 S8'
_cell_volume   322.25194953
_cell_formula_units_Z   2
loop_
 _symmetry_equiv_pos_site_id
 _symmetry_equiv_pos_as_xyz
  1  'x, y, z'
loop_
 _atom_site_type_symbol
 _atom_site_label
 _atom_site_symmetry_multiplicity
 _atom_site_fract_x
 _atom_site_fract_y
 _atom_site_fract_z
 _atom_site_occupancy
  Nd  Nd0  1  0.12283508  0.75000000  0.87283508  1
  Nd  Nd1  1  0.25000000  0.62283508  0.37283508  1
  Nd  Nd2  1  0.37716492  0.25000000  0.62716492  1
  Nd  Nd3  1  0.75000000  0.87716492  0.12716492  1
  Eu  Eu4  1  0.62500000  0.37500000  0.25000000  1
  Eu  Eu5  1  0.87500000  0.12500000  0.75000000  1
  S  S6  1  0.00522425  0.85501380  0.49991079  1
  S  S7  1  0.49477575  0.99468655  0.84978955  1
  S  S8  1  0.14498620  0.14489700  0.15021045  1
  S  S9  1  0.49468655  0.99477575  0.34978955  1
  S  S10  1  0.35501380  0.50522425  -0.00008921  1
  S  S11  1  0.64489700  0.64498620  0.65021045  1
  S  S12  1  0.85510300  0.50531345  0.00008921  1
  S  S13  1  0.00531345  0.35510300  0.50008921  1
