# generated using pymatgen
data_Pr2EuS4
_symmetry_space_group_name_H-M   'P 1'
_cell_length_a   7.51560979
_cell_length_b   7.51560906
_cell_length_c   7.51560979
_cell_angle_alpha   109.43673983
_cell_angle_beta   109.43674541
_cell_angle_gamma   109.54020336
_symmetry_Int_Tables_number   1
_chemical_formula_structural   Pr2EuS4
_chemical_formula_sum   'Pr4 Eu2 S8'
_cell_volume   326.79111524
_cell_formula_units_Z   2
loop_
 _symmetry_equiv_pos_site_id
 _symmetry_equiv_pos_as_xyz
  1  'x, y, z'
loop_
 _atom_site_type_symbol
 _atom_site_label
 _atom_site_symmetry_multiplicity
 _atom_site_fract_x
 _atom_site_fract_y
 _atom_site_fract_z
 _atom_site_occupancy
  Eu  Eu0  1  0.62500000  0.37500000  0.25000000  1
  Eu  Eu1  1  0.87500000  0.12500000  0.75000000  1
  Pr  Pr2  1  0.12243009  0.75000000  0.87243009  1
  Pr  Pr3  1  0.25000000  0.62243009  0.37243009  1
  Pr  Pr4  1  0.37756991  0.25000000  0.62756991  1
  Pr  Pr5  1  0.75000000  0.87756991  0.12756991  1
  S  S6  1  0.00434747  0.85419666  0.50023174  1
  S  S7  1  0.00411572  0.35396492  0.49976826  1
  S  S8  1  0.14580334  0.14603508  0.15015081  1
  S  S9  1  0.35419666  0.50434747  1.00023174  1
  S  S10  1  0.64603508  0.64580334  0.65015081  1
  S  S11  1  0.49565253  0.99588428  0.84984919  1
  S  S12  1  0.49588428  0.99565253  0.34984919  1
  S  S13  1  0.85396492  0.50411572  -0.00023174  1
