# generated using pymatgen
data_RbTiZnOF5
_symmetry_space_group_name_H-M   'P 1'
_cell_length_a   7.42560124
_cell_length_b   7.32424684
_cell_length_c   7.42560200
_cell_angle_alpha   60.45050343
_cell_angle_beta   58.81185741
_cell_angle_gamma   60.45050084
_symmetry_Int_Tables_number   1
_chemical_formula_structural   RbTiZnOF5
_chemical_formula_sum   'Rb2 Ti2 Zn2 O2 F10'
_cell_volume   284.79492293
_cell_formula_units_Z   2
loop_
 _symmetry_equiv_pos_site_id
 _symmetry_equiv_pos_as_xyz
  1  'x, y, z'
loop_
 _atom_site_type_symbol
 _atom_site_label
 _atom_site_symmetry_multiplicity
 _atom_site_fract_x
 _atom_site_fract_y
 _atom_site_fract_z
 _atom_site_occupancy
  F  F0  1  0.09281713  0.06467375  0.66018414  1
  F  F1  1  0.07505546  0.67494454  0.07505546  1
  F  F2  1  0.09281713  0.68232499  0.66018414  1
  F  F3  1  0.66018414  0.06467375  0.09281713  1
  F  F4  1  0.33981586  0.31767501  0.90718287  1
  F  F5  1  0.66018414  0.68232499  0.09281713  1
  F  F6  1  0.33981586  0.93532625  0.90718287  1
  F  F7  1  0.90718287  0.31767501  0.33981586  1
  F  F8  1  0.90718287  0.93532625  0.33981586  1
  F  F9  1  0.92494454  0.32505546  0.92494454  1
  O  O10  1  0.28429946  0.96570054  0.28429946  1
  O  O11  1  0.71570054  0.03429946  0.71570054  1
  Rb  Rb12  1  0.37540264  0.37459736  0.37540264  1
  Rb  Rb13  1  0.62459736  0.62540264  0.62459736  1
  Ti  Ti14  1  0.00000000  0.00000000  0.50000000  1
  Ti  Ti15  1  0.50000000  0.00000000  0.00000000  1
  Zn  Zn16  1  0.00000000  0.00000000  0.00000000  1
  Zn  Zn17  1  0.00000000  0.50000000  0.00000000  1
