# generated using pymatgen
data_Ta3P
_symmetry_space_group_name_H-M   'P 1'
_cell_length_a   5.04418067
_cell_length_b   10.22605073
_cell_length_c   10.22605073
_cell_angle_alpha   90.00000000
_cell_angle_beta   90.00000000
_cell_angle_gamma   90.00000000
_symmetry_Int_Tables_number   1
_chemical_formula_structural   Ta3P
_chemical_formula_sum   'Ta24 P8'
_cell_volume   527.48063370
_cell_formula_units_Z   8
loop_
 _symmetry_equiv_pos_site_id
 _symmetry_equiv_pos_as_xyz
  1  'x, y, z'
loop_
 _atom_site_type_symbol
 _atom_site_label
 _atom_site_symmetry_multiplicity
 _atom_site_fract_x
 _atom_site_fract_y
 _atom_site_fract_z
 _atom_site_occupancy
  Ta  Ta0  1  0.74328090  0.15900177  0.65562099  1
  Ta  Ta1  1  0.24328090  0.34437901  0.65900177  1
  Ta  Ta2  1  0.24328090  0.15562099  0.84099823  1
  Ta  Ta3  1  0.74328090  0.34099823  0.84437901  1
  Ta  Ta4  1  0.25671910  0.84099823  0.34437901  1
  Ta  Ta5  1  0.75671910  0.65562099  0.34099823  1
  Ta  Ta6  1  0.75671910  0.84437901  0.15900177  1
  Ta  Ta7  1  0.25671910  0.65900177  0.15562099  1
  Ta  Ta8  1  0.50487281  0.10438984  0.25368580  1
  Ta  Ta9  1  0.00487281  0.74631420  0.60438984  1
  Ta  Ta10  1  0.00487281  0.75368580  0.89561016  1
  Ta  Ta11  1  0.50487281  0.39561016  0.24631420  1
  Ta  Ta12  1  0.49512719  0.89561016  0.74631420  1
  Ta  Ta13  1  0.99512719  0.25368580  0.39561016  1
  Ta  Ta14  1  0.99512719  0.24631420  0.10438984  1
  Ta  Ta15  1  0.49512719  0.60438984  0.75368580  1
  Ta  Ta16  1  0.24741909  0.05275297  0.54568778  1
  Ta  Ta17  1  0.74741909  0.45431222  0.55275297  1
  Ta  Ta18  1  0.74741909  0.04568778  0.94724703  1
  Ta  Ta19  1  0.24741909  0.44724703  0.95431222  1
  Ta  Ta20  1  0.75258091  0.94724703  0.45431222  1
  Ta  Ta21  1  0.25258091  0.54568778  0.44724703  1
  Ta  Ta22  1  0.25258091  0.95431222  0.05275297  1
  Ta  Ta23  1  0.75258091  0.55275297  0.04568778  1
  P  P24  1  0.00625346  0.04245418  0.25794386  1
  P  P25  1  0.50625346  0.74205614  0.54245418  1
  P  P26  1  0.50625346  0.75794386  0.95754582  1
  P  P27  1  0.00625346  0.45754582  0.24205614  1
  P  P28  1  0.99374654  0.95754582  0.74205614  1
  P  P29  1  0.49374654  0.25794386  0.45754582  1
  P  P30  1  0.49374654  0.24205614  0.04245418  1
  P  P31  1  0.99374654  0.54245418  0.75794386  1
