# generated using pymatgen
data_Be2TlF5
_symmetry_space_group_name_H-M   'P 1'
_cell_length_a   4.73464952
_cell_length_b   8.21195874
_cell_length_c   12.98932274
_cell_angle_alpha   90.82454555
_cell_angle_beta   90.00000000
_cell_angle_gamma   90.00000000
_symmetry_Int_Tables_number   1
_chemical_formula_structural   Be2TlF5
_chemical_formula_sum   'Be8 Tl4 F20'
_cell_volume   504.98226862
_cell_formula_units_Z   4
loop_
 _symmetry_equiv_pos_site_id
 _symmetry_equiv_pos_as_xyz
  1  'x, y, z'
loop_
 _atom_site_type_symbol
 _atom_site_label
 _atom_site_symmetry_multiplicity
 _atom_site_fract_x
 _atom_site_fract_y
 _atom_site_fract_z
 _atom_site_occupancy
  Be  Be0  1  0.47496943  0.83065282  0.79215456  1
  Be  Be1  1  0.47496943  0.16934718  0.70784544  1
  Be  Be2  1  0.52503057  0.16934718  0.20784544  1
  Be  Be3  1  0.52503057  0.83065282  0.29215456  1
  Be  Be4  1  0.97593597  0.33305545  0.79704265  1
  Be  Be5  1  0.97593597  0.66694455  0.70295735  1
  Be  Be6  1  0.02406403  0.66694455  0.20295735  1
  Be  Be7  1  0.02406403  0.33305545  0.29704265  1
  Tl  Tl8  1  0.00000000  0.00000000  0.00000000  1
  Tl  Tl9  1  0.00000000  -0.00000000  0.50000000  1
  Tl  Tl10  1  0.50000000  0.50000000  0.00000000  1
  Tl  Tl11  1  0.50000000  0.50000000  0.50000000  1
  F  F12  1  0.57235935  0.00000000  0.75000000  1
  F  F13  1  0.42764065  -0.00000000  0.25000000  1
  F  F14  1  0.06831762  0.50000000  0.75000000  1
  F  F15  1  0.93168238  0.50000000  0.25000000  1
  F  F16  1  0.15849055  0.80406027  0.75730378  1
  F  F17  1  0.15849055  0.19593973  0.74269622  1
  F  F18  1  0.84150945  0.19593973  0.24269622  1
  F  F19  1  0.84150945  0.80406027  0.25730378  1
  F  F20  1  0.65798964  0.30304652  0.76525174  1
  F  F21  1  0.65798964  0.69695348  0.73474826  1
  F  F22  1  0.34201036  0.69695348  0.23474826  1
  F  F23  1  0.34201036  0.30304652  0.26525174  1
  F  F24  1  0.50192783  0.82418614  0.90794287  1
  F  F25  1  0.50192783  0.17581386  0.59205713  1
  F  F26  1  0.49807217  0.17581386  0.09205713  1
  F  F27  1  0.49807217  0.82418614  0.40794287  1
  F  F28  1  0.00822646  0.33086888  0.91276739  1
  F  F29  1  0.00822646  0.66913112  0.58723261  1
  F  F30  1  0.99177354  0.66913112  0.08723261  1
  F  F31  1  0.99177354  0.33086888  0.41276739  1
