# generated using pymatgen
data_RbAlF4
_symmetry_space_group_name_H-M   'P 1'
_cell_length_a   6.39693847
_cell_length_b   7.36952172
_cell_length_c   7.37942958
_cell_angle_alpha   90.00000000
_cell_angle_beta   90.00000000
_cell_angle_gamma   90.00000000
_symmetry_Int_Tables_number   1
_chemical_formula_structural   RbAlF4
_chemical_formula_sum   'Rb4 Al4 F16'
_cell_volume   347.88385128
_cell_formula_units_Z   4
loop_
 _symmetry_equiv_pos_site_id
 _symmetry_equiv_pos_as_xyz
  1  'x, y, z'
loop_
 _atom_site_type_symbol
 _atom_site_label
 _atom_site_symmetry_multiplicity
 _atom_site_fract_x
 _atom_site_fract_y
 _atom_site_fract_z
 _atom_site_occupancy
  F  F0  1  0.72200492  0.01748881  0.50279101  1
  F  F1  1  0.72200492  0.48251119  0.99720899  1
  F  F2  1  0.27799508  0.51748881  0.49720899  1
  F  F3  1  0.27799508  0.98251119  0.00279101  1
  F  F4  1  0.27799508  0.98251119  0.49720899  1
  F  F5  1  0.27799508  0.51748881  0.00279101  1
  F  F6  1  0.72200492  0.48251119  0.50279101  1
  F  F7  1  0.72200492  0.01748881  0.99720899  1
  F  F8  1  0.00731576  0.03295750  0.75000000  1
  F  F9  1  0.00731576  0.46704250  0.75000000  1
  F  F10  1  0.99268424  0.53295750  0.25000000  1
  F  F11  1  0.99268424  0.96704250  0.25000000  1
  F  F12  1  0.97474330  0.75000000  0.96697559  1
  F  F13  1  0.97474330  0.75000000  0.53302441  1
  F  F14  1  0.02525670  0.25000000  0.03302441  1
  F  F15  1  0.02525670  0.25000000  0.46697559  1
  Al  Al16  1  0.00000000  0.00000000  0.50000000  1
  Al  Al17  1  0.00000000  0.50000000  0.00000000  1
  Al  Al18  1  0.00000000  0.50000000  0.50000000  1
  Al  Al19  1  0.00000000  0.00000000  0.00000000  1
  Rb  Rb20  1  0.51943445  0.75000000  0.25000000  1
  Rb  Rb21  1  0.48056555  0.25000000  0.75000000  1
  Rb  Rb22  1  0.48386562  0.25000000  0.25000000  1
  Rb  Rb23  1  0.51613438  0.75000000  0.75000000  1
