# generated using pymatgen
data_InPH2O5
_symmetry_space_group_name_H-M   'P 1'
_cell_length_a   5.51573396
_cell_length_b   5.56834996
_cell_length_c   6.65093866
_cell_angle_alpha   97.17663586
_cell_angle_beta   94.36122726
_cell_angle_gamma   107.21620313
_symmetry_Int_Tables_number   1
_chemical_formula_structural   InPH2O5
_chemical_formula_sum   'In2 P2 H4 O10'
_cell_volume   192.21109444
_cell_formula_units_Z   2
loop_
 _symmetry_equiv_pos_site_id
 _symmetry_equiv_pos_as_xyz
  1  'x, y, z'
loop_
 _atom_site_type_symbol
 _atom_site_label
 _atom_site_symmetry_multiplicity
 _atom_site_fract_x
 _atom_site_fract_y
 _atom_site_fract_z
 _atom_site_occupancy
  In  In0  1  0.13905474  0.73316780  0.22138585  1
  In  In1  1  0.86094526  0.26683220  0.77861415  1
  P  P2  1  0.76546631  0.12383727  0.25622691  1
  P  P3  1  0.23453369  0.87616273  0.74377309  1
  O  O4  1  0.13981270  0.66222344  0.88234026  1
  O  O5  1  0.86018730  0.33777656  0.11765974  1
  O  O6  1  0.82195956  0.87853414  0.16159351  1
  O  O7  1  0.17804044  0.12146586  0.83840649  1
  O  O8  1  0.47213984  0.06918707  0.25343746  1
  O  O9  1  0.52786016  0.93081293  0.74656254  1
  O  O10  1  0.08407143  0.77067854  0.53273626  1
  O  O11  1  0.91592857  0.22932146  0.46726374  1
  O  O12  1  0.42068169  0.53789860  0.26844116  1
  O  O13  1  0.57931831  0.46210140  0.73155884  1
  H  H14  1  0.58037754  0.62902207  0.21461667  1
  H  H15  1  0.41962246  0.37097793  0.78538333  1
  H  H16  1  0.40635944  0.35389153  0.26017800  1
  H  H17  1  0.59364056  0.64610847  0.73982200  1
