# generated using pymatgen
data_KCeF4
_symmetry_space_group_name_H-M   'P 1'
_cell_length_a   3.79474470
_cell_length_b   6.37701259
_cell_length_c   15.83038461
_cell_angle_alpha   90.00000000
_cell_angle_beta   90.00000000
_cell_angle_gamma   90.00000000
_symmetry_Int_Tables_number   1
_chemical_formula_structural   KCeF4
_chemical_formula_sum   'K4 Ce4 F16'
_cell_volume   383.08160997
_cell_formula_units_Z   4
loop_
 _symmetry_equiv_pos_site_id
 _symmetry_equiv_pos_as_xyz
  1  'x, y, z'
loop_
 _atom_site_type_symbol
 _atom_site_label
 _atom_site_symmetry_multiplicity
 _atom_site_fract_x
 _atom_site_fract_y
 _atom_site_fract_z
 _atom_site_occupancy
  K  K0  1  0.25000000  0.72300938  0.79828539  1
  K  K1  1  0.75000000  0.27699062  0.20171461  1
  K  K2  1  0.25000000  0.22300938  0.70171461  1
  K  K3  1  0.75000000  0.77699062  0.29828539  1
  Ce  Ce4  1  0.75000000  0.74899108  0.56193366  1
  Ce  Ce5  1  0.25000000  0.25100892  0.43806634  1
  Ce  Ce6  1  0.75000000  0.24899108  0.93806634  1
  Ce  Ce7  1  0.25000000  0.75100892  0.06193366  1
  F  F8  1  0.75000000  0.86382143  0.96386786  1
  F  F9  1  0.25000000  0.13617857  0.03613214  1
  F  F10  1  0.75000000  0.36382143  0.53613214  1
  F  F11  1  0.25000000  0.63617857  0.46386786  1
  F  F12  1  0.25000000  0.00466870  0.55914194  1
  F  F13  1  0.75000000  0.99533130  0.44085806  1
  F  F14  1  0.25000000  0.50466870  0.94085806  1
  F  F15  1  0.75000000  0.49533130  0.05914194  1
  F  F16  1  0.25000000  0.60379575  0.63609475  1
  F  F17  1  0.75000000  0.39620425  0.36390525  1
  F  F18  1  0.25000000  0.10379575  0.86390525  1
  F  F19  1  0.75000000  0.89620425  0.13609475  1
  F  F20  1  0.75000000  0.91162436  0.69414828  1
  F  F21  1  0.25000000  0.08837564  0.30585172  1
  F  F22  1  0.75000000  0.41162436  0.80585172  1
  F  F23  1  0.25000000  0.58837564  0.19414828  1
