# generated using pymatgen
data_BaGd2CoO5
_symmetry_space_group_name_H-M   'P 1'
_cell_length_a   3.81015001
_cell_length_b   5.89973705
_cell_length_c   6.82146376
_cell_angle_alpha   115.62661384
_cell_angle_beta   106.21768780
_cell_angle_gamma   89.99893977
_symmetry_Int_Tables_number   1
_chemical_formula_structural   BaGd2CoO5
_chemical_formula_sum   'Ba1 Gd2 Co1 O5'
_cell_volume   131.45558666
_cell_formula_units_Z   1
loop_
 _symmetry_equiv_pos_site_id
 _symmetry_equiv_pos_as_xyz
  1  'x, y, z'
loop_
 _atom_site_type_symbol
 _atom_site_label
 _atom_site_symmetry_multiplicity
 _atom_site_fract_x
 _atom_site_fract_y
 _atom_site_fract_z
 _atom_site_occupancy
  O  O0  1  0.35089614  0.59329408  0.70184965  1
  O  O1  1  0.64910721  0.40671701  0.29815796  1
  O  O2  1  0.64909294  0.89147878  0.29815186  1
  O  O3  1  0.35090918  0.10851671  0.70185205  1
  O  O4  1  -0.00000195  0.49999680  -0.00000368  1
  Co  Co5  1  0.50000826  0.50000912  0.00001706  1
  Ba  Ba6  1  0.99998832  0.99998873  0.99997725  1
  Gd  Gd7  1  0.79653559  0.29653515  0.59305159  1
  Gd  Gd8  1  0.20346329  0.70346362  0.40694727  1
