# generated using pymatgen
data_CuNi2(PO4)2
_symmetry_space_group_name_H-M   'P 1'
_cell_length_a   4.73046036
_cell_length_b   6.47292894
_cell_length_c   9.57848640
_cell_angle_alpha   90.00000000
_cell_angle_beta   90.00000000
_cell_angle_gamma   90.49039602
_symmetry_Int_Tables_number   1
_chemical_formula_structural   CuNi2(PO4)2
_chemical_formula_sum   'Cu2 Ni4 P4 O16'
_cell_volume   293.28187640
_cell_formula_units_Z   2
loop_
 _symmetry_equiv_pos_site_id
 _symmetry_equiv_pos_as_xyz
  1  'x, y, z'
loop_
 _atom_site_type_symbol
 _atom_site_label
 _atom_site_symmetry_multiplicity
 _atom_site_fract_x
 _atom_site_fract_y
 _atom_site_fract_z
 _atom_site_occupancy
  O  O0  1  0.34120297  0.95390187  0.11115934  1
  O  O1  1  0.15879703  0.54609813  0.61115934  1
  O  O2  1  0.65879703  0.04609813  0.88884066  1
  O  O3  1  0.84120297  0.45390187  0.38884066  1
  O  O4  1  0.38994894  0.17474755  0.32735597  1
  O  O5  1  0.11005106  0.32525245  0.82735597  1
  O  O6  1  0.61005106  0.82525245  0.67264403  1
  O  O7  1  0.88994894  0.67474755  0.17264403  1
  O  O8  1  0.42392304  0.33999050  0.08243100  1
  O  O9  1  0.07607696  0.16000950  0.58243100  1
  O  O10  1  0.68334958  0.38512655  0.67575873  1
  O  O11  1  0.81665042  0.11487345  0.17575873  1
  O  O12  1  0.31665042  0.61487345  0.32424127  1
  O  O13  1  0.18334958  0.88512655  0.82424127  1
  O  O14  1  0.92392304  0.83999050  0.41756900  1
  O  O15  1  0.57607696  0.66000950  0.91756900  1
  P  P16  1  0.48925049  0.14966448  0.17624793  1
  P  P17  1  0.01074951  0.35033552  0.67624793  1
  P  P18  1  0.51074951  0.85033552  0.82375207  1
  P  P19  1  0.98925049  0.64966448  0.32375207  1
  Ni  Ni20  1  0.97334494  0.14819263  0.37441268  1
  Ni  Ni21  1  0.52665506  0.35180737  0.87441268  1
  Ni  Ni22  1  0.02665506  0.85180737  0.62558732  1
  Ni  Ni23  1  0.47334494  0.64819263  0.12558732  1
  Cu  Cu24  1  0.00000000  0.00000000  0.00000000  1
  Cu  Cu25  1  0.50000000  0.50000000  0.50000000  1
