# generated using pymatgen
data_MnH9C4NO6
_symmetry_space_group_name_H-M   'P 1'
_cell_length_a   8.38350104
_cell_length_b   8.73206026
_cell_length_c   12.12484942
_cell_angle_alpha   90.00000000
_cell_angle_beta   90.00000000
_cell_angle_gamma   90.00000000
_symmetry_Int_Tables_number   1
_chemical_formula_structural   MnH9C4NO6
_chemical_formula_sum   'Mn4 H36 C16 N4 O24'
_cell_volume   887.60246654
_cell_formula_units_Z   4
loop_
 _symmetry_equiv_pos_site_id
 _symmetry_equiv_pos_as_xyz
  1  'x, y, z'
loop_
 _atom_site_type_symbol
 _atom_site_label
 _atom_site_symmetry_multiplicity
 _atom_site_fract_x
 _atom_site_fract_y
 _atom_site_fract_z
 _atom_site_occupancy
  Mn  Mn0  1  0.50000000  0.50000000  0.50000000  1
  Mn  Mn1  1  -0.00000000  -0.00000000  0.00000000  1
  Mn  Mn2  1  0.50000000  0.50000000  -0.00000000  1
  Mn  Mn3  1  -0.00000000  0.00000000  0.50000000  1
  H  H4  1  0.27856752  0.78088300  0.46420795  1
  H  H5  1  0.22143248  0.28088300  0.03579205  1
  H  H6  1  0.72143248  0.21911700  0.96420795  1
  H  H7  1  0.77856752  0.71911700  0.53579205  1
  H  H8  1  0.72143248  0.21911700  0.53579205  1
  H  H9  1  0.77856752  0.71911700  0.96420795  1
  H  H10  1  0.27856752  0.78088300  0.03579205  1
  H  H11  1  0.22143248  0.28088300  0.46420795  1
  H  H12  1  0.57429340  0.49983467  0.25000000  1
  H  H13  1  0.92570660  0.99983467  0.25000000  1
  H  H14  1  0.42570660  0.50016533  0.75000000  1
  H  H15  1  0.07429340  0.00016533  0.75000000  1
  H  H16  1  0.84762601  0.58823172  0.75000000  1
  H  H17  1  0.65237399  0.08823172  0.75000000  1
  H  H18  1  0.15237399  0.41176828  0.25000000  1
  H  H19  1  0.34762601  0.91176828  0.25000000  1
  H  H20  1  0.01315660  0.64458433  0.68028699  1
  H  H21  1  0.48684340  0.14458433  0.81971301  1
  H  H22  1  0.98684340  0.35541567  0.18028699  1
  H  H23  1  0.51315660  0.85541567  0.31971301  1
  H  H24  1  0.98684340  0.35541567  0.31971301  1
  H  H25  1  0.51315660  0.85541567  0.18028699  1
  H  H26  1  0.01315660  0.64458433  0.81971301  1
  H  H27  1  0.48684340  0.14458433  0.68028699  1
  H  H28  1  0.15422797  0.41808242  0.75000000  1
  H  H29  1  0.34577203  0.91808242  0.75000000  1
  H  H30  1  0.84577203  0.58191758  0.25000000  1
  H  H31  1  0.65422797  0.08191758  0.25000000  1
  H  H32  1  0.97772722  0.36575222  0.67635789  1
  H  H33  1  0.52227278  0.86575222  0.82364211  1
  H  H34  1  0.02227278  0.63424778  0.17635789  1
  H  H35  1  0.47772722  0.13424778  0.32364211  1
  H  H36  1  0.02227278  0.63424778  0.32364211  1
  H  H37  1  0.47772722  0.13424778  0.17635789  1
  H  H38  1  0.97772722  0.36575222  0.82364211  1
  H  H39  1  0.52227278  0.86575222  0.67635789  1
  C  C40  1  0.21657536  0.71777698  0.53115873  1
  C  C41  1  0.28342464  0.21777698  0.96884127  1
  C  C42  1  0.78342464  0.28222302  0.03115873  1
  C  C43  1  0.71657536  0.78222302  0.46884127  1
  C  C44  1  0.78342464  0.28222302  0.46884127  1
  C  C45  1  0.71657536  0.78222302  0.03115873  1
  C  C46  1  0.21657536  0.71777698  0.96884127  1
  C  C47  1  0.28342464  0.21777698  0.53115873  1
  C  C48  1  0.44347763  0.48023615  0.25000000  1
  C  C49  1  0.05652237  0.98023615  0.25000000  1
  C  C50  1  0.55652237  0.51976385  0.75000000  1
  C  C51  1  0.94347763  0.01976385  0.75000000  1
  C  C52  1  0.02401167  0.42277561  0.75000000  1
  C  C53  1  0.47598833  0.92277561  0.75000000  1
  C  C54  1  0.97598833  0.57722439  0.25000000  1
  C  C55  1  0.52401167  0.07722439  0.25000000  1
  N  N56  1  0.97153609  0.58543258  0.75000000  1
  N  N57  1  0.52846391  0.08543258  0.75000000  1
  N  N58  1  0.02846391  0.41456742  0.25000000  1
  N  N59  1  0.47153609  0.91456742  0.25000000  1
  O  O60  1  0.28171509  0.59866676  0.56939323  1
  O  O61  1  0.21828491  0.09866676  0.93060677  1
  O  O62  1  0.71828491  0.40133324  0.06939323  1
  O  O63  1  0.78171509  0.90133324  0.43060677  1
  O  O64  1  0.71828491  0.40133324  0.43060677  1
  O  O65  1  0.78171509  0.90133324  0.06939323  1
  O  O66  1  0.28171509  0.59866676  0.93060677  1
  O  O67  1  0.21828491  0.09866676  0.56939323  1
  O  O68  1  0.08339269  0.77142615  0.56436432  1
  O  O69  1  0.41660731  0.27142615  0.93563568  1
  O  O70  1  0.91660731  0.22857385  0.06436432  1
  O  O71  1  0.58339269  0.72857385  0.43563568  1
  O  O72  1  0.91660731  0.22857385  0.43563568  1
  O  O73  1  0.58339269  0.72857385  0.06436432  1
  O  O74  1  0.08339269  0.77142615  0.93563568  1
  O  O75  1  0.41660731  0.27142615  0.56436432  1
  O  O76  1  0.37281352  0.46886852  0.34227360  1
  O  O77  1  0.12718648  0.96886852  0.15772640  1
  O  O78  1  0.62718648  0.53113148  0.84227360  1
  O  O79  1  0.87281352  0.03113148  0.65772640  1
  O  O80  1  0.62718648  0.53113148  0.65772640  1
  O  O81  1  0.87281352  0.03113148  0.84227360  1
  O  O82  1  0.37281352  0.46886852  0.15772640  1
  O  O83  1  0.12718648  0.96886852  0.34227360  1
