# generated using pymatgen
data_Nb3SiTe6
_symmetry_space_group_name_H-M   'P 1'
_cell_length_a   6.41852624
_cell_length_b   11.63838900
_cell_length_c   14.94060416
_cell_angle_alpha   90.00000000
_cell_angle_beta   90.00000000
_cell_angle_gamma   90.00000000
_symmetry_Int_Tables_number   1
_chemical_formula_structural   Nb3SiTe6
_chemical_formula_sum   'Nb12 Si4 Te24'
_cell_volume   1116.08263105
_cell_formula_units_Z   4
loop_
 _symmetry_equiv_pos_site_id
 _symmetry_equiv_pos_as_xyz
  1  'x, y, z'
loop_
 _atom_site_type_symbol
 _atom_site_label
 _atom_site_symmetry_multiplicity
 _atom_site_fract_x
 _atom_site_fract_y
 _atom_site_fract_z
 _atom_site_occupancy
  Nb  Nb0  1  0.16701168  0.83595999  0.25000000  1
  Nb  Nb1  1  0.66701168  0.66404001  0.25000000  1
  Nb  Nb2  1  0.33298832  0.33595999  0.75000000  1
  Nb  Nb3  1  0.83298832  0.16404001  0.75000000  1
  Nb  Nb4  1  0.69778429  0.96626128  0.25000000  1
  Nb  Nb5  1  0.19778429  0.53373872  0.25000000  1
  Nb  Nb6  1  0.80221571  0.46626128  0.75000000  1
  Nb  Nb7  1  0.30221571  0.03373872  0.75000000  1
  Nb  Nb8  1  0.96839856  0.31187024  0.25000000  1
  Nb  Nb9  1  0.46839856  0.18812976  0.25000000  1
  Nb  Nb10  1  0.53160144  0.81187024  0.75000000  1
  Nb  Nb11  1  0.03160144  0.68812976  0.75000000  1
  Si  Si12  1  0.07538332  0.07479518  0.25000000  1
  Si  Si13  1  0.57538332  0.42520482  0.25000000  1
  Si  Si14  1  0.42461668  0.57479518  0.75000000  1
  Si  Si15  1  0.92461668  0.92520482  0.75000000  1
  Te  Te16  1  0.84904208  0.81680109  0.37809564  1
  Te  Te17  1  0.34904208  0.68319891  0.12190436  1
  Te  Te18  1  0.65095792  0.31680109  0.62190436  1
  Te  Te19  1  0.15095792  0.18319891  0.87809564  1
  Te  Te20  1  0.15095792  0.18319891  0.62190436  1
  Te  Te21  1  0.65095792  0.31680109  0.87809564  1
  Te  Te22  1  0.34904208  0.68319891  0.37809564  1
  Te  Te23  1  0.84904208  0.81680109  0.12190436  1
  Te  Te24  1  0.79579838  0.15515205  0.37540797  1
  Te  Te25  1  0.29579838  0.34484795  0.12459203  1
  Te  Te26  1  0.70420162  0.65515205  0.62459203  1
  Te  Te27  1  0.20420162  0.84484795  0.87540797  1
  Te  Te28  1  0.20420162  0.84484795  0.62459203  1
  Te  Te29  1  0.70420162  0.65515205  0.87540797  1
  Te  Te30  1  0.29579838  0.34484795  0.37540797  1
  Te  Te31  1  0.79579838  0.15515205  0.12459203  1
  Te  Te32  1  0.35631210  0.99782782  0.37200668  1
  Te  Te33  1  0.85631210  0.50217218  0.12799332  1
  Te  Te34  1  0.14368790  0.49782782  0.62799332  1
  Te  Te35  1  0.64368790  0.00217218  0.87200668  1
  Te  Te36  1  0.64368790  0.00217218  0.62799332  1
  Te  Te37  1  0.14368790  0.49782782  0.87200668  1
  Te  Te38  1  0.85631210  0.50217218  0.37200668  1
  Te  Te39  1  0.35631210  0.99782782  0.12799332  1
