# generated using pymatgen
data_La3ReO8
_symmetry_space_group_name_H-M   'P 1'
_cell_length_a   6.32781127
_cell_length_b   7.61753044
_cell_length_c   7.60853815
_cell_angle_alpha   110.15375578
_cell_angle_beta   90.00000000
_cell_angle_gamma   90.00000000
_symmetry_Int_Tables_number   1
_chemical_formula_structural   La3ReO8
_chemical_formula_sum   'La6 Re2 O16'
_cell_volume   344.29347679
_cell_formula_units_Z   2
loop_
 _symmetry_equiv_pos_site_id
 _symmetry_equiv_pos_as_xyz
  1  'x, y, z'
loop_
 _atom_site_type_symbol
 _atom_site_label
 _atom_site_symmetry_multiplicity
 _atom_site_fract_x
 _atom_site_fract_y
 _atom_site_fract_z
 _atom_site_occupancy
  Re  Re0  1  0.75000000  0.17847575  0.81592396  1
  Re  Re1  1  0.25000000  0.82152425  0.18407604  1
  La  La2  1  0.25000000  0.34122171  0.10763687  1
  La  La3  1  0.75000000  0.65877829  0.89236313  1
  La  La4  1  0.75000000  0.60286707  0.40017762  1
  La  La5  1  0.25000000  0.39713293  0.59982238  1
  La  La6  1  0.75000000  0.10825543  0.33332915  1
  La  La7  1  0.25000000  0.89174457  0.66667085  1
  O  O8  1  0.00069376  0.33643168  0.33475447  1
  O  O9  1  0.50069376  0.66356832  0.66524553  1
  O  O10  1  0.99930624  0.66356832  0.66524553  1
  O  O11  1  0.49930624  0.33643168  0.33475447  1
  O  O12  1  0.04814281  0.19448848  0.80522550  1
  O  O13  1  0.54814281  0.80551152  0.19477450  1
  O  O14  1  0.95185719  0.80551152  0.19477450  1
  O  O15  1  0.45185719  0.19448848  0.80522550  1
  O  O16  1  0.25000000  0.59573444  0.97086275  1
  O  O17  1  0.75000000  0.40426556  0.02913725  1
  O  O18  1  0.25000000  0.66459743  0.34081730  1
  O  O19  1  0.75000000  0.33540257  0.65918270  1
  O  O20  1  0.25000000  0.03152244  0.41192466  1
  O  O21  1  0.75000000  0.96847756  0.58807534  1
  O  O22  1  0.25000000  0.97280654  0.03949935  1
  O  O23  1  0.75000000  0.02719346  0.96050065  1
