# generated using pymatgen
data_Li2GeF6
_symmetry_space_group_name_H-M   'P 1'
_cell_length_a   8.56255845
_cell_length_b   8.56255845
_cell_length_c   4.69465182
_cell_angle_alpha   90.00000000
_cell_angle_beta   90.00000000
_cell_angle_gamma   120.00000003
_symmetry_Int_Tables_number   1
_chemical_formula_structural   Li2GeF6
_chemical_formula_sum   'Li6 Ge3 F18'
_cell_volume   298.08568351
_cell_formula_units_Z   3
loop_
 _symmetry_equiv_pos_site_id
 _symmetry_equiv_pos_as_xyz
  1  'x, y, z'
loop_
 _atom_site_type_symbol
 _atom_site_label
 _atom_site_symmetry_multiplicity
 _atom_site_fract_x
 _atom_site_fract_y
 _atom_site_fract_z
 _atom_site_occupancy
  Li  Li0  1  0.70192281  0.00000000  0.50000000  1
  Li  Li1  1  0.63342186  0.63342186  0.00000000  1
  Li  Li2  1  0.00000000  0.36657814  0.00000000  1
  Li  Li3  1  0.36657814  0.00000000  0.00000000  1
  Li  Li4  1  0.00000000  0.70192281  0.50000000  1
  Li  Li5  1  0.29807719  0.29807719  0.50000000  1
  F  F6  1  0.09603214  0.20417706  0.21892419  1
  F  F7  1  0.10814491  0.90396786  0.21892419  1
  F  F8  1  0.79582294  0.89185509  0.21892419  1
  F  F9  1  0.46227915  0.22415805  0.29234336  1
  F  F10  1  0.77584195  0.23812110  0.29234336  1
  F  F11  1  0.76187890  0.53772085  0.29234336  1
  F  F12  1  0.23812110  0.77584195  0.70765664  1
  F  F13  1  0.53772085  0.76187890  0.70765664  1
  F  F14  1  0.22415805  0.46227915  0.70765664  1
  F  F15  1  0.42046499  0.55032430  0.26710195  1
  F  F16  1  0.44967570  0.87014069  0.26710195  1
  F  F17  1  0.12985931  0.57953501  0.26710195  1
  F  F18  1  0.87014069  0.44967570  0.73289805  1
  F  F19  1  0.57953501  0.12985931  0.73289805  1
  F  F20  1  0.55032430  0.42046499  0.73289805  1
  F  F21  1  0.20417706  0.09603214  0.78107581  1
  F  F22  1  0.90396786  0.10814491  0.78107581  1
  F  F23  1  0.89185509  0.79582294  0.78107581  1
  Ge  Ge24  1  0.66666667  0.33333333  0.51232108  1
  Ge  Ge25  1  0.33333333  0.66666667  0.48767892  1
  Ge  Ge26  1  0.00000000  0.00000000  0.00000000  1
