# generated using pymatgen
data_K3IO5
_symmetry_space_group_name_H-M   'P 1'
_cell_length_a   6.31764678
_cell_length_b   6.31764678
_cell_length_c   16.86444693
_cell_angle_alpha   90.00000000
_cell_angle_beta   90.00000000
_cell_angle_gamma   90.00000000
_symmetry_Int_Tables_number   1
_chemical_formula_structural   K3IO5
_chemical_formula_sum   'K12 I4 O20'
_cell_volume   673.10495052
_cell_formula_units_Z   4
loop_
 _symmetry_equiv_pos_site_id
 _symmetry_equiv_pos_as_xyz
  1  'x, y, z'
loop_
 _atom_site_type_symbol
 _atom_site_label
 _atom_site_symmetry_multiplicity
 _atom_site_fract_x
 _atom_site_fract_y
 _atom_site_fract_z
 _atom_site_occupancy
  I  I0  1  0.25000000  0.25000000  0.12846847  1
  I  I1  1  0.75000000  0.75000000  0.37153153  1
  I  I2  1  0.75000000  0.75000000  0.87153153  1
  I  I3  1  0.25000000  0.25000000  0.62846847  1
  K  K4  1  0.25000000  0.25000000  0.38810165  1
  K  K5  1  0.75000000  0.75000000  0.11189835  1
  K  K6  1  0.75000000  0.75000000  0.61189835  1
  K  K7  1  0.25000000  0.25000000  0.88810165  1
  K  K8  1  0.25000000  0.75000000  0.00000000  1
  K  K9  1  0.75000000  0.25000000  0.00000000  1
  K  K10  1  0.75000000  0.25000000  0.50000000  1
  K  K11  1  0.25000000  0.75000000  0.50000000  1
  K  K12  1  0.25000000  0.75000000  0.25000000  1
  K  K13  1  0.75000000  0.25000000  0.25000000  1
  K  K14  1  0.75000000  0.25000000  0.75000000  1
  K  K15  1  0.25000000  0.75000000  0.75000000  1
  O  O16  1  0.25000000  0.25000000  0.23689510  1
  O  O17  1  0.75000000  0.75000000  0.26310490  1
  O  O18  1  0.75000000  0.75000000  0.76310490  1
  O  O19  1  0.25000000  0.25000000  0.73689510  1
  O  O20  1  0.44388236  0.46659613  0.10609992  1
  O  O21  1  0.03340387  0.44388236  0.10609992  1
  O  O22  1  0.46659613  0.05611764  0.10609992  1
  O  O23  1  0.94388236  0.53340387  0.39390008  1
  O  O24  1  0.55611764  0.96659613  0.39390008  1
  O  O25  1  0.05611764  0.03340387  0.10609992  1
  O  O26  1  0.96659613  0.94388236  0.39390008  1
  O  O27  1  0.53340387  0.55611764  0.39390008  1
  O  O28  1  0.55611764  0.53340387  0.89390008  1
  O  O29  1  0.96659613  0.55611764  0.89390008  1
  O  O30  1  0.53340387  0.94388236  0.89390008  1
  O  O31  1  0.05611764  0.46659613  0.60609992  1
  O  O32  1  0.44388236  0.03340387  0.60609992  1
  O  O33  1  0.94388236  0.96659613  0.89390008  1
  O  O34  1  0.03340387  0.05611764  0.60609992  1
  O  O35  1  0.46659613  0.44388236  0.60609992  1
