# generated using pymatgen
data_Li2Fe3(P2O7)2
_symmetry_space_group_name_H-M   'P 1'
_cell_length_a   7.66326254
_cell_length_b   7.74347205
_cell_length_c   10.88249000
_cell_angle_alpha   90.00000000
_cell_angle_beta   110.00997990
_cell_angle_gamma   90.00000000
_symmetry_Int_Tables_number   1
_chemical_formula_structural   Li2Fe3(P2O7)2
_chemical_formula_sum   'Li4 Fe6 P8 O28'
_cell_volume   606.78661501
_cell_formula_units_Z   2
loop_
 _symmetry_equiv_pos_site_id
 _symmetry_equiv_pos_as_xyz
  1  'x, y, z'
loop_
 _atom_site_type_symbol
 _atom_site_label
 _atom_site_symmetry_multiplicity
 _atom_site_fract_x
 _atom_site_fract_y
 _atom_site_fract_z
 _atom_site_occupancy
  Li  Li0  1  0.52299451  0.59888077  0.76341619  1
  Li  Li1  1  0.47700549  0.40111923  0.23658381  1
  Li  Li2  1  0.02299451  0.90111923  0.26341619  1
  Li  Li3  1  0.97700549  0.09888077  0.73658381  1
  Fe  Fe4  1  0.04881935  0.79913160  0.54325588  1
  Fe  Fe5  1  0.95118065  0.20086840  0.45674412  1
  Fe  Fe6  1  0.45118065  0.29913160  0.95674412  1
  Fe  Fe7  1  0.54881935  0.70086840  0.04325588  1
  Fe  Fe8  1  0.00000000  0.00000000  0.00000000  1
  Fe  Fe9  1  0.50000000  0.50000000  0.50000000  1
  P  P10  1  0.14915423  0.26691254  0.28470809  1
  P  P11  1  0.85084577  0.73308746  0.71529191  1
  P  P12  1  0.84793868  0.55120727  0.30061306  1
  P  P13  1  0.15206132  0.44879273  0.69938694  1
  P  P14  1  0.65206132  0.05120727  0.19938694  1
  P  P15  1  0.64915423  0.23308746  0.78470809  1
  P  P16  1  0.34793868  0.94879273  0.80061306  1
  P  P17  1  0.35084577  0.76691254  0.21529191  1
  O  O18  1  0.23399988  0.42568061  0.84738954  1
  O  O19  1  0.49415000  0.10925748  0.82577796  1
  O  O20  1  0.78524551  0.99166195  0.13180251  1
  O  O21  1  0.96321997  0.71281062  0.36357287  1
  O  O22  1  0.09399771  0.24061818  0.13973952  1
  O  O23  1  0.46321997  0.78718938  0.86357287  1
  O  O24  1  0.83296217  0.13657089  0.84713281  1
  O  O25  1  0.53678003  0.21281062  0.13642713  1
  O  O26  1  0.28524551  0.50833805  0.63180251  1
  O  O27  1  0.33296217  0.36342911  0.34713281  1
  O  O28  1  0.90600229  0.75938182  0.86026048  1
  O  O29  1  0.59399771  0.25938182  0.63973952  1
  O  O30  1  0.86883756  0.89268194  0.63440691  1
  O  O31  1  0.26600012  0.92568061  0.65261046  1
  O  O32  1  0.00585000  0.60925748  0.67422204  1
  O  O33  1  0.66703783  0.63657089  0.65286719  1
  O  O34  1  0.73399988  0.07431939  0.34738954  1
  O  O35  1  0.36883756  0.60731806  0.13440691  1
  O  O36  1  0.99415000  0.39074252  0.32577796  1
  O  O37  1  0.03678003  0.28718938  0.63642713  1
  O  O38  1  0.76600012  0.57431939  0.15261046  1
  O  O39  1  0.63116244  0.39268194  0.86559309  1
  O  O40  1  0.16703783  0.86342911  0.15286719  1
  O  O41  1  0.40600229  0.74061818  0.36026048  1
  O  O42  1  0.50585000  0.89074252  0.17422204  1
  O  O43  1  0.21475449  0.00833805  0.86819749  1
  O  O44  1  0.13116244  0.10731806  0.36559309  1
  O  O45  1  0.71475449  0.49166195  0.36819749  1
