# generated using pymatgen
data_Li5V5Cl16
_symmetry_space_group_name_H-M   'P 1'
_cell_length_a   7.36286150
_cell_length_b   14.72276582
_cell_length_c   14.72276618
_cell_angle_alpha   59.93639135
_cell_angle_beta   59.99335554
_cell_angle_gamma   59.99335181
_symmetry_Int_Tables_number   1
_chemical_formula_structural   Li5V5Cl16
_chemical_formula_sum   'Li10 V10 Cl32'
_cell_volume   1127.86637331
_cell_formula_units_Z   2
loop_
 _symmetry_equiv_pos_site_id
 _symmetry_equiv_pos_as_xyz
  1  'x, y, z'
loop_
 _atom_site_type_symbol
 _atom_site_label
 _atom_site_symmetry_multiplicity
 _atom_site_fract_x
 _atom_site_fract_y
 _atom_site_fract_z
 _atom_site_occupancy
  Cl  Cl0  1  0.40058029  0.18835369  0.18835369  1
  Cl  Cl1  1  0.39934467  0.18873523  0.42324763  1
  Cl  Cl2  1  0.39934467  0.42324763  0.18873523  1
  Cl  Cl3  1  0.84733765  0.19241292  0.19241292  1
  Cl  Cl4  1  0.40131872  0.43269055  0.43269055  1
  Cl  Cl5  1  0.40271565  0.68621025  0.18592746  1
  Cl  Cl6  1  0.40271565  0.18592746  0.68621025  1
  Cl  Cl7  1  0.85641650  0.43406575  0.20249650  1
  Cl  Cl8  1  0.85641650  0.20249650  0.43406575  1
  Cl  Cl9  1  0.39334104  0.18364523  0.92410228  1
  Cl  Cl10  1  0.39116396  0.68364523  0.42410228  1
  Cl  Cl11  1  0.39334104  0.92410228  0.18364523  1
  Cl  Cl12  1  0.39116396  0.42410228  0.68364523  1
  Cl  Cl13  1  0.85300892  0.18621025  0.68592746  1
  Cl  Cl14  1  0.85300892  0.68592746  0.18621025  1
  Cl  Cl15  1  0.85511853  0.43542289  0.43542289  1
  Cl  Cl16  1  0.39713418  0.43727864  0.93802598  1
  Cl  Cl17  1  0.39713418  0.93802598  0.43727864  1
  Cl  Cl18  1  0.38301067  0.69241292  0.69241292  1
  Cl  Cl19  1  0.85753563  0.43816992  0.70280393  1
  Cl  Cl20  1  0.86051666  0.93816992  0.20280393  1
  Cl  Cl21  1  0.86051666  0.20280393  0.93816992  1
  Cl  Cl22  1  0.85753563  0.70280393  0.43816992  1
  Cl  Cl23  1  0.37668960  0.68873523  0.92324763  1
  Cl  Cl24  1  0.37668960  0.92324763  0.68873523  1
  Cl  Cl25  1  0.84600494  0.68835369  0.68835369  1
  Cl  Cl26  1  0.85225657  0.43802598  0.93727864  1
  Cl  Cl27  1  0.85225657  0.93727864  0.43802598  1
  Cl  Cl28  1  0.40318991  0.93542289  0.93542289  1
  Cl  Cl29  1  0.87045899  0.93406575  0.70249650  1
  Cl  Cl30  1  0.87045899  0.70249650  0.93406575  1
  Cl  Cl31  1  0.86791907  0.93269055  0.93269055  1
  Li  Li32  1  0.99222584  0.00839806  0.00839806  1
  Li  Li33  1  0.14293846  0.30983498  0.30983498  1
  Li  Li34  1  0.14484371  0.30940483  0.80947215  1
  Li  Li35  1  0.14484371  0.80947215  0.30940483  1
  Li  Li36  1  0.99562729  0.50218636  0.00218636  1
  Li  Li37  1  0.61740232  0.30947215  0.80940483  1
  Li  Li38  1  0.61740232  0.80940483  0.30947215  1
  Li  Li39  1  0.97418193  0.50839806  0.50839806  1
  Li  Li40  1  0.61772163  0.80983498  0.80983498  1
  Li  Li41  1  0.99562729  0.00218636  0.50218636  1
  V  V42  1  0.62241954  0.06471341  0.31154649  1
  V  V43  1  0.62241954  0.31154649  0.06471341  1
  V  V44  1  0.62137312  0.31155742  0.31155742  1
  V  V45  1  0.61981550  0.06843313  0.81086430  1
  V  V46  1  0.62158964  0.31086430  0.56843313  1
  V  V47  1  0.62158964  0.56843313  0.31086430  1
  V  V48  1  0.61981550  0.81086430  0.06843313  1
  V  V49  1  0.13239721  0.81155742  0.81155742  1
  V  V50  1  0.62506065  0.81154649  0.56471341  1
  V  V51  1  0.62506065  0.56471341  0.81154649  1
