# generated using pymatgen
data_RbNd(PO3)4
_symmetry_space_group_name_H-M   'P 1'
_cell_length_a   9.17061773
_cell_length_b   10.64689138
_cell_length_c   11.14795557
_cell_angle_alpha   106.39298432
_cell_angle_beta   90.00000000
_cell_angle_gamma   90.00000000
_symmetry_Int_Tables_number   1
_chemical_formula_structural   RbNd(PO3)4
_chemical_formula_sum   'Rb4 Nd4 P16 O48'
_cell_volume   1044.22253557
_cell_formula_units_Z   4
loop_
 _symmetry_equiv_pos_site_id
 _symmetry_equiv_pos_as_xyz
  1  'x, y, z'
loop_
 _atom_site_type_symbol
 _atom_site_label
 _atom_site_symmetry_multiplicity
 _atom_site_fract_x
 _atom_site_fract_y
 _atom_site_fract_z
 _atom_site_occupancy
  Nd  Nd0  1  0.27326213  0.49948022  0.18408223  1
  Nd  Nd1  1  0.77326213  0.00051978  0.31591777  1
  Nd  Nd2  1  0.72673787  0.50051978  0.81591777  1
  Nd  Nd3  1  0.22673787  0.99948022  0.68408223  1
  Rb  Rb4  1  0.92915246  0.19913241  0.95853103  1
  Rb  Rb5  1  0.42915246  0.30086759  0.54146897  1
  Rb  Rb6  1  0.07084754  0.80086759  0.04146897  1
  Rb  Rb7  1  0.57084754  0.69913241  0.45853103  1
  P  P8  1  0.02745275  0.24915138  0.27530942  1
  P  P9  1  0.52745275  0.25084862  0.22469058  1
  P  P10  1  0.97254725  0.75084862  0.72469058  1
  P  P11  1  0.47254725  0.74915138  0.77530942  1
  P  P12  1  0.82717121  0.96113692  0.64099674  1
  P  P13  1  0.32717121  0.53886308  0.85900326  1
  P  P14  1  0.17282879  0.03886308  0.35900326  1
  P  P15  1  0.67282879  0.46113692  0.14099674  1
  P  P16  1  0.59433511  0.14481883  0.76014044  1
  P  P17  1  0.09433511  0.35518117  0.73985956  1
  P  P18  1  0.40566489  0.85518117  0.23985956  1
  P  P19  1  0.90566489  0.64481883  0.26014044  1
  P  P20  1  0.39700078  0.17746828  0.97890938  1
  P  P21  1  0.89700078  0.32253172  0.52109062  1
  P  P22  1  0.60299922  0.82253172  0.02109062  1
  P  P23  1  0.10299922  0.67746828  0.47890938  1
  O  O24  1  0.70695104  0.02374950  0.74846143  1
  O  O25  1  0.20695104  0.47625050  0.75153857  1
  O  O26  1  0.29304896  0.97625050  0.25153857  1
  O  O27  1  0.79304896  0.52374950  0.24846143  1
  O  O28  1  0.08300053  0.85370648  0.78595300  1
  O  O29  1  0.58300053  0.64629352  0.71404700  1
  O  O30  1  0.91699947  0.14629352  0.21404700  1
  O  O31  1  0.41699947  0.35370648  0.28595300  1
  O  O32  1  0.67838462  0.26102061  0.74746905  1
  O  O33  1  0.17838462  0.23897939  0.75253095  1
  O  O34  1  0.32161538  0.73897939  0.25253095  1
  O  O35  1  0.82161538  0.76102061  0.24746905  1
  O  O36  1  0.96521733  0.03834870  0.67629219  1
  O  O37  1  0.46521733  0.46165130  0.82370781  1
  O  O38  1  0.03478267  0.96165130  0.32370781  1
  O  O39  1  0.53478267  0.53834870  0.17629219  1
  O  O40  1  0.96486771  0.40005756  0.82345228  1
  O  O41  1  0.46486771  0.09994244  0.67654772  1
  O  O42  1  0.03513229  0.59994244  0.17654772  1
  O  O43  1  0.53513229  0.90005756  0.32345228  1
  O  O44  1  0.09477907  0.32600602  0.19582933  1
  O  O45  1  0.59477907  0.17399398  0.30417067  1
  O  O46  1  0.90522093  0.67399398  0.80417067  1
  O  O47  1  0.40522093  0.82600602  0.69582933  1
  O  O48  1  0.34470954  0.31636948  0.01582424  1
  O  O49  1  0.84470954  0.18363052  0.48417576  1
  O  O50  1  0.65529046  0.68363052  0.98417576  1
  O  O51  1  0.15529046  0.81636948  0.51582424  1
  O  O52  1  0.65746563  0.31768150  0.16429301  1
  O  O53  1  0.15746563  0.18231850  0.33570699  1
  O  O54  1  0.34253437  0.68231850  0.83570699  1
  O  O55  1  0.84253437  0.81768150  0.66429301  1
  O  O56  1  0.55071652  0.16713130  0.90439159  1
  O  O57  1  0.05071652  0.33286870  0.59560841  1
  O  O58  1  0.44928348  0.83286870  0.09560841  1
  O  O59  1  0.94928348  0.66713130  0.40439159  1
  O  O60  1  0.26010343  0.56171267  0.98592517  1
  O  O61  1  0.76010343  0.93828733  0.51407483  1
  O  O62  1  0.73989657  0.43828733  0.01407483  1
  O  O63  1  0.23989657  0.06171267  0.48592517  1
  O  O64  1  0.20587182  0.57196376  0.40986614  1
  O  O65  1  0.70587182  0.92803624  0.09013386  1
  O  O66  1  0.79412818  0.42803624  0.59013386  1
  O  O67  1  0.29412818  0.07196376  0.90986614  1
  O  O68  1  0.95872269  0.35523651  0.39694702  1
  O  O69  1  0.45872269  0.14476349  0.10305298  1
  O  O70  1  0.04127731  0.64476349  0.60305298  1
  O  O71  1  0.54127731  0.85523651  0.89694702  1
