# generated using pymatgen
data_Y5U2O12
_symmetry_space_group_name_H-M   'P 1'
_cell_length_a   6.59357245
_cell_length_b   6.59804067
_cell_length_c   26.54579045
_cell_angle_alpha   99.15502633
_cell_angle_beta   99.47921993
_cell_angle_gamma   99.01110458
_symmetry_Int_Tables_number   1
_chemical_formula_structural   Y5U2O12
_chemical_formula_sum   'Y20 U8 O48'
_cell_volume   1104.58684155
_cell_formula_units_Z   4
loop_
 _symmetry_equiv_pos_site_id
 _symmetry_equiv_pos_as_xyz
  1  'x, y, z'
loop_
 _atom_site_type_symbol
 _atom_site_label
 _atom_site_symmetry_multiplicity
 _atom_site_fract_x
 _atom_site_fract_y
 _atom_site_fract_z
 _atom_site_occupancy
  O  O0  1  0.05703610  0.92107770  0.92062709  1
  O  O1  1  0.07420474  0.31136741  0.98553116  1
  O  O2  1  0.05650650  0.92220969  0.67088206  1
  O  O3  1  0.16695622  0.58605071  0.85568939  1
  O  O4  1  0.07730002  0.31495276  0.73595754  1
  O  O5  1  0.05634139  0.92309122  0.42072541  1
  O  O6  1  0.31622673  0.94419083  0.76934472  1
  O  O7  1  0.41311713  0.56781515  0.95539754  1
  O  O8  1  0.16600889  0.58710786  0.60552714  1
  O  O9  1  0.07739639  0.31474940  0.48598971  1
  O  O10  1  0.05525559  0.92245150  0.17167640  1
  O  O11  1  0.43143002  0.17459723  0.89542796  1
  O  O12  1  0.31604328  0.94436257  0.51921530  1
  O  O13  1  0.41181887  0.56832440  0.70456342  1
  O  O14  1  0.16631802  0.58770859  0.35570585  1
  O  O15  1  0.07825347  0.31626645  0.23663440  1
  O  O16  1  0.57777191  0.81270964  0.85449084  1
  O  O17  1  0.43092552  0.17492606  0.64539712  1
  O  O18  1  0.31552387  0.94511850  0.26972005  1
  O  O19  1  0.41156529  0.56813008  0.45451598  1
  O  O20  1  0.18185838  0.58703416  0.10745291  1
  O  O21  1  0.58948311  0.43086920  0.79456068  1
  O  O22  1  0.68005588  0.05806022  0.98199733  1
  O  O23  1  0.57728364  0.81275224  0.60425475  1
  O  O24  1  0.43139432  0.17493276  0.39543878  1
  O  O25  1  0.31725384  0.94325185  0.01900100  1
  O  O26  1  0.41593098  0.56985165  0.20565997  1
  O  O27  1  0.82270455  0.42475131  0.89289095  1
  O  O28  1  0.58954245  0.43110897  0.54454916  1
  O  O29  1  0.68651006  0.05487206  0.73071532  1
  O  O30  1  0.57850433  0.81295630  0.35451943  1
  O  O31  1  0.42936303  0.17739067  0.14404995  1
  O  O32  1  0.92131887  0.68661484  0.76419221  1
  O  O33  1  0.82283774  0.42509716  0.64271700  1
  O  O34  1  0.59155754  0.43138159  0.29504934  1
  O  O35  1  0.68656170  0.05500506  0.48076749  1
  O  O36  1  0.57513533  0.83411572  0.10254359  1
  O  O37  1  0.94117531  0.07307266  0.83002603  1
  O  O38  1  0.92096030  0.68714822  0.51411773  1
  O  O39  1  0.82365362  0.42488405  0.39281436  1
  O  O40  1  0.58268793  0.42248912  0.04621521  1
  O  O41  1  0.68635956  0.05448941  0.22990666  1
  O  O42  1  0.94098628  0.07305647  0.57997605  1
  O  O43  1  0.92103717  0.68703880  0.26390861  1
  O  O44  1  0.82042772  0.41363425  0.14233296  1
  O  O45  1  0.94157709  0.07314591  0.32915762  1
  O  O46  1  0.92397823  0.68519682  0.01434172  1
  O  O47  1  0.94173883  0.08043550  0.07894094  1
  U  U48  1  0.00026506  0.00268840  0.50090577  1
  U  U49  1  1.00010581  0.00216376  0.25000801  1
  U  U50  1  0.99648307  0.99979225  0.00024712  1
  U  U51  1  0.86182530  0.69028882  0.84904853  1
  U  U52  1  0.86184003  0.69115118  0.59919149  1
  U  U53  1  0.00038690  0.00253843  0.75093360  1
  U  U54  1  0.86243134  0.69101981  0.34922089  1
  U  U55  1  0.60267558  0.13932618  0.07774561  1
  Y  Y56  1  0.14427668  0.30902239  0.90264378  1
  Y  Y57  1  0.39464333  0.85928465  0.92313853  1
  Y  Y58  1  0.14340954  0.30946227  0.65260481  1
  Y  Y59  1  0.31196018  0.60587814  0.78342957  1
  Y  Y60  1  0.39500709  0.86074714  0.67326841  1
  Y  Y61  1  0.14360831  0.30908599  0.40248180  1
  Y  Y62  1  0.31208345  0.60605605  0.53344764  1
  Y  Y63  1  0.39501020  0.86101311  0.42340310  1
  Y  Y64  1  0.14313275  0.31743257  0.15259534  1
  Y  Y65  1  0.68482889  0.39259826  0.96405238  1
  Y  Y66  1  0.31364020  0.60670116  0.28378062  1
  Y  Y67  1  0.60644058  0.14285375  0.82825065  1
  Y  Y68  1  0.38989108  0.85673142  0.17239266  1
  Y  Y69  1  0.68416651  0.39075919  0.71396305  1
  Y  Y70  1  0.30395581  0.60501822  0.03449385  1
  Y  Y71  1  0.60634511  0.14318539  0.57823738  1
  Y  Y72  1  0.68422962  0.39090542  0.46397631  1
  Y  Y73  1  0.60654540  0.14282281  0.32818588  1
  Y  Y74  1  0.68787782  0.39187155  0.21451592  1
  Y  Y75  1  0.86505660  0.68775692  0.09872043  1
