# generated using pymatgen
data_Sr10P6BrO24F
_symmetry_space_group_name_H-M   'P 1'
_cell_length_a   9.97497477
_cell_length_b   19.94376218
_cell_length_c   7.31866791
_cell_angle_alpha   90.00000000
_cell_angle_beta   90.00000000
_cell_angle_gamma   120.00915628
_symmetry_Int_Tables_number   1
_chemical_formula_structural   Sr10P6BrO24F
_chemical_formula_sum   'Sr20 P12 Br2 O48 F2'
_cell_volume   1260.78632061
_cell_formula_units_Z   2
loop_
 _symmetry_equiv_pos_site_id
 _symmetry_equiv_pos_as_xyz
  1  'x, y, z'
loop_
 _atom_site_type_symbol
 _atom_site_label
 _atom_site_symmetry_multiplicity
 _atom_site_fract_x
 _atom_site_fract_y
 _atom_site_fract_z
 _atom_site_occupancy
  Sr  Sr0  1  0.25435350  0.99587231  0.25000000  1
  Sr  Sr1  1  0.00847263  0.62380546  0.25000000  1
  Sr  Sr2  1  0.33369561  0.83229557  0.00017489  1
  Sr  Sr3  1  0.33369561  0.83229557  0.49982511  1
  Sr  Sr4  1  0.24933029  0.61925856  0.75000000  1
  Sr  Sr5  1  0.24358599  0.49553635  0.25000000  1
  Sr  Sr6  1  0.73432124  0.86973903  0.25000000  1
  Sr  Sr7  1  0.00828644  0.13379138  0.25000000  1
  Sr  Sr8  1  0.66700882  0.66545520  0.50019603  1
  Sr  Sr9  1  0.33299118  0.33454480  0.00019603  1
  Sr  Sr10  1  0.33299118  0.33454480  0.49980397  1
  Sr  Sr11  1  0.66700882  0.66545520  0.99980397  1
  Sr  Sr12  1  0.99171356  0.86620862  0.75000000  1
  Sr  Sr13  1  0.26567876  0.13026097  0.75000000  1
  Sr  Sr14  1  0.75641401  0.50446365  0.75000000  1
  Sr  Sr15  1  0.75066971  0.38074144  0.25000000  1
  Sr  Sr16  1  0.66630439  0.16770443  0.50017489  1
  Sr  Sr17  1  0.66630439  0.16770443  0.99982511  1
  Sr  Sr18  1  0.99152737  0.37619454  0.75000000  1
  Sr  Sr19  1  0.74564650  0.00412769  0.75000000  1
  P  P20  1  0.37092577  0.98179230  0.75000000  1
  P  P21  1  0.03057402  0.69784079  0.75000000  1
  P  P22  1  0.39700011  0.68244525  0.25000000  1
  P  P23  1  0.59078389  0.81209558  0.75000000  1
  P  P24  1  0.36929668  0.48515250  0.75000000  1
  P  P25  1  0.03527870  0.20536364  0.75000000  1
  P  P26  1  0.96472130  0.79463636  0.25000000  1
  P  P27  1  0.63070332  0.51484750  0.25000000  1
  P  P28  1  0.40921611  0.18790442  0.25000000  1
  P  P29  1  0.60299989  0.31755475  0.75000000  1
  P  P30  1  0.96942598  0.30215921  0.25000000  1
  P  P31  1  0.62907423  0.01820770  0.25000000  1
  Br  Br32  1  0.00000000  0.00000000  -0.00000000  1
  Br  Br33  1  0.00000000  0.00000000  0.50000000  1
  O  O34  1  0.26616555  0.95411340  0.57741790  1
  O  O35  1  0.26616555  0.95411340  0.92258210  1
  O  O36  1  0.14416483  0.83171143  0.25000000  1
  O  O37  1  0.12154209  0.78843645  0.75000000  1
  O  O38  1  0.07969575  0.66964546  0.57807571  1
  O  O39  1  0.07969575  0.66964546  0.92192429  1
  O  O40  1  0.46535943  0.93853568  0.75000000  1
  O  O41  1  0.51959658  0.92873237  0.25000000  1
  O  O42  1  0.33597837  0.74071208  0.25000000  1
  O  O43  1  0.41022477  0.76335539  0.75000000  1
  O  O44  1  0.34035447  0.62945396  0.07845254  1
  O  O45  1  0.34035447  0.62945396  0.42154746  1
  O  O46  1  0.63958313  0.86460383  0.57712903  1
  O  O47  1  0.63958313  0.86460383  0.92287097  1
  O  O48  1  0.26288114  0.45978062  0.92174577  1
  O  O49  1  0.26288114  0.45978062  0.57825423  1
  O  O50  1  0.14717115  0.33302110  0.25000000  1
  O  O51  1  0.57813319  0.72716337  0.25000000  1
  O  O52  1  0.11847617  0.29560168  0.75000000  1
  O  O53  1  0.66497772  0.75944998  0.75000000  1
  O  O54  1  0.09197354  0.18091049  0.92238238  1
  O  O55  1  0.09197354  0.18091049  0.57761762  1
  O  O56  1  0.48136531  0.57437423  0.75000000  1
  O  O57  1  0.46224192  0.44120492  0.75000000  1
  O  O58  1  0.53775808  0.55879508  0.25000000  1
  O  O59  1  0.51863469  0.42562577  0.25000000  1
  O  O60  1  0.90802646  0.81908951  0.07761762  1
  O  O61  1  0.90802646  0.81908951  0.42238238  1
  O  O62  1  0.33502228  0.24055002  0.25000000  1
  O  O63  1  0.88152383  0.70439832  0.25000000  1
  O  O64  1  0.42186681  0.27283663  0.75000000  1
  O  O65  1  0.85282885  0.66697890  0.75000000  1
  O  O66  1  0.73711886  0.54021938  0.07825423  1
  O  O67  1  0.73711886  0.54021938  0.42174577  1
  O  O68  1  0.36041687  0.13539617  0.07712903  1
  O  O69  1  0.36041687  0.13539617  0.42287097  1
  O  O70  1  0.65964553  0.37054604  0.92154746  1
  O  O71  1  0.65964553  0.37054604  0.57845254  1
  O  O72  1  0.58977523  0.23664461  0.25000000  1
  O  O73  1  0.66402163  0.25928792  0.75000000  1
  O  O74  1  0.48040342  0.07126763  0.75000000  1
  O  O75  1  0.53464057  0.06146432  0.25000000  1
  O  O76  1  0.92030425  0.33035454  0.07807571  1
  O  O77  1  0.92030425  0.33035454  0.42192429  1
  O  O78  1  0.87845791  0.21156355  0.25000000  1
  O  O79  1  0.85583517  0.16828857  0.75000000  1
  O  O80  1  0.73383445  0.04588660  0.42258210  1
  O  O81  1  0.73383445  0.04588660  0.07741790  1
  F  F82  1  0.00226316  0.49982190  0.25000000  1
  F  F83  1  0.99773684  0.50017810  0.75000000  1
