# generated using pymatgen
data_Ba3CaRu2O9
_symmetry_space_group_name_H-M   'P 1'
_cell_length_a   5.98194108
_cell_length_b   5.98194139
_cell_length_c   14.88618795
_cell_angle_alpha   90.00000000
_cell_angle_beta   90.00000000
_cell_angle_gamma   119.99999827
_symmetry_Int_Tables_number   1
_chemical_formula_structural   Ba3CaRu2O9
_chemical_formula_sum   'Ba6 Ca2 Ru4 O18'
_cell_volume   461.31589847
_cell_formula_units_Z   2
loop_
 _symmetry_equiv_pos_site_id
 _symmetry_equiv_pos_as_xyz
  1  'x, y, z'
loop_
 _atom_site_type_symbol
 _atom_site_label
 _atom_site_symmetry_multiplicity
 _atom_site_fract_x
 _atom_site_fract_y
 _atom_site_fract_z
 _atom_site_occupancy
  Ba  Ba0  1  0.00000000  0.00000000  0.25000000  1
  Ba  Ba1  1  0.00000000  0.00000000  0.75000000  1
  Ba  Ba2  1  0.33333300  0.66666700  0.09745166  1
  Ba  Ba3  1  0.33333300  0.66666700  0.40254834  1
  Ba  Ba4  1  0.66666700  0.33333300  0.90254834  1
  Ba  Ba5  1  0.66666700  0.33333300  0.59745166  1
  Ca  Ca6  1  0.00000000  0.00000000  0.00000000  1
  Ca  Ca7  1  0.00000000  0.00000000  0.50000000  1
  Ru  Ru8  1  0.33333300  0.66666700  0.84285085  1
  Ru  Ru9  1  0.33333300  0.66666700  0.65714915  1
  Ru  Ru10  1  0.66666700  0.33333300  0.15714915  1
  Ru  Ru11  1  0.66666700  0.33333300  0.34285085  1
  O  O12  1  0.52767043  0.03293339  0.25000000  1
  O  O13  1  0.50526296  0.47232957  0.25000000  1
  O  O14  1  0.96706661  0.49473704  0.25000000  1
  O  O15  1  0.49473704  0.96706661  0.75000000  1
  O  O16  1  0.47232957  0.50526296  0.75000000  1
  O  O17  1  0.03293339  0.52767043  0.75000000  1
  O  O18  1  0.16469032  0.35309668  0.91000023  1
  O  O19  1  0.18840637  0.83530968  0.58999977  1
  O  O20  1  0.64690332  0.81159363  0.58999977  1
  O  O21  1  0.64690332  0.81159363  0.91000023  1
  O  O22  1  0.18840637  0.83530968  0.91000023  1
  O  O23  1  0.81159363  0.64690332  0.08999977  1
  O  O24  1  0.83530968  0.18840637  0.08999977  1
  O  O25  1  0.35309668  0.16469032  0.08999977  1
  O  O26  1  0.16469032  0.35309668  0.58999977  1
  O  O27  1  0.35309668  0.16469032  0.41000023  1
  O  O28  1  0.81159363  0.64690332  0.41000023  1
  O  O29  1  0.83530968  0.18840637  0.41000023  1
