# generated using pymatgen
data_CoH20S2(NO7)2
_symmetry_space_group_name_H-M   'P 1'
_cell_length_a   6.31082809
_cell_length_b   9.27938018
_cell_length_c   12.63487764
_cell_angle_alpha   90.00000000
_cell_angle_beta   90.00000000
_cell_angle_gamma   107.58343785
_symmetry_Int_Tables_number   1
_chemical_formula_structural   CoH20S2(NO7)2
_chemical_formula_sum   'Co2 H40 S4 N4 O28'
_cell_volume   705.33582624
_cell_formula_units_Z   2
loop_
 _symmetry_equiv_pos_site_id
 _symmetry_equiv_pos_as_xyz
  1  'x, y, z'
loop_
 _atom_site_type_symbol
 _atom_site_label
 _atom_site_symmetry_multiplicity
 _atom_site_fract_x
 _atom_site_fract_y
 _atom_site_fract_z
 _atom_site_occupancy
  Co  Co0  1  0.00000000  0.00000000  0.00000000  1
  Co  Co1  1  0.00000000  0.50000000  0.50000000  1
  O  O2  1  0.69804031  0.99817220  0.06890860  1
  O  O3  1  0.30195969  0.50182780  0.56890860  1
  O  O4  1  0.30195969  0.00182780  0.93109140  1
  O  O5  1  0.69804031  0.49817220  0.43109140  1
  H  H6  1  0.67617259  0.97272174  0.14534270  1
  H  H7  1  0.32382741  0.52727826  0.64534270  1
  H  H8  1  0.32382741  0.02727826  0.85465730  1
  H  H9  1  0.67617259  0.47272174  0.35465730  1
  H  H10  1  0.66041613  0.09349072  0.05977014  1
  H  H11  1  0.33958387  0.40650928  0.55977014  1
  H  H12  1  0.33958387  0.90650928  0.94022986  1
  H  H13  1  0.66041613  0.59349072  0.44022986  1
  O  O14  1  0.16574444  0.16849297  0.11101022  1
  O  O15  1  0.83425556  0.33150703  0.61101022  1
  O  O16  1  0.83425556  0.83150703  0.88898978  1
  O  O17  1  0.16574444  0.66849297  0.38898978  1
  H  H18  1  0.32433796  0.21690009  0.09295261  1
  H  H19  1  0.67566204  0.28309991  0.59295261  1
  H  H20  1  0.67566204  0.78309991  0.90704739  1
  H  H21  1  0.32433796  0.71690009  0.40704739  1
  H  H22  1  0.09593808  0.24862879  0.12498217  1
  H  H23  1  0.90406192  0.25137121  0.62498217  1
  H  H24  1  0.90406192  0.75137121  0.87501783  1
  H  H25  1  0.09593808  0.74862879  0.37501783  1
  O  O26  1  0.96224369  0.16190821  0.88842285  1
  O  O27  1  0.03775631  0.33809179  0.38842285  1
  O  O28  1  0.03775631  0.83809179  0.11157715  1
  O  O29  1  0.96224369  0.66190821  0.61157715  1
  H  H30  1  0.99448128  0.13923045  0.81460030  1
  H  H31  1  0.00551872  0.36076955  0.31460030  1
  H  H32  1  0.00551872  0.86076955  0.18539970  1
  H  H33  1  0.99448128  0.63923045  0.68539970  1
  H  H34  1  0.05300594  0.26863017  0.90116410  1
  H  H35  1  0.94699406  0.23136983  0.40116410  1
  H  H36  1  0.94699406  0.73136983  0.09883590  1
  H  H37  1  0.05300594  0.76863017  0.59883590  1
  S  S38  1  0.25870406  0.09280766  0.63737895  1
  S  S39  1  0.74129594  0.40719234  0.13737895  1
  S  S40  1  0.74129594  0.90719234  0.36262105  1
  S  S41  1  0.25870406  0.59280766  0.86262105  1
  O  O42  1  0.40860740  0.08958679  0.72911108  1
  O  O43  1  0.59139260  0.41041321  0.22911108  1
  O  O44  1  0.59139260  0.91041321  0.27088892  1
  O  O45  1  0.40860740  0.58958679  0.77088892  1
  O  O46  1  0.21149959  0.95007311  0.57713640  1
  O  O47  1  0.78850041  0.54992689  0.07713640  1
  O  O48  1  0.78850041  0.04992689  0.42286360  1
  O  O49  1  0.21149959  0.45007311  0.92286360  1
  O  O50  1  0.37892528  0.22235426  0.56689423  1
  O  O51  1  0.62107472  0.27764474  0.06689423  1
  O  O52  1  0.62107472  0.77764574  0.43310577  1
  O  O53  1  0.37892528  0.72235426  0.93310577  1
  O  O54  1  0.04723670  0.11614611  0.67727962  1
  O  O55  1  0.95276330  0.38385389  0.17727962  1
  O  O56  1  0.95276330  0.88385389  0.32272038  1
  O  O57  1  0.04723670  0.61614611  0.82272038  1
  N  N58  1  0.36037420  0.13418956  0.34935868  1
  N  N59  1  0.63962580  0.36581044  0.84935868  1
  N  N60  1  0.63962580  0.86581044  0.65064132  1
  N  N61  1  0.36037420  0.63418956  0.15064132  1
  H  H62  1  0.47093849  0.07315222  0.33744934  1
  H  H63  1  0.52906151  0.42684778  0.83744934  1
  H  H64  1  0.52906151  0.92684778  0.66255066  1
  H  H65  1  0.47093849  0.57315222  0.16255066  1
  H  H66  1  0.40200324  0.22655176  0.29899172  1
  H  H67  1  0.59799676  0.27344824  0.79899172  1
  H  H68  1  0.59799676  0.77344824  0.70100828  1
  H  H69  1  0.40200324  0.72655176  0.20100828  1
  H  H70  1  0.20189566  0.06249827  0.33406927  1
  H  H71  1  0.79810434  0.43750173  0.83406927  1
  H  H72  1  0.79810434  0.93750173  0.66593073  1
  H  H73  1  0.20189566  0.56249827  0.16593073  1
  H  H74  1  0.36889964  0.17055913  0.42797445  1
  H  H75  1  0.63110036  0.32944087  0.92797445  1
  H  H76  1  0.63110036  0.82944087  0.57202555  1
  H  H77  1  0.36889964  0.67055913  0.07202555  1
