# generated using pymatgen
data_Sc8Te3
_symmetry_space_group_name_H-M   'P 1'
_cell_length_a   3.85377067
_cell_length_b   14.69378317
_cell_length_c   19.20370763
_cell_angle_alpha   82.03246107
_cell_angle_beta   84.24129370
_cell_angle_gamma   82.46475256
_symmetry_Int_Tables_number   1
_chemical_formula_structural   Sc8Te3
_chemical_formula_sum   'Sc32 Te12'
_cell_volume   1063.89575137
_cell_formula_units_Z   4
loop_
 _symmetry_equiv_pos_site_id
 _symmetry_equiv_pos_as_xyz
  1  'x, y, z'
loop_
 _atom_site_type_symbol
 _atom_site_label
 _atom_site_symmetry_multiplicity
 _atom_site_fract_x
 _atom_site_fract_y
 _atom_site_fract_z
 _atom_site_occupancy
  Te  Te0  1  0.25937149  0.20167566  0.27958135  1
  Te  Te1  1  0.74062851  0.79832434  0.72041865  1
  Te  Te2  1  0.10457527  0.47700050  0.31384895  1
  Te  Te3  1  0.89542473  0.52299950  0.68615105  1
  Te  Te4  1  0.94373371  0.28593868  0.82659390  1
  Te  Te5  1  0.05626629  0.71406132  0.17340610  1
  Te  Te6  1  0.57419333  0.04434130  0.80727205  1
  Te  Te7  1  0.42580667  0.95565870  0.19272795  1
  Te  Te8  1  0.13027250  0.77749277  0.96196224  1
  Te  Te9  1  0.86972750  0.22250723  0.03803776  1
  Te  Te10  1  0.13124262  0.26825882  0.46925594  1
  Te  Te11  1  0.86875738  0.73174118  0.53074406  1
  Sc  Sc12  1  0.59187491  0.22693908  0.58931110  1
  Sc  Sc13  1  0.40812509  0.77306092  0.41068890  1
  Sc  Sc14  1  0.72329520  0.15571302  0.39769657  1
  Sc  Sc15  1  0.27670480  0.84428698  0.60230343  1
  Sc  Sc16  1  0.69730439  0.35973975  0.24565147  1
  Sc  Sc17  1  0.30269561  0.64026025  0.75434853  1
  Sc  Sc18  1  0.57375922  0.42088150  0.43160006  1
  Sc  Sc19  1  0.42624078  0.57911850  0.56839994  1
  Sc  Sc20  1  0.56223808  0.92883057  0.94669327  1
  Sc  Sc21  1  0.43776192  0.07116943  0.05330673  1
  Sc  Sc22  1  0.99184589  0.10338011  0.91292810  1
  Sc  Sc23  1  0.00815411  0.89661989  0.08707190  1
  Sc  Sc24  1  0.06140428  0.16217339  0.71501806  1
  Sc  Sc25  1  0.93859572  0.83782661  0.28498194  1
  Sc  Sc26  1  0.20131605  0.06763888  0.52972901  1
  Sc  Sc27  1  0.79868395  0.93236112  0.47027099  1
  Sc  Sc28  1  0.28728640  0.29187128  0.13355592  1
  Sc  Sc29  1  0.71271360  0.70812872  0.86644408  1
  Sc  Sc30  1  0.32873825  0.99790633  0.34461717  1
  Sc  Sc31  1  0.67126175  0.00209367  0.65538283  1
  Sc  Sc32  1  0.36600443  0.33047445  0.93751669  1
  Sc  Sc33  1  0.63399557  0.66952555  0.06248331  1
  Sc  Sc34  1  0.53829692  0.63731911  0.28608705  1
  Sc  Sc35  1  0.46170308  0.36268089  0.71391295  1
  Sc  Sc36  1  0.16744484  0.51289176  0.15221857  1
  Sc  Sc37  1  0.83255516  0.48710824  0.84778143  1
  Sc  Sc38  1  0.84921730  0.11125675  0.19030866  1
  Sc  Sc39  1  0.15078270  0.88874325  0.80969134  1
  Sc  Sc40  1  0.76079494  0.43601612  0.04239400  1
  Sc  Sc41  1  0.23920506  0.56398388  0.95760600  1
  Sc  Sc42  1  0.01180638  0.40890064  0.56748661  1
  Sc  Sc43  1  0.98819362  0.59109936  0.43251339  1
