# generated using pymatgen
data_CeP4(ClO)13
_symmetry_space_group_name_H-M   'P 1'
_cell_length_a   11.33503318
_cell_length_b   14.94583739
_cell_length_c   16.98870019
_cell_angle_alpha   90.00000000
_cell_angle_beta   96.76980238
_cell_angle_gamma   90.00000000
_symmetry_Int_Tables_number   1
_chemical_formula_structural   CeP4(ClO)13
_chemical_formula_sum   'Ce4 P16 Cl52 O52'
_cell_volume   2858.01561120
_cell_formula_units_Z   4
loop_
 _symmetry_equiv_pos_site_id
 _symmetry_equiv_pos_as_xyz
  1  'x, y, z'
loop_
 _atom_site_type_symbol
 _atom_site_label
 _atom_site_symmetry_multiplicity
 _atom_site_fract_x
 _atom_site_fract_y
 _atom_site_fract_z
 _atom_site_occupancy
  Ce  Ce0  1  0.06445185  0.20194693  0.46516054  1
  Ce  Ce1  1  0.43554815  0.70194693  0.03483946  1
  Ce  Ce2  1  0.93554815  0.79805307  0.53483946  1
  Ce  Ce3  1  0.56445185  0.29805307  0.96516054  1
  P  P4  1  0.07778494  0.35305061  0.65909701  1
  P  P5  1  0.64248899  0.88750487  0.41559253  1
  P  P6  1  0.53341085  0.53790563  0.87865920  1
  P  P7  1  0.96658915  0.03790563  0.62134080  1
  P  P8  1  0.03341085  0.96209437  0.37865920  1
  P  P9  1  0.85751101  0.38750487  0.08440747  1
  P  P10  1  0.14248899  0.61249513  0.91559253  1
  P  P11  1  0.19438871  0.89446761  0.04976751  1
  P  P12  1  0.57778494  0.14694939  0.15909701  1
  P  P13  1  0.92221506  0.64694939  0.34090299  1
  P  P14  1  0.35751101  0.11249513  0.58440747  1
  P  P15  1  0.42221506  0.85305061  0.84090299  1
  P  P16  1  0.46658915  0.46209437  0.12134080  1
  P  P17  1  0.80561129  0.10553239  0.95023249  1
  P  P18  1  0.30561129  0.39446761  0.45023249  1
  P  P19  1  0.69438871  0.60553239  0.54976751  1
  Cl  Cl20  1  0.44163222  0.54440053  0.76831913  1
  Cl  Cl21  1  0.71259872  0.49144180  0.61004935  1
  Cl  Cl22  1  0.84224227  0.35867174  0.19657594  1
  Cl  Cl23  1  0.37568024  0.42799391  0.56038286  1
  Cl  Cl24  1  0.87494468  0.77906576  0.71680739  1
  Cl  Cl25  1  0.44750104  0.97977106  0.87595057  1
  Cl  Cl26  1  0.78740128  0.99144180  0.88995065  1
  Cl  Cl27  1  0.34224227  0.14132826  0.69657594  1
  Cl  Cl28  1  0.79612423  0.28696871  0.44414731  1
  Cl  Cl29  1  0.93226908  0.31893247  0.70779471  1
  Cl  Cl30  1  0.20159193  0.93484127  0.35772078  1
  Cl  Cl31  1  0.12431976  0.92799391  0.93961714  1
  Cl  Cl32  1  0.20974010  0.35680265  0.74750234  1
  Cl  Cl33  1  0.79840807  0.06515873  0.64227922  1
  Cl  Cl34  1  0.20387577  0.71303129  0.55585269  1
  Cl  Cl35  1  0.70159193  0.56515873  0.85772078  1
  Cl  Cl36  1  0.35367191  0.97928179  0.57817604  1
  Cl  Cl37  1  0.43656377  0.32973177  0.40587897  1
  Cl  Cl38  1  0.87568024  0.07200609  0.06038286  1
  Cl  Cl39  1  0.14632809  0.47928179  0.92182396  1
  Cl  Cl40  1  0.94750104  0.52022894  0.37595057  1
  Cl  Cl41  1  0.64632809  0.02071821  0.42182396  1
  Cl  Cl42  1  0.28740128  0.50855820  0.38995065  1
  Cl  Cl43  1  0.85367191  0.52071821  0.07817604  1
  Cl  Cl44  1  0.29612423  0.21303129  0.94414731  1
  Cl  Cl45  1  0.29025990  0.85680265  0.75249766  1
  Cl  Cl46  1  0.56773092  0.81893247  0.79220529  1
  Cl  Cl47  1  0.06343623  0.82973177  0.09412103  1
  Cl  Cl48  1  0.56343623  0.67026823  0.59412103  1
  Cl  Cl49  1  0.70974010  0.14319735  0.24750234  1
  Cl  Cl50  1  0.06773092  0.68106753  0.29220529  1
  Cl  Cl51  1  0.62505532  0.27906576  0.78319261  1
  Cl  Cl52  1  0.12505532  0.22093424  0.28319261  1
  Cl  Cl53  1  0.55249896  0.02022894  0.12404943  1
  Cl  Cl54  1  0.62431976  0.57200609  0.43961714  1
  Cl  Cl55  1  0.94163222  0.95559947  0.26831913  1
  Cl  Cl56  1  0.93656377  0.17026823  0.90587897  1
  Cl  Cl57  1  0.02043946  0.34849395  0.06760296  1
  Cl  Cl58  1  0.21259872  0.00855820  0.11004935  1
  Cl  Cl59  1  0.55836778  0.45559947  0.23168087  1
  Cl  Cl60  1  0.79025990  0.64319735  0.25249766  1
  Cl  Cl61  1  0.05836778  0.04440053  0.73168087  1
  Cl  Cl62  1  0.43226908  0.18106753  0.20779471  1
  Cl  Cl63  1  0.37494468  0.72093424  0.21680739  1
  Cl  Cl64  1  0.52043946  0.15150605  0.56760296  1
  Cl  Cl65  1  0.70387577  0.78696871  0.05585269  1
  Cl  Cl66  1  0.05249896  0.47977106  0.62404943  1
  Cl  Cl67  1  0.97956054  0.65150605  0.93239704  1
  Cl  Cl68  1  0.15775773  0.64132826  0.80342406  1
  Cl  Cl69  1  0.47956054  0.84849395  0.43239704  1
  Cl  Cl70  1  0.65775773  0.85867174  0.30342406  1
  Cl  Cl71  1  0.29840807  0.43484127  0.14227922  1
  O  O72  1  0.80702660  0.65612083  0.55075001  1
  O  O73  1  0.23920697  0.17302653  0.87243390  1
  O  O74  1  0.59657249  0.34299373  0.72054222  1
  O  O75  1  0.19297340  0.34387917  0.44924999  1
  O  O76  1  0.22030530  0.21016261  0.00624526  1
  O  O77  1  0.51458230  0.25481187  0.81933699  1
  O  O78  1  0.66880933  0.69264365  0.07021870  1
  O  O79  1  0.99017477  0.88708109  0.42649809  1
  O  O80  1  0.82174517  0.69951839  0.74502382  1
  O  O81  1  0.91134035  0.33321200  0.47055647  1
  O  O82  1  0.50982523  0.38708109  0.07350191  1
  O  O83  1  0.40342751  0.65700627  0.27945778  1
  O  O84  1  0.39523165  0.79164235  0.90480190  1
  O  O85  1  0.00982523  0.11291891  0.57350191  1
  O  O86  1  0.27969470  0.71016261  0.49375474  1
  O  O87  1  0.83119067  0.19264365  0.42978130  1
  O  O88  1  0.52756092  0.44382363  0.90867863  1
  O  O89  1  0.17825483  0.30048161  0.25497618  1
  O  O90  1  0.09657249  0.15700627  0.22054222  1
  O  O91  1  0.16880933  0.80735635  0.57021870  1
  O  O92  1  0.20477824  0.18060537  0.34953316  1
  O  O93  1  0.67825483  0.19951839  0.75497618  1
  O  O94  1  0.26079303  0.67302653  0.62756610  1
  O  O95  1  0.58865965  0.83321200  0.02944353  1
  O  O96  1  0.76568577  0.34602937  0.02617120  1
  O  O97  1  0.33119067  0.30735635  0.92978130  1
  O  O98  1  0.23431423  0.65397063  0.97382880  1
  O  O99  1  0.48541770  0.74518813  0.18066301  1
  O  O100  1  0.72030530  0.28983739  0.50624526  1
  O  O101  1  0.08865965  0.66678800  0.52944353  1
  O  O102  1  0.77969470  0.78983739  0.99375474  1
  O  O103  1  0.32174517  0.80048161  0.24502382  1
  O  O104  1  0.98541770  0.75481187  0.68066301  1
  O  O105  1  0.89523165  0.70835765  0.40480190  1
  O  O106  1  0.30702660  0.84387917  0.05075001  1
  O  O107  1  0.26568577  0.15397063  0.52617120  1
  O  O108  1  0.41134035  0.16678800  0.97055647  1
  O  O109  1  0.01458230  0.24518813  0.31933699  1
  O  O110  1  0.02756092  0.05617637  0.40867863  1
  O  O111  1  0.70477824  0.31939463  0.84953316  1
  O  O112  1  0.69297340  0.15612083  0.94924999  1
  O  O113  1  0.10476835  0.29164235  0.59519810  1
  O  O114  1  0.76079303  0.82697347  0.12756610  1
  O  O115  1  0.60476835  0.20835765  0.09519810  1
  O  O116  1  0.90342751  0.84299373  0.77945778  1
  O  O117  1  0.73920697  0.32697347  0.37243390  1
  O  O118  1  0.47243908  0.55617637  0.09132137  1
  O  O119  1  0.79522176  0.81939463  0.65046684  1
  O  O120  1  0.73431423  0.84602937  0.47382880  1
  O  O121  1  0.29522176  0.68060537  0.15046684  1
  O  O122  1  0.97243908  0.94382363  0.59132137  1
  O  O123  1  0.49017477  0.61291891  0.92649809  1
