# generated using pymatgen
data_Sn4SI6
_symmetry_space_group_name_H-M   'P 1'
_cell_length_a   4.45897443
_cell_length_b   7.66384572
_cell_length_c   25.76732819
_cell_angle_alpha   93.69808518
_cell_angle_beta   90.00000000
_cell_angle_gamma   106.91242746
_symmetry_Int_Tables_number   1
_chemical_formula_structural   Sn4SI6
_chemical_formula_sum   'Sn8 S2 I12'
_cell_volume   840.54448147
_cell_formula_units_Z   2
loop_
 _symmetry_equiv_pos_site_id
 _symmetry_equiv_pos_as_xyz
  1  'x, y, z'
loop_
 _atom_site_type_symbol
 _atom_site_label
 _atom_site_symmetry_multiplicity
 _atom_site_fract_x
 _atom_site_fract_y
 _atom_site_fract_z
 _atom_site_occupancy
  I  I0  1  0.92898723  0.85797446  0.91912475  1
  I  I1  1  0.07101277  0.14202554  0.08087525  1
  I  I2  1  0.14611397  0.29222794  0.52534231  1
  I  I3  1  0.85388603  0.70777206  0.47465769  1
  I  I4  1  0.17653679  0.35307358  0.68163838  1
  I  I5  1  0.82346321  0.64692642  0.31836162  1
  I  I6  1  0.43443611  0.86887222  0.60238249  1
  I  I7  1  0.56556389  0.13112778  0.39761751  1
  I  I8  1  0.90107728  0.80215455  0.75238147  1
  I  I9  1  0.09892272  0.19784545  0.24761853  1
  I  I10  1  0.64268620  0.28537239  0.83418088  1
  I  I11  1  0.35731380  0.71462761  0.16581912  1
  Sn  Sn12  1  0.29532235  0.59064471  0.85643047  1
  Sn  Sn13  1  0.70467765  0.40935529  0.14356953  1
  Sn  Sn14  1  0.22142823  0.44285647  0.41686987  1
  Sn  Sn15  1  0.77857177  0.55714353  0.58313013  1
  Sn  Sn16  1  0.36713613  0.73427225  0.01672088  1
  Sn  Sn17  1  0.63286387  0.26572775  0.98327912  1
  Sn  Sn18  1  0.53553686  0.07107373  0.71633626  1
  Sn  Sn19  1  0.46446314  0.92892627  0.28366374  1
  S  S20  1  0.77599745  0.55199489  0.05143349  1
  S  S21  1  0.22400255  0.44800511  0.94856651  1
