# generated using pymatgen
data_Pr5Si4
_symmetry_space_group_name_H-M   'P 1'
_cell_length_a   7.96140458
_cell_length_b   7.96140458
_cell_length_c   15.23463100
_cell_angle_alpha   90.00000000
_cell_angle_beta   90.00000000
_cell_angle_gamma   90.00000000
_symmetry_Int_Tables_number   1
_chemical_formula_structural   Pr5Si4
_chemical_formula_sum   'Pr20 Si16'
_cell_volume   965.63128589
_cell_formula_units_Z   4
loop_
 _symmetry_equiv_pos_site_id
 _symmetry_equiv_pos_as_xyz
  1  'x, y, z'
loop_
 _atom_site_type_symbol
 _atom_site_label
 _atom_site_symmetry_multiplicity
 _atom_site_fract_x
 _atom_site_fract_y
 _atom_site_fract_z
 _atom_site_occupancy
  Pr  Pr0  1  0.30976617  0.30976617  0.00000000  1
  Pr  Pr1  1  0.19023383  0.80976617  0.25000000  1
  Pr  Pr2  1  0.80976617  0.19023383  0.75000000  1
  Pr  Pr3  1  0.69023383  0.69023383  0.50000000  1
  Pr  Pr4  1  0.37582038  0.01073983  0.44903180  1
  Pr  Pr5  1  0.48926017  0.87582038  0.69903180  1
  Pr  Pr6  1  0.51073983  0.12417962  0.19903180  1
  Pr  Pr7  1  0.87582038  0.48926017  0.30096820  1
  Pr  Pr8  1  0.12417962  0.51073983  0.80096820  1
  Pr  Pr9  1  0.62417962  0.98926017  0.94903180  1
  Pr  Pr10  1  0.01073983  0.37582038  0.55096820  1
  Pr  Pr11  1  0.98926017  0.62417962  0.05096820  1
  Pr  Pr12  1  0.12764187  0.98216474  0.87574563  1
  Pr  Pr13  1  0.51783526  0.62764187  0.12574563  1
  Pr  Pr14  1  0.48216474  0.37235813  0.62574563  1
  Pr  Pr15  1  0.62764187  0.51783526  0.87425437  1
  Pr  Pr16  1  0.37235813  0.48216474  0.37425437  1
  Pr  Pr17  1  0.87235813  0.01783526  0.37574563  1
  Pr  Pr18  1  0.98216474  0.12764187  0.12425437  1
  Pr  Pr19  1  0.01783526  0.87235813  0.62425437  1
  Si  Si20  1  0.19717793  0.16776605  0.70042586  1
  Si  Si21  1  0.33223395  0.69717793  0.95042586  1
  Si  Si22  1  0.66776605  0.30282207  0.45042586  1
  Si  Si23  1  0.69717793  0.33223395  0.04957414  1
  Si  Si24  1  0.30282207  0.66776605  0.54957414  1
  Si  Si25  1  0.80282207  0.83223395  0.20042586  1
  Si  Si26  1  0.16776605  0.19717793  0.29957414  1
  Si  Si27  1  0.83223395  0.80282207  0.79957414  1
  Si  Si28  1  0.28924088  0.92299389  0.05907314  1
  Si  Si29  1  0.57700611  0.78924088  0.30907314  1
  Si  Si30  1  0.42299389  0.21075912  0.80907314  1
  Si  Si31  1  0.78924088  0.57700611  0.69092686  1
  Si  Si32  1  0.21075912  0.42299389  0.19092686  1
  Si  Si33  1  0.71075912  0.07700611  0.55907314  1
  Si  Si34  1  0.92299389  0.28924088  0.94092686  1
  Si  Si35  1  0.07700611  0.71075912  0.44092686  1
