# generated using pymatgen
data_Na2Ca(PO3)4
_symmetry_space_group_name_H-M   'P 1'
_cell_length_a   5.00971491
_cell_length_b   9.77702684
_cell_length_c   9.77702684
_cell_angle_alpha   90.00000000
_cell_angle_beta   90.00000000
_cell_angle_gamma   90.00000000
_symmetry_Int_Tables_number   1
_chemical_formula_structural   Na2Ca(PO3)4
_chemical_formula_sum   'Na4 Ca2 P8 O24'
_cell_volume   478.87991986
_cell_formula_units_Z   2
loop_
 _symmetry_equiv_pos_site_id
 _symmetry_equiv_pos_as_xyz
  1  'x, y, z'
loop_
 _atom_site_type_symbol
 _atom_site_label
 _atom_site_symmetry_multiplicity
 _atom_site_fract_x
 _atom_site_fract_y
 _atom_site_fract_z
 _atom_site_occupancy
  Ca  Ca0  1  0.50000000  0.25000000  0.25000000  1
  Ca  Ca1  1  0.50000000  0.75000000  0.75000000  1
  Na  Na2  1  0.50000000  0.00000000  0.00000000  1
  Na  Na3  1  0.50000000  0.50000000  0.00000000  1
  Na  Na4  1  0.50000000  0.00000000  0.50000000  1
  Na  Na5  1  0.50000000  0.50000000  0.50000000  1
  P  P6  1  0.00000000  0.53252822  0.25000000  1
  P  P7  1  0.00000000  0.25000000  0.53252822  1
  P  P8  1  0.00000000  0.25000000  0.96747178  1
  P  P9  1  0.00000000  0.96747178  0.25000000  1
  P  P10  1  0.00000000  0.46747178  0.75000000  1
  P  P11  1  0.00000000  0.75000000  0.46747178  1
  P  P12  1  0.00000000  0.75000000  0.03252822  1
  P  P13  1  0.00000000  0.03252822  0.75000000  1
  O  O14  1  0.12815463  0.63703710  0.36296290  1
  O  O15  1  0.12815463  0.13703710  0.63703710  1
  O  O16  1  0.12815463  0.36296290  0.86296290  1
  O  O17  1  0.12815463  0.86296290  0.13703710  1
  O  O18  1  0.87184537  0.63703710  0.13703710  1
  O  O19  1  0.87184537  0.86296290  0.36296290  1
  O  O20  1  0.87184537  0.36296290  0.63703710  1
  O  O21  1  0.87184537  0.13703710  0.86296290  1
  O  O22  1  0.23283814  0.19026032  0.04272597  1
  O  O23  1  0.23283814  0.45727403  0.19026032  1
  O  O24  1  0.23283814  0.04272597  0.30973968  1
  O  O25  1  0.23283814  0.30973968  0.45727403  1
  O  O26  1  0.76716186  0.19026032  0.45727403  1
  O  O27  1  0.76716186  0.30973968  0.04272597  1
  O  O28  1  0.76716186  0.04272597  0.19026032  1
  O  O29  1  0.76716186  0.45727403  0.30973968  1
  O  O30  1  0.76716186  0.80973968  0.95727403  1
  O  O31  1  0.76716186  0.54272597  0.80973968  1
  O  O32  1  0.76716186  0.95727403  0.69026032  1
  O  O33  1  0.76716186  0.69026032  0.54272597  1
  O  O34  1  0.23283814  0.80973968  0.54272597  1
  O  O35  1  0.23283814  0.69026032  0.95727403  1
  O  O36  1  0.23283814  0.95727403  0.80973968  1
  O  O37  1  0.23283814  0.54272597  0.69026032  1
