# generated using pymatgen
data_RbSnS4
_symmetry_space_group_name_H-M   'P 1'
_cell_length_a   10.06065269
_cell_length_b   10.12569586
_cell_length_c   14.75990694
_cell_angle_alpha   90.00000000
_cell_angle_beta   106.27543272
_cell_angle_gamma   90.00000000
_symmetry_Int_Tables_number   1
_chemical_formula_structural   RbSnS4
_chemical_formula_sum   'Rb8 Sn8 S32'
_cell_volume   1443.35182262
_cell_formula_units_Z   8
loop_
 _symmetry_equiv_pos_site_id
 _symmetry_equiv_pos_as_xyz
  1  'x, y, z'
loop_
 _atom_site_type_symbol
 _atom_site_label
 _atom_site_symmetry_multiplicity
 _atom_site_fract_x
 _atom_site_fract_y
 _atom_site_fract_z
 _atom_site_occupancy
  Sn  Sn0  1  0.02488173  0.17494046  0.01412157  1
  Sn  Sn1  1  0.47511827  0.67494046  0.48587843  1
  Sn  Sn2  1  0.97511827  0.82505954  0.98587843  1
  Sn  Sn3  1  0.52488173  0.32505954  0.51412157  1
  Sn  Sn4  1  0.59292707  0.99988757  0.40564442  1
  Sn  Sn5  1  0.90707293  0.49988757  0.09435558  1
  Sn  Sn6  1  0.40707293  0.00011243  0.59435558  1
  Sn  Sn7  1  0.09292707  0.50011243  0.90564442  1
  Rb  Rb8  1  0.34653763  0.36604648  0.20367136  1
  Rb  Rb9  1  0.15346237  0.86604648  0.29632864  1
  Rb  Rb10  1  0.65346237  0.63395352  0.79632864  1
  Rb  Rb11  1  0.84653763  0.13395352  0.70367136  1
  Rb  Rb12  1  0.02893670  0.27528531  0.40745877  1
  Rb  Rb13  1  0.47106330  0.77528531  0.09254123  1
  Rb  Rb14  1  0.97106330  0.72471469  0.59254123  1
  Rb  Rb15  1  0.52893670  0.22471469  0.90745877  1
  S  S16  1  0.21016109  0.27496017  0.96056931  1
  S  S17  1  0.28983891  0.77496017  0.53943069  1
  S  S18  1  0.78983891  0.72503983  0.03943069  1
  S  S19  1  0.71016109  0.22503983  0.46056931  1
  S  S20  1  0.83846856  0.03726554  0.92006047  1
  S  S21  1  0.66153144  0.53726554  0.57993953  1
  S  S22  1  0.16153144  0.96273446  0.07993953  1
  S  S23  1  0.33846856  0.46273446  0.42006047  1
  S  S24  1  0.63457242  0.89742953  0.57258349  1
  S  S25  1  0.86542758  0.39742953  0.92741651  1
  S  S26  1  0.36542758  0.10257047  0.42741651  1
  S  S27  1  0.13457242  0.60257047  0.07258349  1
  S  S28  1  0.51364718  0.06614771  0.22482077  1
  S  S29  1  0.98635282  0.56614771  0.27517923  1
  S  S30  1  0.48635282  0.93385229  0.77517923  1
  S  S31  1  0.01364718  0.43385229  0.72482077  1
  S  S32  1  0.00904926  0.27146449  0.16189981  1
  S  S33  1  0.49095074  0.77146449  0.33810019  1
  S  S34  1  0.99095074  0.72853551  0.83810019  1
  S  S35  1  0.50904926  0.22853551  0.66189981  1
  S  S36  1  0.68660174  0.14082736  0.19634790  1
  S  S37  1  0.81339826  0.64082736  0.30365210  1
  S  S38  1  0.31339826  0.85917264  0.80365210  1
  S  S39  1  0.18660174  0.35917264  0.69634790  1
  S  S40  1  0.69070442  0.34333938  0.22558649  1
  S  S41  1  0.80929558  0.84333938  0.27441351  1
  S  S42  1  0.30929558  0.65666062  0.77441351  1
  S  S43  1  0.19070442  0.15666062  0.72558649  1
  S  S44  1  0.65401402  0.44102651  0.09941003  1
  S  S45  1  0.84598598  0.94102651  0.40058997  1
  S  S46  1  0.34598598  0.55897349  0.90058997  1
  S  S47  1  0.15401402  0.05897349  0.59941003  1
