# generated using pymatgen
data_K2RuNCl5O
_symmetry_space_group_name_H-M   'P 1'
_cell_length_a   7.06574976
_cell_length_b   10.61172267
_cell_length_c   13.58738812
_cell_angle_alpha   90.00000000
_cell_angle_beta   90.00000000
_cell_angle_gamma   90.00000000
_symmetry_Int_Tables_number   1
_chemical_formula_structural   K2RuNCl5O
_chemical_formula_sum   'K8 Ru4 N4 Cl20 O4'
_cell_volume   1018.77933001
_cell_formula_units_Z   4
loop_
 _symmetry_equiv_pos_site_id
 _symmetry_equiv_pos_as_xyz
  1  'x, y, z'
loop_
 _atom_site_type_symbol
 _atom_site_label
 _atom_site_symmetry_multiplicity
 _atom_site_fract_x
 _atom_site_fract_y
 _atom_site_fract_z
 _atom_site_occupancy
  Ru  Ru0  1  0.82949248  0.75000000  0.89293206  1
  Ru  Ru1  1  0.32949248  0.25000000  0.60706794  1
  Ru  Ru2  1  0.17050752  0.25000000  0.10706794  1
  Ru  Ru3  1  0.67050752  0.75000000  0.39293206  1
  N  N4  1  0.98901785  0.75000000  0.99053482  1
  N  N5  1  0.48901785  0.25000000  0.50946518  1
  N  N6  1  0.01098215  0.25000000  0.00946518  1
  N  N7  1  0.51098215  0.75000000  0.49053482  1
  O  O8  1  0.10629281  0.75000000  0.05086378  1
  O  O9  1  0.60629281  0.25000000  0.44913622  1
  O  O10  1  0.89370719  0.25000000  0.94913622  1
  O  O11  1  0.39370719  0.75000000  0.55086378  1
  Cl  Cl12  1  0.55091682  0.75000000  0.99498017  1
  Cl  Cl13  1  0.05091682  0.25000000  0.50501983  1
  Cl  Cl14  1  0.44908318  0.25000000  0.00501983  1
  Cl  Cl15  1  0.94908318  0.75000000  0.49498017  1
  Cl  Cl16  1  0.62691953  0.75000000  0.75280522  1
  Cl  Cl17  1  0.12691953  0.25000000  0.74719478  1
  Cl  Cl18  1  0.37308047  0.25000000  0.24719478  1
  Cl  Cl19  1  0.87308047  0.75000000  0.25280522  1
  Cl  Cl20  1  0.09191885  0.75000000  0.77930350  1
  Cl  Cl21  1  0.59191885  0.25000000  0.72069650  1
  Cl  Cl22  1  0.90808115  0.25000000  0.22069650  1
  Cl  Cl23  1  0.40808115  0.75000000  0.27930350  1
  Cl  Cl24  1  0.81724322  0.97603996  0.88680297  1
  Cl  Cl25  1  0.31724322  0.02396004  0.61319703  1
  Cl  Cl26  1  0.18275678  0.47603996  0.11319703  1
  Cl  Cl27  1  0.68275678  0.52396004  0.38680297  1
  Cl  Cl28  1  0.18275678  0.02396004  0.11319703  1
  Cl  Cl29  1  0.68275678  0.97603996  0.38680297  1
  Cl  Cl30  1  0.81724322  0.52396004  0.88680297  1
  Cl  Cl31  1  0.31724322  0.47603996  0.61319703  1
  K  K32  1  0.35488867  -0.00019400  0.85380037  1
  K  K33  1  0.85488867  1.00019400  0.64619963  1
  K  K34  1  0.64511133  0.49980600  0.14619963  1
  K  K35  1  0.14511133  0.50019400  0.35380037  1
  K  K36  1  0.64511133  1.00019400  0.14619963  1
  K  K37  1  0.14511133  -0.00019400  0.35380037  1
  K  K38  1  0.35488867  0.50019400  0.85380037  1
  K  K39  1  0.85488867  0.49980600  0.64619963  1
