# generated using pymatgen
data_MnH4S2O9
_symmetry_space_group_name_H-M   'P 1'
_cell_length_a   5.12911947
_cell_length_b   8.86206872
_cell_length_c   16.21328088
_cell_angle_alpha   101.37089056
_cell_angle_beta   90.00000000
_cell_angle_gamma   90.00000000
_symmetry_Int_Tables_number   1
_chemical_formula_structural   MnH4S2O9
_chemical_formula_sum   'Mn4 H16 S8 O36'
_cell_volume   722.50274095
_cell_formula_units_Z   4
loop_
 _symmetry_equiv_pos_site_id
 _symmetry_equiv_pos_as_xyz
  1  'x, y, z'
loop_
 _atom_site_type_symbol
 _atom_site_label
 _atom_site_symmetry_multiplicity
 _atom_site_fract_x
 _atom_site_fract_y
 _atom_site_fract_z
 _atom_site_occupancy
  Mn  Mn0  1  0.74976159  0.75497782  0.51217417  1
  Mn  Mn1  1  0.24976159  0.74502218  0.98782583  1
  Mn  Mn2  1  0.25023841  0.24502218  0.48782583  1
  Mn  Mn3  1  0.75023841  0.25497782  0.01217417  1
  S  S4  1  0.25822855  0.86565988  0.39758657  1
  S  S5  1  0.75822855  0.63434012  0.10241343  1
  S  S6  1  0.74177145  0.13434012  0.60241343  1
  S  S7  1  0.24177145  0.36565988  0.89758657  1
  S  S8  1  0.74702414  0.38768352  0.38806867  1
  S  S9  1  0.24702414  0.11231648  0.11193133  1
  S  S10  1  0.25297586  0.61231648  0.61193133  1
  S  S11  1  0.75297586  0.88768352  0.88806867  1
  O  O12  1  0.09978037  0.76030228  0.43593708  1
  O  O13  1  0.59978037  0.73969772  0.06406292  1
  O  O14  1  0.90021963  0.23969772  0.56406292  1
  O  O15  1  0.40021963  0.26030228  0.93593708  1
  O  O16  1  0.53325391  0.86738316  0.42361948  1
  O  O17  1  0.03325391  0.63261684  0.07638052  1
  O  O18  1  0.46674609  0.13261684  0.57638052  1
  O  O19  1  0.96674609  0.36738316  0.92361948  1
  O  O20  1  0.14834280  0.02157545  0.40750926  1
  O  O21  1  0.64834280  0.47842455  0.09249074  1
  O  O22  1  0.85165720  0.97842455  0.59249074  1
  O  O23  1  0.35165720  0.52157545  0.90750926  1
  O  O24  1  0.24875471  0.80684748  0.29950215  1
  O  O25  1  0.74875471  0.69315252  0.20049785  1
  O  O26  1  0.75124529  0.19315252  0.70049785  1
  O  O27  1  0.25124529  0.30684748  0.79950215  1
  O  O28  1  0.02333226  0.36178686  0.40319607  1
  O  O29  1  0.52333226  0.13821314  0.09680393  1
  O  O30  1  0.97666774  0.63821314  0.59680393  1
  O  O31  1  0.47666774  0.86178686  0.90319607  1
  O  O32  1  0.57963428  0.26011282  0.40213274  1
  O  O33  1  0.07963428  0.23988718  0.09786726  1
  O  O34  1  0.42036572  0.73988718  0.59786726  1
  O  O35  1  0.92036572  0.76011282  0.90213274  1
  O  O36  1  0.64749956  0.53806922  0.42944151  1
  O  O37  1  0.14749956  0.96193078  0.07055849  1
  O  O38  1  0.35250044  0.46193078  0.57055849  1
  O  O39  1  0.85250044  0.03806922  0.92944151  1
  O  O40  1  0.74474873  0.38563912  0.28972113  1
  O  O41  1  0.24474873  0.11436088  0.21027887  1
  O  O42  1  0.25525127  0.61436088  0.71027887  1
  O  O43  1  0.75525127  0.88563912  0.78972113  1
  O  O44  1  0.28828403  0.50055830  0.24683165  1
  O  O45  1  0.78828403  0.99944170  0.25316835  1
  O  O46  1  0.71171597  0.49944170  0.75316835  1
  O  O47  1  0.21171597  0.00055830  0.74683165  1
  H  H48  1  0.27022741  0.69079212  0.28259424  1
  H  H49  1  0.77022741  0.80920788  0.21740576  1
  H  H50  1  0.72977259  0.30920788  0.71740576  1
  H  H51  1  0.22977259  0.19079212  0.78259424  1
  H  H52  1  0.57282554  0.42791213  0.27262087  1
  H  H53  1  0.07282554  0.07208787  0.22737913  1
  H  H54  1  0.42717446  0.57208787  0.72737913  1
  H  H55  1  0.92717446  0.92791213  0.77262087  1
  H  H56  1  0.28099068  0.47946794  0.18511147  1
  H  H57  1  0.78099068  0.02053206  0.31488853  1
  H  H58  1  0.71900932  0.52053206  0.81488853  1
  H  H59  1  0.21900932  0.97946794  0.68511147  1
  H  H60  1  0.13274561  0.45076696  0.26495464  1
  H  H61  1  0.63274561  0.04923304  0.23504536  1
  H  H62  1  0.86725439  0.54923304  0.73504536  1
  H  H63  1  0.36725439  0.95076696  0.76495464  1
