# generated using pymatgen
data_AlH11C4NCl
_symmetry_space_group_name_H-M   'P 1'
_cell_length_a   10.81307266
_cell_length_b   12.95073927
_cell_length_c   12.52404127
_cell_angle_alpha   90.00000000
_cell_angle_beta   90.00000000
_cell_angle_gamma   90.00000000
_symmetry_Int_Tables_number   1
_chemical_formula_structural   AlH11C4NCl
_chemical_formula_sum   'Al8 H88 C32 N8 Cl8'
_cell_volume   1753.83273326
_cell_formula_units_Z   8
loop_
 _symmetry_equiv_pos_site_id
 _symmetry_equiv_pos_as_xyz
  1  'x, y, z'
loop_
 _atom_site_type_symbol
 _atom_site_label
 _atom_site_symmetry_multiplicity
 _atom_site_fract_x
 _atom_site_fract_y
 _atom_site_fract_z
 _atom_site_occupancy
  Al  Al0  1  0.25000000  0.77156546  0.47865003  1
  Al  Al1  1  0.25000000  0.27156546  0.02134997  1
  Al  Al2  1  0.75000000  0.22843454  0.52134997  1
  Al  Al3  1  0.75000000  0.72843454  0.97865003  1
  Al  Al4  1  0.25000000  0.71961473  0.26103416  1
  Al  Al5  1  0.25000000  0.21961473  0.23896584  1
  Al  Al6  1  0.75000000  0.28038527  0.73896584  1
  Al  Al7  1  0.75000000  0.78038527  0.76103416  1
  H  H8  1  0.25000000  0.88810643  0.51848188  1
  H  H9  1  0.25000000  0.38810643  0.98151812  1
  H  H10  1  0.75000000  0.11189357  0.48151812  1
  H  H11  1  0.75000000  0.61189357  0.01848188  1
  H  H12  1  0.25000000  0.60688645  0.21112165  1
  H  H13  1  0.25000000  0.10688645  0.28887835  1
  H  H14  1  0.75000000  0.39311355  0.78887835  1
  H  H15  1  0.75000000  0.89311355  0.71112165  1
  H  H16  1  0.38036031  0.58114892  0.40333265  1
  H  H17  1  0.11963969  0.08114892  0.09666735  1
  H  H18  1  0.88036031  0.41885108  0.59666735  1
  H  H19  1  0.61963969  0.91885108  0.90333265  1
  H  H20  1  0.61963969  0.41885108  0.59666735  1
  H  H21  1  0.88036031  0.91885108  0.90333265  1
  H  H22  1  0.11963969  0.58114892  0.40333265  1
  H  H23  1  0.38036031  0.08114892  0.09666735  1
  H  H24  1  0.49726128  0.65148654  0.46904884  1
  H  H25  1  0.00273872  0.15148654  0.03095116  1
  H  H26  1  0.99726128  0.34851346  0.53095116  1
  H  H27  1  0.50273872  0.84851346  0.96904884  1
  H  H28  1  0.50273872  0.34851346  0.53095116  1
  H  H29  1  0.99726128  0.84851346  0.96904884  1
  H  H30  1  0.00273872  0.65148654  0.46904884  1
  H  H31  1  0.49726128  0.15148654  0.03095116  1
  H  H32  1  0.49708704  0.59976545  0.22857085  1
  H  H33  1  0.00291296  0.09976545  0.27142915  1
  H  H34  1  0.99708704  0.40023455  0.77142915  1
  H  H35  1  0.50291296  0.90023455  0.72857085  1
  H  H36  1  0.50291296  0.40023455  0.77142915  1
  H  H37  1  0.99708704  0.90023455  0.72857085  1
  H  H38  1  0.00291296  0.59976545  0.22857085  1
  H  H39  1  0.49708704  0.09976545  0.27142915  1
  H  H40  1  0.58011448  0.53628988  0.33184627  1
  H  H41  1  0.91988552  0.03628988  0.16815373  1
  H  H42  1  0.08011448  0.46371012  0.66815373  1
  H  H43  1  0.41988552  0.96371012  0.83184627  1
  H  H44  1  0.41988552  0.46371012  0.66815373  1
  H  H45  1  0.08011448  0.96371012  0.83184627  1
  H  H46  1  0.91988552  0.53628988  0.33184627  1
  H  H47  1  0.58011448  0.03628988  0.16815373  1
  H  H48  1  0.61797108  0.66514650  0.29753547  1
  H  H49  1  0.88202892  0.16514650  0.20246453  1
  H  H50  1  0.11797108  0.33485350  0.70246453  1
  H  H51  1  0.38202892  0.83485350  0.79753547  1
  H  H52  1  0.38202892  0.33485350  0.70246453  1
  H  H53  1  0.11797108  0.83485350  0.79753547  1
  H  H54  1  0.88202892  0.66514650  0.29753547  1
  H  H55  1  0.61797108  0.16514650  0.20246453  1
  H  H56  1  0.51202012  0.81959313  0.27661188  1
  H  H57  1  0.98797988  0.31959313  0.22338812  1
  H  H58  1  0.01202012  0.18040687  0.72338812  1
  H  H59  1  0.48797988  0.68040687  0.77661188  1
  H  H60  1  0.48797988  0.18040687  0.72338812  1
  H  H61  1  0.01202012  0.68040687  0.77661188  1
  H  H62  1  0.98797988  0.81959313  0.27661188  1
  H  H63  1  0.51202012  0.31959313  0.22338812  1
  H  H64  1  0.40077382  0.89957676  0.33741852  1
  H  H65  1  0.09922618  0.39957676  0.16258148  1
  H  H66  1  0.90077382  0.10042324  0.66258148  1
  H  H67  1  0.59922618  0.60042324  0.83741852  1
  H  H68  1  0.59922618  0.10042324  0.66258148  1
  H  H69  1  0.90077382  0.60042324  0.83741852  1
  H  H70  1  0.09922618  0.89957676  0.33741852  1
  H  H71  1  0.40077382  0.39957676  0.16258148  1
  H  H72  1  0.62031650  0.79504236  0.45255194  1
  H  H73  1  0.87968350  0.29504236  0.04744806  1
  H  H74  1  0.12031650  0.20495764  0.54744806  1
  H  H75  1  0.37968350  0.70495764  0.95255194  1
  H  H76  1  0.37968350  0.20495764  0.54744806  1
  H  H77  1  0.12031650  0.70495764  0.95255194  1
  H  H78  1  0.87968350  0.79504236  0.45255194  1
  H  H79  1  0.62031650  0.29504236  0.04744806  1
  H  H80  1  0.50442391  0.86945319  0.51739347  1
  H  H81  1  0.99557609  0.36945319  0.98260653  1
  H  H82  1  0.00442391  0.13054681  0.48260653  1
  H  H83  1  0.49557609  0.63054681  0.01739347  1
  H  H84  1  0.49557609  0.13054681  0.48260653  1
  H  H85  1  0.00442391  0.63054681  0.01739347  1
  H  H86  1  0.99557609  0.86945319  0.51739347  1
  H  H87  1  0.50442391  0.36945319  0.98260653  1
  H  H88  1  0.60127874  0.92709322  0.41976274  1
  H  H89  1  0.89872126  0.42709322  0.08023726  1
  H  H90  1  0.10127874  0.07290678  0.58023726  1
  H  H91  1  0.39872126  0.57290678  0.91976274  1
  H  H92  1  0.39872126  0.07290678  0.58023726  1
  H  H93  1  0.10127874  0.57290678  0.91976274  1
  H  H94  1  0.89872126  0.92709322  0.41976274  1
  H  H95  1  0.60127874  0.42709322  0.08023726  1
  C  C96  1  0.44848716  0.64351708  0.39253785  1
  C  C97  1  0.05151284  0.14351708  0.10746215  1
  C  C98  1  0.94848716  0.35648292  0.60746215  1
  C  C99  1  0.55151284  0.85648292  0.89253785  1
  C  C100  1  0.55151284  0.35648292  0.60746215  1
  C  C101  1  0.94848716  0.85648292  0.89253785  1
  C  C102  1  0.05151284  0.64351708  0.39253785  1
  C  C103  1  0.44848716  0.14351708  0.10746215  1
  C  C104  1  0.54087825  0.61057664  0.30702379  1
  C  C105  1  0.95912175  0.11057664  0.19297621  1
  C  C106  1  0.04087825  0.38942336  0.69297621  1
  C  C107  1  0.45912175  0.88942336  0.80702379  1
  C  C108  1  0.45912175  0.38942336  0.69297621  1
  C  C109  1  0.04087825  0.88942336  0.80702379  1
  C  C110  1  0.95912175  0.61057664  0.30702379  1
  C  C111  1  0.54087825  0.11057664  0.19297621  1
  C  C112  1  0.46042208  0.83187747  0.35135345  1
  C  C113  1  0.03957792  0.33187747  0.14864655  1
  C  C114  1  0.96042208  0.16812253  0.64864655  1
  C  C115  1  0.53957792  0.66812253  0.85135345  1
  C  C116  1  0.53957792  0.16812253  0.64864655  1
  C  C117  1  0.96042208  0.66812253  0.85135345  1
  C  C118  1  0.03957792  0.83187747  0.35135345  1
  C  C119  1  0.46042208  0.33187747  0.14864655  1
  C  C120  1  0.55152242  0.85627704  0.44085279  1
  C  C121  1  0.94847758  0.35627704  0.05914721  1
  C  C122  1  0.05152242  0.14372296  0.55914721  1
  C  C123  1  0.44847758  0.64372296  0.94085279  1
  C  C124  1  0.44847758  0.14372296  0.55914721  1
  C  C125  1  0.05152242  0.64372296  0.94085279  1
  C  C126  1  0.94847758  0.85627704  0.44085279  1
  C  C127  1  0.55152242  0.35627704  0.05914721  1
  N  N128  1  0.37773980  0.74118887  0.37082071  1
  N  N129  1  0.12226020  0.24118887  0.12917929  1
  N  N130  1  0.87773980  0.25881113  0.62917929  1
  N  N131  1  0.62226020  0.75881113  0.87082071  1
  N  N132  1  0.62226020  0.25881113  0.62917929  1
  N  N133  1  0.87773980  0.75881113  0.87082071  1
  N  N134  1  0.12226020  0.74118887  0.37082071  1
  N  N135  1  0.37773980  0.24118887  0.12917929  1
  Cl  Cl136  1  0.25000000  0.66439177  0.61087326  1
  Cl  Cl137  1  0.25000000  0.16439177  0.88912674  1
  Cl  Cl138  1  0.75000000  0.33560823  0.38912674  1
  Cl  Cl139  1  0.75000000  0.83560823  0.11087326  1
  Cl  Cl140  1  0.25000000  0.84141037  0.14314025  1
  Cl  Cl141  1  0.25000000  0.34141037  0.35685975  1
  Cl  Cl142  1  0.75000000  0.15858963  0.85685975  1
  Cl  Cl143  1  0.75000000  0.65858963  0.64314025  1
