# generated using pymatgen
data_Ba2Si3O8
_symmetry_space_group_name_H-M   'P 1'
_cell_length_a   4.74572745
_cell_length_b   12.64446567
_cell_length_c   14.15737911
_cell_angle_alpha   93.48894884
_cell_angle_beta   90.00000000
_cell_angle_gamma   90.00000000
_symmetry_Int_Tables_number   1
_chemical_formula_structural   Ba2Si3O8
_chemical_formula_sum   'Ba8 Si12 O32'
_cell_volume   847.96992343
_cell_formula_units_Z   4
loop_
 _symmetry_equiv_pos_site_id
 _symmetry_equiv_pos_as_xyz
  1  'x, y, z'
loop_
 _atom_site_type_symbol
 _atom_site_label
 _atom_site_symmetry_multiplicity
 _atom_site_fract_x
 _atom_site_fract_y
 _atom_site_fract_z
 _atom_site_occupancy
  Ba  Ba0  1  0.28966771  0.85549584  0.03114119  1
  Ba  Ba1  1  0.26473632  0.41807149  0.38902088  1
  Ba  Ba2  1  0.30584210  0.41751949  0.88878718  1
  Ba  Ba3  1  0.76473632  0.58192851  0.61097912  1
  Ba  Ba4  1  0.30446230  0.85690073  0.53394520  1
  Ba  Ba5  1  0.80584210  0.58248051  0.11121282  1
  Ba  Ba6  1  0.78966771  0.14450416  0.96885881  1
  Ba  Ba7  1  0.80446230  0.14309927  0.46605480  1
  Si  Si8  1  0.23935190  0.34900651  0.11057108  1
  Si  Si9  1  0.23211311  0.72570800  0.77657000  1
  Si  Si10  1  0.73211311  0.27429200  0.22343000  1
  Si  Si11  1  0.33169549  0.72300215  0.27622123  1
  Si  Si12  1  0.23443105  0.97661178  0.81264055  1
  Si  Si13  1  0.73935190  0.65099349  0.88942892  1
  Si  Si14  1  0.23651237  0.96959976  0.31188099  1
  Si  Si15  1  0.83322791  0.65018705  0.38934153  1
  Si  Si16  1  0.73651237  0.03040024  0.68811901  1
  Si  Si17  1  0.73443105  0.02338822  0.18735945  1
  Si  Si18  1  0.33322791  0.34981295  0.61065847  1
  Si  Si19  1  0.83169549  0.27699785  0.72377877  1
  O  O20  1  0.80443405  0.53021182  0.91496502  1
  O  O21  1  0.81192199  0.28655510  0.33306894  1
  O  O22  1  0.40523491  0.65039082  0.84918914  1
  O  O23  1  0.27436787  0.84183877  0.32840711  1
  O  O24  1  0.16313854  0.31114527  0.70669242  1
  O  O25  1  0.81211397  0.96486653  0.08770352  1
  O  O26  1  0.81093632  0.73423077  0.47977002  1
  O  O27  1  0.28148727  0.26568909  0.02054137  1
  O  O28  1  0.66071499  0.35922076  0.65670948  1
  O  O29  1  0.75664009  0.53069680  0.41584702  1
  O  O30  1  0.90430809  0.99352758  0.28423634  1
  O  O31  1  0.77436787  0.15816123  0.67159289  1
  O  O32  1  0.81403956  0.96682581  0.59046316  1
  O  O33  1  0.90352246  0.00408065  0.78629319  1
  O  O34  1  0.78148727  0.73431091  0.97945863  1
  O  O35  1  0.66313854  0.68885473  0.29330758  1
  O  O36  1  0.31093632  0.26576923  0.52022998  1
  O  O37  1  0.30443405  0.46978818  0.08503498  1
  O  O38  1  0.40437360  0.31495789  0.20911627  1
  O  O39  1  0.26100894  0.84766408  0.82473033  1
  O  O40  1  0.31403956  0.03317419  0.40953684  1
  O  O41  1  0.40352246  0.99591935  0.21370681  1
  O  O42  1  0.76100894  0.15233592  0.17526967  1
  O  O43  1  0.90523491  0.34960918  0.15081086  1
  O  O44  1  0.26561709  0.71290408  0.16547812  1
  O  O45  1  0.40430809  0.00647242  0.71576366  1
  O  O46  1  0.31211397  0.03513347  0.91229648  1
  O  O47  1  0.25664009  0.46930320  0.58415298  1
  O  O48  1  0.31192199  0.71344490  0.66693106  1
  O  O49  1  0.16071499  0.64077924  0.34329052  1
  O  O50  1  0.90437360  0.68504211  0.79088373  1
  O  O51  1  0.76561709  0.28709592  0.83452188  1
