# generated using pymatgen
data_ScP(H2O3)2
_symmetry_space_group_name_H-M   'P 1'
_cell_length_a   5.47845235
_cell_length_b   9.00813455
_cell_length_c   10.33755665
_cell_angle_alpha   90.00000000
_cell_angle_beta   90.00000000
_cell_angle_gamma   91.63360296
_symmetry_Int_Tables_number   1
_chemical_formula_structural   ScP(H2O3)2
_chemical_formula_sum   'Sc4 P4 H16 O24'
_cell_volume   509.95764668
_cell_formula_units_Z   4
loop_
 _symmetry_equiv_pos_site_id
 _symmetry_equiv_pos_as_xyz
  1  'x, y, z'
loop_
 _atom_site_type_symbol
 _atom_site_label
 _atom_site_symmetry_multiplicity
 _atom_site_fract_x
 _atom_site_fract_y
 _atom_site_fract_z
 _atom_site_occupancy
  Sc  Sc0  1  0.58872973  0.69966362  0.66948206  1
  Sc  Sc1  1  0.91127027  0.80033638  0.16948206  1
  Sc  Sc2  1  0.41127027  0.30033638  0.33051794  1
  Sc  Sc3  1  0.08872973  0.19966362  0.83051794  1
  P  P4  1  0.09309252  0.81826987  0.84998782  1
  P  P5  1  0.40690748  0.68173013  0.34998782  1
  P  P6  1  0.90690748  0.18173013  0.15001218  1
  P  P7  1  0.59309252  0.31826987  0.65001218  1
  O  O8  1  0.83560782  0.75102710  0.81824423  1
  O  O9  1  0.66439218  0.74897290  0.31824423  1
  O  O10  1  0.16439218  0.24897290  0.18175577  1
  O  O11  1  0.33560782  0.25102710  0.68175577  1
  O  O12  1  0.12481006  0.97540748  0.79008691  1
  O  O13  1  0.37518994  0.52459252  0.29008691  1
  O  O14  1  0.87518994  0.02459252  0.20991309  1
  O  O15  1  0.62481006  0.47540748  0.70991309  1
  O  O16  1  0.28813999  0.71556107  0.79181758  1
  O  O17  1  0.21186001  0.78443893  0.29181758  1
  O  O18  1  0.71186001  0.28443893  0.20818242  1
  O  O19  1  0.78813999  0.21556107  0.70818242  1
  O  O20  1  0.12189249  0.82492202  0.99954026  1
  O  O21  1  0.37810751  0.67507798  0.49954026  1
  O  O22  1  0.87810751  0.17507798  0.00045974  1
  O  O23  1  0.62189249  0.32492202  0.50045974  1
  O  O24  1  0.89309039  0.71419765  0.54018854  1
  O  O25  1  0.60690961  0.78580235  0.04018854  1
  O  O26  1  0.10690961  0.28580235  0.45981146  1
  O  O27  1  0.39309039  0.21419765  0.95981146  1
  H  H28  1  0.83691594  0.73077630  0.44936440  1
  H  H29  1  0.66308406  0.76922370  0.94936440  1
  H  H30  1  0.16308406  0.26922370  0.55063560  1
  H  H31  1  0.33691594  0.23077630  0.05063560  1
  H  H32  1  0.07177185  0.69701664  0.53784993  1
  H  H33  1  0.42822815  0.80298336  0.03784993  1
  H  H34  1  0.92822815  0.30298336  0.46215007  1
  H  H35  1  0.57177185  0.19701664  0.96215007  1
  O  O36  1  0.55429451  0.93981336  0.64631887  1
  O  O37  1  0.94570549  0.56018664  0.14631887  1
  O  O38  1  0.44570549  0.06018664  0.35368113  1
  O  O39  1  0.05429451  0.43981336  0.85368113  1
  H  H40  1  0.67778462  0.01941167  0.66305524  1
  H  H41  1  0.82221538  0.48058833  0.16305524  1
  H  H42  1  0.32221538  0.98058833  0.33694476  1
  H  H43  1  0.17778462  0.51941167  0.83694476  1
  H  H44  1  0.39939018  0.97610160  0.68196572  1
  H  H45  1  0.10060982  0.52389840  0.18196572  1
  H  H46  1  0.60060982  0.02389840  0.31803428  1
  H  H47  1  0.89939018  0.47610160  0.81803428  1
