# generated using pymatgen
data_Lu2Se3
_symmetry_space_group_name_H-M   'P 1'
_cell_length_a   22.27424365
_cell_length_b   8.57689513
_cell_length_c   8.57689530
_cell_angle_alpha   90.00000000
_cell_angle_beta   54.71890398
_cell_angle_gamma   54.71890475
_symmetry_Int_Tables_number   1
_chemical_formula_structural   Lu2Se3
_chemical_formula_sum   'Lu16 Se24'
_cell_volume   945.24427126
_cell_formula_units_Z   8
loop_
 _symmetry_equiv_pos_site_id
 _symmetry_equiv_pos_as_xyz
  1  'x, y, z'
loop_
 _atom_site_type_symbol
 _atom_site_label
 _atom_site_symmetry_multiplicity
 _atom_site_fract_x
 _atom_site_fract_y
 _atom_site_fract_z
 _atom_site_occupancy
  Lu  Lu0  1  0.99655675  0.38821274  0.24537038  1
  Lu  Lu1  1  0.07974697  0.63037905  0.38037905  1
  Lu  Lu2  1  0.16666700  0.25000000  0.63380187  1
  Lu  Lu3  1  0.25358603  0.86962095  0.11962095  1
  Lu  Lu4  1  0.33677625  0.37788298  0.25462962  1
  Lu  Lu5  1  0.33677625  0.11178726  0.73504062  1
  Lu  Lu6  1  0.16666700  0.75000000  0.86619813  1
  Lu  Lu7  1  0.49655675  0.26495938  0.62211702  1
  Lu  Lu8  1  0.57974697  0.88037905  0.13037905  1
  Lu  Lu9  1  0.66666700  0.36619813  0.25000000  1
  Lu  Lu10  1  0.66666700  0.13380187  0.75000000  1
  Lu  Lu11  1  0.49655675  0.74537038  0.88821274  1
  Lu  Lu12  1  0.75358603  0.61962095  0.36962095  1
  Lu  Lu13  1  0.83677625  0.23504062  0.61178726  1
  Lu  Lu14  1  0.99655675  0.12211702  0.76495938  1
  Lu  Lu15  1  0.83677625  0.75462962  0.87788298  1
  Se  Se16  1  0.12616393  0.49324474  0.99500888  1
  Se  Se17  1  0.04607152  0.36206179  0.49503594  1
  Se  Se18  1  0.04607152  0.99972265  0.36674850  1
  Se  Se19  1  0.28726148  0.13793821  0.13325150  1
  Se  Se20  1  0.28726148  0.50027735  0.00496406  1
  Se  Se21  1  0.20716907  0.00675526  0.87350166  1
  Se  Se22  1  0.12616393  0.62826247  0.62649834  1
  Se  Se23  1  0.20716907  0.87173753  0.50499112  1
  Se  Se24  1  0.45310239  0.49100287  0.99718281  1
  Se  Se25  1  0.38023161  0.35648899  0.50899713  1
  Se  Se26  1  0.38023161  0.00281719  0.35030906  1
  Se  Se27  1  0.62616393  0.12649834  0.12826247  1
  Se  Se28  1  0.62616393  0.49500888  0.99324474  1
  Se  Se29  1  0.45310239  0.64969094  0.64351101  1
  Se  Se30  1  0.54607152  0.99503594  0.86206179  1
  Se  Se31  1  0.54607152  0.86674850  0.49972265  1
  Se  Se32  1  0.78726148  0.50496406  0.00027735  1
  Se  Se33  1  0.70716907  0.37350166  0.50675526  1
  Se  Se34  1  0.70716907  0.00499112  0.37173753  1
  Se  Se35  1  0.95310239  0.14351101  0.14969094  1
  Se  Se36  1  0.95310239  0.49718281  0.99100287  1
  Se  Se37  1  0.78726148  0.63325150  0.63793821  1
  Se  Se38  1  0.88023161  0.00899713  0.85648899  1
  Se  Se39  1  0.88023161  0.85030906  0.50281719  1
