# generated using pymatgen
data_ZnS
_symmetry_space_group_name_H-M   'P 1'
_cell_length_a   3.85196739
_cell_length_b   3.85196735
_cell_length_c   81.88390551
_cell_angle_alpha   90.00000000
_cell_angle_beta   90.00000000
_cell_angle_gamma   120.00000026
_symmetry_Int_Tables_number   1
_chemical_formula_structural   ZnS
_chemical_formula_sum   'Zn26 S26'
_cell_volume   1052.19050411
_cell_formula_units_Z   26
loop_
 _symmetry_equiv_pos_site_id
 _symmetry_equiv_pos_as_xyz
  1  'x, y, z'
loop_
 _atom_site_type_symbol
 _atom_site_label
 _atom_site_symmetry_multiplicity
 _atom_site_fract_x
 _atom_site_fract_y
 _atom_site_fract_z
 _atom_site_occupancy
  Zn  Zn0  1  0.66666700  0.33333300  0.69232581  1
  Zn  Zn1  1  0.00000000  0.00000000  0.11539208  1
  Zn  Zn2  1  0.66666700  0.33333300  0.46155401  1
  Zn  Zn3  1  0.33333300  0.66666700  0.76923927  1
  Zn  Zn4  1  0.33333300  0.66666700  0.65385266  1
  Zn  Zn5  1  0.00000000  0.00000000  0.23077673  1
  Zn  Zn6  1  0.66666700  0.33333300  0.96154244  1
  Zn  Zn7  1  0.33333300  0.66666700  0.88462733  1
  Zn  Zn8  1  0.33333300  0.66666700  0.03847197  1
  Zn  Zn9  1  0.66666700  0.33333300  0.19231286  1
  Zn  Zn10  1  0.00000000  0.00000000  0.80771018  1
  Zn  Zn11  1  0.00000000  0.00000000  0.73077494  1
  Zn  Zn12  1  0.66666700  0.33333300  0.07693117  1
  Zn  Zn13  1  0.33333300  0.66666700  0.42308439  1
  Zn  Zn14  1  0.66666700  0.33333300  0.84616283  1
  Zn  Zn15  1  0.00000000  0.00000000  0.57694025  1
  Zn  Zn16  1  0.33333300  0.66666700  0.53846971  1
  Zn  Zn17  1  0.00000000  0.00000000  0.00001829  1
  Zn  Zn18  1  0.33333300  0.66666700  0.30770147  1
  Zn  Zn19  1  0.33333300  0.66666700  0.15385564  1
  Zn  Zn20  1  0.66666700  0.33333300  0.26925117  1
  Zn  Zn21  1  0.00000000  0.00000000  0.92308391  1
  Zn  Zn22  1  0.66666700  0.33333300  0.61538753  1
  Zn  Zn23  1  0.00000000  0.00000000  0.50000512  1
  Zn  Zn24  1  0.66666700  0.33333300  0.38462260  1
  Zn  Zn25  1  0.00000000  0.00000000  0.34616369  1
  S  S26  1  0.00000000  0.00000000  0.02883910  1
  S  S27  1  0.00000000  0.00000000  0.75958460  1
  S  S28  1  0.33333300  0.66666700  0.68270434  1
  S  S29  1  0.33333300  0.66666700  0.33652978  1
  S  S30  1  0.66666700  0.33333300  0.22112295  1
  S  S31  1  0.33333300  0.66666700  0.79808743  1
  S  S32  1  0.66666700  0.33333300  0.72114257  1
  S  S33  1  0.00000000  0.00000000  0.60575890  1
  S  S34  1  0.33333300  0.66666700  0.06729512  1
  S  S35  1  0.33333300  0.66666700  0.91345269  1
  S  S36  1  0.33333300  0.66666700  0.45193330  1
  S  S37  1  0.66666700  0.33333300  0.10575938  1
  S  S38  1  0.66666700  0.33333300  0.87499216  1
  S  S39  1  0.66666700  0.33333300  0.29806468  1
  S  S40  1  0.00000000  0.00000000  0.95189082  1
  S  S41  1  0.66666700  0.33333300  0.49036998  1
  S  S42  1  0.66666700  0.33333300  0.99039392  1
  S  S43  1  0.33333300  0.66666700  0.18268280  1
  S  S44  1  0.00000000  0.00000000  0.83652804  1
  S  S45  1  0.00000000  0.00000000  0.25963000  1
  S  S46  1  0.66666700  0.33333300  0.41343140  1
  S  S47  1  0.00000000  0.00000000  0.14422278  1
  S  S48  1  0.00000000  0.00000000  0.52881721  1
  S  S49  1  0.33333300  0.66666700  0.56731977  1
  S  S50  1  0.00000000  0.00000000  0.37499102  1
  S  S51  1  0.66666700  0.33333300  0.64419721  1
