# generated using pymatgen
data_BaVS3
_symmetry_space_group_name_H-M   'P 1'
_cell_length_a   6.83732571
_cell_length_b   8.79610853
_cell_length_c   8.81395429
_cell_angle_alpha   79.63772439
_cell_angle_beta   67.17801454
_cell_angle_gamma   67.12908527
_symmetry_Int_Tables_number   1
_chemical_formula_structural   BaVS3
_chemical_formula_sum   'Ba4 V4 S12'
_cell_volume   449.91305539
_cell_formula_units_Z   4
loop_
 _symmetry_equiv_pos_site_id
 _symmetry_equiv_pos_as_xyz
  1  'x, y, z'
loop_
 _atom_site_type_symbol
 _atom_site_label
 _atom_site_symmetry_multiplicity
 _atom_site_fract_x
 _atom_site_fract_y
 _atom_site_fract_z
 _atom_site_occupancy
  Ba  Ba0  1  0.33603142  0.53958314  0.78835403  1
  Ba  Ba1  1  0.66303162  0.95887722  0.71505954  1
  Ba  Ba2  1  0.33308322  0.03766411  0.29616945  1
  Ba  Ba3  1  0.65722930  0.46729093  0.21825048  1
  V  V4  1  0.97359269  0.78461867  0.26819595  1
  V  V5  1  0.02232056  0.48281236  0.47254652  1
  V  V6  1  0.97323466  0.27509358  0.77843710  1
  V  V7  1  0.01893302  0.98377860  0.97835536  1
  S  S8  1  0.82803657  0.05554947  0.28837739  1
  S  S9  1  0.16697229  0.46159110  0.20446433  1
  S  S10  1  0.82601606  0.54604976  0.80191813  1
  S  S11  1  0.16595898  0.96131590  0.70676614  1
  S  S12  1  0.31869347  0.79072316  0.05251595  1
  S  S13  1  0.83806742  0.79072316  0.05251595  1
  S  S14  1  0.67741406  0.70486020  0.46439354  1
  S  S15  1  0.15333221  0.70486020  0.46439354  1
  S  S16  1  0.31676211  0.29126715  0.55227988  1
  S  S17  1  0.83969086  0.29126715  0.55227988  1
  S  S18  1  0.67380092  0.20148707  0.96251344  1
  S  S19  1  0.16219858  0.20148707  0.96251344  1
