# generated using pymatgen
data_ZnS
_symmetry_space_group_name_H-M   'P 1'
_cell_length_a   3.85291675
_cell_length_b   3.85291671
_cell_length_c   75.59097724
_cell_angle_alpha   90.00000000
_cell_angle_beta   90.00000000
_cell_angle_gamma   120.00000039
_symmetry_Int_Tables_number   1
_chemical_formula_structural   ZnS
_chemical_formula_sum   'Zn24 S24'
_cell_volume   971.80658270
_cell_formula_units_Z   24
loop_
 _symmetry_equiv_pos_site_id
 _symmetry_equiv_pos_as_xyz
  1  'x, y, z'
loop_
 _atom_site_type_symbol
 _atom_site_label
 _atom_site_symmetry_multiplicity
 _atom_site_fract_x
 _atom_site_fract_y
 _atom_site_fract_z
 _atom_site_occupancy
  Zn  Zn0  1  0.00000000  0.00000000  0.33335281  1
  Zn  Zn1  1  0.00000000  0.00000000  0.00000615  1
  Zn  Zn2  1  0.33333300  0.66666700  0.29167683  1
  Zn  Zn3  1  0.66666700  0.33333300  0.08334106  1
  Zn  Zn4  1  0.33333300  0.66666700  0.83334168  1
  Zn  Zn5  1  0.00000000  0.00000000  0.66667485  1
  Zn  Zn6  1  0.66666700  0.33333300  0.50000674  1
  Zn  Zn7  1  0.66666700  0.33333300  0.91668011  1
  Zn  Zn8  1  0.66666700  0.33333300  0.20834166  1
  Zn  Zn9  1  0.66666700  0.33333300  0.62500956  1
  Zn  Zn10  1  0.00000000  0.00000000  0.54168895  1
  Zn  Zn11  1  0.33333300  0.66666700  0.04168979  1
  Zn  Zn12  1  0.00000000  0.00000000  0.12500937  1
  Zn  Zn13  1  0.33333300  0.66666700  0.16668009  1
  Zn  Zn14  1  0.33333300  0.66666700  0.41668002  1
  Zn  Zn15  1  0.33333300  0.66666700  0.70833845  1
  Zn  Zn16  1  0.33333300  0.66666700  0.95833728  1
  Zn  Zn17  1  0.00000000  0.00000000  0.45833820  1
  Zn  Zn18  1  0.33333300  0.66666700  0.58334095  1
  Zn  Zn19  1  0.00000000  0.00000000  0.87500964  1
  Zn  Zn20  1  0.66666700  0.33333300  0.79167926  1
  Zn  Zn21  1  0.66666700  0.33333300  0.37500947  1
  Zn  Zn22  1  0.00000000  0.00000000  0.75001945  1
  Zn  Zn23  1  0.00000000  0.00000000  0.25000468  1
  S  S24  1  0.66666700  0.33333300  0.94790730  1
  S  S25  1  0.00000000  0.00000000  0.57290580  1
  S  S26  1  0.33333300  0.66666700  0.19790775  1
  S  S27  1  0.33333300  0.66666700  0.98954718  1
  S  S28  1  0.00000000  0.00000000  0.36457047  1
  S  S29  1  0.00000000  0.00000000  0.48954838  1
  S  S30  1  0.66666700  0.33333300  0.53126482  1
  S  S31  1  0.00000000  0.00000000  0.78123849  1
  S  S32  1  0.66666700  0.33333300  0.82290727  1
  S  S33  1  0.33333300  0.66666700  0.44790756  1
  S  S34  1  0.66666700  0.33333300  0.23956914  1
  S  S35  1  0.66666700  0.33333300  0.11456959  1
  S  S36  1  0.00000000  0.00000000  0.03126466  1
  S  S37  1  0.33333300  0.66666700  0.73959491  1
  S  S38  1  0.00000000  0.00000000  0.15623989  1
  S  S39  1  0.33333300  0.66666700  0.86457011  1
  S  S40  1  0.66666700  0.33333300  0.65623949  1
  S  S41  1  0.33333300  0.66666700  0.61456970  1
  S  S42  1  0.00000000  0.00000000  0.28121650  1
  S  S43  1  0.33333300  0.66666700  0.07290676  1
  S  S44  1  0.00000000  0.00000000  0.69788378  1
  S  S45  1  0.66666700  0.33333300  0.40623980  1
  S  S46  1  0.33333300  0.66666700  0.32293368  1
  S  S47  1  0.00000000  0.00000000  0.90623993  1
