# generated using pymatgen
data_Ba2Tl2CuO6
_symmetry_space_group_name_H-M   'P 1'
_cell_length_a   3.91347427
_cell_length_b   3.91347427
_cell_length_c   12.20116400
_cell_angle_alpha   99.22854748
_cell_angle_beta   99.22854748
_cell_angle_gamma   90.00000000
_symmetry_Int_Tables_number   1
_chemical_formula_structural   Ba2Tl2CuO6
_chemical_formula_sum   'Ba2 Tl2 Cu1 O6'
_cell_volume   181.99475092
_cell_formula_units_Z   1
loop_
 _symmetry_equiv_pos_site_id
 _symmetry_equiv_pos_as_xyz
  1  'x, y, z'
loop_
 _atom_site_type_symbol
 _atom_site_label
 _atom_site_symmetry_multiplicity
 _atom_site_fract_x
 _atom_site_fract_y
 _atom_site_fract_z
 _atom_site_occupancy
  Ba  Ba0  1  0.58112475  0.58112475  0.16224950  1
  Ba  Ba1  1  0.41887525  0.41887525  0.83775050  1
  Tl  Tl2  1  0.79782013  0.79782013  0.59564026  1
  Tl  Tl3  1  0.20217987  0.20217987  0.40435974  1
  Cu  Cu4  1  0.00000000  0.00000000  -0.00000000  1
  O  O5  1  0.88268673  0.88268673  0.76537346  1
  O  O6  1  0.11731327  0.11731327  0.23462654  1
  O  O7  1  0.50000000  0.00000000  -0.00000000  1
  O  O8  1  0.00000000  0.50000000  -0.00000000  1
  O  O9  1  0.71065666  0.71065666  0.42131332  1
  O  O10  1  0.28934334  0.28934334  0.57868668  1
