# generated using pymatgen
data_K2Ag4Pd3(NO2)12
_symmetry_space_group_name_H-M   'P 1'
_cell_length_a   7.33485789
_cell_length_b   7.82362184
_cell_length_c   24.07771709
_cell_angle_alpha   90.00000000
_cell_angle_beta   90.00000000
_cell_angle_gamma   99.12016161
_symmetry_Int_Tables_number   1
_chemical_formula_structural   K2Ag4Pd3(NO2)12
_chemical_formula_sum   'K4 Ag8 Pd6 N24 O48'
_cell_volume   1364.23614376
_cell_formula_units_Z   2
loop_
 _symmetry_equiv_pos_site_id
 _symmetry_equiv_pos_as_xyz
  1  'x, y, z'
loop_
 _atom_site_type_symbol
 _atom_site_label
 _atom_site_symmetry_multiplicity
 _atom_site_fract_x
 _atom_site_fract_y
 _atom_site_fract_z
 _atom_site_occupancy
  K  K0  1  0.09666640  0.42292498  0.86593462  1
  K  K1  1  0.90333360  0.57707502  0.13406538  1
  K  K2  1  0.59666640  0.92292498  0.63406538  1
  K  K3  1  0.40333360  0.07707502  0.36593462  1
  Ag  Ag4  1  0.37330340  0.60853310  0.47355782  1
  Ag  Ag5  1  0.12669660  0.89146690  0.97355782  1
  Ag  Ag6  1  0.87330340  0.10853310  0.02644218  1
  Ag  Ag7  1  0.89109449  0.32478743  0.31873866  1
  Ag  Ag8  1  0.60890551  0.17521257  0.81873866  1
  Ag  Ag9  1  0.62669660  0.39146690  0.52644218  1
  Ag  Ag10  1  0.10890551  0.67521257  0.68126134  1
  Ag  Ag11  1  0.39109449  0.82478743  0.18126134  1
  Pd  Pd12  1  0.11220787  0.27464206  0.67611884  1
  Pd  Pd13  1  0.38779213  0.22535794  0.17611884  1
  Pd  Pd14  1  0.61220787  0.77464206  0.82388116  1
  Pd  Pd15  1  0.50000000  0.50000000  0.00000000  1
  Pd  Pd16  1  0.88779213  0.72535794  0.32388116  1
  Pd  Pd17  1  0.00000000  0.00000000  0.50000000  1
  N  N18  1  0.61942582  0.40034637  0.93225596  1
  N  N19  1  0.20194133  0.21814791  0.49435118  1
  N  N20  1  0.70194133  0.71814791  0.00564882  1
  N  N21  1  0.78993856  0.70087711  0.76603010  1
  N  N22  1  0.06923314  0.65713544  0.38351750  1
  N  N23  1  0.43076686  0.84286456  0.88351750  1
  N  N24  1  0.39280901  0.71084283  0.76997656  1
  N  N25  1  0.60719099  0.28915717  0.23002344  1
  N  N26  1  0.88057418  0.09965363  0.43225596  1
  N  N27  1  0.66480555  0.65451550  0.37680866  1
  N  N28  1  0.83519445  0.84548450  0.87680866  1
  N  N29  1  0.28993856  0.20087711  0.73396990  1
  N  N30  1  0.89280901  0.21084283  0.73002344  1
  N  N31  1  0.21006144  0.29912289  0.23396990  1
  N  N32  1  0.38057418  0.59965363  0.06774404  1
  N  N33  1  0.33519445  0.34548450  0.62319134  1
  N  N34  1  0.11942582  0.90034637  0.56774404  1
  N  N35  1  0.56923314  0.15713544  0.11648250  1
  N  N36  1  0.79805867  0.78185209  0.50564882  1
  N  N37  1  0.71006144  0.79912289  0.26603010  1
  N  N38  1  0.10719099  0.78915717  0.26997656  1
  N  N39  1  0.16480555  0.15451550  0.12319134  1
  N  N40  1  0.93076686  0.34286456  0.61648250  1
  N  N41  1  0.29805867  0.28185209  0.99435118  1
  O  O42  1  0.08373059  0.50025622  0.38847447  1
  O  O43  1  0.83486354  0.63674842  0.49203960  1
  O  O44  1  0.34361804  0.29580412  0.77460016  1
  O  O45  1  0.58373059  0.00025622  0.11152553  1
  O  O46  1  0.91626941  0.49974378  0.61152553  1
  O  O47  1  0.33227362  0.73287320  0.91277411  1
  O  O48  1  0.15841151  0.44118776  0.22754220  1
  O  O49  1  0.16772638  0.76712680  0.41277411  1
  O  O50  1  0.65841151  0.94118776  0.27245780  1
  O  O51  1  0.91376596  0.73019837  0.89828410  1
  O  O52  1  0.41376596  0.23019837  0.60171590  1
  O  O53  1  0.66772638  0.26712680  0.08722589  1
  O  O54  1  0.65638196  0.70419588  0.22539984  1
  O  O55  1  0.46420363  0.60497551  0.11346046  1
  O  O56  1  0.38477932  0.50016834  0.61117506  1
  O  O57  1  0.35874286  0.20378969  0.47602973  1
  O  O58  1  0.84158849  0.55881224  0.77245780  1
  O  O59  1  0.03579637  0.89502449  0.61346046  1
  O  O60  1  0.76572954  0.34055111  0.93709605  1
  O  O61  1  0.58623404  0.76980163  0.39828410  1
  O  O62  1  0.73427046  0.15944889  0.43709605  1
  O  O63  1  0.16513646  0.36325158  0.50796040  1
  O  O64  1  0.64125714  0.79621031  0.52397027  1
  O  O65  1  0.14125714  0.29621031  0.97602973  1
  O  O66  1  0.41795040  0.70934192  0.71830422  1
  O  O67  1  0.96420363  0.10497551  0.38653954  1
  O  O68  1  0.26782620  0.81995269  0.28814954  1
  O  O69  1  0.84361804  0.79580412  0.72539984  1
  O  O70  1  0.15638196  0.20419588  0.27460016  1
  O  O71  1  0.58204960  0.29065808  0.28169578  1
  O  O72  1  0.33486354  0.13674842  0.00796040  1
  O  O73  1  0.23427046  0.65944889  0.06290395  1
  O  O74  1  0.08204960  0.79065808  0.21830422  1
  O  O75  1  0.34158849  0.05881224  0.72754220  1
  O  O76  1  0.61522068  0.49983166  0.38882494  1
  O  O77  1  0.26572954  0.84055111  0.56290395  1
  O  O78  1  0.91795040  0.20934192  0.78169578  1
  O  O79  1  0.85874286  0.70378969  0.02397027  1
  O  O80  1  0.66513646  0.86325158  0.99203960  1
  O  O81  1  0.73217380  0.18004731  0.71185046  1
  O  O82  1  0.83227362  0.23287320  0.58722589  1
  O  O83  1  0.41626941  0.99974378  0.88847447  1
  O  O84  1  0.88477932  0.00016834  0.88882494  1
  O  O85  1  0.11522068  0.99983166  0.11117506  1
  O  O86  1  0.08623404  0.26980163  0.10171590  1
  O  O87  1  0.53579637  0.39502449  0.88653954  1
  O  O88  1  0.23217380  0.68004731  0.78814954  1
  O  O89  1  0.76782620  0.31995269  0.21185046  1
