# generated using pymatgen
data_NaCu(IO3)3
_symmetry_space_group_name_H-M   'P 1'
_cell_length_a   7.40736847
_cell_length_b   7.89768579
_cell_length_c   8.31379012
_cell_angle_alpha   70.35897117
_cell_angle_beta   73.09093783
_cell_angle_gamma   80.82790325
_symmetry_Int_Tables_number   1
_chemical_formula_structural   NaCu(IO3)3
_chemical_formula_sum   'Na2 Cu2 I6 O18'
_cell_volume   437.23755782
_cell_formula_units_Z   2
loop_
 _symmetry_equiv_pos_site_id
 _symmetry_equiv_pos_as_xyz
  1  'x, y, z'
loop_
 _atom_site_type_symbol
 _atom_site_label
 _atom_site_symmetry_multiplicity
 _atom_site_fract_x
 _atom_site_fract_y
 _atom_site_fract_z
 _atom_site_occupancy
  Na  Na0  1  0.69291117  0.79003226  0.86436580  1
  Na  Na1  1  0.30708883  0.20996774  0.13563420  1
  Cu  Cu2  1  0.00000000  0.00000000  0.50000000  1
  Cu  Cu3  1  0.00000000  0.00000000  0.00000000  1
  I  I4  1  0.29750573  0.21931900  0.59226851  1
  I  I5  1  0.70249427  0.78068100  0.40773149  1
  I  I6  1  0.26567118  0.73202710  0.23701195  1
  I  I7  1  0.23859397  0.64033281  0.79182181  1
  I  I8  1  0.76140603  0.35966719  0.20817819  1
  I  I9  1  0.73432882  0.26797290  0.76298805  1
  O  O10  1  0.45121523  0.77009808  0.70669965  1
  O  O11  1  0.47574498  0.29212848  0.82053548  1
  O  O12  1  0.70514856  0.53786220  0.48821657  1
  O  O13  1  0.77017287  0.45490085  0.97228662  1
  O  O14  1  0.22982713  0.54509915  0.02771338  1
  O  O15  1  0.52425502  0.70787152  0.17946452  1
  O  O16  1  0.15761598  0.19543530  0.44884938  1
  O  O17  1  0.84238402  0.80456470  0.55115062  1
  O  O18  1  0.76223462  0.13959248  0.60331214  1
  O  O19  1  0.25121771  0.93630268  0.04461955  1
  O  O20  1  0.23776538  0.86040752  0.39668786  1
  O  O21  1  0.94541037  0.17405032  0.20571702  1
  O  O22  1  0.90577941  0.78948138  0.20939827  1
  O  O23  1  0.09422059  0.21051862  0.79060173  1
  O  O24  1  0.54878477  0.22990192  0.29330035  1
  O  O25  1  0.74878229  0.06369732  0.95538045  1
  O  O26  1  0.05458963  0.82594968  0.79428298  1
  O  O27  1  0.29485144  0.46213780  0.51178343  1
