# generated using pymatgen
data_NaSb(PS3)2
_symmetry_space_group_name_H-M   'P 1'
_cell_length_a   7.41002176
_cell_length_b   11.42595524
_cell_length_c   11.93495572
_cell_angle_alpha   108.95876347
_cell_angle_beta   90.00000000
_cell_angle_gamma   90.00000000
_symmetry_Int_Tables_number   1
_chemical_formula_structural   NaSb(PS3)2
_chemical_formula_sum   'Na4 Sb4 P8 S24'
_cell_volume   955.67533880
_cell_formula_units_Z   4
loop_
 _symmetry_equiv_pos_site_id
 _symmetry_equiv_pos_as_xyz
  1  'x, y, z'
loop_
 _atom_site_type_symbol
 _atom_site_label
 _atom_site_symmetry_multiplicity
 _atom_site_fract_x
 _atom_site_fract_y
 _atom_site_fract_z
 _atom_site_occupancy
  Na  Na0  1  0.11144471  0.59690789  0.37964755  1
  Na  Na1  1  0.88855529  0.40309211  0.62035245  1
  Na  Na2  1  0.61144471  0.40309211  0.12035245  1
  Na  Na3  1  0.38855529  0.59690789  0.87964755  1
  Sb  Sb4  1  0.16072055  0.13198594  0.82094372  1
  Sb  Sb5  1  0.83927945  0.86801406  0.17905628  1
  Sb  Sb6  1  0.33927945  0.13198594  0.32094372  1
  Sb  Sb7  1  0.66072055  0.86801406  0.67905628  1
  P  P8  1  0.89999343  0.75595169  0.83471073  1
  P  P9  1  0.10000657  0.24404831  0.16528927  1
  P  P10  1  0.87841150  0.24619697  0.29590417  1
  P  P11  1  0.39999343  0.24404831  0.66528927  1
  P  P12  1  0.37841150  0.75380303  0.20409583  1
  P  P13  1  0.62158850  0.24619697  0.79590417  1
  P  P14  1  0.12158850  0.75380303  0.70409583  1
  P  P15  1  0.60000657  0.75595169  0.33471073  1
  S  S16  1  0.50943715  0.82279443  0.08475776  1
  S  S17  1  0.80361658  0.65792296  0.22443975  1
  S  S18  1  0.30361658  0.34207704  0.27556025  1
  S  S19  1  0.30650677  0.87571247  0.80409948  1
  S  S20  1  0.69638342  0.65792296  0.72443975  1
  S  S21  1  0.20998252  0.57994651  0.63384644  1
  S  S22  1  0.00943715  0.17720557  0.41524224  1
  S  S23  1  0.49418148  0.31249547  0.54329549  1
  S  S24  1  0.69349323  0.12428753  0.19590052  1
  S  S25  1  0.50581852  0.68750453  0.45670451  1
  S  S26  1  0.99418148  0.68750453  0.95670451  1
  S  S27  1  0.80872972  0.93579461  0.88995850  1
  S  S28  1  0.00581852  0.31249547  0.04329549  1
  S  S29  1  0.70998252  0.42005349  0.86615356  1
  S  S30  1  0.99056285  0.82279443  0.58475776  1
  S  S31  1  0.49056285  0.17720557  0.91524224  1
  S  S32  1  0.79001748  0.42005349  0.36615356  1
  S  S33  1  0.69127028  0.93579461  0.38995850  1
  S  S34  1  0.19349323  0.87571247  0.30409948  1
  S  S35  1  0.80650677  0.12428753  0.69590052  1
  S  S36  1  0.30872972  0.06420539  0.61004150  1
  S  S37  1  0.19638342  0.34207704  0.77556025  1
  S  S38  1  0.29001748  0.57994651  0.13384644  1
  S  S39  1  0.19127028  0.06420539  0.11004150  1
