# generated using pymatgen
data_La6Ti2S8O5
_symmetry_space_group_name_H-M   'P 1'
_cell_length_a   4.02037123
_cell_length_b   12.77072018
_cell_length_c   16.48571478
_cell_angle_alpha   97.03775422
_cell_angle_beta   90.00000000
_cell_angle_gamma   90.00000000
_symmetry_Int_Tables_number   1
_chemical_formula_structural   La6Ti2S8O5
_chemical_formula_sum   'La12 Ti4 S16 O10'
_cell_volume   840.04935727
_cell_formula_units_Z   2
loop_
 _symmetry_equiv_pos_site_id
 _symmetry_equiv_pos_as_xyz
  1  'x, y, z'
loop_
 _atom_site_type_symbol
 _atom_site_label
 _atom_site_symmetry_multiplicity
 _atom_site_fract_x
 _atom_site_fract_y
 _atom_site_fract_z
 _atom_site_occupancy
  La  La0  1  0.75000000  0.31995187  0.64874492  1
  La  La1  1  0.75000000  0.60409826  0.12616440  1
  La  La2  1  0.75000000  0.93184620  0.11745046  1
  La  La3  1  0.25000000  0.39590174  0.87383560  1
  La  La4  1  0.25000000  0.68004813  0.35125508  1
  La  La5  1  0.25000000  0.61517224  0.60157777  1
  La  La6  1  0.25000000  0.00158242  0.61950359  1
  La  La7  1  0.25000000  0.06815380  0.88254954  1
  La  La8  1  0.75000000  0.38482776  0.39842223  1
  La  La9  1  0.75000000  0.99841758  0.38049641  1
  La  La10  1  0.75000000  0.26910603  0.10229108  1
  La  La11  1  0.25000000  0.73089397  0.89770892  1
  Ti  Ti12  1  0.75000000  0.55887232  0.77401089  1
  Ti  Ti13  1  0.75000000  0.84666406  0.76757817  1
  Ti  Ti14  1  0.25000000  0.15333594  0.23242183  1
  Ti  Ti15  1  0.25000000  0.44112768  0.22598911  1
  S  S16  1  0.75000000  0.56967354  0.93889841  1
  S  S17  1  0.25000000  0.76442493  0.07631979  1
  S  S18  1  0.25000000  0.08658921  0.06781451  1
  S  S19  1  0.25000000  0.22559525  0.73082356  1
  S  S20  1  0.25000000  0.19552645  0.37343515  1
  S  S21  1  0.75000000  0.60792801  0.46492462  1
  S  S22  1  0.25000000  0.39207199  0.53507538  1
  S  S23  1  0.25000000  0.43032646  0.06110159  1
  S  S24  1  0.75000000  0.23557507  0.92368021  1
  S  S25  1  0.75000000  0.03065853  0.75429174  1
  S  S26  1  0.75000000  0.11337683  0.54562885  1
  S  S27  1  0.75000000  0.80447355  0.62656485  1
  S  S28  1  0.25000000  0.88662317  0.45437115  1
  S  S29  1  0.75000000  0.77440475  0.26917644  1
  S  S30  1  0.25000000  0.96934147  0.24570826  1
  S  S31  1  0.75000000  0.91341079  0.93218549  1
  O  O32  1  0.75000000  0.71285160  0.80806053  1
  O  O33  1  0.25000000  0.85039125  0.78278378  1
  O  O34  1  0.75000000  0.54718923  0.66061308  1
  O  O35  1  0.25000000  0.45281077  0.33938692  1
  O  O36  1  0.25000000  0.58458917  0.21304347  1
  O  O37  1  0.75000000  0.14960875  0.21721622  1
  O  O38  1  0.75000000  0.41541083  0.78695653  1
  O  O39  1  0.25000000  0.28714840  0.19193947  1
  O  O40  1  0.75000000  0.43310898  0.21724464  1
  O  O41  1  0.25000000  0.56689102  0.78275536  1
