# generated using pymatgen
data_SnSb2As2F18
_symmetry_space_group_name_H-M   'P 1'
_cell_length_a   6.18493287
_cell_length_b   11.31776408
_cell_length_c   11.69836459
_cell_angle_alpha   90.00000000
_cell_angle_beta   90.00000000
_cell_angle_gamma   90.31247139
_symmetry_Int_Tables_number   1
_chemical_formula_structural   SnSb2As2F18
_chemical_formula_sum   'Sn2 Sb4 As4 F36'
_cell_volume   818.86879354
_cell_formula_units_Z   2
loop_
 _symmetry_equiv_pos_site_id
 _symmetry_equiv_pos_as_xyz
  1  'x, y, z'
loop_
 _atom_site_type_symbol
 _atom_site_label
 _atom_site_symmetry_multiplicity
 _atom_site_fract_x
 _atom_site_fract_y
 _atom_site_fract_z
 _atom_site_occupancy
  Sn  Sn0  1  0.99796528  0.50126098  0.36826304  1
  Sn  Sn1  1  0.99796528  0.00126098  0.63173696  1
  Sb  Sb2  1  0.48699062  0.46894484  0.11263678  1
  Sb  Sb3  1  0.48699062  0.96894484  0.88736322  1
  Sb  Sb4  1  0.48724491  0.76985992  0.46844558  1
  Sb  Sb5  1  0.48724491  0.26985992  0.53155442  1
  As  As6  1  0.90596651  0.12858731  0.24560633  1
  As  As7  1  0.90596651  0.62858731  0.75439367  1
  As  As8  1  0.11299585  0.28884724  0.86507557  1
  As  As9  1  0.11299585  0.78884724  0.13492443  1
  F  F10  1  0.68203300  0.89625769  0.51032101  1
  F  F11  1  0.96235092  0.27762946  0.29323836  1
  F  F12  1  0.72650363  0.67586357  0.41519884  1
  F  F13  1  0.29347883  0.45463318  0.24614436  1
  F  F14  1  0.23477582  0.45978431  0.01767681  1
  F  F15  1  0.94407529  0.74135790  0.02286889  1
  F  F16  1  0.28991114  0.14161161  0.57005781  1
  F  F17  1  0.16778581  0.10823856  0.19220135  1
  F  F18  1  0.44924785  0.83399932  0.31955000  1
  F  F19  1  0.28991114  0.64161161  0.42994219  1
  F  F20  1  0.03187918  0.66516777  0.22691666  1
  F  F21  1  0.96235092  0.77762946  0.70676164  1
  F  F22  1  0.96331317  0.06724399  0.38240900  1
  F  F23  1  0.91997589  0.38324704  0.80016522  1
  F  F24  1  0.51584747  0.20369621  0.38285427  1
  F  F25  1  0.23477582  0.95978431  0.98232319  1
  F  F26  1  0.91997589  0.88324704  0.19983478  1
  F  F27  1  0.45653877  0.13635097  0.87468893  1
  F  F28  1  0.45653877  0.63635097  0.12531107  1
  F  F29  1  0.44924785  0.33399932  0.68045000  1
  F  F30  1  0.72650363  0.17586357  0.58480116  1
  F  F31  1  0.24252921  0.86324943  0.51810921  1
  F  F32  1  0.16778581  0.60823856  0.80779865  1
  F  F33  1  0.94407529  0.24135790  0.97713111  1
  F  F34  1  0.96331317  0.56724399  0.61759100  1
  F  F35  1  0.03187918  0.16516777  0.77308334  1
  F  F36  1  0.51584747  0.70369621  0.61714573  1
  F  F37  1  0.51511391  0.30221351  0.11258069  1
  F  F38  1  0.51511391  0.80221351  0.88741931  1
  F  F39  1  0.29347883  0.95463318  0.75385564  1
  F  F40  1  0.68203300  0.39625769  0.48967899  1
  F  F41  1  0.68114608  0.48775919  0.98868449  1
  F  F42  1  0.68114608  0.98775919  0.01131551  1
  F  F43  1  0.72223086  0.47859599  0.22437447  1
  F  F44  1  0.72223086  0.97859599  0.77562553  1
  F  F45  1  0.24252921  0.36324943  0.48189079  1
