# generated using pymatgen
data_CoAsS
_symmetry_space_group_name_H-M   'P 1'
_cell_length_a   3.49466343
_cell_length_b   4.59551468
_cell_length_c   5.57301284
_cell_angle_alpha   90.00000000
_cell_angle_beta   90.00000000
_cell_angle_gamma   89.99870311
_symmetry_Int_Tables_number   1
_chemical_formula_structural   CoAsS
_chemical_formula_sum   'Co2 As2 S2'
_cell_volume   89.50134397
_cell_formula_units_Z   2
loop_
 _symmetry_equiv_pos_site_id
 _symmetry_equiv_pos_as_xyz
  1  'x, y, z'
loop_
 _atom_site_type_symbol
 _atom_site_label
 _atom_site_symmetry_multiplicity
 _atom_site_fract_x
 _atom_site_fract_y
 _atom_site_fract_z
 _atom_site_occupancy
  Co  Co0  1  0.75002986  0.73646785  0.49712235  1
  Co  Co1  1  0.24997014  0.26353215  0.99712235  1
  As  As2  1  0.25004552  0.03927003  0.37179793  1
  As  As3  1  0.74995448  0.96072997  0.87179793  1
  S  S4  1  0.74998508  0.54825906  0.12492972  1
  S  S5  1  0.25001492  0.45174094  0.62492972  1
