# generated using pymatgen
data_K6U4O15
_symmetry_space_group_name_H-M   'P 1'
_cell_length_a   7.67596971
_cell_length_b   7.67596981
_cell_length_c   30.70284832
_cell_angle_alpha   109.68449304
_cell_angle_beta   109.68449330
_cell_angle_gamma   109.04689015
_symmetry_Int_Tables_number   1
_chemical_formula_structural   K6U4O15
_chemical_formula_sum   'K18 U12 O45'
_cell_volume   1392.50894677
_cell_formula_units_Z   3
loop_
 _symmetry_equiv_pos_site_id
 _symmetry_equiv_pos_as_xyz
  1  'x, y, z'
loop_
 _atom_site_type_symbol
 _atom_site_label
 _atom_site_symmetry_multiplicity
 _atom_site_fract_x
 _atom_site_fract_y
 _atom_site_fract_z
 _atom_site_occupancy
  K  K0  1  0.00012831  0.99987169  0.87500000  1
  K  K1  1  0.01044544  0.51044544  0.75522272  1
  K  K2  1  0.99985922  0.99985922  0.74992961  1
  K  K3  1  0.49987169  0.50012831  0.87500000  1
  K  K4  1  0.99382354  0.01158746  0.62193947  1
  K  K5  1  0.99123753  0.49123753  0.49561877  1
  K  K6  1  0.49393433  0.47617041  0.62193947  1
  K  K7  1  0.51863790  0.01863790  0.75931895  1
  K  K8  1  0.99120147  0.00879853  0.37500000  1
  K  K9  1  0.99129543  0.49129543  0.24564772  1
  K  K10  1  0.50879853  0.49120147  0.37500000  1
  K  K11  1  0.50870457  0.00870457  0.50435228  1
  K  K12  1  0.98136210  0.48136210  0.99068105  1
  K  K13  1  0.98841254  0.00617646  0.12806053  1
  K  K14  1  0.00014078  0.00014078  0.00007039  1
  K  K15  1  0.50876247  0.00876247  0.25438123  1
  K  K16  1  0.52382959  0.50606567  0.12806053  1
  K  K17  1  0.48955456  0.98955456  0.99477728  1
  U  U18  1  0.99231504  0.49040586  0.62430161  1
  U  U19  1  0.49949684  0.99949684  0.87500000  1
  U  U20  1  0.50020486  0.50020486  0.75010243  1
  U  U21  1  0.99315751  0.49315751  0.37500000  1
  U  U22  1  0.50489140  0.00680058  0.62430161  1
  U  U23  1  0.00050316  0.50050316  0.87500000  1
  U  U24  1  0.49984132  0.49984132  0.49992066  1
  U  U25  1  0.50684249  0.00684249  0.37500000  1
  U  U26  1  0.50015868  0.50015868  0.25007934  1
  U  U27  1  0.50959414  0.00768496  0.12569839  1
  U  U28  1  0.49979514  0.49979514  -0.00010243  1
  U  U29  1  0.99319942  0.49510860  0.12569839  1
  O  O30  1  0.99782828  0.28510538  0.82081614  1
  O  O31  1  0.25304526  0.50233662  0.93902563  1
  O  O32  1  0.25000000  0.75000000  0.87500000  1
  O  O33  1  0.00916816  0.72055573  0.67682989  1
  O  O34  1  0.71489462  0.00217172  0.92918386  1
  O  O35  1  0.00912891  0.29638031  0.57134424  1
  O  O36  1  0.49766338  0.74695474  0.81097437  1
  O  O37  1  0.24990913  0.50750202  0.68369334  1
  O  O38  1  0.50305727  0.25376592  0.93902563  1
  O  O39  1  0.28543627  0.99815918  0.82081614  1
  O  O40  1  0.01042884  0.72076372  0.42755982  1
  O  O41  1  0.28039593  0.28378511  0.74735919  1
  O  O42  1  0.70904084  0.70565166  0.74735919  1
  O  O43  1  0.01052444  0.30018956  0.32244018  1
  O  O44  1  0.75000000  0.25000000  0.87500000  1
  O  O45  1  0.74623408  0.49694273  0.81097437  1
  O  O46  1  0.25359059  0.51045285  0.43579537  1
  O  O47  1  0.48816283  0.74583009  0.56371363  1
  O  O48  1  0.48486422  0.22727133  0.68369334  1
  O  O49  1  0.27624804  0.98899665  0.57134424  1
  O  O50  1  0.00184082  0.71456373  0.92918386  1
  O  O51  1  0.29077617  0.29080295  0.50020122  1
  O  O52  1  0.01323617  0.30184860  0.07317011  1
  O  O53  1  0.71002871  0.71000193  0.50020122  1
  O  O54  1  0.69815140  0.98676383  0.67682989  1
  O  O55  1  0.48954715  0.74640941  0.31420463  1
  O  O56  1  0.74754673  0.24754673  0.62377336  1
  O  O57  1  0.76669169  0.50902442  0.56371363  1
  O  O58  1  0.25416991  0.51183717  0.18628637  1
  O  O59  1  0.48959087  0.23272861  0.43579537  1
  O  O60  1  0.27923628  0.98957116  0.32244018  1
  O  O61  1  0.28999807  0.28997129  0.24979878  1
  O  O62  1  0.70919705  0.70922383  0.24979878  1
  O  O63  1  0.70361969  0.99087109  0.17865576  1
  O  O64  1  0.69981044  0.98947556  0.42755982  1
  O  O65  1  0.76727139  0.51040913  0.31420463  1
  O  O66  1  0.49249798  0.75009087  0.06630666  1
  O  O67  1  0.75000000  0.25000000  0.37500000  1
  O  O68  1  0.49097558  0.23330831  0.18628637  1
  O  O69  1  0.27944427  0.99083184  0.07317011  1
  O  O70  1  0.29434834  0.29095916  0.00264081  1
  O  O71  1  0.71621489  0.71960407  0.00264081  1
  O  O72  1  0.77272867  0.51513578  0.06630666  1
  O  O73  1  0.75245327  0.25245327  0.12622664  1
  O  O74  1  0.01100335  0.72375196  0.17865576  1
