# generated using pymatgen
data_K2Na4Ge2O7
_symmetry_space_group_name_H-M   'P 1'
_cell_length_a   6.10786651
_cell_length_b   6.06764361
_cell_length_c   29.60626274
_cell_angle_alpha   90.00000000
_cell_angle_beta   90.00000000
_cell_angle_gamma   119.92346895
_symmetry_Int_Tables_number   1
_chemical_formula_structural   K2Na4Ge2O7
_chemical_formula_sum   'K8 Na16 Ge8 O28'
_cell_volume   950.95118374
_cell_formula_units_Z   4
loop_
 _symmetry_equiv_pos_site_id
 _symmetry_equiv_pos_as_xyz
  1  'x, y, z'
loop_
 _atom_site_type_symbol
 _atom_site_label
 _atom_site_symmetry_multiplicity
 _atom_site_fract_x
 _atom_site_fract_y
 _atom_site_fract_z
 _atom_site_occupancy
  K  K0  1  0.69990093  0.72025861  0.24660310  1
  K  K1  1  0.30009907  0.27974139  0.74660310  1
  K  K2  1  0.96342714  0.41132415  0.55216955  1
  K  K3  1  0.03657286  0.58867585  0.05216955  1
  K  K4  1  0.35250674  0.23793444  0.05208955  1
  K  K5  1  0.64749326  0.76206556  0.55208955  1
  K  K6  1  0.43852031  0.63138650  0.85290967  1
  K  K7  1  0.56147969  0.36861350  0.35290967  1
  Na  Na8  1  0.89023351  0.07311299  0.34564212  1
  Na  Na9  1  0.90773049  0.69932602  0.44345360  1
  Na  Na10  1  0.29293900  0.65094626  0.66619627  1
  Na  Na11  1  0.10976649  0.92688701  0.84564212  1
  Na  Na12  1  0.33041317  0.99199766  0.26589551  1
  Na  Na13  1  0.09226951  0.30067398  0.94345360  1
  Na  Na14  1  0.70363661  0.10220575  0.44134697  1
  Na  Na15  1  0.70782903  0.48535101  0.94760139  1
  Na  Na16  1  0.29636339  0.89779425  0.94134697  1
  Na  Na17  1  0.70706100  0.34905374  0.16619627  1
  Na  Na18  1  0.11414749  0.95304509  0.16804150  1
  Na  Na19  1  0.66958683  0.00800234  0.76589551  1
  Na  Na20  1  0.29217097  0.51464899  0.44760139  1
  Na  Na21  1  0.26328811  0.52473503  0.16174682  1
  Na  Na22  1  0.88585251  0.04695491  0.66804150  1
  Na  Na23  1  0.73671189  0.47526497  0.66174682  1
  Ge  Ge24  1  0.76856023  0.31737201  0.85633914  1
  Ge  Ge25  1  0.68800401  0.92586286  0.11228302  1
  Ge  Ge26  1  0.93636781  0.61583383  0.75529112  1
  Ge  Ge27  1  0.29959239  0.11009305  0.50081384  1
  Ge  Ge28  1  0.23143977  0.68262799  0.35633914  1
  Ge  Ge29  1  0.31199599  0.07413714  0.61228302  1
  Ge  Ge30  1  0.70040761  0.88990695  0.00081384  1
  Ge  Ge31  1  0.06363219  0.38416617  0.25529112  1
  O  O32  1  0.64745898  0.76137078  0.05844007  1
  O  O33  1  0.23991607  0.82711490  0.77618370  1
  O  O34  1  0.57978055  0.03845226  0.62196121  1
  O  O35  1  0.97009776  0.22319212  0.11450402  1
  O  O36  1  0.76008393  0.17288510  0.27618370  1
  O  O37  1  0.85011174  0.09214831  0.83839513  1
  O  O38  1  0.27529257  0.53341173  0.30471790  1
  O  O39  1  0.00772607  0.08203094  0.48377562  1
  O  O40  1  0.22075549  0.24889647  0.22561337  1
  O  O41  1  0.72470743  0.46658827  0.80471790  1
  O  O42  1  0.06871654  0.62469359  0.22028256  1
  O  O43  1  0.69164575  0.70469837  0.15095851  1
  O  O44  1  0.30835425  0.29530163  0.65095851  1
  O  O45  1  0.99227393  0.91796906  0.98377562  1
  O  O46  1  0.29218660  0.81618797  0.49631112  1
  O  O47  1  0.52431845  0.79618550  0.38479643  1
  O  O48  1  0.99265890  0.44188575  0.39080317  1
  O  O49  1  0.00734110  0.55811425  0.89080317  1
  O  O50  1  0.47568155  0.20381450  0.88479643  1
  O  O51  1  0.42021945  0.96154774  0.12196121  1
  O  O52  1  0.14988826  0.90785169  0.33839513  1
  O  O53  1  0.55697663  0.35957118  0.47133402  1
  O  O54  1  0.44302337  0.64042882  0.97133402  1
  O  O55  1  0.02990224  0.77680788  0.61450402  1
  O  O56  1  0.35254102  0.23862922  0.55844007  1
  O  O57  1  0.93128346  0.37530641  0.72028256  1
  O  O58  1  0.77924451  0.75110353  0.72561337  1
  O  O59  1  0.70781340  0.18381203  0.99631112  1
