# generated using pymatgen
data_K2CuSbS3
_symmetry_space_group_name_H-M   'P 1'
_cell_length_a   6.35531176
_cell_length_b   6.99986545
_cell_length_c   18.15629916
_cell_angle_alpha   90.00000000
_cell_angle_beta   90.00000000
_cell_angle_gamma   111.22260883
_symmetry_Int_Tables_number   1
_chemical_formula_structural   K2CuSbS3
_chemical_formula_sum   'K8 Cu4 Sb4 S12'
_cell_volume   752.92920554
_cell_formula_units_Z   4
loop_
 _symmetry_equiv_pos_site_id
 _symmetry_equiv_pos_as_xyz
  1  'x, y, z'
loop_
 _atom_site_type_symbol
 _atom_site_label
 _atom_site_symmetry_multiplicity
 _atom_site_fract_x
 _atom_site_fract_y
 _atom_site_fract_z
 _atom_site_occupancy
  K  K0  1  0.56216451  0.64543095  0.11895204  1
  K  K1  1  0.06216451  0.14543095  0.38104796  1
  K  K2  1  0.64527032  0.28960155  0.54220771  1
  K  K3  1  0.14527032  0.78960155  0.95779229  1
  K  K4  1  0.85472968  0.21039845  0.04220771  1
  K  K5  1  0.93783549  0.85456905  0.61895204  1
  K  K6  1  0.43783549  0.35456905  0.88104796  1
  K  K7  1  0.35472968  0.71039845  0.45779229  1
  Cu  Cu8  1  0.95170456  0.56887048  0.77910851  1
  Cu  Cu9  1  0.04829544  0.43112952  0.22089149  1
  Cu  Cu10  1  0.54829544  0.93112952  0.27910851  1
  Cu  Cu11  1  0.45170456  0.06887048  0.72089149  1
  Sb  Sb12  1  0.76784684  0.00451396  0.82343036  1
  Sb  Sb13  1  0.73215316  0.49548604  0.32343036  1
  Sb  Sb14  1  0.23215316  0.99548604  0.17656964  1
  Sb  Sb15  1  0.26784684  0.50451396  0.67656964  1
  S  S16  1  0.84527807  0.68561717  0.43733110  1
  S  S17  1  0.44487390  0.85426457  0.62614390  1
  S  S18  1  0.34527807  0.18561717  0.06266890  1
  S  S19  1  0.15472193  0.31438283  0.56266890  1
  S  S20  1  0.11596489  0.91645419  0.79018996  1
  S  S21  1  0.05512610  0.64573543  0.12614390  1
  S  S22  1  0.94487390  0.35426457  0.87385610  1
  S  S23  1  0.61596489  0.41645419  0.70981004  1
  S  S24  1  0.65472193  0.81438283  0.93733110  1
  S  S25  1  0.88403511  0.08354581  0.20981004  1
  S  S26  1  0.55512610  0.14573543  0.37385610  1
  S  S27  1  0.38403511  0.58354581  0.29018996  1
