# generated using pymatgen
data_Ba7Fe6CuF34
_symmetry_space_group_name_H-M   'P 1'
_cell_length_a   7.81951091
_cell_length_b   10.37828001
_cell_length_c   10.37828001
_cell_angle_alpha   67.96042498
_cell_angle_beta   80.36749860
_cell_angle_gamma   80.36749864
_symmetry_Int_Tables_number   1
_chemical_formula_structural   Ba7Fe6CuF34
_chemical_formula_sum   'Ba7 Fe6 Cu1 F34'
_cell_volume   764.62420509
_cell_formula_units_Z   1
loop_
 _symmetry_equiv_pos_site_id
 _symmetry_equiv_pos_as_xyz
  1  'x, y, z'
loop_
 _atom_site_type_symbol
 _atom_site_label
 _atom_site_symmetry_multiplicity
 _atom_site_fract_x
 _atom_site_fract_y
 _atom_site_fract_z
 _atom_site_occupancy
  F  F0  1  0.67414307  0.56051213  0.56051213  1
  F  F1  1  0.32585693  0.43948787  0.43948787  1
  F  F2  1  0.30581605  0.88887402  0.88887402  1
  F  F3  1  0.69418395  0.11112598  0.11112598  1
  F  F4  1  0.75936669  0.74627172  0.74627172  1
  F  F5  1  0.24063331  0.25372828  0.25372828  1
  F  F6  1  0.54445005  0.11999706  0.35574294  1
  F  F7  1  0.45554995  0.64425706  0.88000294  1
  F  F8  1  0.45554995  0.88000294  0.64425706  1
  F  F9  1  0.54445005  0.35574294  0.11999706  1
  F  F10  1  0.38600154  0.98550957  0.23118519  1
  F  F11  1  0.61399846  0.76881481  0.01449043  1
  F  F12  1  0.61399846  0.01449043  0.76881481  1
  F  F13  1  0.38600154  0.23118519  0.98550957  1
  F  F14  1  0.97148859  0.51358003  0.24653812  1
  F  F15  1  0.02851141  0.75346188  0.48641997  1
  F  F16  1  0.02851141  0.48641997  0.75346188  1
  F  F17  1  0.97148859  0.24653812  0.51358003  1
  F  F18  1  0.00711408  0.26362829  0.00456772  1
  F  F19  1  0.99288592  0.99543228  0.73637171  1
  F  F20  1  0.99288592  0.73637171  0.99543228  1
  F  F21  1  0.00711408  0.00456772  0.26362829  1
  F  F22  1  0.80327500  0.51594385  0.04089405  1
  F  F23  1  0.19672500  0.95910595  0.48405615  1
  F  F24  1  0.19672500  0.48405615  0.95910595  1
  F  F25  1  0.80327500  0.04089405  0.51594385  1
  F  F26  1  0.20094602  0.20682999  0.79354161  1
  F  F27  1  0.79905398  0.20645839  0.79317001  1
  F  F28  1  0.79905398  0.79317001  0.20645839  1
  F  F29  1  0.20094602  0.79354161  0.20682999  1
  F  F30  1  0.61438020  0.55427224  0.27613156  1
  F  F31  1  0.38561980  0.72386844  0.44572776  1
  F  F32  1  0.38561980  0.44572776  0.72386844  1
  F  F33  1  0.61438020  0.27613156  0.55427224  1
  Fe  Fe34  1  0.19952400  0.86671517  0.35287572  1
  Fe  Fe35  1  0.80047600  0.64712428  0.13328483  1
  Fe  Fe36  1  0.80047600  0.13328483  0.64712428  1
  Fe  Fe37  1  0.19952400  0.35287572  0.86671517  1
  Fe  Fe38  1  0.54105046  0.82643888  0.82643888  1
  Fe  Fe39  1  0.45894954  0.17356112  0.17356112  1
  Cu  Cu40  1  0.50000000  0.50000000  0.50000000  1
  Ba  Ba41  1  0.69898086  0.84119387  0.44043068  1
  Ba  Ba42  1  0.30101914  0.55956932  0.15880613  1
  Ba  Ba43  1  0.30101914  0.15880613  0.55956932  1
  Ba  Ba44  1  0.69898086  0.44043068  0.84119387  1
  Ba  Ba45  1  0.12572310  0.73563755  0.73563755  1
  Ba  Ba46  1  0.87427690  0.26436245  0.26436245  1
  Ba  Ba47  1  0.00000000  0.00000000  0.00000000  1
