# generated using pymatgen
data_ZnS
_symmetry_space_group_name_H-M   'P 1'
_cell_length_a   3.85301052
_cell_length_b   3.85301041
_cell_length_c   81.86687524
_cell_angle_alpha   90.00000000
_cell_angle_beta   90.00000000
_cell_angle_gamma   120.00000090
_symmetry_Int_Tables_number   1
_chemical_formula_structural   ZnS
_chemical_formula_sum   'Zn26 S26'
_cell_volume   1052.54147892
_cell_formula_units_Z   26
loop_
 _symmetry_equiv_pos_site_id
 _symmetry_equiv_pos_as_xyz
  1  'x, y, z'
loop_
 _atom_site_type_symbol
 _atom_site_label
 _atom_site_symmetry_multiplicity
 _atom_site_fract_x
 _atom_site_fract_y
 _atom_site_fract_z
 _atom_site_occupancy
  Zn  Zn0  1  0.33333300  0.66666700  0.15382647  1
  Zn  Zn1  1  0.00000000  0.00000000  0.11538744  1
  Zn  Zn2  1  0.66666700  0.33333300  0.65383635  1
  Zn  Zn3  1  0.00000000  0.00000000  0.23078242  1
  Zn  Zn4  1  0.00000000  0.00000000  0.30770184  1
  Zn  Zn5  1  0.66666700  0.33333300  0.19231936  1
  Zn  Zn6  1  0.33333300  0.66666700  0.26922362  1
  Zn  Zn7  1  0.66666700  0.33333300  0.34616566  1
  Zn  Zn8  1  0.33333300  0.66666700  0.38462086  1
  Zn  Zn9  1  0.66666700  0.33333300  0.92308763  1
  Zn  Zn10  1  0.66666700  0.33333300  0.80769185  1
  Zn  Zn11  1  0.66666700  0.33333300  0.57691826  1
  Zn  Zn12  1  0.33333300  0.66666700  0.73078452  1
  Zn  Zn13  1  0.00000000  0.00000000  0.99999028  1
  Zn  Zn14  1  0.33333300  0.66666700  0.96151977  1
  Zn  Zn15  1  0.33333300  0.66666700  0.61538481  1
  Zn  Zn16  1  0.00000000  0.00000000  0.88462300  1
  Zn  Zn17  1  0.33333300  0.66666700  0.84617062  1
  Zn  Zn18  1  0.33333300  0.66666700  0.03847989  1
  Zn  Zn19  1  0.00000000  0.00000000  0.76923639  1
  Zn  Zn20  1  0.00000000  0.00000000  0.53847945  1
  Zn  Zn21  1  0.66666700  0.33333300  0.42309741  1
  Zn  Zn22  1  0.66666700  0.33333300  0.07692363  1
  Zn  Zn23  1  0.00000000  0.00000000  0.46151949  1
  Zn  Zn24  1  0.00000000  0.00000000  0.69231384  1
  Zn  Zn25  1  0.33333300  0.66666700  0.49999038  1
  S  S26  1  0.00000000  0.00000000  0.91347088  1
  S  S27  1  0.66666700  0.33333300  0.22116961  1
  S  S28  1  0.66666700  0.33333300  0.68268016  1
  S  S29  1  0.66666700  0.33333300  0.10577094  1
  S  S30  1  0.00000000  0.00000000  0.49034821  1
  S  S31  1  0.33333300  0.66666700  0.99034813  1
  S  S32  1  0.00000000  0.00000000  0.72114496  1
  S  S33  1  0.33333300  0.66666700  0.64424098  1
  S  S34  1  0.33333300  0.66666700  0.52886074  1
  S  S35  1  0.00000000  0.00000000  0.56730264  1
  S  S36  1  0.33333300  0.66666700  0.18268158  1
  S  S37  1  0.66666700  0.33333300  0.45191265  1
  S  S38  1  0.33333300  0.66666700  0.41349321  1
  S  S39  1  0.66666700  0.33333300  0.95191319  1
  S  S40  1  0.00000000  0.00000000  0.25959223  1
  S  S41  1  0.33333300  0.66666700  0.06730595  1
  S  S42  1  0.66666700  0.33333300  0.60574831  1
  S  S43  1  0.00000000  0.00000000  0.33653354  1
  S  S44  1  0.33333300  0.66666700  0.75963866  1
  S  S45  1  0.00000000  0.00000000  0.02886082  1
  S  S46  1  0.33333300  0.66666700  0.29809210  1
  S  S47  1  0.33333300  0.66666700  0.87500921  1
  S  S48  1  0.66666700  0.33333300  0.83653434  1
  S  S49  1  0.66666700  0.33333300  0.37498655  1
  S  S50  1  0.00000000  0.00000000  0.79806932  1
  S  S51  1  0.00000000  0.00000000  0.14421585  1
