# generated using pymatgen
data_Na2MnGaF7
_symmetry_space_group_name_H-M   'P 1'
_cell_length_a   7.51852969
_cell_length_b   7.51852950
_cell_length_c   18.43424374
_cell_angle_alpha   90.00000000
_cell_angle_beta   90.00000000
_cell_angle_gamma   120.00000087
_symmetry_Int_Tables_number   1
_chemical_formula_structural   Na2MnGaF7
_chemical_formula_sum   'Na12 Mn6 Ga6 F42'
_cell_volume   902.44715590
_cell_formula_units_Z   6
loop_
 _symmetry_equiv_pos_site_id
 _symmetry_equiv_pos_as_xyz
  1  'x, y, z'
loop_
 _atom_site_type_symbol
 _atom_site_label
 _atom_site_symmetry_multiplicity
 _atom_site_fract_x
 _atom_site_fract_y
 _atom_site_fract_z
 _atom_site_occupancy
  Na  Na0  1  0.50566136  0.88652304  0.66545562  1
  Na  Na1  1  0.11347696  0.61913931  0.99878862  1
  Na  Na2  1  0.38086069  0.49433864  0.33212262  1
  Na  Na3  1  0.61913931  0.11347696  0.00121138  1
  Na  Na4  1  0.49433864  0.38086069  0.66787738  1
  Na  Na5  1  0.88652304  0.50566136  0.33454438  1
  Na  Na6  1  0.86022287  0.00000000  0.33333300  1
  Na  Na7  1  0.00000000  0.86022287  0.66666700  1
  Na  Na8  1  0.13977713  0.13977713  0.00000000  1
  Na  Na9  1  0.84458319  0.00000000  0.83333300  1
  Na  Na10  1  0.00000000  0.84458319  0.16666700  1
  Na  Na11  1  0.15541681  0.15541681  0.50000000  1
  Mn  Mn12  1  0.49556419  0.83601553  0.17120727  1
  Mn  Mn13  1  0.16398447  0.65954866  0.50454027  1
  Mn  Mn14  1  0.34045134  0.50443581  0.83787427  1
  Mn  Mn15  1  0.65954866  0.16398447  0.49545973  1
  Mn  Mn16  1  0.50443581  0.34045134  0.16212573  1
  Mn  Mn17  1  0.83601553  0.49556419  0.82879273  1
  Ga  Ga18  1  0.31512387  0.00000000  0.33333300  1
  Ga  Ga19  1  0.00000000  0.31512387  0.66666700  1
  Ga  Ga20  1  0.68487613  0.68487613  0.00000000  1
  Ga  Ga21  1  0.33467443  0.00000000  0.83333300  1
  Ga  Ga22  1  0.00000000  0.33467443  0.16666700  1
  Ga  Ga23  1  0.66532557  0.66532557  0.50000000  1
  F  F24  1  0.42701615  0.04772967  0.12235874  1
  F  F25  1  0.95227033  0.37928648  0.45569174  1
  F  F26  1  0.62071352  0.57298385  0.78902574  1
  F  F27  1  0.37928648  0.95227033  0.54430826  1
  F  F28  1  0.57298385  0.62071352  0.21097426  1
  F  F29  1  0.04772967  0.42701615  0.87764126  1
  F  F30  1  0.23898166  0.18702651  0.86016336  1
  F  F31  1  0.81297349  0.05195416  0.19349736  1
  F  F32  1  0.94804584  0.76101834  0.52683036  1
  F  F33  1  0.05195416  0.81297349  0.80650264  1
  F  F34  1  0.76101834  0.94804584  0.47316964  1
  F  F35  1  0.18702651  0.23898166  0.13983664  1
  F  F36  1  0.37215141  0.07429901  0.73136241  1
  F  F37  1  0.92570099  0.29785240  0.06469541  1
  F  F38  1  0.70214760  0.62784859  0.39802941  1
  F  F39  1  0.29785240  0.92570099  0.93530459  1
  F  F40  1  0.62784859  0.70214760  0.60197059  1
  F  F41  1  0.07429901  0.37215141  0.26863759  1
  F  F42  1  0.42864619  0.81191253  0.80884293  1
  F  F43  1  0.18808747  0.61673366  0.14217693  1
  F  F44  1  0.38326634  0.57135381  0.47550993  1
  F  F45  1  0.61673366  0.18808747  0.85782307  1
  F  F46  1  0.57135381  0.38326634  0.52449007  1
  F  F47  1  0.81191253  0.42864619  0.19115707  1
  F  F48  1  0.77008396  0.19872639  0.60300056  1
  F  F49  1  0.80127361  0.57135758  0.93633356  1
  F  F50  1  0.42864242  0.22991604  0.26966756  1
  F  F51  1  0.57135758  0.80127361  0.06366644  1
  F  F52  1  0.22991604  0.42864242  0.73033244  1
  F  F53  1  0.19872639  0.77008396  0.39699944  1
  F  F54  1  0.79999698  0.94246015  0.94892057  1
  F  F55  1  0.05753985  0.85753783  0.28225457  1
  F  F56  1  0.14246217  0.20000302  0.61558757  1
  F  F57  1  0.85753783  0.05753985  0.71774543  1
  F  F58  1  0.20000302  0.14246217  0.38441243  1
  F  F59  1  0.94246015  0.79999698  0.05107943  1
  F  F60  1  0.56560672  0.42574601  0.05122511  1
  F  F61  1  0.57425399  0.13986071  0.38455811  1
  F  F62  1  0.86013929  0.43439328  0.71789211  1
  F  F63  1  0.13986071  0.57425399  0.61544189  1
  F  F64  1  0.43439328  0.86013929  0.28210789  1
  F  F65  1  0.42574601  0.56560672  0.94877489  1
