# generated using pymatgen
data_Na4PtO4
_symmetry_space_group_name_H-M   'P 1'
_cell_length_a   16.16945575
_cell_length_b   8.67194458
_cell_length_c   5.83022884
_cell_angle_alpha   28.83671395
_cell_angle_beta   53.25074455
_cell_angle_gamma   39.54785389
_symmetry_Int_Tables_number   1
_chemical_formula_structural   Na4PtO4
_chemical_formula_sum   'Na8 Pt2 O8'
_cell_volume   243.00657390
_cell_formula_units_Z   2
loop_
 _symmetry_equiv_pos_site_id
 _symmetry_equiv_pos_as_xyz
  1  'x, y, z'
loop_
 _atom_site_type_symbol
 _atom_site_label
 _atom_site_symmetry_multiplicity
 _atom_site_fract_x
 _atom_site_fract_y
 _atom_site_fract_z
 _atom_site_occupancy
  Na  Na0  1  0.00589404  0.97022986  0.06485663  1
  Na  Na1  1  0.09394454  0.53180222  0.93411330  1
  Na  Na2  1  0.32333190  0.44944923  0.03921825  1
  Na  Na3  1  0.22730927  0.97295686  0.95103789  1
  Na  Na4  1  0.50264716  0.49372541  0.00681994  1
  Na  Na5  1  0.59719712  0.00789859  0.98974143  1
  Na  Na6  1  0.87275943  0.52777455  0.04813589  1
  Na  Na7  1  0.77671754  0.05158389  0.95887206  1
  Pt  Pt8  1  0.39508281  0.01548261  0.98196789  1
  Pt  Pt9  1  0.70494413  0.48544917  0.01624418  1
  O  O10  1  0.21375052  0.47148158  0.52405621  1
  O  O11  1  0.39187528  0.51393173  0.50211040  1
  O  O12  1  0.29473674  0.04653673  0.39167069  1
  O  O13  1  0.58565275  0.56214594  0.38497582  1
  O  O14  1  0.51428754  0.93901584  0.61259961  1
  O  O15  1  0.80528031  0.45434125  0.60706561  1
  O  O16  1  0.70822772  0.98730254  0.49552078  1
  O  O17  1  0.88590720  0.02986799  0.47506041  1
