# generated using pymatgen
data_ZnS
_symmetry_space_group_name_H-M   'P 1'
_cell_length_a   3.85289591
_cell_length_b   3.85289581
_cell_length_c   75.58036618
_cell_angle_alpha   90.00000000
_cell_angle_beta   90.00000000
_cell_angle_gamma   120.00000093
_symmetry_Int_Tables_number   1
_chemical_formula_structural   ZnS
_chemical_formula_sum   'Zn24 S24'
_cell_volume   971.65963339
_cell_formula_units_Z   24
loop_
 _symmetry_equiv_pos_site_id
 _symmetry_equiv_pos_as_xyz
  1  'x, y, z'
loop_
 _atom_site_type_symbol
 _atom_site_label
 _atom_site_symmetry_multiplicity
 _atom_site_fract_x
 _atom_site_fract_y
 _atom_site_fract_z
 _atom_site_occupancy
  Zn  Zn0  1  0.66666700  0.33333300  0.95833007  1
  Zn  Zn1  1  0.66666700  0.33333300  0.45832886  1
  Zn  Zn2  1  0.00000000  0.00000000  0.37499884  1
  Zn  Zn3  1  0.33333300  0.66666700  0.33332894  1
  Zn  Zn4  1  0.33333300  0.66666700  0.70833359  1
  Zn  Zn5  1  0.66666700  0.33333300  0.08333371  1
  Zn  Zn6  1  0.00000000  0.00000000  0.91667704  1
  Zn  Zn7  1  0.66666700  0.33333300  0.54168173  1
  Zn  Zn8  1  0.66666700  0.33333300  0.20832930  1
  Zn  Zn9  1  0.00000000  0.00000000  0.83333943  1
  Zn  Zn10  1  0.33333300  0.66666700  0.04167193  1
  Zn  Zn11  1  0.00000000  0.00000000  0.12500174  1
  Zn  Zn12  1  0.33333300  0.66666700  0.16667224  1
  Zn  Zn13  1  0.33333300  0.66666700  0.41668174  1
  Zn  Zn14  1  0.00000000  0.00000000  0.49999877  1
  Zn  Zn15  1  0.00000000  0.00000000  0.62500173  1
  Zn  Zn16  1  0.66666700  0.33333300  0.66667214  1
  Zn  Zn17  1  0.66666700  0.33333300  0.29168178  1
  Zn  Zn18  1  0.33333300  0.66666700  0.58333317  1
  Zn  Zn19  1  0.00000000  0.00000000  0.24999873  1
  Zn  Zn20  1  0.66666700  0.33333300  0.79166923  1
  Zn  Zn21  1  0.00000000  0.00000000  0.00001135  1
  Zn  Zn22  1  0.33333300  0.66666700  0.87499879  1
  Zn  Zn23  1  0.00000000  0.00000000  0.74999734  1
  S  S24  1  0.66666700  0.33333300  0.69791607  1
  S  S25  1  0.33333300  0.66666700  0.19791526  1
  S  S26  1  0.33333300  0.66666700  0.44791368  1
  S  S27  1  0.00000000  0.00000000  0.40627349  1
  S  S28  1  0.00000000  0.00000000  0.53127318  1
  S  S29  1  0.66666700  0.33333300  0.57291422  1
  S  S30  1  0.66666700  0.33333300  0.32291353  1
  S  S31  1  0.00000000  0.00000000  0.78122346  1
  S  S32  1  0.00000000  0.00000000  0.86455396  1
  S  S33  1  0.00000000  0.00000000  0.03124667  1
  S  S34  1  0.66666700  0.33333300  0.98960337  1
  S  S35  1  0.00000000  0.00000000  0.15624799  1
  S  S36  1  0.00000000  0.00000000  0.94788931  1
  S  S37  1  0.00000000  0.00000000  0.65624756  1
  S  S38  1  0.33333300  0.66666700  0.73957770  1
  S  S39  1  0.00000000  0.00000000  0.28127343  1
  S  S40  1  0.66666700  0.33333300  0.48955348  1
  S  S41  1  0.33333300  0.66666700  0.36455354  1
  S  S42  1  0.33333300  0.66666700  0.07291537  1
  S  S43  1  0.66666700  0.33333300  0.11457827  1
  S  S44  1  0.33333300  0.66666700  0.61457767  1
  S  S45  1  0.66666700  0.33333300  0.82294037  1
  S  S46  1  0.33333300  0.66666700  0.90627226  1
  S  S47  1  0.66666700  0.33333300  0.23955398  1
