# generated using pymatgen
data_CdGe(BiO3)2
_symmetry_space_group_name_H-M   'P 1'
_cell_length_a   5.70321310
_cell_length_b   10.36483983
_cell_length_c   10.59770786
_cell_angle_alpha   90.53399513
_cell_angle_beta   90.00000000
_cell_angle_gamma   90.00000000
_symmetry_Int_Tables_number   1
_chemical_formula_structural   CdGe(BiO3)2
_chemical_formula_sum   'Cd4 Ge4 Bi8 O24'
_cell_volume   626.43393502
_cell_formula_units_Z   4
loop_
 _symmetry_equiv_pos_site_id
 _symmetry_equiv_pos_as_xyz
  1  'x, y, z'
loop_
 _atom_site_type_symbol
 _atom_site_label
 _atom_site_symmetry_multiplicity
 _atom_site_fract_x
 _atom_site_fract_y
 _atom_site_fract_z
 _atom_site_occupancy
  Cd  Cd0  1  0.74960864  0.61381573  0.50181293  1
  Cd  Cd1  1  0.24960864  0.88618427  0.99818707  1
  Cd  Cd2  1  0.75039136  0.11381573  0.00181293  1
  Cd  Cd3  1  0.25039136  0.38618427  0.49818707  1
  Ge  Ge4  1  0.74528674  0.65261199  0.99818827  1
  Ge  Ge5  1  0.24528674  0.84738801  0.50181173  1
  Ge  Ge6  1  0.75471326  0.15261199  0.49818827  1
  Ge  Ge7  1  0.25471326  0.34738801  0.00181173  1
  Bi  Bi8  1  0.28540164  0.10518321  0.26231695  1
  Bi  Bi9  1  0.21459836  0.60518321  0.76231695  1
  Bi  Bi10  1  0.78540164  0.39481679  0.23768305  1
  Bi  Bi11  1  0.71364789  0.39027371  0.75470039  1
  Bi  Bi12  1  0.28635211  0.60972629  0.24529961  1
  Bi  Bi13  1  0.21364789  0.10972629  0.74529961  1
  Bi  Bi14  1  0.71459836  0.89481679  0.73768305  1
  Bi  Bi15  1  0.78635211  0.89027371  0.25470039  1
  O  O16  1  0.48834801  0.96990096  0.14514503  1
  O  O17  1  0.51165199  0.03009904  0.85485497  1
  O  O18  1  0.95703307  0.75320539  0.07459270  1
  O  O19  1  0.12620358  0.94266973  0.37690700  1
  O  O20  1  0.87379642  0.05733027  0.62309300  1
  O  O21  1  0.98850255  0.02796472  0.14686292  1
  O  O22  1  0.12579714  0.44720421  0.12120041  1
  O  O23  1  0.98834801  0.53009904  0.35485497  1
  O  O24  1  0.62579714  0.05279579  0.37879959  1
  O  O25  1  0.37379642  0.44266973  0.87690700  1
  O  O26  1  0.47594277  0.25678105  0.08030486  1
  O  O27  1  0.37420286  0.94720421  0.62120041  1
  O  O28  1  0.62620358  0.55733027  0.12309300  1
  O  O29  1  0.45703307  0.74679461  0.42540730  1
  O  O30  1  0.01149745  0.97203528  0.85313708  1
  O  O31  1  0.02405723  0.75678105  0.58030486  1
  O  O32  1  0.04296693  0.24679461  0.92540730  1
  O  O33  1  0.87420286  0.55279579  0.87879959  1
  O  O34  1  0.01165199  0.46990096  0.64514503  1
  O  O35  1  0.97594277  0.24321895  0.41969514  1
  O  O36  1  0.54296693  0.25320539  0.57459270  1
  O  O37  1  0.52405723  0.74321895  0.91969514  1
  O  O38  1  0.51149745  0.52796472  0.64686292  1
  O  O39  1  0.48850255  0.47203528  0.35313708  1
