# generated using pymatgen
data_ZnS
_symmetry_space_group_name_H-M   'P 1'
_cell_length_a   3.85305331
_cell_length_b   3.85305321
_cell_length_c   88.15472661
_cell_angle_alpha   90.00000000
_cell_angle_beta   90.00000000
_cell_angle_gamma   120.00000095
_symmetry_Int_Tables_number   1
_chemical_formula_structural   ZnS
_chemical_formula_sum   'Zn28 S28'
_cell_volume   1133.40795086
_cell_formula_units_Z   28
loop_
 _symmetry_equiv_pos_site_id
 _symmetry_equiv_pos_as_xyz
  1  'x, y, z'
loop_
 _atom_site_type_symbol
 _atom_site_label
 _atom_site_symmetry_multiplicity
 _atom_site_fract_x
 _atom_site_fract_y
 _atom_site_fract_z
 _atom_site_occupancy
  Zn  Zn0  1  0.66666700  0.33333300  0.07143002  1
  Zn  Zn1  1  0.00000000  0.00000000  0.92857805  1
  Zn  Zn2  1  0.00000000  0.00000000  0.32143022  1
  Zn  Zn3  1  0.00000000  0.00000000  0.67856964  1
  Zn  Zn4  1  0.33333300  0.66666700  0.14286025  1
  Zn  Zn5  1  0.33333300  0.66666700  0.35714400  1
  Zn  Zn6  1  0.66666700  0.33333300  0.39286017  1
  Zn  Zn7  1  0.33333300  0.66666700  0.46429021  1
  Zn  Zn8  1  0.33333300  0.66666700  0.57142640  1
  Zn  Zn9  1  0.00000000  0.00000000  0.21429017  1
  Zn  Zn10  1  0.66666700  0.33333300  0.96428729  1
  Zn  Zn11  1  0.33333300  0.66666700  0.64286832  1
  Zn  Zn12  1  0.33333300  0.66666700  0.78571785  1
  Zn  Zn13  1  0.66666700  0.33333300  0.28571593  1
  Zn  Zn14  1  0.66666700  0.33333300  0.60714109  1
  Zn  Zn15  1  0.00000000  0.00000000  0.53571574  1
  Zn  Zn16  1  0.66666700  0.33333300  0.71428768  1
  Zn  Zn17  1  0.66666700  0.33333300  0.82145674  1
  Zn  Zn18  1  0.00000000  0.00000000  0.10714336  1
  Zn  Zn19  1  0.33333300  0.66666700  0.03571552  1
  Zn  Zn20  1  0.33333300  0.66666700  0.89285788  1
  Zn  Zn21  1  0.66666700  0.33333300  0.17857387  1
  Zn  Zn22  1  0.00000000  0.00000000  0.75001145  1
  Zn  Zn23  1  0.66666700  0.33333300  0.50000373  1
  Zn  Zn24  1  0.00000000  0.00000000  0.85714220  1
  Zn  Zn25  1  0.00000000  0.00000000  0.42857372  1
  Zn  Zn26  1  0.33333300  0.66666700  0.25000385  1
  Zn  Zn27  1  0.00000000  0.00000000  0.00001139  1
  S  S28  1  0.66666700  0.33333300  0.20535540  1
  S  S29  1  0.00000000  0.00000000  0.34820999  1
  S  S30  1  0.33333300  0.66666700  0.81250813  1
  S  S31  1  0.00000000  0.00000000  0.77678342  1
  S  S32  1  0.00000000  0.00000000  0.45535534  1
  S  S33  1  0.00000000  0.00000000  0.02678276  1
  S  S34  1  0.66666700  0.33333300  0.63394685  1
  S  S35  1  0.66666700  0.33333300  0.84822685  1
  S  S36  1  0.66666700  0.33333300  0.41963997  1
  S  S37  1  0.66666700  0.33333300  0.52678579  1
  S  S38  1  0.66666700  0.33333300  0.09820839  1
  S  S39  1  0.00000000  0.00000000  0.13392546  1
  S  S40  1  0.66666700  0.33333300  0.31249636  1
  S  S41  1  0.33333300  0.66666700  0.16964001  1
  S  S42  1  0.33333300  0.66666700  0.59818953  1
  S  S43  1  0.00000000  0.00000000  0.88390629  1
  S  S44  1  0.00000000  0.00000000  0.24106988  1
  S  S45  1  0.00000000  0.00000000  0.70533493  1
  S  S46  1  0.66666700  0.33333300  0.99109041  1
  S  S47  1  0.33333300  0.66666700  0.91966067  1
  S  S48  1  0.33333300  0.66666700  0.66963851  1
  S  S49  1  0.66666700  0.33333300  0.74109094  1
  S  S50  1  0.00000000  0.00000000  0.95533439  1
  S  S51  1  0.33333300  0.66666700  0.27678558  1
  S  S52  1  0.33333300  0.66666700  0.06249599  1
  S  S53  1  0.33333300  0.66666700  0.38392568  1
  S  S54  1  0.33333300  0.66666700  0.49106991  1
  S  S55  1  0.00000000  0.00000000  0.56249584  1
