# generated using pymatgen
data_Li5ReO6
_symmetry_space_group_name_H-M   'P 1'
_cell_length_a   5.10430139
_cell_length_b   5.10430150
_cell_length_c   14.32822032
_cell_angle_alpha   90.00000000
_cell_angle_beta   90.00000000
_cell_angle_gamma   119.99999933
_symmetry_Int_Tables_number   1
_chemical_formula_structural   Li5ReO6
_chemical_formula_sum   'Li15 Re3 O18'
_cell_volume   323.29241469
_cell_formula_units_Z   3
loop_
 _symmetry_equiv_pos_site_id
 _symmetry_equiv_pos_as_xyz
  1  'x, y, z'
loop_
 _atom_site_type_symbol
 _atom_site_label
 _atom_site_symmetry_multiplicity
 _atom_site_fract_x
 _atom_site_fract_y
 _atom_site_fract_z
 _atom_site_occupancy
  Li  Li0  1  0.77757918  0.22242082  0.33333300  1
  Li  Li1  1  0.11921591  0.88078409  0.83333300  1
  Li  Li2  1  0.44416476  0.88832952  0.16666700  1
  Li  Li3  1  0.11167048  0.55583524  0.50000000  1
  Li  Li4  1  0.11921591  0.23843181  0.16666700  1
  Li  Li5  1  0.77757918  0.55515837  0.66666700  1
  Li  Li6  1  0.76989195  0.23010805  0.83333300  1
  Li  Li7  1  0.11153620  0.55576810  0.00000000  1
  Li  Li8  1  0.44416476  0.55583524  0.83333300  1
  Li  Li9  1  0.44423190  0.88846380  0.66666700  1
  Li  Li10  1  0.76989195  0.53978390  0.16666700  1
  Li  Li11  1  0.44484163  0.22242082  0.00000000  1
  Li  Li12  1  0.44423190  0.55576810  0.33333300  1
  Li  Li13  1  0.76156819  0.88078409  0.50000000  1
  Li  Li14  1  0.46021610  0.23010805  0.50000000  1
  Re  Re15  1  0.11056852  0.88943148  0.33333300  1
  Re  Re16  1  0.11056852  0.22113704  0.66666700  1
  Re  Re17  1  0.77886296  0.88943148  0.00000000  1
  O  O18  1  0.41625131  0.52771108  0.58922288  1
  O  O19  1  0.41670888  0.19286468  0.25568031  1
  O  O20  1  0.77615580  0.19286468  0.07765369  1
  O  O21  1  0.80713532  0.58329112  0.41098669  1
  O  O22  1  0.47228892  0.88854023  0.92255588  1
  O  O23  1  0.77615580  0.58329112  0.92234631  1
  O  O24  1  0.41670888  0.22384420  0.74431969  1
  O  O25  1  0.80625973  0.91879818  0.74275742  1
  O  O26  1  0.11145977  0.58374869  0.25588988  1
  O  O27  1  0.08120182  0.19374027  0.92390858  1
  O  O28  1  0.11145977  0.52771108  0.74411012  1
  O  O29  1  0.08120182  0.88746155  0.07609142  1
  O  O30  1  0.80713532  0.22384420  0.58901331  1
  O  O31  1  0.11253845  0.19374027  0.40942442  1
  O  O32  1  0.47228892  0.58374869  0.07744412  1
  O  O33  1  0.41625131  0.88854023  0.41077712  1
  O  O34  1  0.80625973  0.88746155  0.25724258  1
  O  O35  1  0.11253845  0.91879818  0.59057558  1
