# generated using pymatgen
data_Na3LuSi2O7
_symmetry_space_group_name_H-M   'P 1'
_cell_length_a   9.42917863
_cell_length_b   9.42917827
_cell_length_c   13.77283332
_cell_angle_alpha   90.00000000
_cell_angle_beta   90.00000000
_cell_angle_gamma   120.00000130
_symmetry_Int_Tables_number   1
_chemical_formula_structural   Na3LuSi2O7
_chemical_formula_sum   'Na18 Lu6 Si12 O42'
_cell_volume   1060.47791246
_cell_formula_units_Z   6
loop_
 _symmetry_equiv_pos_site_id
 _symmetry_equiv_pos_as_xyz
  1  'x, y, z'
loop_
 _atom_site_type_symbol
 _atom_site_label
 _atom_site_symmetry_multiplicity
 _atom_site_fract_x
 _atom_site_fract_y
 _atom_site_fract_z
 _atom_site_occupancy
  Na  Na0  1  0.33184321  0.31651846  0.90980648  1
  Na  Na1  1  0.31651846  0.98467525  0.40980648  1
  Na  Na2  1  0.33184321  0.31651846  0.59019352  1
  Na  Na3  1  0.66815679  0.68348154  0.09019352  1
  Na  Na4  1  0.01532475  0.33184321  0.40980648  1
  Na  Na5  1  0.68348154  0.01532475  0.90980648  1
  Na  Na6  1  0.98467525  0.66815679  0.90980648  1
  Na  Na7  1  0.66666700  0.33333300  0.75000000  1
  Na  Na8  1  0.98467525  0.66815679  0.59019352  1
  Na  Na9  1  0.01532475  0.33184321  0.09019352  1
  Na  Na10  1  0.68348154  0.01532475  0.59019352  1
  Na  Na11  1  0.66815679  0.68348154  0.40980648  1
  Na  Na12  1  0.31651846  0.98467525  0.09019352  1
  Na  Na13  1  0.33333300  0.66666700  0.25000000  1
  Na  Na14  1  0.00000000  0.00000000  0.00000000  1
  Na  Na15  1  0.66666700  0.33333300  0.25000000  1
  Na  Na16  1  0.00000000  0.00000000  0.50000000  1
  Na  Na17  1  0.33333300  0.66666700  0.75000000  1
  Lu  Lu18  1  0.66666700  0.33333300  0.98160995  1
  Lu  Lu19  1  0.00000000  0.00000000  0.25000000  1
  Lu  Lu20  1  0.66666700  0.33333300  0.51839005  1
  Lu  Lu21  1  0.33333300  0.66666700  0.01839005  1
  Lu  Lu22  1  0.33333300  0.66666700  0.48160995  1
  Lu  Lu23  1  0.00000000  0.00000000  0.75000000  1
  Si  Si24  1  0.65303556  0.67141034  0.64015178  1
  Si  Si25  1  0.34696444  0.32858966  0.14015178  1
  Si  Si26  1  0.67141034  0.01837478  0.35984822  1
  Si  Si27  1  0.32858966  0.98162522  0.85984822  1
  Si  Si28  1  0.01837478  0.34696444  0.64015178  1
  Si  Si29  1  0.01837478  0.34696444  0.85984822  1
  Si  Si30  1  0.98162522  0.65303556  0.35984822  1
  Si  Si31  1  0.32858966  0.98162522  0.64015178  1
  Si  Si32  1  0.34696444  0.32858966  0.35984822  1
  Si  Si33  1  0.67141034  0.01837478  0.14015178  1
  Si  Si34  1  0.65303556  0.67141034  0.85984822  1
  Si  Si35  1  0.98162522  0.65303556  0.14015178  1
  O  O36  1  0.17230000  0.44394926  0.56467761  1
  O  O37  1  0.84949526  0.80436164  0.85843149  1
  O  O38  1  0.72835074  0.17230000  0.06467761  1
  O  O39  1  0.44394926  0.27164926  0.06467761  1
  O  O40  1  0.17230000  0.44394926  0.93532239  1
  O  O41  1  0.61411519  0.48525831  0.61840688  1
  O  O42  1  0.27164926  0.82770000  0.93532239  1
  O  O43  1  0.80436164  0.95486639  0.35843149  1
  O  O44  1  0.67521813  0.09891573  0.25000000  1
  O  O45  1  0.48525831  0.87114312  0.11840688  1
  O  O46  1  0.82770000  0.55605074  0.43532239  1
  O  O47  1  0.87114312  0.38588481  0.61840688  1
  O  O48  1  0.55605074  0.72835074  0.93532239  1
  O  O49  1  0.51474169  0.12885688  0.88159312  1
  O  O50  1  0.04513361  0.84949526  0.14156851  1
  O  O51  1  0.57630240  0.67521813  0.75000000  1
  O  O52  1  0.12885688  0.61411519  0.38159312  1
  O  O53  1  0.44394926  0.27164926  0.43532239  1
  O  O54  1  0.48525831  0.87114312  0.38159312  1
  O  O55  1  0.87114312  0.38588481  0.88159312  1
  O  O56  1  0.80436164  0.95486639  0.14156851  1
  O  O57  1  0.72835074  0.17230000  0.43532239  1
  O  O58  1  0.09891573  0.42369760  0.75000000  1
  O  O59  1  0.19563836  0.04513361  0.85843149  1
  O  O60  1  0.90108427  0.57630240  0.25000000  1
  O  O61  1  0.82770000  0.55605074  0.06467761  1
  O  O62  1  0.04513361  0.84949526  0.35843149  1
  O  O63  1  0.51474169  0.12885688  0.61840688  1
  O  O64  1  0.95486639  0.15050474  0.64156851  1
  O  O65  1  0.55605074  0.72835074  0.56467761  1
  O  O66  1  0.42369760  0.32478187  0.25000000  1
  O  O67  1  0.19563836  0.04513361  0.64156851  1
  O  O68  1  0.15050474  0.19563836  0.35843149  1
  O  O69  1  0.38588481  0.51474169  0.38159312  1
  O  O70  1  0.84949526  0.80436164  0.64156851  1
  O  O71  1  0.61411519  0.48525831  0.88159312  1
  O  O72  1  0.38588481  0.51474169  0.11840688  1
  O  O73  1  0.15050474  0.19563836  0.14156851  1
  O  O74  1  0.95486639  0.15050474  0.85843149  1
  O  O75  1  0.32478187  0.90108427  0.75000000  1
  O  O76  1  0.27164926  0.82770000  0.56467761  1
  O  O77  1  0.12885688  0.61411519  0.11840688  1
