# generated using pymatgen
data_Mg2B2O5
_symmetry_space_group_name_H-M   'P 1'
_cell_length_a   3.16027109
_cell_length_b   6.21755828
_cell_length_c   9.31315873
_cell_angle_alpha   104.57985894
_cell_angle_beta   90.59517699
_cell_angle_gamma   91.88677217
_symmetry_Int_Tables_number   1
_chemical_formula_structural   Mg2B2O5
_chemical_formula_sum   'Mg4 B4 O10'
_cell_volume   176.97394023
_cell_formula_units_Z   2
loop_
 _symmetry_equiv_pos_site_id
 _symmetry_equiv_pos_as_xyz
  1  'x, y, z'
loop_
 _atom_site_type_symbol
 _atom_site_label
 _atom_site_symmetry_multiplicity
 _atom_site_fract_x
 _atom_site_fract_y
 _atom_site_fract_z
 _atom_site_occupancy
  B  B0  1  0.80054305  0.31854105  0.14368889  1
  B  B1  1  0.19945695  0.68145895  0.85631111  1
  B  B2  1  0.83720375  0.87942305  0.66920385  1
  B  B3  1  0.16279625  0.12057695  0.33079615  1
  O  O4  1  0.27378087  0.90688663  0.31886324  1
  O  O5  1  0.72621913  0.09311337  0.68113676  1
  O  O6  1  0.23551526  0.30395261  0.44662592  1
  O  O7  1  0.76448474  0.69604739  0.55337408  1
  O  O8  1  0.93366622  0.13864367  0.20069937  1
  O  O9  1  0.06633378  0.86135633  0.79930063  1
  O  O10  1  0.26795970  0.72517817  0.00430144  1
  O  O11  1  0.73204030  0.27482183  0.99569856  1
  O  O12  1  0.75926272  0.52328022  0.24152224  1
  O  O13  1  0.24073728  0.47671978  0.75847776  1
  Mg  Mg14  1  0.23252807  0.21038623  0.85592081  1
  Mg  Mg15  1  0.76747193  0.78961377  0.14407919  1
  Mg  Mg16  1  0.73397851  0.37198429  0.60261748  1
  Mg  Mg17  1  0.26602149  0.62801571  0.39738252  1
