# generated using pymatgen
data_ZnS
_symmetry_space_group_name_H-M   'P 1'
_cell_length_a   3.85097537
_cell_length_b   3.85097532
_cell_length_c   81.82868080
_cell_angle_alpha   90.00000000
_cell_angle_beta   90.00000000
_cell_angle_gamma   120.00000031
_symmetry_Int_Tables_number   1
_chemical_formula_structural   ZnS
_chemical_formula_sum   'Zn26 S26'
_cell_volume   1050.93935831
_cell_formula_units_Z   26
loop_
 _symmetry_equiv_pos_site_id
 _symmetry_equiv_pos_as_xyz
  1  'x, y, z'
loop_
 _atom_site_type_symbol
 _atom_site_label
 _atom_site_symmetry_multiplicity
 _atom_site_fract_x
 _atom_site_fract_y
 _atom_site_fract_z
 _atom_site_occupancy
  Zn  Zn0  1  0.33333300  0.66666700  0.80769710  1
  Zn  Zn1  1  0.00000000  0.00000000  0.57692920  1
  Zn  Zn2  1  0.66666700  0.33333300  0.92309704  1
  Zn  Zn3  1  0.00000000  0.00000000  0.23077694  1
  Zn  Zn4  1  0.33333300  0.66666700  0.38462280  1
  Zn  Zn5  1  0.33333300  0.66666700  0.96153364  1
  Zn  Zn6  1  0.66666700  0.33333300  0.65385116  1
  Zn  Zn7  1  0.66666700  0.33333300  0.42308432  1
  Zn  Zn8  1  0.00000000  0.00000000  0.73077677  1
  Zn  Zn9  1  0.66666700  0.33333300  0.07692854  1
  Zn  Zn10  1  0.66666700  0.33333300  0.84616653  1
  Zn  Zn11  1  0.00000000  0.00000000  0.11538999  1
  Zn  Zn12  1  0.33333300  0.66666700  0.26923984  1
  Zn  Zn13  1  0.00000000  0.00000000  0.00000482  1
  Zn  Zn14  1  0.33333300  0.66666700  0.61538178  1
  Zn  Zn15  1  0.33333300  0.66666700  0.15385279  1
  Zn  Zn16  1  0.66666700  0.33333300  0.53847011  1
  Zn  Zn17  1  0.00000000  0.00000000  0.46154239  1
  Zn  Zn18  1  0.33333300  0.66666700  0.03848261  1
  Zn  Zn19  1  0.00000000  0.00000000  0.88462033  1
  Zn  Zn20  1  0.66666700  0.33333300  0.30769998  1
  Zn  Zn21  1  0.33333300  0.66666700  0.69232847  1
  Zn  Zn22  1  0.66666700  0.33333300  0.19231500  1
  Zn  Zn23  1  0.00000000  0.00000000  0.34616220  1
  Zn  Zn24  1  0.33333300  0.66666700  0.50000717  1
  Zn  Zn25  1  0.66666700  0.33333300  0.76923164  1
  S  S26  1  0.00000000  0.00000000  0.49037520  1
  S  S27  1  0.00000000  0.00000000  0.02886832  1
  S  S28  1  0.33333300  0.66666700  0.06729849  1
  S  S29  1  0.66666700  0.33333300  0.56729908  1
  S  S30  1  0.00000000  0.00000000  0.91348092  1
  S  S31  1  0.33333300  0.66666700  0.64419340  1
  S  S32  1  0.33333300  0.66666700  0.52884303  1
  S  S33  1  0.66666700  0.33333300  0.22114683  1
  S  S34  1  0.33333300  0.66666700  0.83655716  1
  S  S35  1  0.00000000  0.00000000  0.60576138  1
  S  S36  1  0.66666700  0.33333300  0.95191305  1
  S  S37  1  0.66666700  0.33333300  0.79804263  1
  S  S38  1  0.66666700  0.33333300  0.10576121  1
  S  S39  1  0.66666700  0.33333300  0.87496998  1
  S  S40  1  0.66666700  0.33333300  0.45191525  1
  S  S41  1  0.33333300  0.66666700  0.29806798  1
  S  S42  1  0.33333300  0.66666700  0.99034664  1
  S  S43  1  0.33333300  0.66666700  0.18268691  1
  S  S44  1  0.00000000  0.00000000  0.75960786  1
  S  S45  1  0.33333300  0.66666700  0.72114632  1
  S  S46  1  0.33333300  0.66666700  0.41345541  1
  S  S47  1  0.00000000  0.00000000  0.25960966  1
  S  S48  1  0.00000000  0.00000000  0.14422129  1
  S  S49  1  0.66666700  0.33333300  0.33653165  1
  S  S50  1  0.00000000  0.00000000  0.37499544  1
  S  S51  1  0.66666700  0.33333300  0.68271177  1
