# generated using pymatgen
data_DyCuS2
_symmetry_space_group_name_H-M   'P 1'
_cell_length_a   3.95830515
_cell_length_b   6.25358279
_cell_length_c   13.47791554
_cell_angle_alpha   90.00000000
_cell_angle_beta   90.00000000
_cell_angle_gamma   90.00000000
_symmetry_Int_Tables_number   1
_chemical_formula_structural   DyCuS2
_chemical_formula_sum   'Dy4 Cu4 S8'
_cell_volume   333.62678136
_cell_formula_units_Z   4
loop_
 _symmetry_equiv_pos_site_id
 _symmetry_equiv_pos_as_xyz
  1  'x, y, z'
loop_
 _atom_site_type_symbol
 _atom_site_label
 _atom_site_symmetry_multiplicity
 _atom_site_fract_x
 _atom_site_fract_y
 _atom_site_fract_z
 _atom_site_occupancy
  Dy  Dy0  1  0.25000000  0.00233841  0.63312837  1
  Dy  Dy1  1  0.75000000  0.50233841  0.86687163  1
  Dy  Dy2  1  0.75000000  0.99766159  0.36687163  1
  Dy  Dy3  1  0.25000000  0.49766159  0.13312837  1
  Cu  Cu4  1  0.25000000  0.37529678  0.45285717  1
  Cu  Cu5  1  0.75000000  0.62470322  0.54714283  1
  Cu  Cu6  1  0.25000000  0.12470322  0.95285717  1
  Cu  Cu7  1  0.75000000  0.87529678  0.04714283  1
  S  S8  1  0.75000000  0.24748642  0.53831953  1
  S  S9  1  0.75000000  0.76315377  0.70504778  1
  S  S10  1  0.25000000  0.75251358  0.46168047  1
  S  S11  1  0.75000000  0.25251358  0.03831953  1
  S  S12  1  0.25000000  0.23684623  0.29495222  1
  S  S13  1  0.25000000  0.74748642  0.96168047  1
  S  S14  1  0.25000000  0.26315377  0.79495222  1
  S  S15  1  0.75000000  0.73684623  0.20504778  1
