# generated using pymatgen
data_LaSc3(BO3)4
_symmetry_space_group_name_H-M   'P 1'
_cell_length_a   6.32020610
_cell_length_b   6.32020635
_cell_length_c   12.18716607
_cell_angle_alpha   99.52855614
_cell_angle_beta   99.52855652
_cell_angle_gamma   103.68584393
_symmetry_Int_Tables_number   1
_chemical_formula_structural   LaSc3(BO3)4
_chemical_formula_sum   'La2 Sc6 B8 O24'
_cell_volume   455.69965959
_cell_formula_units_Z   2
loop_
 _symmetry_equiv_pos_site_id
 _symmetry_equiv_pos_as_xyz
  1  'x, y, z'
loop_
 _atom_site_type_symbol
 _atom_site_label
 _atom_site_symmetry_multiplicity
 _atom_site_fract_x
 _atom_site_fract_y
 _atom_site_fract_z
 _atom_site_occupancy
  La  La0  1  0.25119445  0.17988397  0.25584774  1
  La  La1  1  0.17988397  0.25119445  0.75584774  1
  Sc  Sc2  1  0.63557801  0.78603401  0.75583323  1
  Sc  Sc3  1  0.40974645  0.90613310  0.97974972  1
  Sc  Sc4  1  0.00569478  0.50319082  0.03032178  1
  Sc  Sc5  1  0.78603401  0.63557801  0.25583323  1
  Sc  Sc6  1  0.90613310  0.40974645  0.47974972  1
  Sc  Sc7  1  0.50319082  0.00569478  0.53032178  1
  B  B8  1  0.10318956  0.71635088  0.73158091  1
  B  B9  1  0.98404514  0.93761085  0.50485700  1
  B  B10  1  0.71635088  0.10318956  0.23158091  1
  B  B11  1  0.47989286  0.42678379  0.00551968  1
  B  B12  1  0.93761085  0.98404514  0.00485700  1
  B  B13  1  0.70295721  0.31051000  0.77981360  1
  B  B14  1  0.42678379  0.47989286  0.50551968  1
  B  B15  1  0.31051000  0.70295721  0.27981360  1
  O  O16  1  0.40058752  0.21322318  0.93830354  1
  O  O17  1  0.45349770  0.57056805  0.26677182  1
  O  O18  1  0.50229819  0.69241089  0.57408598  1
  O  O19  1  0.84280853  0.07593722  0.51016182  1
  O  O20  1  0.56489470  0.33861548  0.49878901  1
  O  O21  1  0.31574023  0.76682340  0.79939544  1
  O  O22  1  0.21322318  0.40058752  0.43830354  1
  O  O23  1  0.76682340  0.31574023  0.29939544  1
  O  O24  1  0.86032773  0.97199434  0.24825537  1
  O  O25  1  0.03161696  0.51723820  0.65250941  1
  O  O26  1  0.69241089  0.50229819  0.07408598  1
  O  O27  1  0.91179102  0.72408622  0.43707535  1
  O  O28  1  0.19743513  0.02017794  0.57200174  1
  O  O29  1  0.36906585  0.90311228  0.35737375  1
  O  O30  1  0.02017794  0.19743513  0.07200174  1
  O  O31  1  0.33861548  0.56489470  0.99878901  1
  O  O32  1  0.57056805  0.45349770  0.76677182  1
  O  O33  1  0.63299314  0.09836021  0.71085307  1
  O  O34  1  0.07593722  0.84280853  0.01016182  1
  O  O35  1  0.09836021  0.63299314  0.21085307  1
  O  O36  1  0.72408622  0.91179102  0.93707535  1
  O  O37  1  0.51723820  0.03161696  0.15250941  1
  O  O38  1  0.90311228  0.36906585  0.85737375  1
  O  O39  1  0.97199434  0.86032773  0.74825537  1
