# generated using pymatgen
data_SrSeO3
_symmetry_space_group_name_H-M   'P 1'
_cell_length_a   4.49779827
_cell_length_b   5.58090080
_cell_length_c   12.76339792
_cell_angle_alpha   90.00000000
_cell_angle_beta   90.00000000
_cell_angle_gamma   90.00000000
_symmetry_Int_Tables_number   1
_chemical_formula_structural   SrSeO3
_chemical_formula_sum   'Sr4 Se4 O12'
_cell_volume   320.38382748
_cell_formula_units_Z   4
loop_
 _symmetry_equiv_pos_site_id
 _symmetry_equiv_pos_as_xyz
  1  'x, y, z'
loop_
 _atom_site_type_symbol
 _atom_site_label
 _atom_site_symmetry_multiplicity
 _atom_site_fract_x
 _atom_site_fract_y
 _atom_site_fract_z
 _atom_site_occupancy
  Sr  Sr0  1  0.52277583  0.25000000  0.34866836  1
  Sr  Sr1  1  0.97722417  0.25000000  0.84866836  1
  Sr  Sr2  1  0.47722417  0.75000000  0.65133164  1
  Sr  Sr3  1  0.02277583  0.75000000  0.15133164  1
  Se  Se4  1  0.49692499  0.25000000  0.07886414  1
  Se  Se5  1  0.99692499  0.75000000  0.42113586  1
  Se  Se6  1  0.00307501  0.25000000  0.57886414  1
  Se  Se7  1  0.50307501  0.75000000  0.92113586  1
  O  O8  1  0.97153214  0.01063439  0.66469670  1
  O  O9  1  0.97153214  0.48936561  0.66469670  1
  O  O10  1  0.12108060  0.25000000  0.05222488  1
  O  O11  1  0.37891940  0.25000000  0.55222488  1
  O  O12  1  0.02846786  0.98936561  0.33530330  1
  O  O13  1  0.52846786  0.48936561  0.16469670  1
  O  O14  1  0.62108060  0.75000000  0.44777512  1
  O  O15  1  0.52846786  0.01063439  0.16469670  1
  O  O16  1  0.87891940  0.75000000  0.94777512  1
  O  O17  1  0.02846786  0.51063439  0.33530330  1
  O  O18  1  0.47153214  0.98936561  0.83530330  1
  O  O19  1  0.47153214  0.51063439  0.83530330  1
