# generated using pymatgen
data_ZnS
_symmetry_space_group_name_H-M   'P 1'
_cell_length_a   3.85245184
_cell_length_b   3.85245181
_cell_length_c   88.18292676
_cell_angle_alpha   90.00000000
_cell_angle_beta   90.00000000
_cell_angle_gamma   120.00000030
_symmetry_Int_Tables_number   1
_chemical_formula_structural   ZnS
_chemical_formula_sum   'Zn28 S28'
_cell_volume   1133.41660716
_cell_formula_units_Z   28
loop_
 _symmetry_equiv_pos_site_id
 _symmetry_equiv_pos_as_xyz
  1  'x, y, z'
loop_
 _atom_site_type_symbol
 _atom_site_label
 _atom_site_symmetry_multiplicity
 _atom_site_fract_x
 _atom_site_fract_y
 _atom_site_fract_z
 _atom_site_occupancy
  Zn  Zn0  1  0.66666700  0.33333300  0.07143666  1
  Zn  Zn1  1  0.00000000  0.00000000  0.32143458  1
  Zn  Zn2  1  0.00000000  0.00000000  0.67857810  1
  Zn  Zn3  1  0.33333300  0.66666700  0.14286719  1
  Zn  Zn4  1  0.00000000  0.00000000  0.89286713  1
  Zn  Zn5  1  0.66666700  0.33333300  0.46429345  1
  Zn  Zn6  1  0.66666700  0.33333300  0.53573058  1
  Zn  Zn7  1  0.00000000  0.00000000  0.21429694  1
  Zn  Zn8  1  0.66666700  0.33333300  0.64286337  1
  Zn  Zn9  1  0.66666700  0.33333300  0.35715889  1
  Zn  Zn10  1  0.33333300  0.66666700  0.60715098  1
  Zn  Zn11  1  0.33333300  0.66666700  0.96429326  1
  Zn  Zn12  1  0.66666700  0.33333300  0.28571893  1
  Zn  Zn13  1  0.00000000  0.00000000  0.78572513  1
  Zn  Zn14  1  0.66666700  0.33333300  0.71430505  1
  Zn  Zn15  1  0.66666700  0.33333300  0.82146388  1
  Zn  Zn16  1  0.00000000  0.00000000  0.10715074  1
  Zn  Zn17  1  0.66666700  0.33333300  0.92858096  1
  Zn  Zn18  1  0.33333300  0.66666700  0.03573074  1
  Zn  Zn19  1  0.33333300  0.66666700  0.25001062  1
  Zn  Zn20  1  0.33333300  0.66666700  0.50000776  1
  Zn  Zn21  1  0.66666700  0.33333300  0.17858065  1
  Zn  Zn22  1  0.00000000  0.00000000  0.00000769  1
  Zn  Zn23  1  0.33333300  0.66666700  0.39286660  1
  Zn  Zn24  1  0.00000000  0.00000000  0.57143681  1
  Zn  Zn25  1  0.00000000  0.00000000  0.42858084  1
  Zn  Zn26  1  0.33333300  0.66666700  0.85715315  1
  Zn  Zn27  1  0.33333300  0.66666700  0.75001003  1
  S  S28  1  0.66666700  0.33333300  0.20534825  1
  S  S29  1  0.00000000  0.00000000  0.34822342  1
  S  S30  1  0.33333300  0.66666700  0.41963259  1
  S  S31  1  0.66666700  0.33333300  0.66961395  1
  S  S32  1  0.33333300  0.66666700  0.77677700  1
  S  S33  1  0.33333300  0.66666700  0.99104369  1
  S  S34  1  0.33333300  0.66666700  0.27677640  1
  S  S35  1  0.00000000  0.00000000  0.45534810  1
  S  S36  1  0.00000000  0.00000000  0.02679850  1
  S  S37  1  0.33333300  0.66666700  0.63391814  1
  S  S38  1  0.00000000  0.00000000  0.59820280  1
  S  S39  1  0.33333300  0.66666700  0.06248820  1
  S  S40  1  0.66666700  0.33333300  0.09820229  1
  S  S41  1  0.00000000  0.00000000  0.13391858  1
  S  S42  1  0.66666700  0.33333300  0.84821996  1
  S  S43  1  0.66666700  0.33333300  0.31247030  1
  S  S44  1  0.66666700  0.33333300  0.56248812  1
  S  S45  1  0.66666700  0.33333300  0.95534805  1
  S  S46  1  0.00000000  0.00000000  0.91963309  1
  S  S47  1  0.33333300  0.66666700  0.88391885  1
  S  S48  1  0.00000000  0.00000000  0.24106286  1
  S  S49  1  0.00000000  0.00000000  0.70537028  1
  S  S50  1  0.66666700  0.33333300  0.49104383  1
  S  S51  1  0.66666700  0.33333300  0.74106161  1
  S  S52  1  0.66666700  0.33333300  0.38391739  1
  S  S53  1  0.33333300  0.66666700  0.16963286  1
  S  S54  1  0.00000000  0.00000000  0.81250157  1
  S  S55  1  0.33333300  0.66666700  0.52679858  1
