# generated using pymatgen
data_Sn2IF3
_symmetry_space_group_name_H-M   'P 1'
_cell_length_a   4.36086914
_cell_length_b   7.29391267
_cell_length_c   9.47369435
_cell_angle_alpha   90.00000000
_cell_angle_beta   90.00000000
_cell_angle_gamma   107.39388494
_symmetry_Int_Tables_number   1
_chemical_formula_structural   Sn2IF3
_chemical_formula_sum   'Sn4 I2 F6'
_cell_volume   287.55787989
_cell_formula_units_Z   2
loop_
 _symmetry_equiv_pos_site_id
 _symmetry_equiv_pos_as_xyz
  1  'x, y, z'
loop_
 _atom_site_type_symbol
 _atom_site_label
 _atom_site_symmetry_multiplicity
 _atom_site_fract_x
 _atom_site_fract_y
 _atom_site_fract_z
 _atom_site_occupancy
  Sn  Sn0  1  0.36103071  0.72206141  0.95374213  1
  Sn  Sn1  1  0.63896929  0.27793859  0.45374213  1
  Sn  Sn2  1  0.36103071  0.72206141  0.54625787  1
  Sn  Sn3  1  0.63896929  0.27793859  0.04625787  1
  I  I4  1  0.99048880  0.98097759  0.25000000  1
  I  I5  1  0.00951120  0.01902241  0.75000000  1
  F  F6  1  0.20859580  0.41719160  0.45870550  1
  F  F7  1  0.20859580  0.41719160  0.04129450  1
  F  F8  1  0.70993911  0.41987822  0.25000000  1
  F  F9  1  0.29006089  0.58012178  0.75000000  1
  F  F10  1  0.79140420  0.58280840  0.54129450  1
  F  F11  1  0.79140420  0.58280840  0.95870550  1
