# generated using pymatgen
data_KBi2F7
_symmetry_space_group_name_H-M   'P 1'
_cell_length_a   4.79599783
_cell_length_b   4.32134503
_cell_length_c   26.95190632
_cell_angle_alpha   54.21704185
_cell_angle_beta   57.78203153
_cell_angle_gamma   56.34819953
_symmetry_Int_Tables_number   1
_chemical_formula_structural   KBi2F7
_chemical_formula_sum   'K2 Bi4 F14'
_cell_volume   358.66266022
_cell_formula_units_Z   2
loop_
 _symmetry_equiv_pos_site_id
 _symmetry_equiv_pos_as_xyz
  1  'x, y, z'
loop_
 _atom_site_type_symbol
 _atom_site_label
 _atom_site_symmetry_multiplicity
 _atom_site_fract_x
 _atom_site_fract_y
 _atom_site_fract_z
 _atom_site_occupancy
  K  K0  1  0.02740555  -0.04089244  0.16111939  1
  K  K1  1  0.95723459  0.06873998  0.33160653  1
  Bi  Bi2  1  0.91372616  0.01976273  0.99884703  1
  Bi  Bi3  1  0.88988416  0.95467952  0.50315803  1
  Bi  Bi4  1  0.89680805  0.96720892  0.67101246  1
  Bi  Bi5  1  0.91985097  0.98901927  0.83176181  1
  F  F6  1  0.33731892  0.23897087  0.03635344  1
  F  F7  1  0.79318613  0.78046473  0.10530072  1
  F  F8  1  0.30728629  0.28590173  0.52455857  1
  F  F9  1  0.70012482  0.89358330  0.27293586  1
  F  F10  1  0.10690846  0.22856785  0.40056658  1
  F  F11  1  0.34435761  0.23470856  0.72220123  1
  F  F12  1  0.75406460  0.70505515  0.47203921  1
  F  F13  1  0.61746131  0.44942732  0.59862589  1
  F  F14  1  0.35607457  0.29004801  0.87937898  1
  F  F15  1  0.89593543  0.64903268  0.63057133  1
  F  F16  1  0.66333761  0.46870976  0.75483870  1
  F  F17  1  0.91684566  0.70071753  0.78791867  1
  F  F18  1  0.68957818  0.48628345  0.91239834  1
  F  F19  1  0.78261092  0.66001108  0.98314122  1
