# generated using pymatgen
data_NaLiTi3O7
_symmetry_space_group_name_H-M   'P 1'
_cell_length_a   10.06311721
_cell_length_b   10.06311691
_cell_length_c   11.54493017
_cell_angle_alpha   90.00000000
_cell_angle_beta   90.00000000
_cell_angle_gamma   111.43827863
_symmetry_Int_Tables_number   1
_chemical_formula_structural   NaLiTi3O7
_chemical_formula_sum   'Na8 Li8 Ti24 O56'
_cell_volume   1088.22389491
_cell_formula_units_Z   8
loop_
 _symmetry_equiv_pos_site_id
 _symmetry_equiv_pos_as_xyz
  1  'x, y, z'
loop_
 _atom_site_type_symbol
 _atom_site_label
 _atom_site_symmetry_multiplicity
 _atom_site_fract_x
 _atom_site_fract_y
 _atom_site_fract_z
 _atom_site_occupancy
  Na  Na0  1  0.38040254  0.38040254  0.12478591  1
  Na  Na1  1  0.88107055  0.88107055  0.87057617  1
  Na  Na2  1  0.61892945  0.61892945  0.37057617  1
  Na  Na3  1  0.11959746  0.11959746  0.62478591  1
  Na  Na4  1  0.61959746  0.61959746  0.87521409  1
  Na  Na5  1  0.88040254  0.88040254  0.37521409  1
  Na  Na6  1  0.11892945  0.11892945  0.12942383  1
  Na  Na7  1  0.38107055  0.38107055  0.62942383  1
  Li  Li8  1  0.93346295  0.56632763  0.87484150  1
  Li  Li9  1  0.06632763  0.43346295  0.62515850  1
  Li  Li10  1  0.93367237  0.56653705  0.37484150  1
  Li  Li11  1  0.56653705  0.93367237  0.37484150  1
  Li  Li12  1  0.06653705  0.43367237  0.12515850  1
  Li  Li13  1  0.43367237  0.06653705  0.12515850  1
  Li  Li14  1  0.43346295  0.06632763  0.62515850  1
  Li  Li15  1  0.56632763  0.93346295  0.87484150  1
  Ti  Ti16  1  0.74934792  0.25065208  0.00000000  1
  Ti  Ti17  1  0.98611682  0.76808761  0.62581022  1
  Ti  Ti18  1  0.51388318  0.73191239  0.12581022  1
  Ti  Ti19  1  0.26810269  0.48584108  0.37623299  1
  Ti  Ti20  1  0.48584108  0.26810269  0.37623299  1
  Ti  Ti21  1  0.75065208  0.24934792  0.50000000  1
  Ti  Ti22  1  0.98584108  0.76810269  0.12376701  1
  Ti  Ti23  1  0.24934792  0.75065208  0.50000000  1
  Ti  Ti24  1  0.51415892  0.73189731  0.62376701  1
  Ti  Ti25  1  0.73191239  0.51388318  0.12581022  1
  Ti  Ti26  1  0.75010056  0.25010056  0.75000000  1
  Ti  Ti27  1  0.25010056  0.75010056  0.75000000  1
  Ti  Ti28  1  0.26808761  0.48611682  0.87418978  1
  Ti  Ti29  1  0.24989944  0.74989944  0.25000000  1
  Ti  Ti30  1  0.23191239  0.01388318  0.37418978  1
  Ti  Ti31  1  0.74989944  0.24989944  0.25000000  1
  Ti  Ti32  1  0.48611682  0.26808761  0.87418978  1
  Ti  Ti33  1  0.25065208  0.74934792  0.00000000  1
  Ti  Ti34  1  0.76810269  0.98584108  0.12376701  1
  Ti  Ti35  1  0.01415892  0.23189731  0.87623299  1
  Ti  Ti36  1  0.73189731  0.51415892  0.62376701  1
  Ti  Ti37  1  0.23189731  0.01415892  0.87623299  1
  Ti  Ti38  1  0.01388318  0.23191239  0.37418978  1
  Ti  Ti39  1  0.76808761  0.98611682  0.62581022  1
  O  O40  1  0.85185002  0.37993379  0.12502426  1
  O  O41  1  0.63097670  0.36772820  0.74956226  1
  O  O42  1  0.14408924  0.35661673  0.26343660  1
  O  O43  1  0.14808874  0.62052528  0.37499170  1
  O  O44  1  0.12006621  0.64814998  0.62502426  1
  O  O45  1  0.36806927  0.63193073  0.50000000  1
  O  O46  1  0.35191126  0.87947472  0.87499170  1
  O  O47  1  0.85191126  0.37947472  0.62500830  1
  O  O48  1  0.86902330  0.13227180  0.24956226  1
  O  O49  1  0.35665080  0.14347172  0.98675159  1
  O  O50  1  0.35652828  0.14334920  0.48675159  1
  O  O51  1  0.08450121  0.08450121  0.37427240  1
  O  O52  1  0.64408924  0.85661673  0.23656340  1
  O  O53  1  0.14338327  0.35591076  0.76343660  1
  O  O54  1  0.36772820  0.63097670  0.74956226  1
  O  O55  1  0.62006621  0.14814998  0.87497574  1
  O  O56  1  0.41549879  0.41549879  0.87427240  1
  O  O57  1  0.13227180  0.86902330  0.24956226  1
  O  O58  1  0.62052528  0.14808874  0.37499170  1
  O  O59  1  0.64347172  0.85665080  0.51324841  1
  O  O60  1  0.36902330  0.63227180  0.25043774  1
  O  O61  1  0.63193073  0.36806927  0.50000000  1
  O  O62  1  0.91549879  0.91549879  0.62572760  1
  O  O63  1  0.86855904  0.13144096  0.50000000  1
  O  O64  1  0.63227180  0.36902330  0.25043774  1
  O  O65  1  0.86806927  0.13193073  0.00000000  1
  O  O66  1  0.85591076  0.64338327  0.73656340  1
  O  O67  1  0.63144096  0.36855904  0.00000000  1
  O  O68  1  0.64334920  0.85652828  0.01324841  1
  O  O69  1  0.08450233  0.08450233  0.87569469  1
  O  O70  1  0.37993379  0.85185002  0.12502426  1
  O  O71  1  0.35591076  0.14338327  0.76343660  1
  O  O72  1  0.35185002  0.87993379  0.37497574  1
  O  O73  1  0.64814998  0.12006621  0.62502426  1
  O  O74  1  0.87993379  0.35185002  0.37497574  1
  O  O75  1  0.64808874  0.12052528  0.12500830  1
  O  O76  1  0.14334920  0.35652828  0.48675159  1
  O  O77  1  0.41549767  0.41549767  0.37569469  1
  O  O78  1  0.13144096  0.86855904  0.50000000  1
  O  O79  1  0.13097670  0.86772820  0.75043774  1
  O  O80  1  0.58450121  0.58450121  0.12572760  1
  O  O81  1  0.35661673  0.14408924  0.26343660  1
  O  O82  1  0.85652828  0.64334920  0.01324841  1
  O  O83  1  0.85661673  0.64408924  0.23656340  1
  O  O84  1  0.14347172  0.35665080  0.98675159  1
  O  O85  1  0.37947472  0.85191126  0.62500830  1
  O  O86  1  0.58450233  0.58450233  0.62430531  1
  O  O87  1  0.36855904  0.63144096  0.00000000  1
  O  O88  1  0.13193073  0.86806927  0.00000000  1
  O  O89  1  0.64338327  0.85591076  0.73656340  1
  O  O90  1  0.12052528  0.64808874  0.12500830  1
  O  O91  1  0.86772820  0.13097670  0.75043774  1
  O  O92  1  0.87947472  0.35191126  0.87499170  1
  O  O93  1  0.91549767  0.91549767  0.12430531  1
  O  O94  1  0.85665080  0.64347172  0.51324841  1
  O  O95  1  0.14814998  0.62006621  0.87497574  1
