# generated using pymatgen
data_ZnS
_symmetry_space_group_name_H-M   'P 1'
_cell_length_a   3.85156653
_cell_length_b   3.85156643
_cell_length_c   100.71844053
_cell_angle_alpha   90.00000000
_cell_angle_beta   90.00000000
_cell_angle_gamma   120.00000095
_symmetry_Int_Tables_number   1
_chemical_formula_structural   ZnS
_chemical_formula_sum   'Zn32 S32'
_cell_volume   1293.94082962
_cell_formula_units_Z   32
loop_
 _symmetry_equiv_pos_site_id
 _symmetry_equiv_pos_as_xyz
  1  'x, y, z'
loop_
 _atom_site_type_symbol
 _atom_site_label
 _atom_site_symmetry_multiplicity
 _atom_site_fract_x
 _atom_site_fract_y
 _atom_site_fract_z
 _atom_site_occupancy
  Zn  Zn0  1  0.66666700  0.33333300  0.87519935  1
  Zn  Zn1  1  0.33333300  0.66666700  0.03125354  1
  Zn  Zn2  1  0.00000000  0.00000000  0.68750867  1
  Zn  Zn3  1  0.33333300  0.66666700  0.49999828  1
  Zn  Zn4  1  0.66666700  0.33333300  0.15627345  1
  Zn  Zn5  1  0.00000000  0.00000000  0.28125078  1
  Zn  Zn6  1  0.00000000  0.00000000  0.84395246  1
  Zn  Zn7  1  0.66666700  0.33333300  0.96874439  1
  Zn  Zn8  1  0.00000000  0.00000000  0.37499228  1
  Zn  Zn9  1  0.00000000  0.00000000  0.78123051  1
  Zn  Zn10  1  0.33333300  0.66666700  0.12500600  1
  Zn  Zn11  1  0.33333300  0.66666700  0.71874487  1
  Zn  Zn12  1  0.66666700  0.33333300  0.46874394  1
  Zn  Zn13  1  0.00000000  0.00000000  0.18751347  1
  Zn  Zn14  1  0.66666700  0.33333300  0.74998754  1
  Zn  Zn15  1  0.66666700  0.33333300  0.34375288  1
  Zn  Zn16  1  0.33333300  0.66666700  0.90629123  1
  Zn  Zn17  1  0.33333300  0.66666700  0.21874876  1
  Zn  Zn18  1  0.00000000  0.00000000  0.53125263  1
  Zn  Zn19  1  0.66666700  0.33333300  0.56250355  1
  Zn  Zn20  1  0.66666700  0.33333300  0.06250410  1
  Zn  Zn21  1  0.66666700  0.33333300  0.81248568  1
  Zn  Zn22  1  0.00000000  0.00000000  0.09375542  1
  Zn  Zn23  1  0.00000000  0.00000000  0.93749149  1
  Zn  Zn24  1  0.33333300  0.66666700  0.31250520  1
  Zn  Zn25  1  0.33333300  0.66666700  0.40624616  1
  Zn  Zn26  1  0.00000000  0.00000000  0.43750599  1
  Zn  Zn27  1  0.66666700  0.33333300  0.65624892  1
  Zn  Zn28  1  0.66666700  0.33333300  0.24999813  1
  Zn  Zn29  1  0.00000000  0.00000000  0.62499326  1
  Zn  Zn30  1  0.33333300  0.66666700  0.59375447  1
  Zn  Zn31  1  0.00000000  0.00000000  0.00001077  1
  S  S32  1  0.33333300  0.66666700  0.24218656  1
  S  S33  1  0.66666700  0.33333300  0.49218500  1
  S  S34  1  0.66666700  0.33333300  0.08594457  1
  S  S35  1  0.33333300  0.66666700  0.52343771  1
  S  S36  1  0.00000000  0.00000000  0.46093606  1
  S  S37  1  0.00000000  0.00000000  0.02343996  1
  S  S38  1  0.66666700  0.33333300  0.58594417  1
  S  S39  1  0.33333300  0.66666700  0.74218226  1
  S  S40  1  0.33333300  0.66666700  0.92970360  1
  S  S41  1  0.00000000  0.00000000  0.21094436  1
  S  S42  1  0.00000000  0.00000000  0.30468948  1
  S  S43  1  0.00000000  0.00000000  0.86744651  1
  S  S44  1  0.66666700  0.33333300  0.17971854  1
  S  S45  1  0.33333300  0.66666700  0.42970915  1
  S  S46  1  0.66666700  0.33333300  0.67971674  1
  S  S47  1  0.66666700  0.33333300  0.36719101  1
  S  S48  1  0.66666700  0.33333300  0.89856457  1
  S  S49  1  0.00000000  0.00000000  0.64841790  1
  S  S50  1  0.00000000  0.00000000  0.55468950  1
  S  S51  1  0.33333300  0.66666700  0.33594443  1
  S  S52  1  0.33333300  0.66666700  0.05468992  1
  S  S53  1  0.66666700  0.33333300  0.77340615  1
  S  S54  1  0.00000000  0.00000000  0.39841950  1
  S  S55  1  0.66666700  0.33333300  0.27343529  1
  S  S56  1  0.00000000  0.00000000  0.96091504  1
  S  S57  1  0.66666700  0.33333300  0.99220767  1
  S  S58  1  0.33333300  0.66666700  0.14845150  1
  S  S59  1  0.00000000  0.00000000  0.11719687  1
  S  S60  1  0.00000000  0.00000000  0.71093608  1
  S  S61  1  0.00000000  0.00000000  0.80467180  1
  S  S62  1  0.66666700  0.33333300  0.83598629  1
  S  S63  1  0.33333300  0.66666700  0.61719362  1
