# generated using pymatgen
data_Ca3(HO3)2
_symmetry_space_group_name_H-M   'P 1'
_cell_length_a   4.33628045
_cell_length_b   11.75956896
_cell_length_c   7.48872082
_cell_angle_alpha   26.62397488
_cell_angle_beta   125.38316520
_cell_angle_gamma   123.58114053
_symmetry_Int_Tables_number   1
_chemical_formula_structural   Ca3(HO3)2
_chemical_formula_sum   'Ca3 H2 O6'
_cell_volume   138.86193221
_cell_formula_units_Z   1
loop_
 _symmetry_equiv_pos_site_id
 _symmetry_equiv_pos_as_xyz
  1  'x, y, z'
loop_
 _atom_site_type_symbol
 _atom_site_label
 _atom_site_symmetry_multiplicity
 _atom_site_fract_x
 _atom_site_fract_y
 _atom_site_fract_z
 _atom_site_occupancy
  Ca  Ca0  1  0.00000000  0.66666700  0.00000000  1
  Ca  Ca1  1  0.02728318  0.29076815  0.09113046  1
  Ca  Ca2  1  0.97271682  0.04256485  0.90886954  1
  H  H3  1  0.38370040  0.30907460  0.92008900  1
  H  H4  1  0.61629960  0.02425840  0.07991100  1
  O  O5  1  0.40195965  0.43452656  0.25017081  1
  O  O6  1  0.26332496  0.41467991  0.64130509  1
  O  O7  1  0.73667504  0.91865309  0.35869491  1
  O  O8  1  0.38345589  0.14739986  0.66235659  1
  O  O9  1  0.59804035  0.89880744  0.74982919  1
  O  O10  1  0.61654411  0.18593314  0.33764341  1
