# generated using pymatgen
data_KZrH2OF5
_symmetry_space_group_name_H-M   'P 1'
_cell_length_a   7.73947223
_cell_length_b   11.21428438
_cell_length_c   12.36381531
_cell_angle_alpha   90.00000000
_cell_angle_beta   90.00000000
_cell_angle_gamma   98.76778862
_symmetry_Int_Tables_number   1
_chemical_formula_structural   KZrH2OF5
_chemical_formula_sum   'K8 Zr8 H16 O8 F40'
_cell_volume   1060.54834421
_cell_formula_units_Z   8
loop_
 _symmetry_equiv_pos_site_id
 _symmetry_equiv_pos_as_xyz
  1  'x, y, z'
loop_
 _atom_site_type_symbol
 _atom_site_label
 _atom_site_symmetry_multiplicity
 _atom_site_fract_x
 _atom_site_fract_y
 _atom_site_fract_z
 _atom_site_occupancy
  K  K0  1  0.20245999  0.14706180  0.96144117  1
  K  K1  1  0.70143743  0.87970924  0.47588458  1
  K  K2  1  0.79754001  0.35293820  0.46144117  1
  K  K3  1  0.79754001  0.85293820  0.03855883  1
  K  K4  1  0.29856257  0.12029076  0.52411542  1
  K  K5  1  0.29856257  0.62029076  0.97588458  1
  K  K6  1  0.20245999  0.64706180  0.53855883  1
  K  K7  1  0.70143743  0.37970924  0.02411542  1
  Zr  Zr8  1  0.02433951  0.87777635  0.73676593  1
  Zr  Zr9  1  0.02433951  0.37777635  0.76323407  1
  Zr  Zr10  1  0.52885063  0.60783981  0.24504994  1
  Zr  Zr11  1  0.97566049  0.12222365  0.26323407  1
  Zr  Zr12  1  0.47114937  0.89216019  0.74504994  1
  Zr  Zr13  1  0.52885063  0.10783981  0.25495006  1
  Zr  Zr14  1  0.97566049  0.62222365  0.23676593  1
  Zr  Zr15  1  0.47114937  0.39216019  0.75495006  1
  H  H16  1  0.74533841  0.04909675  0.85596898  1
  H  H17  1  0.41740008  0.87705667  0.14620027  1
  H  H18  1  0.58259992  0.62294333  0.64620027  1
  H  H19  1  0.24816385  0.79896787  0.33818036  1
  H  H20  1  0.25466159  0.45090325  0.35596898  1
  H  H21  1  0.24816385  0.29896787  0.16181964  1
  H  H22  1  0.92887083  0.14566223  0.65064849  1
  H  H23  1  0.07112917  0.35433777  0.15064849  1
  H  H24  1  0.07112917  0.85433777  0.34935151  1
  H  H25  1  0.74533841  0.54909675  0.64403102  1
  H  H26  1  0.75183615  0.70103213  0.83818036  1
  H  H27  1  0.92887083  0.64566223  0.84935151  1
  H  H28  1  0.58259992  0.12294333  0.85379973  1
  H  H29  1  0.41740008  0.37705667  0.35379973  1
  H  H30  1  0.75183615  0.20103213  0.66181964  1
  H  H31  1  0.25466159  0.95090325  0.14403102  1
  O  O32  1  0.87887386  0.22277520  0.65473013  1
  O  O33  1  0.87887386  0.72277520  0.84526987  1
  O  O34  1  0.61719611  0.04110275  0.85720824  1
  O  O35  1  0.38280389  0.45889725  0.35720824  1
  O  O36  1  0.61719611  0.54110275  0.64279176  1
  O  O37  1  0.12112614  0.27722480  0.15473013  1
  O  O38  1  0.38280389  0.95889725  0.14279176  1
  O  O39  1  0.12112614  0.77722480  0.34526987  1
  F  F40  1  0.06098543  0.24345500  0.38101372  1
  F  F41  1  0.51019054  0.75323001  0.14515702  1
  F  F42  1  0.74820167  0.88583161  0.72450416  1
  F  F43  1  0.74938214  0.11570928  0.37315990  1
  F  F44  1  0.47044082  0.70255366  0.37812623  1
  F  F45  1  0.01375016  0.52549704  0.86045748  1
  F  F46  1  0.71815661  0.00337093  0.20075161  1
  F  F47  1  0.74820167  0.38583161  0.77549584  1
  F  F48  1  0.28184339  0.99662907  0.79924839  1
  F  F49  1  0.03601786  0.52673654  0.37103601  1
  F  F50  1  0.96398214  0.47326346  0.62896399  1
  F  F51  1  0.51019054  0.25323001  0.35484298  1
  F  F52  1  0.44575945  0.97850608  0.36768835  1
  F  F53  1  0.25061786  0.38429072  0.87315990  1
  F  F54  1  0.98624984  0.47450296  0.13954252  1
  F  F55  1  0.98624984  0.97450296  0.36045748  1
  F  F56  1  0.96398214  0.97326346  0.87103601  1
  F  F57  1  0.93901457  0.75654500  0.61898628  1
  F  F58  1  0.71815661  0.50337093  0.29924839  1
  F  F59  1  0.52955918  0.79744634  0.87812623  1
  F  F60  1  0.44575945  0.47850608  0.13231165  1
  F  F61  1  0.55424055  0.02149392  0.63231165  1
  F  F62  1  0.25061786  0.88429072  0.62684010  1
  F  F63  1  0.48980946  0.24676999  0.85484298  1
  F  F64  1  0.47044082  0.20255366  0.12187377  1
  F  F65  1  0.74938214  0.61570928  0.12684010  1
  F  F66  1  0.25179833  0.61416839  0.22450416  1
  F  F67  1  0.21128064  0.27360501  0.70122296  1
  F  F68  1  0.21128064  0.77360501  0.79877704  1
  F  F69  1  0.28184339  0.49662907  0.70075161  1
  F  F70  1  0.93901457  0.25654500  0.88101372  1
  F  F71  1  0.03601786  0.02673654  0.12896399  1
  F  F72  1  0.55424055  0.52149392  0.86768835  1
  F  F73  1  0.52955918  0.29744634  0.62187377  1
  F  F74  1  0.06098543  0.74345500  0.11898628  1
  F  F75  1  0.01375016  0.02549704  0.63954252  1
  F  F76  1  0.78871936  0.22639499  0.20122296  1
  F  F77  1  0.78871936  0.72639499  0.29877704  1
  F  F78  1  0.25179833  0.11416839  0.27549584  1
  F  F79  1  0.48980946  0.74676999  0.64515702  1
