# generated using pymatgen
data_Na4Zr2(SiO4)3
_symmetry_space_group_name_H-M   'P 1'
_cell_length_a   9.21699255
_cell_length_b   9.21699264
_cell_length_c   9.21699230
_cell_angle_alpha   60.74072764
_cell_angle_beta   60.74072737
_cell_angle_gamma   60.74072977
_symmetry_Int_Tables_number   1
_chemical_formula_structural   Na4Zr2(SiO4)3
_chemical_formula_sum   'Na8 Zr4 Si6 O24'
_cell_volume   562.92617478
_cell_formula_units_Z   2
loop_
 _symmetry_equiv_pos_site_id
 _symmetry_equiv_pos_as_xyz
  1  'x, y, z'
loop_
 _atom_site_type_symbol
 _atom_site_label
 _atom_site_symmetry_multiplicity
 _atom_site_fract_x
 _atom_site_fract_y
 _atom_site_fract_z
 _atom_site_occupancy
  Na  Na0  1  0.38849142  0.74906458  0.11914112  1
  Na  Na1  1  0.61914112  0.24906458  0.88849142  1
  Na  Na2  1  0.11914112  0.38849142  0.74906458  1
  Na  Na3  1  0.88849142  0.61914112  0.24906458  1
  Na  Na4  1  0.74906458  0.11914112  0.38849142  1
  Na  Na5  1  0.49873765  0.49873765  0.49873765  1
  Na  Na6  1  0.24906458  0.88849142  0.61914112  1
  Na  Na7  1  0.99873765  0.99873765  0.99873765  1
  Zr  Zr8  1  0.64454959  0.64454959  0.64454959  1
  Zr  Zr9  1  0.85117040  0.85117040  0.85117040  1
  Zr  Zr10  1  0.14454959  0.14454959  0.14454959  1
  Zr  Zr11  1  0.35117040  0.35117040  0.35117040  1
  Si  Si12  1  0.54427021  0.95022456  0.24837396  1
  Si  Si13  1  0.74837396  0.45022456  0.04427021  1
  Si  Si14  1  0.04427021  0.74837396  0.45022456  1
  Si  Si15  1  0.45022456  0.04427021  0.74837396  1
  Si  Si16  1  0.24837396  0.54427021  0.95022456  1
  Si  Si17  1  0.95022456  0.24837396  0.54427021  1
  O  O18  1  0.91644273  0.26746806  0.06230660  1
  O  O19  1  0.58113696  0.43164245  0.22825105  1
  O  O20  1  0.62152267  0.00636779  0.79088991  1
  O  O21  1  0.56230660  0.76746806  0.41644273  1
  O  O22  1  0.26746806  0.06230660  0.91644273  1
  O  O23  1  0.76746806  0.41644273  0.56230660  1
  O  O24  1  0.98558367  0.20434108  0.37472352  1
  O  O25  1  0.87472352  0.70434108  0.48558367  1
  O  O26  1  0.79088991  0.62152267  0.00636779  1
  O  O27  1  0.41644273  0.56230660  0.76746806  1
  O  O28  1  0.37472352  0.98558367  0.20434108  1
  O  O29  1  0.72825105  0.93164245  0.08113696  1
  O  O30  1  0.12152267  0.29088991  0.50636779  1
  O  O31  1  0.08113696  0.72825105  0.93164245  1
  O  O32  1  0.48558367  0.87472352  0.70434108  1
  O  O33  1  0.50636779  0.12152267  0.29088991  1
  O  O34  1  0.93164245  0.08113696  0.72825105  1
  O  O35  1  0.70434108  0.48558367  0.87472352  1
  O  O36  1  0.20434108  0.37472352  0.98558367  1
  O  O37  1  0.22825105  0.58113696  0.43164245  1
  O  O38  1  0.29088991  0.50636779  0.12152267  1
  O  O39  1  0.43164245  0.22825105  0.58113696  1
  O  O40  1  0.06230660  0.91644273  0.26746806  1
  O  O41  1  0.00636779  0.79088991  0.62152267  1
