# generated using pymatgen
data_ZnS
_symmetry_space_group_name_H-M   'P 1'
_cell_length_a   3.85146264
_cell_length_b   3.85146253
_cell_length_c   75.53898428
_cell_angle_alpha   90.00000000
_cell_angle_beta   90.00000000
_cell_angle_gamma   120.00000095
_symmetry_Int_Tables_number   1
_chemical_formula_structural   ZnS
_chemical_formula_sum   'Zn24 S24'
_cell_volume   970.40524420
_cell_formula_units_Z   24
loop_
 _symmetry_equiv_pos_site_id
 _symmetry_equiv_pos_as_xyz
  1  'x, y, z'
loop_
 _atom_site_type_symbol
 _atom_site_label
 _atom_site_symmetry_multiplicity
 _atom_site_fract_x
 _atom_site_fract_y
 _atom_site_fract_z
 _atom_site_occupancy
  Zn  Zn0  1  0.66666700  0.33333300  0.70830689  1
  Zn  Zn1  1  0.33333300  0.66666700  0.79166822  1
  Zn  Zn2  1  0.66666700  0.33333300  0.33331466  1
  Zn  Zn3  1  0.00000000  0.00000000  0.41665910  1
  Zn  Zn4  1  0.66666700  0.33333300  0.08332695  1
  Zn  Zn5  1  0.00000000  0.00000000  0.66664189  1
  Zn  Zn6  1  0.66666700  0.33333300  0.58335338  1
  Zn  Zn7  1  0.66666700  0.33333300  0.20834777  1
  Zn  Zn8  1  0.00000000  0.00000000  0.54168433  1
  Zn  Zn9  1  0.33333300  0.66666700  0.04168599  1
  Zn  Zn10  1  0.66666700  0.33333300  0.45832901  1
  Zn  Zn11  1  0.00000000  0.00000000  0.12500004  1
  Zn  Zn12  1  0.33333300  0.66666700  0.16668058  1
  Zn  Zn13  1  0.33333300  0.66666700  0.29164564  1
  Zn  Zn14  1  0.00000000  0.00000000  0.75000087  1
  Zn  Zn15  1  0.66666700  0.33333300  0.83333286  1
  Zn  Zn16  1  0.33333300  0.66666700  0.37500362  1
  Zn  Zn17  1  0.33333300  0.66666700  0.50000490  1
  Zn  Zn18  1  0.33333300  0.66666700  0.95833939  1
  Zn  Zn19  1  0.00000000  0.00000000  0.87502104  1
  Zn  Zn20  1  0.66666700  0.33333300  0.91671262  1
  Zn  Zn21  1  0.00000000  0.00000000  0.00000836  1
  Zn  Zn22  1  0.33333300  0.66666700  0.62500860  1
  Zn  Zn23  1  0.00000000  0.00000000  0.25000494  1
  S  S24  1  0.00000000  0.00000000  0.69785936  1
  S  S25  1  0.33333300  0.66666700  0.53125473  1
  S  S26  1  0.33333300  0.66666700  0.19792834  1
  S  S27  1  0.66666700  0.33333300  0.86455991  1
  S  S28  1  0.33333300  0.66666700  0.32286634  1
  S  S29  1  0.00000000  0.00000000  0.57293108  1
  S  S30  1  0.33333300  0.66666700  0.40623679  1
  S  S31  1  0.00000000  0.00000000  0.78123604  1
  S  S32  1  0.33333300  0.66666700  0.65624164  1
  S  S33  1  0.33333300  0.66666700  0.98955667  1
  S  S34  1  0.66666700  0.33333300  0.11457055  1
  S  S35  1  0.66666700  0.33333300  0.73958526  1
  S  S36  1  0.00000000  0.00000000  0.03128217  1
  S  S37  1  0.66666700  0.33333300  0.94793576  1
  S  S38  1  0.00000000  0.00000000  0.15625019  1
  S  S39  1  0.66666700  0.33333300  0.48957739  1
  S  S40  1  0.66666700  0.33333300  0.61459359  1
  S  S41  1  0.33333300  0.66666700  0.82291220  1
  S  S42  1  0.00000000  0.00000000  0.28124247  1
  S  S43  1  0.66666700  0.33333300  0.36459254  1
  S  S44  1  0.33333300  0.66666700  0.07291169  1
  S  S45  1  0.00000000  0.00000000  0.44790489  1
  S  S46  1  0.66666700  0.33333300  0.23958929  1
  S  S47  1  0.00000000  0.00000000  0.90629944  1
