# generated using pymatgen
data_Rb3Ti3(PO4)5
_symmetry_space_group_name_H-M   'P 1'
_cell_length_a   6.37505826
_cell_length_b   15.08531782
_cell_length_c   18.67948571
_cell_angle_alpha   90.00000000
_cell_angle_beta   90.00000000
_cell_angle_gamma   90.00000000
_symmetry_Int_Tables_number   1
_chemical_formula_structural   Rb3Ti3(PO4)5
_chemical_formula_sum   'Rb12 Ti12 P20 O80'
_cell_volume   1796.40203074
_cell_formula_units_Z   4
loop_
 _symmetry_equiv_pos_site_id
 _symmetry_equiv_pos_as_xyz
  1  'x, y, z'
loop_
 _atom_site_type_symbol
 _atom_site_label
 _atom_site_symmetry_multiplicity
 _atom_site_fract_x
 _atom_site_fract_y
 _atom_site_fract_z
 _atom_site_occupancy
  Rb  Rb0  1  0.63300125  0.47222497  0.15094365  1
  Rb  Rb1  1  0.65952984  0.75000000  0.17335621  1
  Rb  Rb2  1  0.36699875  0.02777503  0.65094365  1
  Rb  Rb3  1  0.63300125  0.52777503  0.34905635  1
  Rb  Rb4  1  0.36699875  0.52777503  0.84905635  1
  Rb  Rb5  1  0.63300125  0.02777503  0.15094365  1
  Rb  Rb6  1  0.63300125  0.97222497  0.34905635  1
  Rb  Rb7  1  0.65952984  0.25000000  0.32664379  1
  Rb  Rb8  1  0.34047016  0.75000000  0.67335621  1
  Rb  Rb9  1  0.34047016  0.25000000  0.82664379  1
  Rb  Rb10  1  0.36699875  0.97222497  0.84905635  1
  Rb  Rb11  1  0.36699875  0.47222497  0.65094365  1
  Ti  Ti12  1  0.25472303  0.25000000  0.14692637  1
  Ti  Ti13  1  0.75641937  0.36820346  0.95288315  1
  Ti  Ti14  1  0.75641937  0.63179654  0.54711685  1
  Ti  Ti15  1  0.24358063  0.13179654  0.45288315  1
  Ti  Ti16  1  0.75641937  0.86820346  0.54711685  1
  Ti  Ti17  1  0.25472303  0.75000000  0.35307363  1
  Ti  Ti18  1  0.24358063  0.63179654  0.04711685  1
  Ti  Ti19  1  0.24358063  0.36820346  0.45288315  1
  Ti  Ti20  1  0.74527697  0.75000000  0.85307363  1
  Ti  Ti21  1  0.74527697  0.25000000  0.64692637  1
  Ti  Ti22  1  0.75641937  0.13179654  0.95288315  1
  Ti  Ti23  1  0.24358063  0.86820346  0.04711685  1
  P  P24  1  0.74559502  0.10103091  0.50444246  1
  P  P25  1  0.24306603  0.25000000  0.60162061  1
  P  P26  1  0.74559502  0.39896909  0.50444246  1
  P  P27  1  0.25440498  0.60103091  0.49555754  1
  P  P28  1  0.14646809  0.59589889  0.22433285  1
  P  P29  1  0.74559502  0.60103091  0.99555754  1
  P  P30  1  0.14646809  0.40410111  0.27566715  1
  P  P31  1  0.85353191  0.90410111  0.72433285  1
  P  P32  1  0.85353191  0.09589889  0.77566715  1
  P  P33  1  0.24306603  0.75000000  0.89837939  1
  P  P34  1  0.74559502  0.89896909  0.99555754  1
  P  P35  1  0.25440498  0.89896909  0.49555754  1
  P  P36  1  0.85353191  0.40410111  0.77566715  1
  P  P37  1  0.14646809  0.90410111  0.22433285  1
  P  P38  1  0.25440498  0.10103091  0.00444246  1
  P  P39  1  0.75693397  0.25000000  0.10162061  1
  P  P40  1  0.25440498  0.39896909  0.00444246  1
  P  P41  1  0.85353191  0.59589889  0.72433285  1
  P  P42  1  0.75693397  0.75000000  0.39837939  1
  P  P43  1  0.14646809  0.09589889  0.27566715  1
  O  O44  1  0.74427717  0.00203732  0.52251106  1
  O  O45  1  0.08847095  0.09880523  0.77491208  1
  O  O46  1  0.75393868  0.83557656  0.44355666  1
  O  O47  1  0.95492515  0.25000000  0.14958870  1
  O  O48  1  0.25572283  0.99796268  0.47748894  1
  O  O49  1  0.91152905  0.40119477  0.27491208  1
  O  O50  1  0.26157293  0.34334147  0.07442455  1
  O  O51  1  0.43299388  0.25000000  0.65327191  1
  O  O52  1  0.74841339  0.39659370  0.85000392  1
  O  O53  1  0.24606132  0.33557656  0.55644334  1
  O  O54  1  0.05990376  0.87469767  0.54137386  1
  O  O55  1  0.94009624  0.37469767  0.45862614  1
  O  O56  1  0.24606132  0.66442344  0.94355666  1
  O  O57  1  0.25572283  0.49796268  0.02251106  1
  O  O58  1  0.25158661  0.60340630  0.14999608  1
  O  O59  1  0.74427717  0.50203732  0.97748894  1
  O  O60  1  0.73825194  0.84061698  0.77592608  1
  O  O61  1  0.55567320  0.37489603  0.45601809  1
  O  O62  1  0.25158661  0.10340630  0.35000392  1
  O  O63  1  0.26174806  0.65938302  0.27592608  1
  O  O64  1  0.26174806  0.15938302  0.22407392  1
  O  O65  1  0.26157293  0.84334147  0.42557545  1
  O  O66  1  0.43299388  0.75000000  0.84672809  1
  O  O67  1  0.25572283  0.50203732  0.47748894  1
  O  O68  1  0.23668585  0.50000000  0.25000000  1
  O  O69  1  0.73825194  0.65938302  0.77592608  1
  O  O70  1  0.73825194  0.15938302  0.72407392  1
  O  O71  1  0.23668585  0.00000000  0.25000000  1
  O  O72  1  0.25158661  0.89659370  0.14999608  1
  O  O73  1  0.76331415  0.50000000  0.75000000  1
  O  O74  1  0.08847095  0.90119477  0.72508792  1
  O  O75  1  0.24862473  0.75000000  0.06849519  1
  O  O76  1  0.24606132  0.16442344  0.55644334  1
  O  O77  1  0.91152905  0.59880523  0.22508792  1
  O  O78  1  0.74427717  0.49796268  0.52251106  1
  O  O79  1  0.75393868  0.33557656  0.05644334  1
  O  O80  1  0.94009624  0.12530233  0.45862614  1
  O  O81  1  0.44432680  0.62510397  0.54398191  1
  O  O82  1  0.05990376  0.37469767  0.95862614  1
  O  O83  1  0.73842707  0.15665853  0.57442455  1
  O  O84  1  0.75393868  0.66442344  0.44355666  1
  O  O85  1  0.75393868  0.16442344  0.05644334  1
  O  O86  1  0.44432680  0.87489603  0.54398191  1
  O  O87  1  0.04507485  0.75000000  0.85041130  1
  O  O88  1  0.95492515  0.75000000  0.35041130  1
  O  O89  1  0.26157293  0.65665853  0.42557545  1
  O  O90  1  0.55567320  0.12510397  0.45601809  1
  O  O91  1  0.73842707  0.84334147  0.92557545  1
  O  O92  1  0.56700612  0.75000000  0.34672809  1
  O  O93  1  0.26174806  0.34061698  0.22407392  1
  O  O94  1  0.75137527  0.25000000  0.93150481  1
  O  O95  1  0.73842707  0.34334147  0.57442455  1
  O  O96  1  0.05990376  0.12530233  0.95862614  1
  O  O97  1  0.94009624  0.62530233  0.04137386  1
  O  O98  1  0.05990376  0.62530233  0.54137386  1
  O  O99  1  0.44432680  0.12510397  0.95601809  1
  O  O100  1  0.76331415  0.00000000  0.75000000  1
  O  O101  1  0.55567320  0.62510397  0.04398191  1
  O  O102  1  0.26157293  0.15665853  0.07442455  1
  O  O103  1  0.25572283  0.00203732  0.02251106  1
  O  O104  1  0.44432680  0.37489603  0.95601809  1
  O  O105  1  0.56700612  0.25000000  0.15327191  1
  O  O106  1  0.24862473  0.25000000  0.43150481  1
  O  O107  1  0.74841339  0.60340630  0.64999608  1
  O  O108  1  0.26174806  0.84061698  0.27592608  1
  O  O109  1  0.94009624  0.87469767  0.04137386  1
  O  O110  1  0.74427717  0.99796268  0.97748894  1
  O  O111  1  0.73825194  0.34061698  0.72407392  1
  O  O112  1  0.25158661  0.39659370  0.35000392  1
  O  O113  1  0.24606132  0.83557656  0.94355666  1
  O  O114  1  0.04507485  0.25000000  0.64958870  1
  O  O115  1  0.74841339  0.89659370  0.64999608  1
  O  O116  1  0.55567320  0.87489603  0.04398191  1
  O  O117  1  0.91152905  0.90119477  0.22508792  1
  O  O118  1  0.75137527  0.75000000  0.56849519  1
  O  O119  1  0.74841339  0.10340630  0.85000392  1
  O  O120  1  0.08847095  0.59880523  0.72508792  1
  O  O121  1  0.91152905  0.09880523  0.27491208  1
  O  O122  1  0.73842707  0.65665853  0.92557545  1
  O  O123  1  0.08847095  0.40119477  0.77491208  1
