# generated using pymatgen
data_ZnS
_symmetry_space_group_name_H-M   'P 1'
_cell_length_a   3.85306083
_cell_length_b   3.85306072
_cell_length_c   75.56413146
_cell_angle_alpha   90.00000000
_cell_angle_beta   90.00000000
_cell_angle_gamma   120.00000084
_symmetry_Int_Tables_number   1
_chemical_formula_structural   ZnS
_chemical_formula_sum   'Zn24 S24'
_cell_volume   971.53408481
_cell_formula_units_Z   24
loop_
 _symmetry_equiv_pos_site_id
 _symmetry_equiv_pos_as_xyz
  1  'x, y, z'
loop_
 _atom_site_type_symbol
 _atom_site_label
 _atom_site_symmetry_multiplicity
 _atom_site_fract_x
 _atom_site_fract_y
 _atom_site_fract_z
 _atom_site_occupancy
  Zn  Zn0  1  0.66666700  0.33333300  0.58333348  1
  Zn  Zn1  1  0.33333300  0.66666700  0.66666914  1
  Zn  Zn2  1  0.66666700  0.33333300  0.33333350  1
  Zn  Zn3  1  0.33333300  0.66666700  0.29167206  1
  Zn  Zn4  1  0.00000000  0.00000000  0.37500165  1
  Zn  Zn5  1  0.66666700  0.33333300  0.08333326  1
  Zn  Zn6  1  0.00000000  0.00000000  0.83333115  1
  Zn  Zn7  1  0.66666700  0.33333300  0.20833361  1
  Zn  Zn8  1  0.00000000  0.00000000  0.70834372  1
  Zn  Zn9  1  0.33333300  0.66666700  0.54167200  1
  Zn  Zn10  1  0.33333300  0.66666700  0.04168163  1
  Zn  Zn11  1  0.66666700  0.33333300  0.45833349  1
  Zn  Zn12  1  0.00000000  0.00000000  0.12500168  1
  Zn  Zn13  1  0.33333300  0.66666700  0.16667210  1
  Zn  Zn14  1  0.33333300  0.66666700  0.41667212  1
  Zn  Zn15  1  0.00000000  0.00000000  0.50000157  1
  Zn  Zn16  1  0.33333300  0.66666700  0.79166777  1
  Zn  Zn17  1  0.33333300  0.66666700  0.95833890  1
  Zn  Zn18  1  0.00000000  0.00000000  0.25000166  1
  Zn  Zn19  1  0.66666700  0.33333300  0.91666888  1
  Zn  Zn20  1  0.66666700  0.33333300  0.75000162  1
  Zn  Zn21  1  0.00000000  0.00000000  0.62499734  1
  Zn  Zn22  1  0.33333300  0.66666700  0.87500722  1
  Zn  Zn23  1  0.00000000  0.00000000  0.99999835  1
  S  S24  1  0.33333300  0.66666700  0.19791592  1
  S  S25  1  0.00000000  0.00000000  0.40624772  1
  S  S26  1  0.00000000  0.00000000  0.53124757  1
  S  S27  1  0.33333300  0.66666700  0.44791600  1
  S  S28  1  0.66666700  0.33333300  0.23957821  1
  S  S29  1  0.33333300  0.66666700  0.98955318  1
  S  S30  1  0.00000000  0.00000000  0.73957812  1
  S  S31  1  0.00000000  0.00000000  0.03127282  1
  S  S32  1  0.00000000  0.00000000  0.86460411  1
  S  S33  1  0.33333300  0.66666700  0.82289121  1
  S  S34  1  0.66666700  0.33333300  0.61457781  1
  S  S35  1  0.66666700  0.33333300  0.94793976  1
  S  S36  1  0.00000000  0.00000000  0.15624779  1
  S  S37  1  0.66666700  0.33333300  0.78124701  1
  S  S38  1  0.33333300  0.66666700  0.69794085  1
  S  S39  1  0.66666700  0.33333300  0.48957815  1
  S  S40  1  0.00000000  0.00000000  0.65622350  1
  S  S41  1  0.00000000  0.00000000  0.28124773  1
  S  S42  1  0.66666700  0.33333300  0.36457815  1
  S  S43  1  0.33333300  0.66666700  0.57291603  1
  S  S44  1  0.33333300  0.66666700  0.07291407  1
  S  S45  1  0.66666700  0.33333300  0.11457783  1
  S  S46  1  0.33333300  0.66666700  0.90622268  1
  S  S47  1  0.33333300  0.66666700  0.32291589  1
