# generated using pymatgen
data_Ca2SiO4
_symmetry_space_group_name_H-M   'P 1'
_cell_length_a   5.48125200
_cell_length_b   11.44928015
_cell_length_c   9.07713110
_cell_angle_alpha   48.70934397
_cell_angle_beta   107.57334407
_cell_angle_gamma   118.60327302
_symmetry_Int_Tables_number   1
_chemical_formula_structural   Ca2SiO4
_chemical_formula_sum   'Ca8 Si4 O16'
_cell_volume   375.69582758
_cell_formula_units_Z   4
loop_
 _symmetry_equiv_pos_site_id
 _symmetry_equiv_pos_as_xyz
  1  'x, y, z'
loop_
 _atom_site_type_symbol
 _atom_site_label
 _atom_site_symmetry_multiplicity
 _atom_site_fract_x
 _atom_site_fract_y
 _atom_site_fract_z
 _atom_site_occupancy
  Ca  Ca0  1  0.35081390  0.97722644  0.67994853  1
  Ca  Ca1  1  0.28358752  0.47722644  0.67994853  1
  Ca  Ca2  1  0.00000000  0.50000000  0.00000000  1
  Ca  Ca3  1  0.99214199  0.75000000  0.50000000  1
  Ca  Ca4  1  0.71641248  0.52277356  0.32005147  1
  Ca  Ca5  1  0.00000000  0.00000000  0.00000000  1
  Ca  Ca6  1  0.00785801  0.25000000  0.50000000  1
  Ca  Ca7  1  0.64918610  0.02277356  0.32005147  1
  Si  Si8  1  0.32325488  0.72248818  0.20324351  1
  Si  Si9  1  0.67503502  0.77751182  0.79675649  1
  Si  Si10  1  0.32496498  0.22248818  0.20324351  1
  Si  Si11  1  0.67674512  0.27751182  0.79675649  1
  O  O12  1  0.18140707  0.71245704  0.35004207  1
  O  O13  1  0.40645091  0.78754296  0.64995793  1
  O  O14  1  0.56676682  0.62492461  0.02163227  1
  O  O15  1  0.29528533  0.87507539  0.97836773  1
  O  O16  1  0.80841929  0.96501416  0.75097181  1
  O  O17  1  0.12741915  0.53498584  0.24902819  1
  O  O18  1  0.64557860  0.73326949  0.28062293  1
  O  O19  1  0.89841670  0.76673051  0.71937707  1
  O  O20  1  0.10158330  0.23326949  0.28062293  1
  O  O21  1  0.35442140  0.26673051  0.71937707  1
  O  O22  1  0.87258085  0.46501416  0.75097181  1
  O  O23  1  0.19158071  0.03498584  0.24902819  1
  O  O24  1  0.70471467  0.12492461  0.02163227  1
  O  O25  1  0.43323318  0.37507539  0.97836773  1
  O  O26  1  0.59354909  0.21245704  0.35004207  1
  O  O27  1  0.81859293  0.28754296  0.64995793  1
