# generated using pymatgen
data_ZnS
_symmetry_space_group_name_H-M   'P 1'
_cell_length_a   3.85370395
_cell_length_b   3.85370384
_cell_length_c   62.98747769
_cell_angle_alpha   90.00000000
_cell_angle_beta   90.00000000
_cell_angle_gamma   120.00000082
_symmetry_Int_Tables_number   1
_chemical_formula_structural   ZnS
_chemical_formula_sum   'Zn20 S20'
_cell_volume   810.10540539
_cell_formula_units_Z   20
loop_
 _symmetry_equiv_pos_site_id
 _symmetry_equiv_pos_as_xyz
  1  'x, y, z'
loop_
 _atom_site_type_symbol
 _atom_site_label
 _atom_site_symmetry_multiplicity
 _atom_site_fract_x
 _atom_site_fract_y
 _atom_site_fract_z
 _atom_site_occupancy
  Zn  Zn0  1  0.00000000  0.00000000  0.40001393  1
  Zn  Zn1  1  0.66666700  0.33333300  0.44999792  1
  Zn  Zn2  1  0.33333300  0.66666700  0.64999988  1
  Zn  Zn3  1  0.33333300  0.66666700  0.94999806  1
  Zn  Zn4  1  0.33333300  0.66666700  0.20000304  1
  Zn  Zn5  1  0.00000000  0.00000000  0.59999743  1
  Zn  Zn6  1  0.66666700  0.33333300  0.55001391  1
  Zn  Zn7  1  0.66666700  0.33333300  0.90000318  1
  Zn  Zn8  1  0.00000000  0.00000000  0.29999791  1
  Zn  Zn9  1  0.33333300  0.66666700  0.34999966  1
  Zn  Zn10  1  0.66666700  0.33333300  0.75000269  1
  Zn  Zn11  1  0.66666700  0.33333300  0.10000261  1
  Zn  Zn12  1  0.33333300  0.66666700  0.80000304  1
  Zn  Zn13  1  0.00000000  0.00000000  0.99999949  1
  Zn  Zn14  1  0.33333300  0.66666700  0.05001421  1
  Zn  Zn15  1  0.00000000  0.00000000  0.85000267  1
  Zn  Zn16  1  0.00000000  0.00000000  0.15000291  1
  Zn  Zn17  1  0.00000000  0.00000000  0.70001375  1
  Zn  Zn18  1  0.66666700  0.33333300  0.25000300  1
  Zn  Zn19  1  0.33333300  0.66666700  0.49999970  1
  S  S20  1  0.66666700  0.33333300  0.58749467  1
  S  S21  1  0.00000000  0.00000000  0.88749743  1
  S  S22  1  0.00000000  0.00000000  0.03752814  1
  S  S23  1  0.33333300  0.66666700  0.98746647  1
  S  S24  1  0.33333300  0.66666700  0.08749546  1
  S  S25  1  0.66666700  0.33333300  0.28749590  1
  S  S26  1  0.00000000  0.00000000  0.33746652  1
  S  S27  1  0.00000000  0.00000000  0.63746616  1
  S  S28  1  0.00000000  0.00000000  0.73749533  1
  S  S29  1  0.33333300  0.66666700  0.23749763  1
  S  S30  1  0.66666700  0.33333300  0.48746632  1
  S  S31  1  0.66666700  0.33333300  0.93749697  1
  S  S32  1  0.66666700  0.33333300  0.78749662  1
  S  S33  1  0.33333300  0.66666700  0.53752821  1
  S  S34  1  0.33333300  0.66666700  0.68752804  1
  S  S35  1  0.33333300  0.66666700  0.83749613  1
  S  S36  1  0.00000000  0.00000000  0.18749639  1
  S  S37  1  0.33333300  0.66666700  0.38752818  1
  S  S38  1  0.66666700  0.33333300  0.13749586  1
  S  S39  1  0.00000000  0.00000000  0.43749459  1
