# generated using pymatgen
data_EuTiClO3
_symmetry_space_group_name_H-M   'P 1'
_cell_length_a   3.92857371
_cell_length_b   5.30831511
_cell_length_c   10.26420467
_cell_angle_alpha   75.38858563
_cell_angle_beta   78.96710322
_cell_angle_gamma   68.28194205
_symmetry_Int_Tables_number   1
_chemical_formula_structural   EuTiClO3
_chemical_formula_sum   'Eu2 Ti2 Cl2 O6'
_cell_volume   191.27799725
_cell_formula_units_Z   2
loop_
 _symmetry_equiv_pos_site_id
 _symmetry_equiv_pos_as_xyz
  1  'x, y, z'
loop_
 _atom_site_type_symbol
 _atom_site_label
 _atom_site_symmetry_multiplicity
 _atom_site_fract_x
 _atom_site_fract_y
 _atom_site_fract_z
 _atom_site_occupancy
  Eu  Eu0  1  0.77935087  0.23940976  0.20188849  1
  Eu  Eu1  1  0.22064913  0.76059024  0.79811151  1
  Ti  Ti2  1  0.61917480  0.19702331  0.56462709  1
  Ti  Ti3  1  0.38082520  0.80297669  0.43537291  1
  Cl  Cl4  1  0.11190022  0.67897514  0.09722442  1
  Cl  Cl5  1  0.88809978  0.32102486  0.90277558  1
  O  O6  1  0.64938429  0.96323392  0.73799749  1
  O  O7  1  0.57640416  0.46650905  0.38068263  1
  O  O8  1  0.35061571  0.03676608  0.26200251  1
  O  O9  1  0.42359584  0.53349095  0.61931737  1
  O  O10  1  0.16688379  0.10658737  0.55964506  1
  O  O11  1  0.83311621  0.89341263  0.44035494  1
