# generated using pymatgen
data_ZnS
_symmetry_space_group_name_H-M   'P 1'
_cell_length_a   3.85400803
_cell_length_b   3.85400793
_cell_length_c   56.68972462
_cell_angle_alpha   90.00000000
_cell_angle_beta   90.00000000
_cell_angle_gamma   120.00000096
_symmetry_Int_Tables_number   1
_chemical_formula_structural   ZnS
_chemical_formula_sum   'Zn18 S18'
_cell_volume   729.22272417
_cell_formula_units_Z   18
loop_
 _symmetry_equiv_pos_site_id
 _symmetry_equiv_pos_as_xyz
  1  'x, y, z'
loop_
 _atom_site_type_symbol
 _atom_site_label
 _atom_site_symmetry_multiplicity
 _atom_site_fract_x
 _atom_site_fract_y
 _atom_site_fract_z
 _atom_site_occupancy
  Zn  Zn0  1  0.00000000  0.00000000  0.16666738  1
  Zn  Zn1  1  0.33333300  0.66666700  0.22222278  1
  Zn  Zn2  1  0.33333300  0.66666700  0.72221730  1
  Zn  Zn3  1  0.66666700  0.33333300  0.27777184  1
  Zn  Zn4  1  0.66666700  0.33333300  0.77777587  1
  Zn  Zn5  1  0.33333300  0.66666700  0.55557111  1
  Zn  Zn6  1  0.00000000  0.00000000  0.66666771  1
  Zn  Zn7  1  0.33333300  0.66666700  0.05556120  1
  Zn  Zn8  1  0.66666700  0.33333300  0.61111016  1
  Zn  Zn9  1  0.66666700  0.33333300  0.11111268  1
  Zn  Zn10  1  0.33333300  0.66666700  0.44444217  1
  Zn  Zn11  1  0.66666700  0.33333300  0.38891207  1
  Zn  Zn12  1  0.66666700  0.33333300  0.94443879  1
  Zn  Zn13  1  0.00000000  0.00000000  0.33332780  1
  Zn  Zn14  1  0.33333300  0.66666700  0.83334539  1
  Zn  Zn15  1  0.00000000  0.00000000  0.00001281  1
  Zn  Zn16  1  0.00000000  0.00000000  0.88888589  1
  Zn  Zn17  1  0.00000000  0.00000000  0.49999748  1
  S  S18  1  0.66666700  0.33333300  0.98614316  1
  S  S19  1  0.00000000  0.00000000  0.04166872  1
  S  S20  1  0.66666700  0.33333300  0.15277922  1
  S  S21  1  0.33333300  0.66666700  0.09722782  1
  S  S22  1  0.33333300  0.66666700  0.76385498  1
  S  S23  1  0.00000000  0.00000000  0.54170199  1
  S  S24  1  0.00000000  0.00000000  0.70833024  1
  S  S25  1  0.66666700  0.33333300  0.81947938  1
  S  S26  1  0.00000000  0.00000000  0.37503513  1
  S  S27  1  0.66666700  0.33333300  0.31940777  1
  S  S28  1  0.00000000  0.00000000  0.93052197  1
  S  S29  1  0.33333300  0.66666700  0.59721997  1
  S  S30  1  0.66666700  0.33333300  0.65277829  1
  S  S31  1  0.33333300  0.66666700  0.26388900  1
  S  S32  1  0.66666700  0.33333300  0.43056788  1
  S  S33  1  0.00000000  0.00000000  0.20833107  1
  S  S34  1  0.33333300  0.66666700  0.87499618  1
  S  S35  1  0.33333300  0.66666700  0.48607679  1
