# generated using pymatgen
data_Li2Te2O5
_symmetry_space_group_name_H-M   'P 1'
_cell_length_a   5.31802966
_cell_length_b   8.45116197
_cell_length_c   24.51529817
_cell_angle_alpha   90.00000000
_cell_angle_beta   90.00000000
_cell_angle_gamma   90.00000000
_symmetry_Int_Tables_number   1
_chemical_formula_structural   Li2Te2O5
_chemical_formula_sum   'Li16 Te16 O40'
_cell_volume   1101.80403920
_cell_formula_units_Z   8
loop_
 _symmetry_equiv_pos_site_id
 _symmetry_equiv_pos_as_xyz
  1  'x, y, z'
loop_
 _atom_site_type_symbol
 _atom_site_label
 _atom_site_symmetry_multiplicity
 _atom_site_fract_x
 _atom_site_fract_y
 _atom_site_fract_z
 _atom_site_occupancy
  Li  Li0  1  0.82577711  0.84065795  0.83091108  1
  Li  Li1  1  0.32577711  0.84065795  0.66908892  1
  Li  Li2  1  0.36332436  0.15267009  0.41829226  1
  Li  Li3  1  0.17422289  0.34065795  0.33091108  1
  Li  Li4  1  0.32577711  0.65934205  0.83091108  1
  Li  Li5  1  0.86332436  0.34732991  0.41829226  1
  Li  Li6  1  0.17422289  0.15934205  0.16908892  1
  Li  Li7  1  0.63667564  0.65267009  0.91829226  1
  Li  Li8  1  0.67422289  0.34065795  0.16908892  1
  Li  Li9  1  0.63667564  0.84732991  0.58170774  1
  Li  Li10  1  0.13667564  0.65267009  0.58170774  1
  Li  Li11  1  0.86332436  0.15267009  0.08170774  1
  Li  Li12  1  0.36332436  0.34732991  0.08170774  1
  Li  Li13  1  0.67422289  0.15934205  0.33091108  1
  Li  Li14  1  0.13667564  0.84732991  0.91829226  1
  Li  Li15  1  0.82577711  0.65934205  0.66908892  1
  Te  Te16  1  0.63815998  0.06706995  0.94345586  1
  Te  Te17  1  0.86184002  0.56706995  0.05654414  1
  Te  Te18  1  0.86184002  0.93293005  0.44345586  1
  Te  Te19  1  0.66654118  0.55914403  0.30602485  1
  Te  Te20  1  0.36184002  0.93293005  0.05654414  1
  Te  Te21  1  0.16654118  0.55914403  0.19397515  1
  Te  Te22  1  0.83345882  0.05914403  0.69397515  1
  Te  Te23  1  0.33345882  0.44085597  0.69397515  1
  Te  Te24  1  0.13815998  0.43293005  0.94345586  1
  Te  Te25  1  0.36184002  0.56706995  0.44345586  1
  Te  Te26  1  0.16654118  0.94085597  0.30602485  1
  Te  Te27  1  0.83345882  0.44085597  0.80602485  1
  Te  Te28  1  0.63815998  0.43293005  0.55654414  1
  Te  Te29  1  0.13815998  0.06706995  0.55654414  1
  Te  Te30  1  0.33345882  0.05914403  0.80602485  1
  Te  Te31  1  0.66654118  0.94085597  0.19397515  1
  O  O32  1  0.69460018  0.87857836  0.66124257  1
  O  O33  1  0.69196390  0.50162413  0.46595476  1
  O  O34  1  0.36487193  0.47117998  0.27841952  1
  O  O35  1  0.23519362  0.12609732  0.08297299  1
  O  O36  1  0.80803610  0.49837587  0.96595476  1
  O  O37  1  0.19196390  0.50162413  0.03404524  1
  O  O38  1  0.13512807  0.52882002  0.77841952  1
  O  O39  1  0.99802236  0.85501584  0.37210251  1
  O  O40  1  0.69460018  0.62142164  0.83875743  1
  O  O41  1  0.63512807  0.52882002  0.72158048  1
  O  O42  1  0.19196390  0.99837587  0.46595476  1
  O  O43  1  0.69196390  0.99837587  0.03404524  1
  O  O44  1  0.26480638  0.62609732  0.91702701  1
  O  O45  1  0.86487193  0.47117998  0.22158048  1
  O  O46  1  0.19460018  0.87857836  0.83875743  1
  O  O47  1  0.30539982  0.12142164  0.33875743  1
  O  O48  1  0.00197764  0.35501584  0.87210251  1
  O  O49  1  0.73519362  0.12609732  0.41702701  1
  O  O50  1  0.50197764  0.35501584  0.62789749  1
  O  O51  1  0.23519362  0.37390268  0.41702701  1
  O  O52  1  0.99802236  0.64498416  0.12789749  1
  O  O53  1  0.76480638  0.87390268  0.91702701  1
  O  O54  1  0.30803610  0.49837587  0.53404524  1
  O  O55  1  0.73519362  0.37390268  0.08297299  1
  O  O56  1  0.19460018  0.62142164  0.66124257  1
  O  O57  1  0.50197764  0.14498416  0.87210251  1
  O  O58  1  0.30803610  0.00162413  0.96595476  1
  O  O59  1  0.86487193  0.02882002  0.27841952  1
  O  O60  1  0.63512807  0.97117998  0.77841952  1
  O  O61  1  0.49802236  0.85501584  0.12789749  1
  O  O62  1  0.26480638  0.87390268  0.58297299  1
  O  O63  1  0.80539982  0.37857836  0.33875743  1
  O  O64  1  0.49802236  0.64498416  0.37210251  1
  O  O65  1  0.00197764  0.14498416  0.62789749  1
  O  O66  1  0.36487193  0.02882002  0.22158048  1
  O  O67  1  0.76480638  0.62609732  0.58297299  1
  O  O68  1  0.80803610  0.00162413  0.53404524  1
  O  O69  1  0.80539982  0.12142164  0.16124257  1
  O  O70  1  0.13512807  0.97117998  0.72158048  1
  O  O71  1  0.30539982  0.37857836  0.16124257  1
