# generated using pymatgen
data_K2FeF5
_symmetry_space_group_name_H-M   'P 1'
_cell_length_a   7.55211946
_cell_length_b   13.07149740
_cell_length_c   20.77700783
_cell_angle_alpha   90.00000000
_cell_angle_beta   90.00000000
_cell_angle_gamma   90.00000000
_symmetry_Int_Tables_number   1
_chemical_formula_structural   K2FeF5
_chemical_formula_sum   'K32 Fe16 F80'
_cell_volume   2051.05447586
_cell_formula_units_Z   16
loop_
 _symmetry_equiv_pos_site_id
 _symmetry_equiv_pos_as_xyz
  1  'x, y, z'
loop_
 _atom_site_type_symbol
 _atom_site_label
 _atom_site_symmetry_multiplicity
 _atom_site_fract_x
 _atom_site_fract_y
 _atom_site_fract_z
 _atom_site_occupancy
  F  F0  1  0.98995878  0.19769792  0.14022025  1
  F  F1  1  0.48995878  0.30230208  0.85977975  1
  F  F2  1  0.01004122  0.19769792  0.35977975  1
  F  F3  1  0.51004122  0.30230208  0.64022025  1
  F  F4  1  0.01004122  0.80230208  0.85977975  1
  F  F5  1  0.51004122  0.69769792  0.14022025  1
  F  F6  1  0.98995878  0.80230208  0.64022025  1
  F  F7  1  0.48995878  0.69769792  0.35977975  1
  F  F8  1  0.49585041  0.90451709  0.37689505  1
  F  F9  1  0.99585041  0.59548291  0.62310495  1
  F  F10  1  0.50414959  0.90451709  0.12310495  1
  F  F11  1  0.00414959  0.59548291  0.87689505  1
  F  F12  1  0.50414959  0.09548291  0.62310495  1
  F  F13  1  0.00414959  0.40451709  0.37689505  1
  F  F14  1  0.49585041  0.09548291  0.87689505  1
  F  F15  1  0.99585041  0.40451709  0.12310495  1
  F  F16  1  0.00000000  0.50000000  0.00000000  1
  F  F17  1  0.50000000  0.00000000  0.00000000  1
  F  F18  1  0.00000000  0.50000000  0.50000000  1
  F  F19  1  0.50000000  0.00000000  0.50000000  1
  F  F20  1  0.00000000  0.32176028  0.25000000  1
  F  F21  1  0.50000000  0.17823972  0.75000000  1
  F  F22  1  0.00000000  0.67823972  0.75000000  1
  F  F23  1  0.50000000  0.82176028  0.25000000  1
  F  F24  1  0.29895881  0.20599680  0.27788304  1
  F  F25  1  0.79895881  0.29400320  0.72211696  1
  F  F26  1  0.70104119  0.20599680  0.22211696  1
  F  F27  1  0.20104119  0.29400320  0.77788304  1
  F  F28  1  0.70104119  0.79400320  0.72211696  1
  F  F29  1  0.20104119  0.70599680  0.27788304  1
  F  F30  1  0.29895881  0.79400320  0.77788304  1
  F  F31  1  0.79895881  0.70599680  0.22211696  1
  F  F32  1  0.22365408  0.87797883  0.03953408  1
  F  F33  1  0.72365408  0.62202117  0.96046592  1
  F  F34  1  0.77634592  0.87797883  0.46046592  1
  F  F35  1  0.27634592  0.62202117  0.53953408  1
  F  F36  1  0.77634592  0.12202117  0.96046592  1
  F  F37  1  0.27634592  0.37797883  0.03953408  1
  F  F38  1  0.22365408  0.12202117  0.53953408  1
  F  F39  1  0.72365408  0.37797883  0.46046592  1
  F  F40  1  0.46806349  0.11113096  0.11191573  1
  F  F41  1  0.96806349  0.38886904  0.88808427  1
  F  F42  1  0.53193651  0.11113096  0.38808427  1
  F  F43  1  0.03193651  0.38886904  0.61191573  1
  F  F44  1  0.53193651  0.88886904  0.88808427  1
  F  F45  1  0.03193651  0.61113096  0.11191573  1
  F  F46  1  0.46806349  0.88886904  0.61191573  1
  F  F47  1  0.96806349  0.61113096  0.38808427  1
  F  F48  1  0.17821632  0.99111023  0.15126100  1
  F  F49  1  0.67821632  0.50888977  0.84873900  1
  F  F50  1  0.82178368  0.99111023  0.34873900  1
  F  F51  1  0.32178368  0.50888977  0.65126100  1
  F  F52  1  0.82178368  0.00888977  0.84873900  1
  F  F53  1  0.32178368  0.49111023  0.15126100  1
  F  F54  1  0.17821632  0.00888977  0.65126100  1
  F  F55  1  0.67821632  0.49111023  0.34873900  1
  F  F56  1  0.17547282  0.91169575  0.52945335  1
  F  F57  1  0.67547282  0.58830425  0.47054665  1
  F  F58  1  0.82452718  0.91169575  0.97054665  1
  F  F59  1  0.32452718  0.58830425  0.02945335  1
  F  F60  1  0.82452718  0.08830425  0.47054665  1
  F  F61  1  0.32452718  0.41169575  0.52945335  1
  F  F62  1  0.17547282  0.08830425  0.02945335  1
  F  F63  1  0.67547282  0.41169575  0.97054665  1
  F  F64  1  0.20817733  0.92187290  0.29657027  1
  F  F65  1  0.70817733  0.57812710  0.70342973  1
  F  F66  1  0.79182267  0.92187290  0.20342973  1
  F  F67  1  0.29182267  0.57812710  0.79657027  1
  F  F68  1  0.79182267  0.07812710  0.70342973  1
  F  F69  1  0.29182267  0.42187290  0.29657027  1
  F  F70  1  0.20817733  0.07812710  0.79657027  1
  F  F71  1  0.70817733  0.42187290  0.20342973  1
  F  F72  1  0.31291043  0.29921379  0.40314439  1
  F  F73  1  0.81291043  0.20078621  0.59685561  1
  F  F74  1  0.68708957  0.29921379  0.09685561  1
  F  F75  1  0.18708957  0.20078621  0.90314439  1
  F  F76  1  0.68708957  0.70078621  0.59685561  1
  F  F77  1  0.18708957  0.79921379  0.40314439  1
  F  F78  1  0.31291043  0.70078621  0.90314439  1
  F  F79  1  0.81291043  0.79921379  0.09685561  1
  K  K80  1  0.00000000  0.07386867  0.25000000  1
  K  K81  1  0.50000000  0.42613133  0.75000000  1
  K  K82  1  0.00000000  0.92613133  0.75000000  1
  K  K83  1  0.50000000  0.57386867  0.25000000  1
  K  K84  1  0.00000000  0.53602402  0.25000000  1
  K  K85  1  0.50000000  0.96397598  0.75000000  1
  K  K86  1  0.00000000  0.46397598  0.75000000  1
  K  K87  1  0.50000000  0.03602402  0.25000000  1
  K  K88  1  0.15869094  0.01926390  0.41655353  1
  K  K89  1  0.65869094  0.48073610  0.58344647  1
  K  K90  1  0.84130906  0.01926390  0.08344647  1
  K  K91  1  0.34130906  0.48073610  0.91655353  1
  K  K92  1  0.84130906  0.98073610  0.58344647  1
  K  K93  1  0.34130906  0.51926390  0.41655353  1
  K  K94  1  0.15869094  0.98073610  0.91655353  1
  K  K95  1  0.65869094  0.51926390  0.08344647  1
  K  K96  1  0.14895175  0.78754714  0.16273492  1
  K  K97  1  0.64895175  0.71245286  0.83726508  1
  K  K98  1  0.85104825  0.78754714  0.33726508  1
  K  K99  1  0.35104825  0.71245286  0.66273492  1
  K  K100  1  0.85104825  0.21245286  0.83726508  1
  K  K101  1  0.35104825  0.28754714  0.16273492  1
  K  K102  1  0.14895175  0.21245286  0.66273492  1
  K  K103  1  0.64895175  0.28754714  0.33726508  1
  K  K104  1  0.48762429  0.23089496  0.99306990  1
  K  K105  1  0.98762429  0.26910504  0.00693010  1
  K  K106  1  0.51237571  0.23089496  0.50693010  1
  K  K107  1  0.01237571  0.26910504  0.49306990  1
  K  K108  1  0.51237571  0.76910504  0.00693010  1
  K  K109  1  0.01237571  0.73089496  0.99306990  1
  K  K110  1  0.48762429  0.76910504  0.49306990  1
  K  K111  1  0.98762429  0.73089496  0.50693010  1
  Fe  Fe112  1  0.66952479  0.00102443  0.42227389  1
  Fe  Fe113  1  0.16952479  0.49897557  0.57772611  1
  Fe  Fe114  1  0.33047521  0.00102443  0.07772611  1
  Fe  Fe115  1  0.83047521  0.49897557  0.92227389  1
  Fe  Fe116  1  0.33047521  0.99897557  0.57772611  1
  Fe  Fe117  1  0.83047521  0.50102443  0.42227389  1
  Fe  Fe118  1  0.66952479  0.99897557  0.92227389  1
  Fe  Fe119  1  0.16952479  0.50102443  0.07772611  1
  Fe  Fe120  1  0.33612335  0.80328993  0.32832221  1
  Fe  Fe121  1  0.83612335  0.69671007  0.67167779  1
  Fe  Fe122  1  0.66387665  0.80328993  0.17167779  1
  Fe  Fe123  1  0.16387665  0.69671007  0.82832221  1
  Fe  Fe124  1  0.66387665  0.19671007  0.67167779  1
  Fe  Fe125  1  0.16387665  0.30328993  0.32832221  1
  Fe  Fe126  1  0.33612335  0.19671007  0.82832221  1
  Fe  Fe127  1  0.83612335  0.30328993  0.17167779  1
