# generated using pymatgen
data_ZnS
_symmetry_space_group_name_H-M   'P 1'
_cell_length_a   3.85294473
_cell_length_b   3.85294463
_cell_length_c   69.26189309
_cell_angle_alpha   90.00000000
_cell_angle_beta   90.00000000
_cell_angle_gamma   120.00000092
_symmetry_Int_Tables_number   1
_chemical_formula_structural   ZnS
_chemical_formula_sum   'Zn22 S22'
_cell_volume   890.45203883
_cell_formula_units_Z   22
loop_
 _symmetry_equiv_pos_site_id
 _symmetry_equiv_pos_as_xyz
  1  'x, y, z'
loop_
 _atom_site_type_symbol
 _atom_site_label
 _atom_site_symmetry_multiplicity
 _atom_site_fract_x
 _atom_site_fract_y
 _atom_site_fract_z
 _atom_site_occupancy
  Zn  Zn0  1  0.66666700  0.33333300  0.40909430  1
  Zn  Zn1  1  0.33333300  0.66666700  0.68181727  1
  Zn  Zn2  1  0.00000000  0.00000000  0.86361928  1
  Zn  Zn3  1  0.33333300  0.66666700  0.31816566  1
  Zn  Zn4  1  0.33333300  0.66666700  0.95451613  1
  Zn  Zn5  1  0.33333300  0.66666700  0.04547846  1
  Zn  Zn6  1  0.00000000  0.00000000  0.27271507  1
  Zn  Zn7  1  0.00000000  0.00000000  0.13639637  1
  Zn  Zn8  1  0.66666700  0.33333300  0.90909581  1
  Zn  Zn9  1  0.33333300  0.66666700  0.18182054  1
  Zn  Zn10  1  0.66666700  0.33333300  0.09090434  1
  Zn  Zn11  1  0.66666700  0.33333300  0.77271954  1
  Zn  Zn12  1  0.33333300  0.66666700  0.45451617  1
  Zn  Zn13  1  0.66666700  0.33333300  0.59090447  1
  Zn  Zn14  1  0.00000000  0.00000000  0.99999560  1
  Zn  Zn15  1  0.66666700  0.33333300  0.22729605  1
  Zn  Zn16  1  0.33333300  0.66666700  0.54547844  1
  Zn  Zn17  1  0.00000000  0.00000000  0.63639230  1
  Zn  Zn18  1  0.33333300  0.66666700  0.81819594  1
  Zn  Zn19  1  0.00000000  0.00000000  0.49999559  1
  Zn  Zn20  1  0.00000000  0.00000000  0.72730549  1
  Zn  Zn21  1  0.00000000  0.00000000  0.36361130  1
  S  S22  1  0.00000000  0.00000000  0.76137531  1
  S  S23  1  0.00000000  0.00000000  0.53411741  1
  S  S24  1  0.00000000  0.00000000  0.30677391  1
  S  S25  1  0.33333300  0.66666700  0.07953638  1
  S  S26  1  0.33333300  0.66666700  0.35226301  1
  S  S27  1  0.33333300  0.66666700  0.48858103  1
  S  S28  1  0.66666700  0.33333300  0.94317731  1
  S  S29  1  0.00000000  0.00000000  0.67044950  1
  S  S30  1  0.33333300  0.66666700  0.85227822  1
  S  S31  1  0.00000000  0.00000000  0.89770661  1
  S  S32  1  0.33333300  0.66666700  0.71593173  1
  S  S33  1  0.33333300  0.66666700  0.57953643  1
  S  S34  1  0.66666700  0.33333300  0.26137784  1
  S  S35  1  0.66666700  0.33333300  0.62500027  1
  S  S36  1  0.00000000  0.00000000  0.17047376  1
  S  S37  1  0.66666700  0.33333300  0.44317682  1
  S  S38  1  0.33333300  0.66666700  0.21590745  1
  S  S39  1  0.33333300  0.66666700  0.98858099  1
  S  S40  1  0.00000000  0.00000000  0.39769862  1
  S  S41  1  0.66666700  0.33333300  0.12500046  1
  S  S42  1  0.00000000  0.00000000  0.03411746  1
  S  S43  1  0.66666700  0.33333300  0.80680534  1
