# generated using pymatgen
data_ZnS
_symmetry_space_group_name_H-M   'P 1'
_cell_length_a   3.85402293
_cell_length_b   3.85402289
_cell_length_c   50.39295088
_cell_angle_alpha   90.00000000
_cell_angle_beta   90.00000000
_cell_angle_gamma   120.00000026
_symmetry_Int_Tables_number   1
_chemical_formula_structural   ZnS
_chemical_formula_sum   'Zn16 S16'
_cell_volume   648.22981848
_cell_formula_units_Z   16
loop_
 _symmetry_equiv_pos_site_id
 _symmetry_equiv_pos_as_xyz
  1  'x, y, z'
loop_
 _atom_site_type_symbol
 _atom_site_label
 _atom_site_symmetry_multiplicity
 _atom_site_fract_x
 _atom_site_fract_y
 _atom_site_fract_z
 _atom_site_occupancy
  Zn  Zn0  1  0.33333300  0.66666700  0.62501246  1
  Zn  Zn1  1  0.66666700  0.33333300  0.12501329  1
  Zn  Zn2  1  0.00000000  0.00000000  0.37500800  1
  Zn  Zn3  1  0.33333300  0.66666700  0.06252724  1
  Zn  Zn4  1  0.66666700  0.33333300  0.50000770  1
  Zn  Zn5  1  0.33333300  0.66666700  0.25000399  1
  Zn  Zn6  1  0.66666700  0.33333300  0.31250183  1
  Zn  Zn7  1  0.00000000  0.00000000  0.75000328  1
  Zn  Zn8  1  0.66666700  0.33333300  0.68751109  1
  Zn  Zn9  1  0.00000000  0.00000000  0.18751149  1
  Zn  Zn10  1  0.33333300  0.66666700  0.43751610  1
  Zn  Zn11  1  0.33333300  0.66666700  0.93752345  1
  Zn  Zn12  1  0.00000000  0.00000000  0.56250183  1
  Zn  Zn13  1  0.66666700  0.33333300  0.87500309  1
  Zn  Zn14  1  0.33333300  0.66666700  0.81248249  1
  Zn  Zn15  1  0.00000000  0.00000000  0.00000479  1
  S  S16  1  0.00000000  0.00000000  0.23435200  1
  S  S17  1  0.33333300  0.66666700  0.29685469  1
  S  S18  1  0.66666700  0.33333300  0.35936744  1
  S  S19  1  0.66666700  0.33333300  0.54686571  1
  S  S20  1  0.33333300  0.66666700  0.10936653  1
  S  S21  1  0.66666700  0.33333300  0.73435180  1
  S  S22  1  0.33333300  0.66666700  0.98432378  1
  S  S23  1  0.66666700  0.33333300  0.92190517  1
  S  S24  1  0.00000000  0.00000000  0.79685013  1
  S  S25  1  0.33333300  0.66666700  0.67186744  1
  S  S26  1  0.00000000  0.00000000  0.42186455  1
  S  S27  1  0.33333300  0.66666700  0.85931425  1
  S  S28  1  0.00000000  0.00000000  0.60936304  1
  S  S29  1  0.00000000  0.00000000  0.04690924  1
  S  S30  1  0.66666700  0.33333300  0.17186754  1
  S  S31  1  0.33333300  0.66666700  0.48436455  1
