# generated using pymatgen
data_ZnS
_symmetry_space_group_name_H-M   'P 1'
_cell_length_a   3.85396025
_cell_length_b   3.85396014
_cell_length_c   56.68944549
_cell_angle_alpha   90.00000000
_cell_angle_beta   90.00000000
_cell_angle_gamma   120.00000084
_symmetry_Int_Tables_number   1
_chemical_formula_structural   ZnS
_chemical_formula_sum   'Zn18 S18'
_cell_volume   729.20105247
_cell_formula_units_Z   18
loop_
 _symmetry_equiv_pos_site_id
 _symmetry_equiv_pos_as_xyz
  1  'x, y, z'
loop_
 _atom_site_type_symbol
 _atom_site_label
 _atom_site_symmetry_multiplicity
 _atom_site_fract_x
 _atom_site_fract_y
 _atom_site_fract_z
 _atom_site_occupancy
  Zn  Zn0  1  0.00000000  0.00000000  0.16666776  1
  Zn  Zn1  1  0.66666700  0.33333300  0.27777360  1
  Zn  Zn2  1  0.00000000  0.00000000  0.38889128  1
  Zn  Zn3  1  0.33333300  0.66666700  0.33334390  1
  Zn  Zn4  1  0.33333300  0.66666700  0.05556147  1
  Zn  Zn5  1  0.33333300  0.66666700  0.61112482  1
  Zn  Zn6  1  0.66666700  0.33333300  0.11111268  1
  Zn  Zn7  1  0.00000000  0.00000000  0.00001311  1
  Zn  Zn8  1  0.66666700  0.33333300  0.44444295  1
  Zn  Zn9  1  0.33333300  0.66666700  0.22221738  1
  Zn  Zn10  1  0.00000000  0.00000000  0.55555780  1
  Zn  Zn11  1  0.00000000  0.00000000  0.72221917  1
  Zn  Zn12  1  0.66666700  0.33333300  0.77779203  1
  Zn  Zn13  1  0.66666700  0.33333300  0.94443889  1
  Zn  Zn14  1  0.33333300  0.66666700  0.83333293  1
  Zn  Zn15  1  0.66666700  0.33333300  0.66666191  1
  Zn  Zn16  1  0.33333300  0.66666700  0.49999560  1
  Zn  Zn17  1  0.00000000  0.00000000  0.88888644  1
  S  S18  1  0.66666700  0.33333300  0.70829790  1
  S  S19  1  0.33333300  0.66666700  0.87499891  1
  S  S20  1  0.33333300  0.66666700  0.54163425  1
  S  S21  1  0.00000000  0.00000000  0.04166850  1
  S  S22  1  0.66666700  0.33333300  0.48610677  1
  S  S23  1  0.00000000  0.00000000  0.93052223  1
  S  S24  1  0.00000000  0.00000000  0.59726039  1
  S  S25  1  0.66666700  0.33333300  0.15277923  1
  S  S26  1  0.33333300  0.66666700  0.09722772  1
  S  S27  1  0.66666700  0.33333300  0.98614317  1
  S  S28  1  0.66666700  0.33333300  0.81944532  1
  S  S29  1  0.00000000  0.00000000  0.43055747  1
  S  S30  1  0.33333300  0.66666700  0.26385417  1
  S  S31  1  0.33333300  0.66666700  0.65277455  1
  S  S32  1  0.33333300  0.66666700  0.37499618  1
  S  S33  1  0.00000000  0.00000000  0.76392333  1
  S  S34  1  0.66666700  0.33333300  0.31947577  1
  S  S35  1  0.00000000  0.00000000  0.20833042  1
