# generated using pymatgen
data_ZnS
_symmetry_space_group_name_H-M   'P 1'
_cell_length_a   3.85425730
_cell_length_b   3.85425719
_cell_length_c   56.67484821
_cell_angle_alpha   90.00000000
_cell_angle_beta   90.00000000
_cell_angle_gamma   120.00000093
_symmetry_Int_Tables_number   1
_chemical_formula_structural   ZnS
_chemical_formula_sum   'Zn18 S18'
_cell_volume   729.12566983
_cell_formula_units_Z   18
loop_
 _symmetry_equiv_pos_site_id
 _symmetry_equiv_pos_as_xyz
  1  'x, y, z'
loop_
 _atom_site_type_symbol
 _atom_site_label
 _atom_site_symmetry_multiplicity
 _atom_site_fract_x
 _atom_site_fract_y
 _atom_site_fract_z
 _atom_site_occupancy
  Zn  Zn0  1  0.00000000  0.00000000  0.16666785  1
  Zn  Zn1  1  0.33333300  0.66666700  0.72221774  1
  Zn  Zn2  1  0.66666700  0.33333300  0.27777749  1
  Zn  Zn3  1  0.33333300  0.66666700  0.55556192  1
  Zn  Zn4  1  0.33333300  0.66666700  0.05556147  1
  Zn  Zn5  1  0.66666700  0.33333300  0.61111267  1
  Zn  Zn6  1  0.00000000  0.00000000  0.66666802  1
  Zn  Zn7  1  0.66666700  0.33333300  0.11111292  1
  Zn  Zn8  1  0.66666700  0.33333300  0.44444290  1
  Zn  Zn9  1  0.33333300  0.66666700  0.22222295  1
  Zn  Zn10  1  0.66666700  0.33333300  0.77777617  1
  Zn  Zn11  1  0.66666700  0.33333300  0.94443917  1
  Zn  Zn12  1  0.33333300  0.66666700  0.38889183  1
  Zn  Zn13  1  0.00000000  0.00000000  0.33333166  1
  Zn  Zn14  1  0.33333300  0.66666700  0.83334567  1
  Zn  Zn15  1  0.00000000  0.00000000  0.00001318  1
  Zn  Zn16  1  0.00000000  0.00000000  0.88888619  1
  Zn  Zn17  1  0.00000000  0.00000000  0.50000113  1
  S  S18  1  0.66666700  0.33333300  0.98614301  1
  S  S19  1  0.00000000  0.00000000  0.04166735  1
  S  S20  1  0.66666700  0.33333300  0.48610801  1
  S  S21  1  0.33333300  0.66666700  0.43055743  1
  S  S22  1  0.66666700  0.33333300  0.65277897  1
  S  S23  1  0.66666700  0.33333300  0.15277880  1
  S  S24  1  0.00000000  0.00000000  0.54166928  1
  S  S25  1  0.33333300  0.66666700  0.09722787  1
  S  S26  1  0.33333300  0.66666700  0.76385477  1
  S  S27  1  0.00000000  0.00000000  0.70833077  1
  S  S28  1  0.66666700  0.33333300  0.81947936  1
  S  S29  1  0.00000000  0.00000000  0.37499773  1
  S  S30  1  0.00000000  0.00000000  0.93052184  1
  S  S31  1  0.33333300  0.66666700  0.59722823  1
  S  S32  1  0.33333300  0.66666700  0.26388825  1
  S  S33  1  0.66666700  0.33333300  0.31943923  1
  S  S34  1  0.00000000  0.00000000  0.20833147  1
  S  S35  1  0.33333300  0.66666700  0.87499668  1
