# generated using pymatgen
data_NaBi2Sb3O11
_symmetry_space_group_name_H-M   'P 1'
_cell_length_a   9.64539740
_cell_length_b   9.64539740
_cell_length_c   9.64539740
_cell_angle_alpha   90.00000000
_cell_angle_beta   90.00000000
_cell_angle_gamma   90.00000000
_symmetry_Int_Tables_number   1
_chemical_formula_structural   NaBi2Sb3O11
_chemical_formula_sum   'Na4 Bi8 Sb12 O44'
_cell_volume   897.34692132
_cell_formula_units_Z   4
loop_
 _symmetry_equiv_pos_site_id
 _symmetry_equiv_pos_as_xyz
  1  'x, y, z'
loop_
 _atom_site_type_symbol
 _atom_site_label
 _atom_site_symmetry_multiplicity
 _atom_site_fract_x
 _atom_site_fract_y
 _atom_site_fract_z
 _atom_site_occupancy
  Na  Na0  1  0.50000000  0.50000000  0.00000000  1
  Na  Na1  1  0.00000000  0.00000000  0.00000000  1
  Na  Na2  1  0.00000000  0.50000000  0.50000000  1
  Na  Na3  1  0.50000000  0.00000000  0.50000000  1
  Bi  Bi4  1  0.12396988  0.12396988  0.37603012  1
  Bi  Bi5  1  0.62396988  0.87603012  0.87603012  1
  Bi  Bi6  1  0.62396988  0.62396988  0.62396988  1
  Bi  Bi7  1  0.12396988  0.37603012  0.12396988  1
  Bi  Bi8  1  0.87603012  0.62396988  0.87603012  1
  Bi  Bi9  1  0.37603012  0.37603012  0.37603012  1
  Bi  Bi10  1  0.37603012  0.12396988  0.12396988  1
  Bi  Bi11  1  0.87603012  0.87603012  0.62396988  1
  Sb  Sb12  1  0.75000000  0.08936323  0.25000000  1
  Sb  Sb13  1  0.25000000  0.58936323  0.75000000  1
  Sb  Sb14  1  0.58936323  0.75000000  0.25000000  1
  Sb  Sb15  1  0.75000000  0.25000000  0.91063677  1
  Sb  Sb16  1  0.91063677  0.75000000  0.25000000  1
  Sb  Sb17  1  0.41063677  0.25000000  0.75000000  1
  Sb  Sb18  1  0.25000000  0.91063677  0.75000000  1
  Sb  Sb19  1  0.75000000  0.25000000  0.58936323  1
  Sb  Sb20  1  0.25000000  0.75000000  0.41063677  1
  Sb  Sb21  1  0.25000000  0.75000000  0.08936323  1
  Sb  Sb22  1  0.08936323  0.25000000  0.75000000  1
  Sb  Sb23  1  0.75000000  0.41063677  0.25000000  1
  O  O24  1  0.25000000  0.88708764  0.25000000  1
  O  O25  1  0.08850674  0.46091016  0.75010800  1
  O  O26  1  0.96091016  0.24989200  0.58850674  1
  O  O27  1  0.75000000  0.11291236  0.75000000  1
  O  O28  1  0.25000000  0.25000000  0.88708764  1
  O  O29  1  0.91149326  0.96091016  0.25010800  1
  O  O30  1  0.53908984  0.24989200  0.91149326  1
  O  O31  1  0.11291236  0.75000000  0.75000000  1
  O  O32  1  0.03908984  0.75010800  0.41149326  1
  O  O33  1  0.75000000  0.75000000  0.38708764  1
  O  O34  1  0.46091016  0.75010800  0.08850674  1
  O  O35  1  0.24989200  0.91149326  0.53908984  1
  O  O36  1  0.88708764  0.25000000  0.25000000  1
  O  O37  1  0.08850674  0.03908984  0.74989200  1
  O  O38  1  0.64716493  0.85283507  0.64716493  1
  O  O39  1  0.75000000  0.38708764  0.75000000  1
  O  O40  1  0.75010800  0.08850674  0.46091016  1
  O  O41  1  0.14716493  0.35283507  0.35283507  1
  O  O42  1  0.38708764  0.75000000  0.75000000  1
  O  O43  1  0.75000000  0.75000000  0.11291236  1
  O  O44  1  0.58850674  0.53908984  0.25010800  1
  O  O45  1  0.25010800  0.58850674  0.53908984  1
  O  O46  1  0.61291236  0.25000000  0.25000000  1
  O  O47  1  0.91149326  0.53908984  0.24989200  1
  O  O48  1  0.35283507  0.14716493  0.35283507  1
  O  O49  1  0.53908984  0.25010800  0.58850674  1
  O  O50  1  0.96091016  0.25010800  0.91149326  1
  O  O51  1  0.58850674  0.96091016  0.24989200  1
  O  O52  1  0.14716493  0.14716493  0.14716493  1
  O  O53  1  0.24989200  0.58850674  0.96091016  1
  O  O54  1  0.85283507  0.64716493  0.64716493  1
  O  O55  1  0.41149326  0.46091016  0.74989200  1
  O  O56  1  0.41149326  0.03908984  0.75010800  1
  O  O57  1  0.74989200  0.08850674  0.03908984  1
  O  O58  1  0.25000000  0.61291236  0.25000000  1
  O  O59  1  0.75010800  0.41149326  0.03908984  1
  O  O60  1  0.25010800  0.91149326  0.96091016  1
  O  O61  1  0.46091016  0.74989200  0.41149326  1
  O  O62  1  0.03908984  0.74989200  0.08850674  1
  O  O63  1  0.64716493  0.64716493  0.85283507  1
  O  O64  1  0.85283507  0.85283507  0.85283507  1
  O  O65  1  0.35283507  0.35283507  0.14716493  1
  O  O66  1  0.25000000  0.25000000  0.61291236  1
  O  O67  1  0.74989200  0.41149326  0.46091016  1
