# generated using pymatgen
data_Rb10Si6O17
_symmetry_space_group_name_H-M   'P 1'
_cell_length_a   13.01633467
_cell_length_b   13.80648173
_cell_length_c   14.00063286
_cell_angle_alpha   90.00000000
_cell_angle_beta   90.00000000
_cell_angle_gamma   90.00000000
_symmetry_Int_Tables_number   1
_chemical_formula_structural   Rb10Si6O17
_chemical_formula_sum   'Rb40 Si24 O68'
_cell_volume   2516.05074652
_cell_formula_units_Z   4
loop_
 _symmetry_equiv_pos_site_id
 _symmetry_equiv_pos_as_xyz
  1  'x, y, z'
loop_
 _atom_site_type_symbol
 _atom_site_label
 _atom_site_symmetry_multiplicity
 _atom_site_fract_x
 _atom_site_fract_y
 _atom_site_fract_z
 _atom_site_occupancy
  Rb  Rb0  1  0.47013031  0.78341295  0.85941512  1
  Rb  Rb1  1  0.71009945  0.71163982  0.06090123  1
  Rb  Rb2  1  0.14990373  0.96509259  0.46081144  1
  Rb  Rb3  1  0.06390921  0.98961902  0.77493155  1
  Rb  Rb4  1  0.56390921  0.51038098  0.22506845  1
  Rb  Rb5  1  0.85009627  0.46509259  0.03918856  1
  Rb  Rb6  1  0.20188679  0.62494029  0.70776249  1
  Rb  Rb7  1  0.28990055  0.28836018  0.93909877  1
  Rb  Rb8  1  0.56390921  0.98961902  0.72506845  1
  Rb  Rb9  1  0.52986969  0.21658705  0.14058488  1
  Rb  Rb10  1  0.97013031  0.71658705  0.14058488  1
  Rb  Rb11  1  0.47013031  0.71658705  0.35941512  1
  Rb  Rb12  1  0.02986969  0.21658705  0.35941512  1
  Rb  Rb13  1  0.78990055  0.28836018  0.56090123  1
  Rb  Rb14  1  0.29811321  0.12494029  0.70776249  1
  Rb  Rb15  1  0.52986969  0.28341295  0.64058488  1
  Rb  Rb16  1  0.71009945  0.78836018  0.56090123  1
  Rb  Rb17  1  0.64990373  0.96509259  0.03918856  1
  Rb  Rb18  1  0.93609079  0.48961902  0.72506845  1
  Rb  Rb19  1  0.64990373  0.53490741  0.53918856  1
  Rb  Rb20  1  0.06390921  0.51038098  0.27493155  1
  Rb  Rb21  1  0.79811321  0.37505971  0.29223751  1
  Rb  Rb22  1  0.79811321  0.12494029  0.79223751  1
  Rb  Rb23  1  0.29811321  0.37505971  0.20776249  1
  Rb  Rb24  1  0.28990055  0.21163982  0.43909877  1
  Rb  Rb25  1  0.97013031  0.78341295  0.64058488  1
  Rb  Rb26  1  0.78990055  0.21163982  0.06090123  1
  Rb  Rb27  1  0.14990373  0.53490741  0.96081144  1
  Rb  Rb28  1  0.20188679  0.87505971  0.20776249  1
  Rb  Rb29  1  0.21009945  0.78836018  0.93909877  1
  Rb  Rb30  1  0.70188679  0.62494029  0.79223751  1
  Rb  Rb31  1  0.43609079  0.48961902  0.77493155  1
  Rb  Rb32  1  0.70188679  0.87505971  0.29223751  1
  Rb  Rb33  1  0.43609079  0.01038098  0.27493155  1
  Rb  Rb34  1  0.35009627  0.46509259  0.46081144  1
  Rb  Rb35  1  0.21009945  0.71163982  0.43909877  1
  Rb  Rb36  1  0.35009627  0.03490741  0.96081144  1
  Rb  Rb37  1  0.93609079  0.01038098  0.22506845  1
  Rb  Rb38  1  0.85009627  0.03490741  0.53918856  1
  Rb  Rb39  1  0.02986969  0.28341295  0.85941512  1
  Si  Si40  1  0.91772036  0.90972006  0.98699018  1
  Si  Si41  1  0.44473013  0.78320941  0.11381465  1
  Si  Si42  1  0.55526987  0.21679059  0.88618535  1
  Si  Si43  1  0.05526987  0.21679059  0.61381465  1
  Si  Si44  1  0.58227964  0.40972006  0.98699018  1
  Si  Si45  1  0.71775879  0.13092995  0.31653298  1
  Si  Si46  1  0.44473013  0.71679059  0.61381465  1
  Si  Si47  1  0.28224121  0.86907005  0.68346702  1
  Si  Si48  1  0.08227964  0.09027994  0.01300982  1
  Si  Si49  1  0.21775879  0.36907005  0.68346702  1
  Si  Si50  1  0.91772036  0.59027994  0.48699018  1
  Si  Si51  1  0.05526987  0.28320941  0.11381465  1
  Si  Si52  1  0.41772036  0.90972006  0.51300982  1
  Si  Si53  1  0.21775879  0.13092995  0.18346702  1
  Si  Si54  1  0.94473013  0.78320941  0.38618535  1
  Si  Si55  1  0.28224121  0.63092995  0.18346702  1
  Si  Si56  1  0.41772036  0.59027994  0.01300982  1
  Si  Si57  1  0.08227964  0.40972006  0.51300982  1
  Si  Si58  1  0.78224121  0.63092995  0.31653298  1
  Si  Si59  1  0.58227964  0.09027994  0.48699018  1
  Si  Si60  1  0.71775879  0.36907005  0.81653298  1
  Si  Si61  1  0.78224121  0.86907005  0.81653298  1
  Si  Si62  1  0.94473013  0.71679059  0.88618535  1
  Si  Si63  1  0.55526987  0.28320941  0.38618535  1
  O  O64  1  0.35440081  0.88731005  0.41772315  1
  O  O65  1  0.03986384  0.67443941  0.82516902  1
  O  O66  1  0.35838778  0.73046380  0.18814742  1
  O  O67  1  0.14559919  0.38731005  0.41772315  1
  O  O68  1  0.34657978  0.94371270  0.60589284  1
  O  O69  1  0.38658346  0.64198693  0.54382220  1
  O  O70  1  0.53986384  0.67443941  0.67483098  1
  O  O71  1  0.85838778  0.76953620  0.81185258  1
  O  O72  1  0.17171970  0.65776768  0.13839744  1
  O  O73  1  0.28382876  0.57886795  0.28690828  1
  O  O74  1  0.51166522  0.18449964  0.45016023  1
  O  O75  1  0.78382876  0.92113205  0.71309172  1
  O  O76  1  0.51166522  0.31550036  0.95016023  1
  O  O77  1  0.64161222  0.23046380  0.31185258  1
  O  O78  1  0.71617124  0.42113205  0.71309172  1
  O  O79  1  0.15342022  0.05628730  0.10589284  1
  O  O80  1  0.34657978  0.55628730  0.10589284  1
  O  O81  1  0.84657978  0.94371270  0.89410716  1
  O  O82  1  0.46013616  0.32556059  0.32516902  1
  O  O83  1  0.01166522  0.31550036  0.54983977  1
  O  O84  1  0.85440081  0.61268995  0.58227685  1
  O  O85  1  0.21617124  0.07886795  0.28690828  1
  O  O86  1  0.78382876  0.57886795  0.21309172  1
  O  O87  1  0.15342022  0.44371270  0.60589284  1
  O  O88  1  0.14559919  0.11268995  0.91772315  1
  O  O89  1  0.84657978  0.55628730  0.39410716  1
  O  O90  1  0.98833478  0.68449964  0.45016023  1
  O  O91  1  0.32828030  0.15776768  0.13839744  1
  O  O92  1  0.11341654  0.14198693  0.54382220  1
  O  O93  1  0.98833478  0.81550036  0.95016023  1
  O  O94  1  0.01166522  0.18449964  0.04983977  1
  O  O95  1  0.67171970  0.84223232  0.86160256  1
  O  O96  1  0.71617124  0.07886795  0.21309172  1
  O  O97  1  0.00000000  0.00000000  0.00000000  1
  O  O98  1  0.53986384  0.82556059  0.17483098  1
  O  O99  1  0.50000000  0.00000000  0.50000000  1
  O  O100  1  0.85440081  0.88731005  0.08227685  1
  O  O101  1  0.65342022  0.05628730  0.39410716  1
  O  O102  1  0.67171970  0.65776768  0.36160256  1
  O  O103  1  0.61341654  0.35801307  0.45617780  1
  O  O104  1  0.46013616  0.17443941  0.82516902  1
  O  O105  1  0.82828030  0.34223232  0.86160256  1
  O  O106  1  0.32828030  0.34223232  0.63839744  1
  O  O107  1  0.96013616  0.32556059  0.17483098  1
  O  O108  1  0.48833478  0.68449964  0.04983977  1
  O  O109  1  0.48833478  0.81550036  0.54983977  1
  O  O110  1  0.61341654  0.14198693  0.95617780  1
  O  O111  1  0.00000000  0.50000000  0.50000000  1
  O  O112  1  0.50000000  0.50000000  0.00000000  1
  O  O113  1  0.96013616  0.17443941  0.67483098  1
  O  O114  1  0.65342022  0.44371270  0.89410716  1
  O  O115  1  0.11341654  0.35801307  0.04382220  1
  O  O116  1  0.35440081  0.61268995  0.91772315  1
  O  O117  1  0.64559919  0.11268995  0.58227685  1
  O  O118  1  0.38658346  0.85801307  0.04382220  1
  O  O119  1  0.88658346  0.85801307  0.45617780  1
  O  O120  1  0.82828030  0.15776768  0.36160256  1
  O  O121  1  0.64161222  0.26953620  0.81185258  1
  O  O122  1  0.21617124  0.42113205  0.78690828  1
  O  O123  1  0.35838778  0.76953620  0.68814742  1
  O  O124  1  0.64559919  0.38731005  0.08227685  1
  O  O125  1  0.28382876  0.92113205  0.78690828  1
  O  O126  1  0.14161222  0.23046380  0.18814742  1
  O  O127  1  0.17171970  0.84223232  0.63839744  1
  O  O128  1  0.85838778  0.73046380  0.31185258  1
  O  O129  1  0.03986384  0.82556059  0.32516902  1
  O  O130  1  0.14161222  0.26953620  0.68814742  1
  O  O131  1  0.88658346  0.64198693  0.95617780  1
