# generated using pymatgen
data_ZnS
_symmetry_space_group_name_H-M   'P 1'
_cell_length_a   3.85369120
_cell_length_b   3.85369110
_cell_length_c   62.98727682
_cell_angle_alpha   90.00000000
_cell_angle_beta   90.00000000
_cell_angle_gamma   120.00000087
_symmetry_Int_Tables_number   1
_chemical_formula_structural   ZnS
_chemical_formula_sum   'Zn20 S20'
_cell_volume   810.09746192
_cell_formula_units_Z   20
loop_
 _symmetry_equiv_pos_site_id
 _symmetry_equiv_pos_as_xyz
  1  'x, y, z'
loop_
 _atom_site_type_symbol
 _atom_site_label
 _atom_site_symmetry_multiplicity
 _atom_site_fract_x
 _atom_site_fract_y
 _atom_site_fract_z
 _atom_site_occupancy
  Zn  Zn0  1  0.33333300  0.66666700  0.65001424  1
  Zn  Zn1  1  0.33333300  0.66666700  0.05000282  1
  Zn  Zn2  1  0.00000000  0.00000000  0.59999942  1
  Zn  Zn3  1  0.66666700  0.33333300  0.80001413  1
  Zn  Zn4  1  0.00000000  0.00000000  0.29999946  1
  Zn  Zn5  1  0.66666700  0.33333300  0.94999968  1
  Zn  Zn6  1  0.66666700  0.33333300  0.50000319  1
  Zn  Zn7  1  0.66666700  0.33333300  0.35001428  1
  Zn  Zn8  1  0.66666700  0.33333300  0.10000299  1
  Zn  Zn9  1  0.00000000  0.00000000  0.89999793  1
  Zn  Zn10  1  0.33333300  0.66666700  0.54999802  1
  Zn  Zn11  1  0.00000000  0.00000000  0.00001383  1
  Zn  Zn12  1  0.00000000  0.00000000  0.45000276  1
  Zn  Zn13  1  0.33333300  0.66666700  0.40000266  1
  Zn  Zn14  1  0.00000000  0.00000000  0.15000265  1
  Zn  Zn15  1  0.33333300  0.66666700  0.85000258  1
  Zn  Zn16  1  0.33333300  0.66666700  0.20000328  1
  Zn  Zn17  1  0.66666700  0.33333300  0.69999756  1
  Zn  Zn18  1  0.00000000  0.00000000  0.74999957  1
  Zn  Zn19  1  0.66666700  0.33333300  0.24999807  1
  S  S20  1  0.00000000  0.00000000  0.33752821  1
  S  S21  1  0.33333300  0.66666700  0.68749496  1
  S  S22  1  0.66666700  0.33333300  0.83749550  1
  S  S23  1  0.66666700  0.33333300  0.28746663  1
  S  S24  1  0.33333300  0.66666700  0.23749687  1
  S  S25  1  0.00000000  0.00000000  0.03749516  1
  S  S26  1  0.66666700  0.33333300  0.38749529  1
  S  S27  1  0.33333300  0.66666700  0.08749625  1
  S  S28  1  0.33333300  0.66666700  0.88749629  1
  S  S29  1  0.66666700  0.33333300  0.98752812  1
  S  S30  1  0.00000000  0.00000000  0.48749666  1
  S  S31  1  0.66666700  0.33333300  0.73746615  1
  S  S32  1  0.66666700  0.33333300  0.53749695  1
  S  S33  1  0.00000000  0.00000000  0.78752796  1
  S  S34  1  0.00000000  0.00000000  0.63752802  1
  S  S35  1  0.33333300  0.66666700  0.58746635  1
  S  S36  1  0.66666700  0.33333300  0.13749628  1
  S  S37  1  0.00000000  0.00000000  0.93746661  1
  S  S38  1  0.33333300  0.66666700  0.43749590  1
  S  S39  1  0.00000000  0.00000000  0.18749668  1
