# generated using pymatgen
data_KLiYF5
_symmetry_space_group_name_H-M   'P 1'
_cell_length_a   6.54989501
_cell_length_b   6.39222054
_cell_length_c   11.91321082
_cell_angle_alpha   90.00000000
_cell_angle_beta   90.00000000
_cell_angle_gamma   113.72390035
_symmetry_Int_Tables_number   1
_chemical_formula_structural   KLiYF5
_chemical_formula_sum   'K4 Li4 Y4 F20'
_cell_volume   456.63670658
_cell_formula_units_Z   4
loop_
 _symmetry_equiv_pos_site_id
 _symmetry_equiv_pos_as_xyz
  1  'x, y, z'
loop_
 _atom_site_type_symbol
 _atom_site_label
 _atom_site_symmetry_multiplicity
 _atom_site_fract_x
 _atom_site_fract_y
 _atom_site_fract_z
 _atom_site_occupancy
  K  K0  1  0.05339598  0.03741866  0.84928784  1
  K  K1  1  0.05339598  0.53741866  0.65071216  1
  K  K2  1  0.94660402  0.46258134  0.34928784  1
  K  K3  1  0.94660402  0.96258134  0.15071216  1
  Li  Li4  1  0.55902468  0.46189738  0.74523126  1
  Li  Li5  1  0.55902468  0.96189738  0.75476874  1
  Li  Li6  1  0.44097532  0.53810262  0.25476874  1
  Li  Li7  1  0.44097532  0.03810262  0.24523126  1
  Y  Y8  1  0.68210195  0.31996374  0.99779829  1
  Y  Y9  1  0.31789805  0.68003626  0.00220171  1
  Y  Y10  1  0.68210195  0.81996374  0.50220171  1
  Y  Y11  1  0.31789805  0.18003626  0.49779829  1
  F  F12  1  0.28730439  0.27944359  0.67447861  1
  F  F13  1  0.46449617  0.96543895  0.60474718  1
  F  F14  1  0.71269561  0.72055641  0.32552139  1
  F  F15  1  0.04494682  0.32737638  0.00731349  1
  F  F16  1  0.71269561  0.22055641  0.17447861  1
  F  F17  1  0.53550383  0.03456105  0.39525282  1
  F  F18  1  0.46449617  0.46543895  0.89525282  1
  F  F19  1  0.66470030  0.45282425  0.53234972  1
  F  F20  1  0.72142966  0.27750283  0.80483795  1
  F  F21  1  0.27857034  0.22249717  0.30483795  1
  F  F22  1  0.33529970  0.54717575  0.46765028  1
  F  F23  1  0.95505318  0.67262362  0.99268651  1
  F  F24  1  0.27857034  0.72249717  0.19516205  1
  F  F25  1  0.95505318  0.17262362  0.50731349  1
  F  F26  1  0.66470030  0.95282425  0.96765028  1
  F  F27  1  0.72142966  0.77750283  0.69516205  1
  F  F28  1  0.33529970  0.04717575  0.03234972  1
  F  F29  1  0.28730439  0.77944359  0.82552139  1
  F  F30  1  0.53550383  0.53456105  0.10474718  1
  F  F31  1  0.04494682  0.82737638  0.49268651  1
