# generated using pymatgen
data_BaBi4O7
_symmetry_space_group_name_H-M   'P 1'
_cell_length_a   7.79204956
_cell_length_b   7.79204952
_cell_length_c   44.21440906
_cell_angle_alpha   20.01731690
_cell_angle_beta   20.01731635
_cell_angle_gamma   33.29463613
_symmetry_Int_Tables_number   1
_chemical_formula_structural   BaBi4O7
_chemical_formula_sum   'Ba1 Bi4 O7'
_cell_volume   288.17341626
_cell_formula_units_Z   1
loop_
 _symmetry_equiv_pos_site_id
 _symmetry_equiv_pos_as_xyz
  1  'x, y, z'
loop_
 _atom_site_type_symbol
 _atom_site_label
 _atom_site_symmetry_multiplicity
 _atom_site_fract_x
 _atom_site_fract_y
 _atom_site_fract_z
 _atom_site_occupancy
  Ba  Ba0  1  0.37566637  0.37566637  0.70152144  1
  Bi  Bi1  1  0.18434956  0.18434956  0.07079423  1
  Bi  Bi2  1  -0.25543329  -0.25543329  0.37763240  1
  Bi  Bi3  1  0.77097621  0.77097621  0.45723647  1
  Bi  Bi4  1  0.46082314  0.46082314  0.76086715  1
  O  O5  1  0.40921470  0.40921470  0.33105487  1
  O  O6  1  0.45196087  0.45196087  0.51994525  1
  O  O7  1  0.04489087  0.04489087  0.53594889  1
  O  O8  1  0.78288784  0.78288784  0.69546015  1
  O  O9  1  0.15734205  0.15734205  0.68679278  1
  O  O10  1  0.53531605  0.53531605  0.99405752  1
  O  O11  1  0.46736561  0.46736561  0.14576087  1
