# generated using pymatgen
data_LiYF4
_symmetry_space_group_name_H-M   'P 1'
_cell_length_a   5.22970200
_cell_length_b   5.26989865
_cell_length_c   6.56481142
_cell_angle_alpha   113.30915724
_cell_angle_beta   113.11556931
_cell_angle_gamma   90.81742487
_symmetry_Int_Tables_number   1
_chemical_formula_structural   LiYF4
_chemical_formula_sum   'Li2 Y2 F8'
_cell_volume   149.70668897
_cell_formula_units_Z   2
loop_
 _symmetry_equiv_pos_site_id
 _symmetry_equiv_pos_as_xyz
  1  'x, y, z'
loop_
 _atom_site_type_symbol
 _atom_site_label
 _atom_site_symmetry_multiplicity
 _atom_site_fract_x
 _atom_site_fract_y
 _atom_site_fract_z
 _atom_site_occupancy
  Li  Li0  1  0.37043333  0.12043333  0.74086667  1
  Li  Li1  1  0.62956667  0.87956667  0.25913333  1
  Y  Y2  1  0.12421398  0.37421398  0.24842795  1
  Y  Y3  1  0.87578602  0.62578602  0.75157205  1
  F  F4  1  0.46339978  0.76102024  0.58512509  1
  F  F5  1  0.26260431  0.62975252  0.08737688  1
  F  F6  1  0.87827470  0.67589515  0.41487491  1
  F  F7  1  0.82477258  0.95762437  0.08737688  1
  F  F8  1  0.53660022  0.23897976  0.41487491  1
  F  F9  1  0.12172530  0.32410485  0.58512509  1
  F  F10  1  0.17522742  0.04237563  0.91262312  1
  F  F11  1  0.73739569  0.37024748  0.91262312  1
