# generated using pymatgen
data_Li2Co(WO4)2
_symmetry_space_group_name_H-M   'P 1'
_cell_length_a   5.03113109
_cell_length_b   5.71210207
_cell_length_c   5.93531288
_cell_angle_alpha   108.04326745
_cell_angle_beta   91.25551870
_cell_angle_gamma   116.40589385
_symmetry_Int_Tables_number   1
_chemical_formula_structural   Li2Co(WO4)2
_chemical_formula_sum   'Li2 Co1 W2 O8'
_cell_volume   142.68601078
_cell_formula_units_Z   1
loop_
 _symmetry_equiv_pos_site_id
 _symmetry_equiv_pos_as_xyz
  1  'x, y, z'
loop_
 _atom_site_type_symbol
 _atom_site_label
 _atom_site_symmetry_multiplicity
 _atom_site_fract_x
 _atom_site_fract_y
 _atom_site_fract_z
 _atom_site_occupancy
  O  O0  1  0.03474080  0.76038533  0.92301002  1
  Li  Li1  1  0.03439499  0.07614834  0.74713650  1
  W  W2  1  0.74200614  0.47355321  0.66245604  1
  W  W3  1  0.25799374  0.52644708  0.33754397  1
  O  O4  1  0.44796722  0.27809785  0.33261366  1
  Li  Li5  1  0.96560530  0.92385122  0.25286360  1
  Co  Co6  1  0.49999991  0.99999987  0.99999984  1
  O  O7  1  0.96226348  0.27953764  0.54255900  1
  O  O8  1  0.96525931  0.23961442  0.07698983  1
  O  O9  1  0.50918868  0.75366864  0.19343017  1
  O  O10  1  0.03773690  0.72046294  0.45744092  1
  O  O11  1  0.55203234  0.72190211  0.66738629  1
  O  O12  1  0.49081118  0.24633135  0.80657015  1
