# generated using pymatgen
data_K2OsN3Cl3O5
_symmetry_space_group_name_H-M   'P 1'
_cell_length_a   7.09743780
_cell_length_b   7.71143000
_cell_length_c   10.54125135
_cell_angle_alpha   90.34028596
_cell_angle_beta   101.66922420
_cell_angle_gamma   90.53912470
_symmetry_Int_Tables_number   1
_chemical_formula_structural   K2OsN3Cl3O5
_chemical_formula_sum   'K4 Os2 N6 Cl6 O10'
_cell_volume   564.96988407
_cell_formula_units_Z   2
loop_
 _symmetry_equiv_pos_site_id
 _symmetry_equiv_pos_as_xyz
  1  'x, y, z'
loop_
 _atom_site_type_symbol
 _atom_site_label
 _atom_site_symmetry_multiplicity
 _atom_site_fract_x
 _atom_site_fract_y
 _atom_site_fract_z
 _atom_site_occupancy
  K  K0  1  0.38945332  0.24608080  0.87031116  1
  K  K1  1  0.22967511  0.75180323  0.47237498  1
  K  K2  1  0.61054668  0.75391920  0.12968884  1
  K  K3  1  0.77032489  0.24819677  0.52762502  1
  Os  Os4  1  0.87709701  0.74694656  0.76259224  1
  Os  Os5  1  0.12290299  0.25305344  0.23740776  1
  N  N6  1  0.67968723  0.93313770  0.79420466  1
  N  N7  1  0.01256293  0.24305238  0.07266766  1
  N  N8  1  0.69666643  0.54923162  0.80338352  1
  N  N9  1  0.30333357  0.45076838  0.19661648  1
  N  N10  1  0.98743707  0.75694762  0.92733234  1
  N  N11  1  0.32031277  0.06686230  0.20579534  1
  Cl  Cl12  1  0.28628135  0.26821999  0.45438303  1
  Cl  Cl13  1  0.07883832  0.97362459  0.69919380  1
  Cl  Cl14  1  0.71371865  0.73178001  0.54561697  1
  Cl  Cl15  1  0.90307088  0.46705689  0.29251489  1
  Cl  Cl16  1  0.09692912  0.53294311  0.70748511  1
  Cl  Cl17  1  0.92116168  0.02637541  0.30080620  1
  O  O18  1  0.63898935  0.94544155  0.90473502  1
  O  O19  1  0.36101065  0.05455845  0.09526498  1
  O  O20  1  0.95032135  0.23740498  0.96059398  1
  O  O21  1  0.63185482  0.43484447  0.72137828  1
  O  O22  1  0.34498183  0.45608541  0.08621896  1
  O  O23  1  0.04967865  0.76259502  0.03940602  1
  O  O24  1  0.39540618  0.96591776  0.29323773  1
  O  O25  1  0.65501817  0.54391459  0.91378104  1
  O  O26  1  0.60459382  0.03408224  0.70676227  1
  O  O27  1  0.36814518  0.56515553  0.27862172  1
