# generated using pymatgen
data_ZnS
_symmetry_space_group_name_H-M   'P 1'
_cell_length_a   3.85227814
_cell_length_b   3.85227810
_cell_length_c   50.39897303
_cell_angle_alpha   90.00000000
_cell_angle_beta   90.00000000
_cell_angle_gamma   120.00000031
_symmetry_Int_Tables_number   1
_chemical_formula_structural   ZnS
_chemical_formula_sum   'Zn16 S16'
_cell_volume   647.72041552
_cell_formula_units_Z   16
loop_
 _symmetry_equiv_pos_site_id
 _symmetry_equiv_pos_as_xyz
  1  'x, y, z'
loop_
 _atom_site_type_symbol
 _atom_site_label
 _atom_site_symmetry_multiplicity
 _atom_site_fract_x
 _atom_site_fract_y
 _atom_site_fract_z
 _atom_site_occupancy
  Zn  Zn0  1  0.33333300  0.66666700  0.62500916  1
  Zn  Zn1  1  0.66666700  0.33333300  0.12501547  1
  Zn  Zn2  1  0.00000000  0.00000000  0.43751184  1
  Zn  Zn3  1  0.33333300  0.66666700  0.06252312  1
  Zn  Zn4  1  0.66666700  0.33333300  0.50000911  1
  Zn  Zn5  1  0.33333300  0.66666700  0.25000667  1
  Zn  Zn6  1  0.66666700  0.33333300  0.31250502  1
  Zn  Zn7  1  0.00000000  0.00000000  0.81250810  1
  Zn  Zn8  1  0.66666700  0.33333300  0.68751262  1
  Zn  Zn9  1  0.00000000  0.00000000  0.18751729  1
  Zn  Zn10  1  0.33333300  0.66666700  0.37502751  1
  Zn  Zn11  1  0.33333300  0.66666700  0.93751265  1
  Zn  Zn12  1  0.00000000  0.00000000  0.56252312  1
  Zn  Zn13  1  0.66666700  0.33333300  0.87501280  1
  Zn  Zn14  1  0.33333300  0.66666700  0.75002746  1
  Zn  Zn15  1  0.00000000  0.00000000  0.00000885  1
  S  S16  1  0.00000000  0.00000000  0.23434830  1
  S  S17  1  0.33333300  0.66666700  0.29681499  1
  S  S18  1  0.66666700  0.33333300  0.35939661  1
  S  S19  1  0.66666700  0.33333300  0.54689601  1
  S  S20  1  0.33333300  0.66666700  0.10935510  1
  S  S21  1  0.66666700  0.33333300  0.73439007  1
  S  S22  1  0.33333300  0.66666700  0.98432082  1
  S  S23  1  0.66666700  0.33333300  0.92185544  1
  S  S24  1  0.00000000  0.00000000  0.85935900  1
  S  S25  1  0.33333300  0.66666700  0.67182239  1
  S  S26  1  0.00000000  0.00000000  0.48431916  1
  S  S27  1  0.33333300  0.66666700  0.79684953  1
  S  S28  1  0.00000000  0.00000000  0.60935440  1
  S  S29  1  0.00000000  0.00000000  0.04689502  1
  S  S30  1  0.66666700  0.33333300  0.17185854  1
  S  S31  1  0.33333300  0.66666700  0.42185383  1
