# generated using pymatgen
data_NbPO5
_symmetry_space_group_name_H-M   'P 1'
_cell_length_a   5.42506529
_cell_length_b   6.80099953
_cell_length_c   11.47263834
_cell_angle_alpha   90.00000000
_cell_angle_beta   90.00000000
_cell_angle_gamma   90.00000000
_symmetry_Int_Tables_number   1
_chemical_formula_structural   NbPO5
_chemical_formula_sum   'Nb4 P4 O20'
_cell_volume   423.29293245
_cell_formula_units_Z   4
loop_
 _symmetry_equiv_pos_site_id
 _symmetry_equiv_pos_as_xyz
  1  'x, y, z'
loop_
 _atom_site_type_symbol
 _atom_site_label
 _atom_site_symmetry_multiplicity
 _atom_site_fract_x
 _atom_site_fract_y
 _atom_site_fract_z
 _atom_site_occupancy
  Nb  Nb0  1  0.49292963  0.33101059  0.06327498  1
  Nb  Nb1  1  0.99292963  0.83101059  0.43672502  1
  Nb  Nb2  1  0.49292963  0.16898941  0.56327498  1
  Nb  Nb3  1  0.99292963  0.66898941  0.93672502  1
  P  P4  1  0.48213495  0.52800454  0.34633689  1
  P  P5  1  0.48213495  0.97199546  0.84633689  1
  P  P6  1  0.98213495  0.47199546  0.65366311  1
  P  P7  1  0.98213495  0.02800454  0.15366311  1
  O  O8  1  0.23429062  0.86907258  0.86706485  1
  O  O9  1  0.20028020  0.33845527  0.62384641  1
  O  O10  1  0.23429062  0.63092742  0.36706485  1
  O  O11  1  0.99588940  0.96992311  0.28395637  1
  O  O12  1  0.75416271  0.01177311  0.50416778  1
  O  O13  1  0.25416271  0.98822689  0.49583222  1
  O  O14  1  0.70028020  0.83845527  0.87615359  1
  O  O15  1  -0.00728751  0.83688137  0.08091774  1
  O  O16  1  0.49588940  0.03007689  0.71604363  1
  O  O17  1  0.73429062  0.36907258  0.63293515  1
  O  O18  1  0.99588940  0.53007689  0.78395637  1
  O  O19  1  0.20028020  0.16154473  0.12384641  1
  O  O20  1  -0.00728751  0.66311863  0.58091774  1
  O  O21  1  0.73429062  0.13092742  0.13293515  1
  O  O22  1  0.25416271  0.51177311  0.99583222  1
  O  O23  1  0.70028020  0.66154473  0.37615359  1
  O  O24  1  0.49271249  0.16311863  0.91908226  1
  O  O25  1  0.49588940  0.46992311  0.21604363  1
  O  O26  1  0.49271249  0.33688137  0.41908226  1
  O  O27  1  0.75416271  0.48822689  0.00416778  1
