# generated using pymatgen
data_NaSiBO4
_symmetry_space_group_name_H-M   'P 1'
_cell_length_a   14.05524196
_cell_length_b   14.05524158
_cell_length_c   7.78989055
_cell_angle_alpha   90.00000000
_cell_angle_beta   90.00000000
_cell_angle_gamma   120.00000088
_symmetry_Int_Tables_number   1
_chemical_formula_structural   NaSiBO4
_chemical_formula_sum   'Na18 Si18 B18 O72'
_cell_volume   1332.71910859
_cell_formula_units_Z   18
loop_
 _symmetry_equiv_pos_site_id
 _symmetry_equiv_pos_as_xyz
  1  'x, y, z'
loop_
 _atom_site_type_symbol
 _atom_site_label
 _atom_site_symmetry_multiplicity
 _atom_site_fract_x
 _atom_site_fract_y
 _atom_site_fract_z
 _atom_site_occupancy
  Na  Na0  1  0.31143363  0.32576666  0.50269757  1
  Na  Na1  1  0.01433304  0.68856637  0.50269757  1
  Na  Na2  1  0.98730376  0.65404224  0.06724550  1
  Na  Na3  1  0.66673848  0.01269624  0.06724550  1
  Na  Na4  1  0.33326152  0.98730376  0.56724550  1
  Na  Na5  1  0.66666700  0.33333300  0.52317492  1
  Na  Na6  1  0.00000000  0.00000000  0.05288396  1
  Na  Na7  1  0.98566696  0.31143363  0.00269757  1
  Na  Na8  1  0.34595776  0.33326152  0.06724550  1
  Na  Na9  1  0.66666700  0.33333300  0.02497757  1
  Na  Na10  1  0.33333300  0.66666700  0.52497757  1
  Na  Na11  1  0.67423334  0.98566696  0.50269757  1
  Na  Na12  1  0.00000000  0.00000000  0.55288396  1
  Na  Na13  1  0.33333300  0.66666700  0.02317492  1
  Na  Na14  1  0.68856637  0.67423334  0.00269757  1
  Na  Na15  1  0.32576666  0.01433304  0.00269757  1
  Na  Na16  1  0.01269624  0.34595776  0.56724550  1
  Na  Na17  1  0.65404224  0.66673848  0.56724550  1
  Si  Si18  1  0.55109470  0.76323608  0.23968459  1
  Si  Si19  1  0.23676392  0.78785862  0.23968459  1
  Si  Si20  1  0.87877046  0.78249504  0.33388496  1
  Si  Si21  1  0.21214138  0.44890530  0.23968459  1
  Si  Si22  1  0.43137278  0.54557934  0.74599376  1
  Si  Si23  1  0.54557934  0.11420656  0.24599376  1
  Si  Si24  1  0.78785862  0.55109470  0.73968459  1
  Si  Si25  1  0.90372459  0.12122954  0.33388496  1
  Si  Si26  1  0.44890530  0.23676392  0.73968459  1
  Si  Si27  1  0.11420656  0.56862722  0.74599376  1
  Si  Si28  1  0.09627541  0.87877046  0.83388496  1
  Si  Si29  1  0.88579344  0.43137278  0.24599376  1
  Si  Si30  1  0.12122954  0.21750496  0.83388496  1
  Si  Si31  1  0.78249504  0.90372459  0.83388496  1
  Si  Si32  1  0.56862722  0.45442066  0.24599376  1
  Si  Si33  1  0.21750496  0.09627541  0.33388496  1
  Si  Si34  1  0.45442066  0.88579344  0.74599376  1
  Si  Si35  1  0.76323608  0.21214138  0.73968459  1
  B  B36  1  0.56682909  0.45357625  0.86513476  1
  B  B37  1  0.55243654  0.76596042  0.86453616  1
  B  B38  1  0.21858930  0.09855850  0.71029590  1
  B  B39  1  0.09855850  0.87996921  0.21029590  1
  B  B40  1  0.87996921  0.78141070  0.71029590  1
  B  B41  1  0.54642375  0.11325285  0.86513476  1
  B  B42  1  0.78647613  0.55243654  0.36453616  1
  B  B43  1  0.12003079  0.21858930  0.21029590  1
  B  B44  1  0.11325285  0.56682909  0.36513476  1
  B  B45  1  0.45357625  0.88674715  0.36513476  1
  B  B46  1  0.23403958  0.78647613  0.86453616  1
  B  B47  1  0.76596042  0.21352387  0.36453616  1
  B  B48  1  0.90144150  0.12003079  0.71029590  1
  B  B49  1  0.21352387  0.44756346  0.86453616  1
  B  B50  1  0.88674715  0.43317091  0.86513476  1
  B  B51  1  0.44756346  0.23403958  0.36453616  1
  B  B52  1  0.78141070  0.90144150  0.21029590  1
  B  B53  1  0.43317091  0.54642375  0.36513476  1
  O  O54  1  0.65884788  0.45651629  0.76753495  1
  O  O55  1  0.34062856  0.86906569  0.36372495  1
  O  O56  1  0.20258405  0.86466449  0.78784577  1
  O  O57  1  0.87698653  0.86839938  0.81236710  1
  O  O58  1  0.51222417  0.11807627  0.04540792  1
  O  O59  1  0.53899417  0.53436939  0.79222067  1
  O  O60  1  0.47156287  0.34062856  0.86372495  1
  O  O61  1  0.84358237  0.78749321  0.53256078  1
  O  O62  1  0.53436939  0.99537521  0.29222067  1
  O  O63  1  0.86963848  0.19761456  0.78497335  1
  O  O64  1  0.05608916  0.84358237  0.03256078  1
  O  O65  1  0.65937144  0.13093431  0.86372495  1
  O  O66  1  0.27595307  0.82362104  0.04134763  1
  O  O67  1  0.00462479  0.53899417  0.29222067  1
  O  O68  1  0.60585209  0.48777583  0.04540792  1
  O  O69  1  0.86175792  0.32665084  0.36856714  1
  O  O70  1  0.53456736  0.32434750  0.26329298  1
  O  O71  1  0.20013202  0.19350405  0.70707142  1
  O  O72  1  0.78749321  0.94391084  0.03256078  1
  O  O73  1  0.00662797  0.20013202  0.20707142  1
  O  O74  1  0.13036152  0.80238544  0.28497335  1
  O  O75  1  0.19761456  0.32797607  0.28497335  1
  O  O76  1  0.94391084  0.15641763  0.53256078  1
  O  O77  1  0.00858715  0.87698653  0.31236710  1
  O  O78  1  0.46100583  0.46563061  0.29222067  1
  O  O79  1  0.17637896  0.45233203  0.04134763  1
  O  O80  1  0.45233203  0.27595307  0.54134763  1
  O  O81  1  0.82362104  0.54766797  0.54134763  1
  O  O82  1  0.78978014  0.46543264  0.26329298  1
  O  O83  1  0.80649595  0.00662797  0.70707142  1
  O  O84  1  0.15641763  0.21250679  0.03256078  1
  O  O85  1  0.80238544  0.67202393  0.78497335  1
  O  O86  1  0.32797607  0.13036152  0.78497335  1
  O  O87  1  0.86839938  0.99141285  0.31236710  1
  O  O88  1  0.21250679  0.05608916  0.53256078  1
  O  O89  1  0.99141285  0.12301347  0.81236710  1
  O  O90  1  0.67202393  0.86963848  0.28497335  1
  O  O91  1  0.13160062  0.00858715  0.81236710  1
  O  O92  1  0.53510708  0.86175792  0.86856714  1
  O  O93  1  0.54348371  0.20233159  0.76753495  1
  O  O94  1  0.19350405  0.99337203  0.20707142  1
  O  O95  1  0.67334916  0.53510708  0.36856714  1
  O  O96  1  0.46563061  0.00462479  0.79222067  1
  O  O97  1  0.79766841  0.34115212  0.76753495  1
  O  O98  1  0.13093431  0.47156287  0.36372495  1
  O  O99  1  0.52843713  0.65937144  0.36372495  1
  O  O100  1  0.48777583  0.88192373  0.54540792  1
  O  O101  1  0.99537521  0.46100583  0.79222067  1
  O  O102  1  0.21021986  0.53456736  0.76329298  1
  O  O103  1  0.66208044  0.79741595  0.78784577  1
  O  O104  1  0.33791956  0.20258405  0.28784577  1
  O  O105  1  0.99337203  0.79986798  0.70707142  1
  O  O106  1  0.32665084  0.46489292  0.86856714  1
  O  O107  1  0.45651629  0.79766841  0.26753495  1
  O  O108  1  0.12301347  0.13160062  0.31236710  1
  O  O109  1  0.34115212  0.54348371  0.26753495  1
  O  O110  1  0.46543264  0.67565250  0.76329298  1
  O  O111  1  0.32434750  0.78978014  0.76329298  1
  O  O112  1  0.20233159  0.65884788  0.26753495  1
  O  O113  1  0.72404693  0.17637896  0.54134763  1
  O  O114  1  0.54766797  0.72404693  0.04134763  1
  O  O115  1  0.39414791  0.51222417  0.54540792  1
  O  O116  1  0.86906569  0.52843713  0.86372495  1
  O  O117  1  0.86466449  0.66208044  0.28784577  1
  O  O118  1  0.67565250  0.21021986  0.26329298  1
  O  O119  1  0.11807627  0.60585209  0.54540792  1
  O  O120  1  0.88192373  0.39414791  0.04540792  1
  O  O121  1  0.79741595  0.13533551  0.28784577  1
  O  O122  1  0.13824208  0.67334916  0.86856714  1
  O  O123  1  0.13533551  0.33791956  0.78784577  1
  O  O124  1  0.46489292  0.13824208  0.36856714  1
  O  O125  1  0.79986798  0.80649595  0.20707142  1
