# generated using pymatgen
data_HgO
_symmetry_space_group_name_H-M   'P 1'
_cell_length_a   5.82209737
_cell_length_b   7.42844820
_cell_length_c   6.73641719
_cell_angle_alpha   88.83157393
_cell_angle_beta   90.00262705
_cell_angle_gamma   90.10985979
_symmetry_Int_Tables_number   1
_chemical_formula_structural   HgO
_chemical_formula_sum   'Hg8 O8'
_cell_volume   291.28319480
_cell_formula_units_Z   8
loop_
 _symmetry_equiv_pos_site_id
 _symmetry_equiv_pos_as_xyz
  1  'x, y, z'
loop_
 _atom_site_type_symbol
 _atom_site_label
 _atom_site_symmetry_multiplicity
 _atom_site_fract_x
 _atom_site_fract_y
 _atom_site_fract_z
 _atom_site_occupancy
  Hg  Hg0  1  0.74968915  0.87600607  0.87844683  1
  Hg  Hg1  1  0.75007049  0.37796052  0.88604050  1
  Hg  Hg2  1  0.24992951  0.62203948  0.11395950  1
  Hg  Hg3  1  0.74977476  0.38272361  0.38601806  1
  Hg  Hg4  1  0.25022524  0.61727639  0.61398194  1
  Hg  Hg5  1  0.24943389  0.11760837  0.62125056  1
  Hg  Hg6  1  0.75056611  0.88239163  0.37874944  1
  Hg  Hg7  1  0.25031085  0.12399393  0.12155317  1
  O  O8  1  0.25097403  0.28134680  0.86552451  1
  O  O9  1  0.74928664  0.21972769  0.14127355  1
  O  O10  1  0.75051912  0.54153466  0.63495669  1
  O  O11  1  0.74902597  0.71865320  0.13447549  1
  O  O12  1  0.75130997  0.04044682  0.62827349  1
  O  O13  1  0.24869003  0.95955318  0.37172651  1
  O  O14  1  0.25071336  0.78027231  0.85872645  1
  O  O15  1  0.24948088  0.45846534  0.36504331  1
