# generated using pymatgen
data_Pr9Be4O20
_symmetry_space_group_name_H-M   'P 1'
_cell_length_a   6.53723314
_cell_length_b   7.32608547
_cell_length_c   9.53058931
_cell_angle_alpha   90.00732221
_cell_angle_beta   89.45368237
_cell_angle_gamma   90.53862956
_symmetry_Int_Tables_number   1
_chemical_formula_structural   Pr9Be4O20
_chemical_formula_sum   'Pr9 Be4 O20'
_cell_volume   456.40119875
_cell_formula_units_Z   1
loop_
 _symmetry_equiv_pos_site_id
 _symmetry_equiv_pos_as_xyz
  1  'x, y, z'
loop_
 _atom_site_type_symbol
 _atom_site_label
 _atom_site_symmetry_multiplicity
 _atom_site_fract_x
 _atom_site_fract_y
 _atom_site_fract_z
 _atom_site_occupancy
  Pr  Pr0  1  0.06978777  0.80741405  0.17837677  1
  Pr  Pr1  1  0.10286984  0.50896584  0.46914896  1
  Pr  Pr2  1  0.39748438  0.50094763  0.96716523  1
  Pr  Pr3  1  0.42573036  0.81445171  0.65761601  1
  Pr  Pr4  1  0.57726612  0.31586928  0.33312653  1
  Pr  Pr5  1  0.58843372  0.00562771  0.04296055  1
  Pr  Pr6  1  0.90122243  0.01022247  0.52002479  1
  Pr  Pr7  1  0.91471769  0.73699173  0.82712543  1
  Pr  Pr8  1  0.92132228  0.27427291  0.83306546  1
  Be  Be9  1  0.19268249  0.00426779  0.89464276  1
  Be  Be10  1  0.32769319  0.00425793  0.38903010  1
  Be  Be11  1  0.68569203  0.50157681  0.61356477  1
  Be  Be12  1  0.82009617  0.50418880  0.10355225  1
  O  O13  1  0.02259332  0.51236517  0.00134036  1
  O  O14  1  0.12384705  0.99216945  0.72694845  1
  O  O15  1  0.17216532  0.54329036  0.72519113  1
  O  O16  1  0.21787625  0.20100753  0.42292881  1
  O  O17  1  0.18168897  0.83277337  0.43118686  1
  O  O18  1  0.30636861  0.82179418  0.94187150  1
  O  O19  1  0.29166983  0.19622496  0.92477549  1
  O  O20  1  0.30931758  0.53656114  0.22836837  1
  O  O21  1  0.34839627  0.03822772  0.22499567  1
  O  O22  1  0.47403598  0.52536412  0.52493318  1
  O  O23  1  0.54181636  0.01787561  0.46988230  1
  O  O24  1  0.65329005  0.50920108  0.78313213  1
  O  O25  1  0.67910206  0.99409336  0.78323744  1
  O  O26  1  0.71394965  0.70281307  0.05550975  1
  O  O27  1  0.67210771  0.32834457  0.07247344  1
  O  O28  1  0.82360547  0.32680169  0.56426478  1
  O  O29  1  0.80736095  0.70166062  0.58210430  1
  O  O30  1  0.80107450  0.03179061  0.27432507  1
  O  O31  1  0.87795675  0.52837402  0.26969335  1
  O  O32  1  0.97157685  0.01101170  0.98643900  1
