# generated using pymatgen
data_Tl2S
_symmetry_space_group_name_H-M   'P 1'
_cell_length_a   9.67592290
_cell_length_b   9.67592215
_cell_length_c   9.67592215
_cell_angle_alpha   81.36948900
_cell_angle_beta   81.36948955
_cell_angle_gamma   81.36948727
_symmetry_Int_Tables_number   1
_chemical_formula_structural   Tl2S
_chemical_formula_sum   'Tl18 S9'
_cell_volume   877.92373288
_cell_formula_units_Z   9
loop_
 _symmetry_equiv_pos_site_id
 _symmetry_equiv_pos_as_xyz
  1  'x, y, z'
loop_
 _atom_site_type_symbol
 _atom_site_label
 _atom_site_symmetry_multiplicity
 _atom_site_fract_x
 _atom_site_fract_y
 _atom_site_fract_z
 _atom_site_occupancy
  Tl  Tl0  1  0.75896652  0.73358354  0.42756610  1
  Tl  Tl1  1  0.76456185  0.08553920  0.05514829  1
  Tl  Tl2  1  0.66065012  0.69231674  0.03621040  1
  Tl  Tl3  1  0.09498755  0.42708630  0.39718123  1
  Tl  Tl4  1  0.08553920  0.05514829  0.76456185  1
  Tl  Tl5  1  0.42756610  0.75896652  0.73358354  1
  Tl  Tl6  1  0.69964043  0.33343020  0.36576834  1
  Tl  Tl7  1  0.36544357  0.00123821  0.03151362  1
  Tl  Tl8  1  0.00123821  0.03151362  0.36544357  1
  Tl  Tl9  1  0.36576834  0.69964043  0.33343020  1
  Tl  Tl10  1  0.42708630  0.39718123  0.09498755  1
  Tl  Tl11  1  0.73358354  0.42756610  0.75896652  1
  Tl  Tl12  1  0.39718123  0.09498755  0.42708630  1
  Tl  Tl13  1  0.69231674  0.03621040  0.66065012  1
  Tl  Tl14  1  0.05514829  0.76456185  0.08553920  1
  Tl  Tl15  1  0.03151362  0.36544357  0.00123821  1
  Tl  Tl16  1  0.03621040  0.66065012  0.69231674  1
  Tl  Tl17  1  0.33343020  0.36576834  0.69964043  1
  S  S18  1  0.54094501  0.54094501  0.54094501  1
  S  S19  1  0.20775152  0.20775152  0.20775152  1
  S  S20  1  0.24139696  0.57637294  0.91117676  1
  S  S21  1  0.87454891  0.54265803  0.20968428  1
  S  S22  1  0.91117676  0.24139696  0.57637294  1
  S  S23  1  0.20968428  0.87454891  0.54265803  1
  S  S24  1  0.57637294  0.91117676  0.24139696  1
  S  S25  1  0.54265803  0.20968428  0.87454891  1
  S  S26  1  0.86263339  0.86263339  0.86263339  1
