# generated using pymatgen
data_ZnS
_symmetry_space_group_name_H-M   'P 1'
_cell_length_a   3.85401822
_cell_length_b   3.85401811
_cell_length_c   56.68973934
_cell_angle_alpha   90.00000000
_cell_angle_beta   90.00000000
_cell_angle_gamma   120.00000093
_symmetry_Int_Tables_number   1
_chemical_formula_structural   ZnS
_chemical_formula_sum   'Zn18 S18'
_cell_volume   729.22676861
_cell_formula_units_Z   18
loop_
 _symmetry_equiv_pos_site_id
 _symmetry_equiv_pos_as_xyz
  1  'x, y, z'
loop_
 _atom_site_type_symbol
 _atom_site_label
 _atom_site_symmetry_multiplicity
 _atom_site_fract_x
 _atom_site_fract_y
 _atom_site_fract_z
 _atom_site_occupancy
  Zn  Zn0  1  0.00000000  0.00000000  0.16666746  1
  Zn  Zn1  1  0.00000000  0.00000000  0.55554859  1
  Zn  Zn2  1  0.33333300  0.66666700  0.72221692  1
  Zn  Zn3  1  0.66666700  0.33333300  0.27777697  1
  Zn  Zn4  1  0.00000000  0.00000000  0.66667946  1
  Zn  Zn5  1  0.33333300  0.66666700  0.05556093  1
  Zn  Zn6  1  0.66666700  0.33333300  0.61110635  1
  Zn  Zn7  1  0.66666700  0.33333300  0.11111245  1
  Zn  Zn8  1  0.66666700  0.33333300  0.44444405  1
  Zn  Zn9  1  0.33333300  0.66666700  0.22222261  1
  Zn  Zn10  1  0.66666700  0.33333300  0.77777594  1
  Zn  Zn11  1  0.66666700  0.33333300  0.94443885  1
  Zn  Zn12  1  0.33333300  0.66666700  0.38889426  1
  Zn  Zn13  1  0.00000000  0.00000000  0.33333164  1
  Zn  Zn14  1  0.33333300  0.66666700  0.83334513  1
  Zn  Zn15  1  0.00000000  0.00000000  0.00001275  1
  Zn  Zn16  1  0.33333300  0.66666700  0.50001303  1
  Zn  Zn17  1  0.00000000  0.00000000  0.88888564  1
  S  S18  1  0.66666700  0.33333300  0.98614307  1
  S  S19  1  0.33333300  0.66666700  0.54166434  1
  S  S20  1  0.33333300  0.66666700  0.43053577  1
  S  S21  1  0.00000000  0.00000000  0.04166878  1
  S  S22  1  0.66666700  0.33333300  0.48614530  1
  S  S23  1  0.66666700  0.33333300  0.65281135  1
  S  S24  1  0.66666700  0.33333300  0.15277943  1
  S  S25  1  0.33333300  0.66666700  0.76385468  1
  S  S26  1  0.00000000  0.00000000  0.70832926  1
  S  S27  1  0.66666700  0.33333300  0.81947947  1
  S  S28  1  0.00000000  0.00000000  0.37500173  1
  S  S29  1  0.00000000  0.00000000  0.93052211  1
  S  S30  1  0.00000000  0.00000000  0.59718582  1
  S  S31  1  0.33333300  0.66666700  0.26388967  1
  S  S32  1  0.33333300  0.66666700  0.87499648  1
  S  S33  1  0.33333300  0.66666700  0.09722811  1
  S  S34  1  0.66666700  0.33333300  0.31944055  1
  S  S35  1  0.00000000  0.00000000  0.20833103  1
