# generated using pymatgen
data_BaTeF6
_symmetry_space_group_name_H-M   'P 1'
_cell_length_a   8.96653126
_cell_length_b   8.96653165
_cell_length_c   9.01450207
_cell_angle_alpha   105.30585279
_cell_angle_beta   105.30585335
_cell_angle_gamma   117.98447712
_symmetry_Int_Tables_number   1
_chemical_formula_structural   BaTeF6
_chemical_formula_sum   'Ba4 Te4 F24'
_cell_volume   549.60350327
_cell_formula_units_Z   4
loop_
 _symmetry_equiv_pos_site_id
 _symmetry_equiv_pos_as_xyz
  1  'x, y, z'
loop_
 _atom_site_type_symbol
 _atom_site_label
 _atom_site_symmetry_multiplicity
 _atom_site_fract_x
 _atom_site_fract_y
 _atom_site_fract_z
 _atom_site_occupancy
  Ba  Ba0  1  0.21229096  0.36394670  0.23008715  1
  Ba  Ba1  1  0.13385956  0.98220381  0.76991285  1
  Ba  Ba2  1  0.23220381  0.88385956  0.26991285  1
  Ba  Ba3  1  0.61394670  0.96229096  0.73008715  1
  Te  Te4  1  0.73755820  0.44813957  0.21547411  1
  Te  Te5  1  0.69813957  0.48755820  0.71547411  1
  Te  Te6  1  0.23266546  0.52208409  0.78452589  1
  Te  Te7  1  0.77208409  0.98266546  0.28452589  1
  F  F8  1  0.31134975  0.53416591  0.59541563  1
  F  F9  1  0.72391811  0.71465875  0.68560502  1
  F  F10  1  0.93505239  0.25518830  0.41351552  1
  F  F11  1  0.56786036  0.23498804  0.97329973  1
  F  F12  1  0.29046141  0.33203620  0.78246044  1
  F  F13  1  0.77153688  0.59167278  0.08648448  1
  F  F14  1  0.26294115  0.09709398  0.10379219  1
  F  F15  1  0.48498804  0.31786036  0.47329973  1
  F  F16  1  0.26168831  0.59456063  0.02670027  1
  F  F17  1  0.84456063  0.01168831  0.52670027  1
  F  F18  1  0.93875028  0.71593412  0.40458437  1
  F  F19  1  0.99330178  0.15914896  0.89620781  1
  F  F20  1  0.84167278  0.52153688  0.58648448  1
  F  F21  1  0.40914896  0.74330178  0.39620781  1
  F  F22  1  0.50518830  0.68505239  0.91351552  1
  F  F23  1  0.54957575  0.50800097  0.21753956  1
  F  F24  1  0.75800097  0.29957575  0.71753956  1
  F  F25  1  0.58203620  0.04046141  0.28246044  1
  F  F26  1  0.78416591  0.06134975  0.09541563  1
  F  F27  1  0.34709398  0.01294115  0.60379219  1
  F  F28  1  0.96593412  0.68875028  0.90458437  1
  F  F29  1  0.96465875  0.47391811  0.18560502  1
  F  F30  1  0.02905373  0.03831309  0.31439498  1
  F  F31  1  0.28831309  0.77905373  0.81439498  1
