# generated using pymatgen
data_ZnS
_symmetry_space_group_name_H-M   'P 1'
_cell_length_a   3.85401364
_cell_length_b   3.85401354
_cell_length_c   56.68988434
_cell_angle_alpha   90.00000000
_cell_angle_beta   90.00000000
_cell_angle_gamma   120.00000088
_symmetry_Int_Tables_number   1
_chemical_formula_structural   ZnS
_chemical_formula_sum   'Zn18 S18'
_cell_volume   729.22690202
_cell_formula_units_Z   18
loop_
 _symmetry_equiv_pos_site_id
 _symmetry_equiv_pos_as_xyz
  1  'x, y, z'
loop_
 _atom_site_type_symbol
 _atom_site_label
 _atom_site_symmetry_multiplicity
 _atom_site_fract_x
 _atom_site_fract_y
 _atom_site_fract_z
 _atom_site_occupancy
  Zn  Zn0  1  0.00000000  0.00000000  0.16666774  1
  Zn  Zn1  1  0.33333300  0.66666700  0.72221762  1
  Zn  Zn2  1  0.66666700  0.33333300  0.27777738  1
  Zn  Zn3  1  0.00000000  0.00000000  0.44446054  1
  Zn  Zn4  1  0.33333300  0.66666700  0.55555551  1
  Zn  Zn5  1  0.00000000  0.00000000  0.66666722  1
  Zn  Zn6  1  0.33333300  0.66666700  0.05556121  1
  Zn  Zn7  1  0.66666700  0.33333300  0.61112294  1
  Zn  Zn8  1  0.66666700  0.33333300  0.11111274  1
  Zn  Zn9  1  0.33333300  0.66666700  0.22222266  1
  Zn  Zn10  1  0.66666700  0.33333300  0.77777594  1
  Zn  Zn11  1  0.66666700  0.33333300  0.94443906  1
  Zn  Zn12  1  0.33333300  0.66666700  0.38889614  1
  Zn  Zn13  1  0.00000000  0.00000000  0.33332641  1
  Zn  Zn14  1  0.33333300  0.66666700  0.83334540  1
  Zn  Zn15  1  0.00000000  0.00000000  0.00001280  1
  Zn  Zn16  1  0.66666700  0.33333300  0.49999558  1
  Zn  Zn17  1  0.00000000  0.00000000  0.88888603  1
  S  S18  1  0.66666700  0.33333300  0.98614310  1
  S  S19  1  0.33333300  0.66666700  0.43060183  1
  S  S20  1  0.00000000  0.00000000  0.04166888  1
  S  S21  1  0.66666700  0.33333300  0.65277644  1
  S  S22  1  0.66666700  0.33333300  0.15277932  1
  S  S23  1  0.33333300  0.66666700  0.09722809  1
  S  S24  1  0.33333300  0.66666700  0.76385502  1
  S  S25  1  0.00000000  0.00000000  0.70832995  1
  S  S26  1  0.66666700  0.33333300  0.81947963  1
  S  S27  1  0.00000000  0.00000000  0.37496701  1
  S  S28  1  0.66666700  0.33333300  0.31943985  1
  S  S29  1  0.00000000  0.00000000  0.93052206  1
  S  S30  1  0.00000000  0.00000000  0.48610793  1
  S  S31  1  0.33333300  0.66666700  0.26388984  1
  S  S32  1  0.66666700  0.33333300  0.54163358  1
  S  S33  1  0.00000000  0.00000000  0.20833117  1
  S  S34  1  0.33333300  0.66666700  0.87499640  1
  S  S35  1  0.33333300  0.66666700  0.59725697  1
