# generated using pymatgen
data_LiPO3
_symmetry_space_group_name_H-M   'P 1'
_cell_length_a   5.51204773
_cell_length_b   13.30120508
_cell_length_c   16.75621634
_cell_angle_alpha   99.36585948
_cell_angle_beta   90.00000000
_cell_angle_gamma   90.00000000
_symmetry_Int_Tables_number   1
_chemical_formula_structural   LiPO3
_chemical_formula_sum   'Li20 P20 O60'
_cell_volume   1212.13652098
_cell_formula_units_Z   20
loop_
 _symmetry_equiv_pos_site_id
 _symmetry_equiv_pos_as_xyz
  1  'x, y, z'
loop_
 _atom_site_type_symbol
 _atom_site_label
 _atom_site_symmetry_multiplicity
 _atom_site_fract_x
 _atom_site_fract_y
 _atom_site_fract_z
 _atom_site_occupancy
  Li  Li0  1  0.49196964  0.20215699  0.54954835  1
  Li  Li1  1  0.50803036  0.70215699  0.04954835  1
  Li  Li2  1  0.51236804  0.32279443  0.43441438  1
  Li  Li3  1  0.99198425  0.51255493  0.24155531  1
  Li  Li4  1  0.52171403  0.94156694  0.31763423  1
  Li  Li5  1  0.96176505  0.51263492  0.74156414  1
  Li  Li6  1  0.47828597  0.44156694  0.81763423  1
  Li  Li7  1  0.48763196  0.82279443  0.93441438  1
  Li  Li8  1  0.47469638  0.82181488  0.43377339  1
  Li  Li9  1  0.00801575  0.01255493  0.74155531  1
  Li  Li10  1  0.03823495  0.01263492  0.24156414  1
  Li  Li11  1  0.52530362  0.32181488  0.93377339  1
  Li  Li12  1  0.50528954  0.58187656  0.16480405  1
  Li  Li13  1  0.49471046  0.08187656  0.66480405  1
  Li  Li14  1  0.49572698  0.94328549  0.81889623  1
  Li  Li15  1  0.52908614  0.70271185  0.54999375  1
  Li  Li16  1  0.52020723  0.08311827  0.16626458  1
  Li  Li17  1  0.50427302  0.44328549  0.31889623  1
  Li  Li18  1  0.47979277  0.58311827  0.66626458  1
  Li  Li19  1  0.47091386  0.20271185  0.04999375  1
  P  P20  1  0.17190123  0.21689826  0.80837822  1
  P  P21  1  0.18854482  0.79600062  0.19693354  1
  P  P22  1  0.84581909  0.88801922  0.09310422  1
  P  P23  1  0.81268323  0.50153674  0.50039404  1
  P  P24  1  0.80954387  0.52362701  0.98286409  1
  P  P25  1  0.84835550  0.13723578  0.39025140  1
  P  P26  1  0.84368307  0.90931159  0.57466308  1
  P  P27  1  0.82563745  0.30918451  0.17488473  1
  P  P28  1  0.81235055  0.73019702  0.78643205  1
  P  P29  1  0.18731677  0.00153674  0.00039404  1
  P  P30  1  0.17436255  0.80918451  0.67488473  1
  P  P31  1  0.15418091  0.38801922  0.59310422  1
  P  P32  1  0.15164450  0.63723578  0.89025140  1
  P  P33  1  0.82809877  0.71689826  0.30837822  1
  P  P34  1  0.18764945  0.23019702  0.28643205  1
  P  P35  1  0.84117675  0.11629595  0.90838923  1
  P  P36  1  0.81145518  0.29600062  0.69693354  1
  P  P37  1  0.19045613  0.02362701  0.48286409  1
  P  P38  1  0.15631693  0.40931159  0.07466308  1
  P  P39  1  0.15882325  0.61629595  0.40838923  1
  O  O40  1  0.34300345  0.72099526  0.65240781  1
  O  O41  1  0.32212374  0.95188212  0.41889430  1
  O  O42  1  0.94363118  0.96759914  0.50423819  1
  O  O43  1  0.67648514  0.57070148  0.05780573  1
  O  O44  1  0.64526347  0.18606218  0.94641149  1
  O  O45  1  0.74303674  0.40379759  0.22982101  1
  O  O46  1  0.32293847  0.95532144  0.92572200  1
  O  O47  1  0.35116045  0.33878158  0.03689806  1
  O  O48  1  0.91851879  0.61837781  0.94464745  1
  O  O49  1  0.64446158  0.80927635  0.82942471  1
  O  O50  1  0.04990882  0.72589639  0.84323959  1
  O  O51  1  0.78426101  0.04157490  0.83313964  1
  O  O52  1  0.35384889  0.71551402  0.15452898  1
  O  O53  1  0.34815602  0.68713910  0.94436432  1
  O  O54  1  0.64883955  0.83878158  0.53689806  1
  O  O55  1  0.34361922  0.30395888  0.83099098  1
  O  O56  1  0.27724773  0.12341141  0.25809149  1
  O  O57  1  0.79632368  0.98311960  0.15281715  1
  O  O58  1  0.35553842  0.30927635  0.32942471  1
  O  O59  1  0.65699655  0.22099526  0.15240781  1
  O  O60  1  0.92451912  0.40595813  0.53683454  1
  O  O61  1  0.95055641  0.80005382  0.14025134  1
  O  O62  1  0.20431216  0.54270236  0.83026294  1
  O  O63  1  0.32351486  0.07070148  0.55780573  1
  O  O64  1  0.07548088  0.90595813  0.03683454  1
  O  O65  1  0.05636882  0.46759914  0.00423819  1
  O  O66  1  0.92216327  0.34101982  0.09095779  1
  O  O67  1  0.67706153  0.45532144  0.42572200  1
  O  O68  1  0.92524354  0.68497860  0.39222518  1
  O  O69  1  0.21573899  0.54157490  0.33313964  1
  O  O70  1  0.78593329  0.98420884  0.64968216  1
  O  O71  1  0.64615111  0.21551402  0.65452898  1
  O  O72  1  0.21406671  0.48420884  0.14968216  1
  O  O73  1  0.04944359  0.30005382  0.64025134  1
  O  O74  1  0.20367632  0.48311960  0.65281715  1
  O  O75  1  0.07475646  0.18497860  0.89222518  1
  O  O76  1  0.25144239  0.12243923  0.75270267  1
  O  O77  1  0.94172566  0.05805579  0.97865804  1
  O  O78  1  0.07989177  0.75683590  0.27550786  1
  O  O79  1  0.95009118  0.22589639  0.34323959  1
  O  O80  1  0.05827434  0.55805579  0.47865804  1
  O  O81  1  0.07892354  0.27182967  0.20888061  1
  O  O82  1  0.72275227  0.62341141  0.75809149  1
  O  O83  1  0.67787626  0.45188212  0.91889430  1
  O  O84  1  0.65184398  0.18713910  0.44436432  1
  O  O85  1  0.79568784  0.04270236  0.33026294  1
  O  O86  1  0.65638078  0.80395888  0.33099098  1
  O  O87  1  0.31707303  0.07258955  0.06534204  1
  O  O88  1  0.64653909  0.83789915  0.04033458  1
  O  O89  1  0.92107646  0.77182967  0.70888061  1
  O  O90  1  0.92010823  0.25683590  0.77550786  1
  O  O91  1  0.35473653  0.68606218  0.44641149  1
  O  O92  1  0.07783673  0.84101982  0.59095779  1
  O  O93  1  0.68292697  0.57258955  0.56534204  1
  O  O94  1  0.08148121  0.11837781  0.44464745  1
  O  O95  1  0.35346091  0.33789915  0.54033458  1
  O  O96  1  0.71934957  0.40266795  0.72427433  1
  O  O97  1  0.74855761  0.62243923  0.25270267  1
  O  O98  1  0.25696326  0.90379759  0.72982101  1
  O  O99  1  0.28065043  0.90266795  0.22427433  1
