# generated using pymatgen
data_ZrP2O7
_symmetry_space_group_name_H-M   'P 1'
_cell_length_a   5.48248283
_cell_length_b   6.86343845
_cell_length_c   8.57016284
_cell_angle_alpha   90.00000000
_cell_angle_beta   90.00000000
_cell_angle_gamma   90.00000000
_symmetry_Int_Tables_number   1
_chemical_formula_structural   ZrP2O7
_chemical_formula_sum   'Zr2 P4 O14'
_cell_volume   322.48394468
_cell_formula_units_Z   2
loop_
 _symmetry_equiv_pos_site_id
 _symmetry_equiv_pos_as_xyz
  1  'x, y, z'
loop_
 _atom_site_type_symbol
 _atom_site_label
 _atom_site_symmetry_multiplicity
 _atom_site_fract_x
 _atom_site_fract_y
 _atom_site_fract_z
 _atom_site_occupancy
  Zr  Zr0  1  0.00000000  0.50000000  0.00000000  1
  Zr  Zr1  1  0.50000000  0.00000000  0.50000000  1
  P  P2  1  0.00000000  0.31195880  0.39314853  1
  P  P3  1  0.50000000  0.81195880  0.10685147  1
  P  P4  1  0.50000000  0.18804120  0.89314853  1
  P  P5  1  0.00000000  0.68804120  0.60685147  1
  O  O6  1  0.26912843  0.69904792  0.06731684  1
  O  O7  1  0.50000000  0.88299164  0.27507077  1
  O  O8  1  0.00000000  0.38299164  0.22492923  1
  O  O9  1  0.23087157  0.19904792  0.43268316  1
  O  O10  1  0.00000000  0.61700836  0.77507077  1
  O  O11  1  0.73087157  0.30095208  0.93268316  1
  O  O12  1  0.23087157  0.80095208  0.56731684  1
  O  O13  1  0.50000000  0.11700836  0.72492923  1
  O  O14  1  0.76912843  0.80095208  0.56731684  1
  O  O15  1  0.26912843  0.30095208  0.93268316  1
  O  O16  1  0.00000000  0.50000000  0.50000000  1
  O  O17  1  0.76912843  0.19904792  0.43268316  1
  O  O18  1  0.73087157  0.69904792  0.06731684  1
  O  O19  1  0.50000000  0.00000000  0.00000000  1
