# generated using pymatgen
data_KNaSi2O5
_symmetry_space_group_name_H-M   'P 1'
_cell_length_a   7.37243775
_cell_length_b   12.63450600
_cell_length_c   17.68021589
_cell_angle_alpha   90.00000000
_cell_angle_beta   90.00000000
_cell_angle_gamma   91.27705060
_symmetry_Int_Tables_number   1
_chemical_formula_structural   KNaSi2O5
_chemical_formula_sum   'K12 Na12 Si24 O60'
_cell_volume   1646.45194301
_cell_formula_units_Z   12
loop_
 _symmetry_equiv_pos_site_id
 _symmetry_equiv_pos_as_xyz
  1  'x, y, z'
loop_
 _atom_site_type_symbol
 _atom_site_label
 _atom_site_symmetry_multiplicity
 _atom_site_fract_x
 _atom_site_fract_y
 _atom_site_fract_z
 _atom_site_occupancy
  K  K0  1  0.61622154  0.11916025  0.06148157  1
  K  K1  1  0.22887160  0.00897135  0.76877584  1
  K  K2  1  0.95094297  0.09562493  0.42032523  1
  K  K3  1  0.45094297  0.59562493  0.07967477  1
  K  K4  1  0.88377846  0.38083975  0.56148157  1
  K  K5  1  0.72887160  0.50897135  0.73122416  1
  K  K6  1  0.38377846  0.88083975  0.93851843  1
  K  K7  1  0.54905703  0.40437507  0.92032523  1
  K  K8  1  0.04905703  0.90437507  0.57967477  1
  K  K9  1  0.11622154  0.61916025  0.43851843  1
  K  K10  1  0.77112840  0.99102865  0.23122416  1
  K  K11  1  0.27112840  0.49102865  0.26877584  1
  Na  Na12  1  0.70437199  0.92604499  0.75284408  1
  Na  Na13  1  0.43306222  0.01361184  0.41052335  1
  Na  Na14  1  0.20437199  0.42604499  0.74715592  1
  Na  Na15  1  0.93306222  0.51361184  0.08947665  1
  Na  Na16  1  0.89201973  0.95935932  0.91573188  1
  Na  Na17  1  0.60798027  0.54064068  0.41573188  1
  Na  Na18  1  0.10798027  0.04064068  0.08426812  1
  Na  Na19  1  0.56693778  0.98638816  0.58947665  1
  Na  Na20  1  0.79562801  0.57395501  0.25284408  1
  Na  Na21  1  0.39201973  0.45935932  0.58426812  1
  Na  Na22  1  0.29562801  0.07395501  0.24715592  1
  Na  Na23  1  0.06693778  0.48638816  0.91052335  1
  Si  Si24  1  0.89373180  0.15036054  0.66947328  1
  Si  Si25  1  0.04602354  0.74450442  0.17049372  1
  Si  Si26  1  0.73455639  0.66577078  0.55829179  1
  Si  Si27  1  0.97785997  0.25595408  0.19477572  1
  Si  Si28  1  0.10626820  0.84963946  0.33052672  1
  Si  Si29  1  0.02214003  0.74404592  0.80522428  1
  Si  Si30  1  0.52214003  0.24404592  0.69477572  1
  Si  Si31  1  0.74703603  0.83179223  0.42884709  1
  Si  Si32  1  0.90394776  0.36236523  0.35949648  1
  Si  Si33  1  0.45397646  0.75549558  0.67049372  1
  Si  Si34  1  0.23455639  0.16577078  0.94170821  1
  Si  Si35  1  0.76544361  0.83422922  0.05829179  1
  Si  Si36  1  0.75296397  0.66820777  0.92884709  1
  Si  Si37  1  0.40394776  0.86236523  0.14050352  1
  Si  Si38  1  0.60626820  0.34963946  0.16947328  1
  Si  Si39  1  0.59605224  0.13763477  0.85949648  1
  Si  Si40  1  0.39373180  0.65036054  0.83052672  1
  Si  Si41  1  0.09605224  0.63763477  0.64050352  1
  Si  Si42  1  0.95397646  0.25549558  0.82950628  1
  Si  Si43  1  0.26544361  0.33422922  0.44170821  1
  Si  Si44  1  0.25296397  0.16820777  0.57115291  1
  Si  Si45  1  0.54602354  0.24450442  0.32950628  1
  Si  Si46  1  0.47785997  0.75595408  0.30522428  1
  Si  Si47  1  0.24703603  0.33179223  0.07115291  1
  O  O48  1  0.04471500  0.18754743  0.60427688  1
  O  O49  1  0.01656607  0.82042142  0.24649381  1
  O  O50  1  0.10983449  0.33886270  0.14499083  1
  O  O51  1  0.16584134  0.97065386  0.33902164  1
  O  O52  1  0.35640551  0.25739174  0.37789280  1
  O  O53  1  0.45528500  0.31245257  0.10427688  1
  O  O54  1  0.27210177  0.76485184  0.34375267  1
  O  O55  1  0.20004450  0.21831965  0.02655910  1
  O  O56  1  0.42457822  0.87811407  0.68620939  1
  O  O57  1  0.70992056  0.30098431  0.38148538  1
  O  O58  1  0.79995550  0.78168035  0.97344090  1
  O  O59  1  0.57542178  0.12188593  0.31379061  1
  O  O60  1  0.04217319  0.31710804  0.42670845  1
  O  O61  1  0.77210177  0.26485184  0.15624733  1
  O  O62  1  0.66827636  0.54507896  0.55858890  1
  O  O63  1  0.46249088  0.36373126  0.69477825  1
  O  O64  1  0.27073791  0.06363195  0.52122498  1
  O  O65  1  0.54217319  0.81710804  0.07329155  1
  O  O66  1  0.39016551  0.16113730  0.64499083  1
  O  O67  1  0.66584134  0.47065386  0.16097836  1
  O  O68  1  0.45782681  0.18289196  0.92670845  1
  O  O69  1  0.29007944  0.69901569  0.61851462  1
  O  O70  1  0.16827636  0.04507896  0.94141110  1
  O  O71  1  0.89305025  0.48803521  0.36084965  1
  O  O72  1  0.83415866  0.02934614  0.66097836  1
  O  O73  1  0.02441826  0.68542808  0.72151360  1
  O  O74  1  0.52441826  0.18542808  0.77848640  1
  O  O75  1  0.95528500  0.81245257  0.39572312  1
  O  O76  1  0.60694975  0.01196479  0.86084965  1
  O  O77  1  0.54471500  0.68754743  0.89572312  1
  O  O78  1  0.95782681  0.68289196  0.57329155  1
  O  O79  1  0.03750912  0.13626874  0.19477825  1
  O  O80  1  0.48343393  0.67957858  0.74649381  1
  O  O81  1  0.92457822  0.37811407  0.81379061  1
  O  O82  1  0.10694975  0.51196479  0.63915035  1
  O  O83  1  0.47558174  0.81457192  0.22151360  1
  O  O84  1  0.39305025  0.98803521  0.13915035  1
  O  O85  1  0.83172364  0.95492104  0.05858890  1
  O  O86  1  0.33172364  0.45492104  0.44141110  1
  O  O87  1  0.22926209  0.43636805  0.02122498  1
  O  O88  1  0.77073791  0.56363195  0.97877502  1
  O  O89  1  0.33415866  0.52934614  0.83902164  1
  O  O90  1  0.64359449  0.74260826  0.62210720  1
  O  O91  1  0.72926209  0.93636805  0.47877502  1
  O  O92  1  0.20992056  0.80098431  0.11851462  1
  O  O93  1  0.14359449  0.24260826  0.87789280  1
  O  O94  1  0.96249088  0.86373126  0.80522175  1
  O  O95  1  0.97558174  0.31457192  0.27848640  1
  O  O96  1  0.51656607  0.32042142  0.25350619  1
  O  O97  1  0.60983449  0.83886270  0.35500917  1
  O  O98  1  0.79007944  0.19901569  0.88148538  1
  O  O99  1  0.70004450  0.71831965  0.47344090  1
  O  O100  1  0.72789823  0.23514816  0.65624733  1
  O  O101  1  0.07542178  0.62188593  0.18620939  1
  O  O102  1  0.85640551  0.75739174  0.12210720  1
  O  O103  1  0.98343393  0.17957858  0.75350619  1
  O  O104  1  0.22789823  0.73514816  0.84375267  1
  O  O105  1  0.89016551  0.66113730  0.85500917  1
  O  O106  1  0.53750912  0.63626874  0.30522175  1
  O  O107  1  0.29995550  0.28168035  0.52655910  1
