# generated using pymatgen
data_LaSO
_symmetry_space_group_name_H-M   'P 1'
_cell_length_a   5.95036759
_cell_length_b   5.94638191
_cell_length_c   13.33152985
_cell_angle_alpha   90.00000000
_cell_angle_beta   90.00000000
_cell_angle_gamma   90.00000000
_symmetry_Int_Tables_number   1
_chemical_formula_structural   LaSO
_chemical_formula_sum   'La8 S8 O8'
_cell_volume   471.71162966
_cell_formula_units_Z   8
loop_
 _symmetry_equiv_pos_site_id
 _symmetry_equiv_pos_as_xyz
  1  'x, y, z'
loop_
 _atom_site_type_symbol
 _atom_site_label
 _atom_site_symmetry_multiplicity
 _atom_site_fract_x
 _atom_site_fract_y
 _atom_site_fract_z
 _atom_site_occupancy
  La  La0  1  0.25005124  0.49849110  0.08885054  1
  La  La1  1  0.74994876  0.50150890  0.58885054  1
  La  La2  1  0.25005124  0.00150890  0.91114946  1
  La  La3  1  0.25005124  0.00150890  0.58885054  1
  La  La4  1  0.25005124  0.49849110  0.41114946  1
  La  La5  1  0.74994876  0.50150890  0.91114946  1
  La  La6  1  0.74994876  0.99849110  0.41114946  1
  La  La7  1  0.74994876  0.99849110  0.08885054  1
  S  S8  1  0.62548485  0.88176055  0.75000000  1
  S  S9  1  0.87613845  0.13280304  0.75000000  1
  S  S10  1  0.62548485  0.61823945  0.25000000  1
  S  S11  1  0.87613845  0.36719696  0.25000000  1
  S  S12  1  0.12386155  0.63280304  0.75000000  1
  S  S13  1  0.12386155  0.86719696  0.25000000  1
  S  S14  1  0.37451515  0.11823945  0.25000000  1
  S  S15  1  0.37451515  0.38176055  0.75000000  1
  O  O16  1  0.00489201  0.25000000  0.00000000  1
  O  O17  1  0.99510799  0.75000000  0.50000000  1
  O  O18  1  0.00489201  0.25000000  0.50000000  1
  O  O19  1  0.49444906  0.75000000  0.00000000  1
  O  O20  1  0.50555094  0.25000000  0.50000000  1
  O  O21  1  0.49444906  0.75000000  0.50000000  1
  O  O22  1  0.99510799  0.75000000  0.00000000  1
  O  O23  1  0.50555094  0.25000000  0.00000000  1
