# generated using pymatgen
data_NaB3O5
_symmetry_space_group_name_H-M   'P 1'
_cell_length_a   9.15741579
_cell_length_b   11.13461393
_cell_length_c   12.23167443
_cell_angle_alpha   90.00000000
_cell_angle_beta   90.80925365
_cell_angle_gamma   90.00000000
_symmetry_Int_Tables_number   1
_chemical_formula_structural   NaB3O5
_chemical_formula_sum   'Na12 B36 O60'
_cell_volume   1247.06959227
_cell_formula_units_Z   12
loop_
 _symmetry_equiv_pos_site_id
 _symmetry_equiv_pos_as_xyz
  1  'x, y, z'
loop_
 _atom_site_type_symbol
 _atom_site_label
 _atom_site_symmetry_multiplicity
 _atom_site_fract_x
 _atom_site_fract_y
 _atom_site_fract_z
 _atom_site_occupancy
  Na  Na0  1  0.89933397  0.63065414  0.56418820  1
  Na  Na1  1  0.10066603  0.36934586  0.43581180  1
  Na  Na2  1  0.44101727  0.66123024  0.78546020  1
  Na  Na3  1  0.89933397  0.86934586  0.06418820  1
  Na  Na4  1  0.10066603  0.13065414  0.93581180  1
  Na  Na5  1  0.11232428  0.59386168  0.92091408  1
  Na  Na6  1  0.55898273  0.33876976  0.21453980  1
  Na  Na7  1  0.44101727  0.83876976  0.28546020  1
  Na  Na8  1  0.88767572  0.09386168  0.57908592  1
  Na  Na9  1  0.55898273  0.16123024  0.71453980  1
  Na  Na10  1  0.88767572  0.40613832  0.07908592  1
  Na  Na11  1  0.11232428  0.90613832  0.42091408  1
  B  B12  1  0.14144198  0.67123152  0.14224825  1
  B  B13  1  0.78479310  0.54123354  0.34693285  1
  B  B14  1  0.29603181  0.37943719  0.83526085  1
  B  B15  1  0.25138040  0.65742845  0.53684689  1
  B  B16  1  0.64512543  0.60200703  0.96541754  1
  B  B17  1  0.85898426  0.74182819  0.28881537  1
  B  B18  1  0.48630081  0.77963858  0.58175706  1
  B  B19  1  0.85855802  0.17123152  0.35775175  1
  B  B20  1  0.35487457  0.39799297  0.03458246  1
  B  B21  1  0.70396819  0.62056281  0.16473915  1
  B  B22  1  0.81997267  0.54092352  0.81272982  1
  B  B23  1  0.35487457  0.10200703  0.53458246  1
  B  B24  1  0.77638308  0.38177044  0.67449472  1
  B  B25  1  0.25138040  0.84257155  0.03684689  1
  B  B26  1  0.70396819  0.87943719  0.66473915  1
  B  B27  1  0.78479310  0.95876646  0.84693285  1
  B  B28  1  0.81997267  0.95907648  0.31272982  1
  B  B29  1  0.29603181  0.12056281  0.33526085  1
  B  B30  1  0.14101574  0.25817181  0.71118463  1
  B  B31  1  0.48630081  0.72036142  0.08175706  1
  B  B32  1  0.21520690  0.45876646  0.65306715  1
  B  B33  1  0.18002733  0.45907648  0.18727018  1
  B  B34  1  0.74861960  0.34257155  0.46315311  1
  B  B35  1  0.77638308  0.11822956  0.17449472  1
  B  B36  1  0.51369919  0.22036142  0.41824294  1
  B  B37  1  0.64512543  0.89799297  0.46541754  1
  B  B38  1  0.14101574  0.24182819  0.21118463  1
  B  B39  1  0.51369919  0.27963858  0.91824294  1
  B  B40  1  0.22361692  0.61822956  0.32550528  1
  B  B41  1  0.14144198  0.82876848  0.64224825  1
  B  B42  1  0.74861960  0.15742845  0.96315311  1
  B  B43  1  0.85898426  0.75817181  0.78881537  1
  B  B44  1  0.18002733  0.04092352  0.68727018  1
  B  B45  1  0.22361692  0.88177044  0.82550528  1
  B  B46  1  0.21520690  0.04123354  0.15306715  1
  B  B47  1  0.85855802  0.32876848  0.85775175  1
  O  O48  1  0.28073101  0.47883460  0.75323693  1
  O  O49  1  0.67486038  0.57240898  0.85969013  1
  O  O50  1  0.79606268  0.50111723  0.69779661  1
  O  O51  1  0.10650889  0.55326313  0.12100740  1
  O  O52  1  0.72552737  0.33513921  0.57971820  1
  O  O53  1  0.79606268  0.99888277  0.19779661  1
  O  O54  1  0.72631080  0.93190054  0.55527425  1
  O  O55  1  0.72552737  0.16486079  0.07971820  1
  O  O56  1  0.32513962  0.07240898  0.64030987  1
  O  O57  1  0.15234130  0.15477299  0.12956105  1
  O  O58  1  0.84765870  0.84522701  0.87043895  1
  O  O59  1  0.81670712  0.78508633  0.68415807  1
  O  O60  1  0.51936849  0.82657446  0.47853787  1
  O  O61  1  0.89349111  0.05326313  0.37899260  1
  O  O62  1  0.80085643  0.46303172  0.43152594  1
  O  O63  1  0.56088151  0.68024958  0.17292153  1
  O  O64  1  0.32513962  0.42759102  0.14030987  1
  O  O65  1  0.28073101  0.02116540  0.25323693  1
  O  O66  1  0.80085643  0.03696828  0.93152594  1
  O  O67  1  0.27447263  0.83513921  0.92028180  1
  O  O68  1  0.19426972  0.70508345  0.24462997  1
  O  O69  1  0.27368920  0.43190054  0.94472575  1
  O  O70  1  0.61576751  0.30772057  0.40313994  1
  O  O71  1  0.27447263  0.66486079  0.42028180  1
  O  O72  1  0.12895833  0.74608522  0.55974189  1
  O  O73  1  0.84765870  0.65477299  0.37043895  1
  O  O74  1  0.71926899  0.52116540  0.24676307  1
  O  O75  1  0.87104167  0.25391478  0.44025811  1
  O  O76  1  0.20393732  0.49888277  0.30220339  1
  O  O77  1  0.10650889  0.94673687  0.62100740  1
  O  O78  1  0.19914357  0.53696828  0.56847406  1
  O  O79  1  0.80573028  0.29491655  0.75537003  1
  O  O80  1  0.08534169  0.35227145  0.18355946  1
  O  O81  1  0.71926899  0.97883460  0.74676307  1
  O  O82  1  0.87104167  0.24608522  0.94025811  1
  O  O83  1  0.72631080  0.56809946  0.05527425  1
  O  O84  1  0.15234130  0.34522701  0.62956105  1
  O  O85  1  0.43911849  0.18024958  0.32707847  1
  O  O86  1  0.89349111  0.44673687  0.87899260  1
  O  O87  1  0.43911849  0.31975042  0.82707847  1
  O  O88  1  0.91465831  0.64772855  0.81644054  1
  O  O89  1  0.19426972  0.79491655  0.74462997  1
  O  O90  1  0.38423249  0.69227943  0.59686006  1
  O  O91  1  0.19914357  0.96303172  0.06847406  1
  O  O92  1  0.18329288  0.21491367  0.31584193  1
  O  O93  1  0.08534169  0.14772855  0.68355946  1
  O  O94  1  0.20393732  0.00111723  0.80220339  1
  O  O95  1  0.56088151  0.81975042  0.67292153  1
  O  O96  1  0.18329288  0.28508633  0.81584193  1
  O  O97  1  0.81670712  0.71491367  0.18415807  1
  O  O98  1  0.48063151  0.32657446  0.02146213  1
  O  O99  1  0.51936849  0.67342554  0.97853787  1
  O  O100  1  0.48063151  0.17342554  0.52146213  1
  O  O101  1  0.61576751  0.19227943  0.90313994  1
  O  O102  1  0.91465831  0.85227145  0.31644054  1
  O  O103  1  0.67486038  0.92759102  0.35969013  1
  O  O104  1  0.12895833  0.75391478  0.05974189  1
  O  O105  1  0.38423249  0.80772057  0.09686006  1
  O  O106  1  0.80573028  0.20508345  0.25537003  1
  O  O107  1  0.27368920  0.06809946  0.44472575  1
