# generated using pymatgen
data_ZnS
_symmetry_space_group_name_H-M   'P 1'
_cell_length_a   3.85392421
_cell_length_b   3.85392410
_cell_length_c   56.68843964
_cell_angle_alpha   90.00000000
_cell_angle_beta   90.00000000
_cell_angle_gamma   120.00000083
_symmetry_Int_Tables_number   1
_chemical_formula_structural   ZnS
_chemical_formula_sum   'Zn18 S18'
_cell_volume   729.17447665
_cell_formula_units_Z   18
loop_
 _symmetry_equiv_pos_site_id
 _symmetry_equiv_pos_as_xyz
  1  'x, y, z'
loop_
 _atom_site_type_symbol
 _atom_site_label
 _atom_site_symmetry_multiplicity
 _atom_site_fract_x
 _atom_site_fract_y
 _atom_site_fract_z
 _atom_site_occupancy
  Zn  Zn0  1  0.00000000  0.00000000  0.16666729  1
  Zn  Zn1  1  0.33333300  0.66666700  0.22222262  1
  Zn  Zn2  1  0.00000000  0.00000000  0.50000117  1
  Zn  Zn3  1  0.66666700  0.33333300  0.55555322  1
  Zn  Zn4  1  0.66666700  0.33333300  0.27777159  1
  Zn  Zn5  1  0.33333300  0.66666700  0.05556102  1
  Zn  Zn6  1  0.33333300  0.66666700  0.61110666  1
  Zn  Zn7  1  0.66666700  0.33333300  0.77779181  1
  Zn  Zn8  1  0.66666700  0.33333300  0.11111236  1
  Zn  Zn9  1  0.33333300  0.66666700  0.44444735  1
  Zn  Zn10  1  0.00000000  0.00000000  0.72221847  1
  Zn  Zn11  1  0.66666700  0.33333300  0.38891189  1
  Zn  Zn12  1  0.66666700  0.33333300  0.94443850  1
  Zn  Zn13  1  0.00000000  0.00000000  0.33332765  1
  Zn  Zn14  1  0.33333300  0.66666700  0.83333250  1
  Zn  Zn15  1  0.00000000  0.00000000  0.00001276  1
  Zn  Zn16  1  0.66666700  0.33333300  0.66667418  1
  Zn  Zn17  1  0.00000000  0.00000000  0.88888607  1
  S  S18  1  0.66666700  0.33333300  0.98614276  1
  S  S19  1  0.66666700  0.33333300  0.70829724  1
  S  S20  1  0.00000000  0.00000000  0.04166857  1
  S  S21  1  0.33333300  0.66666700  0.48611049  1
  S  S22  1  0.66666700  0.33333300  0.59718882  1
  S  S23  1  0.66666700  0.33333300  0.15277907  1
  S  S24  1  0.00000000  0.00000000  0.54166842  1
  S  S25  1  0.33333300  0.66666700  0.09722772  1
  S  S26  1  0.66666700  0.33333300  0.81944532  1
  S  S27  1  0.00000000  0.00000000  0.37503485  1
  S  S28  1  0.66666700  0.33333300  0.31940798  1
  S  S29  1  0.00000000  0.00000000  0.93052228  1
  S  S30  1  0.33333300  0.66666700  0.26388894  1
  S  S31  1  0.33333300  0.66666700  0.65281036  1
  S  S32  1  0.00000000  0.00000000  0.76392254  1
  S  S33  1  0.66666700  0.33333300  0.43056827  1
  S  S34  1  0.00000000  0.00000000  0.20833086  1
  S  S35  1  0.33333300  0.66666700  0.87499840  1
