# generated using pymatgen
data_Ag2INO3
_symmetry_space_group_name_H-M   'P 1'
_cell_length_a   7.34794746
_cell_length_b   7.93799575
_cell_length_c   17.57969274
_cell_angle_alpha   90.00000000
_cell_angle_beta   90.00000000
_cell_angle_gamma   90.00000000
_symmetry_Int_Tables_number   1
_chemical_formula_structural   Ag2INO3
_chemical_formula_sum   'Ag16 I8 N8 O24'
_cell_volume   1025.38789111
_cell_formula_units_Z   8
loop_
 _symmetry_equiv_pos_site_id
 _symmetry_equiv_pos_as_xyz
  1  'x, y, z'
loop_
 _atom_site_type_symbol
 _atom_site_label
 _atom_site_symmetry_multiplicity
 _atom_site_fract_x
 _atom_site_fract_y
 _atom_site_fract_z
 _atom_site_occupancy
  Ag  Ag0  1  0.83300120  0.01421060  0.69386528  1
  Ag  Ag1  1  0.16699880  0.51421060  0.80613472  1
  Ag  Ag2  1  0.74711352  0.52817641  0.05867845  1
  Ag  Ag3  1  0.25288648  0.02817641  0.44132155  1
  Ag  Ag4  1  0.24711352  0.97182359  0.94132155  1
  Ag  Ag5  1  0.21523836  0.96984701  0.68526013  1
  Ag  Ag6  1  0.78476164  0.46984701  0.81473987  1
  Ag  Ag7  1  0.66699880  0.98578940  0.19386528  1
  Ag  Ag8  1  0.83281755  0.96884949  0.94175475  1
  Ag  Ag9  1  0.66718245  0.03115051  0.44175475  1
  Ag  Ag10  1  0.75288648  0.47182359  0.55867845  1
  Ag  Ag11  1  0.28476164  0.03015299  0.18526013  1
  Ag  Ag12  1  0.16718245  0.46884949  0.55824525  1
  Ag  Ag13  1  0.33300120  0.48578940  0.30613472  1
  Ag  Ag14  1  0.71523836  0.53015299  0.31473987  1
  Ag  Ag15  1  0.33281755  0.53115051  0.05824525  1
  I  I16  1  0.54611424  0.85232920  0.04887340  1
  I  I17  1  0.02658553  0.15759029  0.82091978  1
  I  I18  1  0.04611424  0.64767080  0.95112660  1
  I  I19  1  0.95388576  0.14767080  0.54887340  1
  I  I20  1  0.47341447  0.84240971  0.32091978  1
  I  I21  1  0.52658553  0.34240971  0.17908022  1
  I  I22  1  0.97341447  0.65759029  0.67908022  1
  I  I23  1  0.45388576  0.35232920  0.45112660  1
  N  N24  1  0.00052702  0.71108109  0.42957011  1
  N  N25  1  0.97562895  0.14696051  0.29482299  1
  N  N26  1  0.02437105  0.64696051  0.20517701  1
  N  N27  1  0.50052702  0.78891891  0.57042989  1
  N  N28  1  0.49947298  0.28891891  0.92957011  1
  N  N29  1  0.52437105  0.85303949  0.79482299  1
  N  N30  1  0.47562895  0.35303949  0.70517701  1
  N  N31  1  0.99947298  0.21108109  0.07042989  1
  O  O32  1  0.91652666  0.57036249  0.42870194  1
  O  O33  1  0.08347334  0.07036249  0.07129806  1
  O  O34  1  0.95343470  0.83044524  0.38692120  1
  O  O35  1  0.54656530  0.16955476  0.88692120  1
  O  O36  1  0.36451965  0.27023845  0.97496819  1
  O  O37  1  0.86857659  0.68511456  0.17976812  1
  O  O38  1  0.41652666  0.92963751  0.57129806  1
  O  O39  1  0.16864930  0.69579898  0.17349641  1
  O  O40  1  0.33135070  0.30420102  0.67349641  1
  O  O41  1  0.53304012  0.94573529  0.73450891  1
  O  O42  1  0.63548035  0.77023845  0.52503181  1
  O  O43  1  0.86451965  0.22976155  0.02503181  1
  O  O44  1  0.83135070  0.19579898  0.32650359  1
  O  O45  1  0.13142341  0.18511456  0.32023188  1
  O  O46  1  0.63142341  0.31488544  0.67976812  1
  O  O47  1  0.03304012  0.55426471  0.26549109  1
  O  O48  1  0.13548035  0.72976155  0.47496819  1
  O  O49  1  0.04656530  0.33044524  0.11307880  1
  O  O50  1  0.36857659  0.81488544  0.82023188  1
  O  O51  1  0.46695988  0.44573529  0.76549109  1
  O  O52  1  0.66864930  0.80420102  0.82650359  1
  O  O53  1  0.45343470  0.66955476  0.61307880  1
  O  O54  1  0.58347334  0.42963751  0.92870194  1
  O  O55  1  0.96695988  0.05426471  0.23450891  1
