# generated using pymatgen
data_CaFeF5
_symmetry_space_group_name_H-M   'P 1'
_cell_length_a   5.58659111
_cell_length_b   7.72865029
_cell_length_c   10.24249535
_cell_angle_alpha   90.00000000
_cell_angle_beta   90.00000000
_cell_angle_gamma   109.94730014
_symmetry_Int_Tables_number   1
_chemical_formula_structural   CaFeF5
_chemical_formula_sum   'Ca4 Fe4 F20'
_cell_volume   415.70698081
_cell_formula_units_Z   4
loop_
 _symmetry_equiv_pos_site_id
 _symmetry_equiv_pos_as_xyz
  1  'x, y, z'
loop_
 _atom_site_type_symbol
 _atom_site_label
 _atom_site_symmetry_multiplicity
 _atom_site_fract_x
 _atom_site_fract_y
 _atom_site_fract_z
 _atom_site_occupancy
  Ca  Ca0  1  0.47078823  0.74540248  0.01935219  1
  Ca  Ca1  1  0.52921177  0.75459752  0.51935219  1
  Ca  Ca2  1  0.52921177  0.25459752  0.98064781  1
  Ca  Ca3  1  0.47078823  0.24540248  0.48064781  1
  Fe  Fe4  1  0.89439093  0.59989804  0.75354333  1
  Fe  Fe5  1  0.10560907  0.90010196  0.25354333  1
  Fe  Fe6  1  0.10560907  0.40010196  0.24645667  1
  Fe  Fe7  1  0.89439093  0.09989804  0.74645667  1
  F  F8  1  0.61253267  0.55653592  0.88245862  1
  F  F9  1  0.38746733  0.94346408  0.38245862  1
  F  F10  1  0.38746733  0.44346408  0.11754138  1
  F  F11  1  0.61253267  0.05653592  0.61754138  1
  F  F12  1  0.64350001  0.50513838  0.61216562  1
  F  F13  1  0.35649999  0.99486162  0.11216562  1
  F  F14  1  0.35649999  0.49486162  0.38783438  1
  F  F15  1  0.64350001  0.00513838  0.88783438  1
  F  F16  1  0.87860444  0.81103897  0.39566715  1
  F  F17  1  0.12139556  0.68896103  0.89566715  1
  F  F18  1  0.12139556  0.18896103  0.60433285  1
  F  F19  1  0.87860444  0.31103897  0.10433285  1
  F  F20  1  0.82896633  0.85936075  0.13669353  1
  F  F21  1  0.17103367  0.64063925  0.63669353  1
  F  F22  1  0.17103367  0.14063925  0.86330647  1
  F  F23  1  0.82896633  0.35936075  0.36330647  1
  F  F24  1  0.84537987  0.83667046  0.70286001  1
  F  F25  1  0.15462013  0.66332954  0.20286001  1
  F  F26  1  0.15462013  0.16332954  0.29713999  1
  F  F27  1  0.84537987  0.33667046  0.79713999  1
