# generated using pymatgen
data_Cd2Bi6O11
_symmetry_space_group_name_H-M   'P 1'
_cell_length_a   3.68728000
_cell_length_b   3.67554166
_cell_length_c   31.87538745
_cell_angle_alpha   116.95242633
_cell_angle_beta   118.57544667
_cell_angle_gamma   90.77371644
_symmetry_Int_Tables_number   1
_chemical_formula_structural   Cd2Bi6O11
_chemical_formula_sum   'Cd2 Bi6 O11'
_cell_volume   323.20377550
_cell_formula_units_Z   1
loop_
 _symmetry_equiv_pos_site_id
 _symmetry_equiv_pos_as_xyz
  1  'x, y, z'
loop_
 _atom_site_type_symbol
 _atom_site_label
 _atom_site_symmetry_multiplicity
 _atom_site_fract_x
 _atom_site_fract_y
 _atom_site_fract_z
 _atom_site_occupancy
  Cd  Cd0  1  0.12209584  0.92557892  0.24711850  1
  Cd  Cd1  1  0.17301008  0.01103738  0.14066950  1
  Bi  Bi2  1  0.18115522  0.93738579  0.89028911  1
  Bi  Bi3  1  0.97732218  -0.01454438  0.74938683  1
  Bi  Bi4  1  0.93944177  0.92007257  0.61013257  1
  Bi  Bi5  1  0.84751403  0.85194137  0.47724943  1
  Bi  Bi6  1  0.90532197  0.89913060  0.36292447  1
  Bi  Bi7  1  0.09066247  0.04235566  0.01929515  1
  O  O8  1  0.78370873  0.71525337  0.91491989  1
  O  O9  1  0.66185393  0.42979456  0.99056626  1
  O  O10  1  0.87682174  0.24705201  0.81838307  1
  O  O11  1  0.57730317  0.37720814  0.72229478  1
  O  O12  1  0.12250805  0.63219922  0.42076079  1
  O  O13  1  0.60999937  0.43680554  0.61898193  1
  O  O14  1  0.57989099  0.56629013  0.52108126  1
  O  O15  1  0.60865965  0.12278145  0.41783807  1
  O  O16  1  0.85498563  0.14918082  0.30022640  1
  O  O17  1  0.89022230  0.20603927  0.19196596  1
  O  O18  1  0.94752287  0.29443758  0.08591604  1
