# generated using pymatgen
data_Na2Ca3(Si3O8)2
_symmetry_space_group_name_H-M   'P 1'
_cell_length_a   7.30466891
_cell_length_b   10.28536101
_cell_length_c   10.80158757
_cell_angle_alpha   95.59755829
_cell_angle_beta   109.80573970
_cell_angle_gamma   99.08614194
_symmetry_Int_Tables_number   1
_chemical_formula_structural   Na2Ca3(Si3O8)2
_chemical_formula_sum   'Na4 Ca6 Si12 O32'
_cell_volume   743.91838299
_cell_formula_units_Z   2
loop_
 _symmetry_equiv_pos_site_id
 _symmetry_equiv_pos_as_xyz
  1  'x, y, z'
loop_
 _atom_site_type_symbol
 _atom_site_label
 _atom_site_symmetry_multiplicity
 _atom_site_fract_x
 _atom_site_fract_y
 _atom_site_fract_z
 _atom_site_occupancy
  Na  Na0  1  0.64731173  0.41884532  0.82452379  1
  Na  Na1  1  0.60284863  0.86538943  0.52047815  1
  Na  Na2  1  0.39715137  0.13461057  0.47952185  1
  Na  Na3  1  0.35268827  0.58115468  0.17547621  1
  Ca  Ca4  1  0.03476707  0.87518739  0.87987065  1
  Ca  Ca5  1  0.53652051  0.86557351  0.88799201  1
  Ca  Ca6  1  0.96523293  0.12481261  0.12012935  1
  Ca  Ca7  1  0.09643836  0.84988014  0.51537784  1
  Ca  Ca8  1  0.90356164  0.15011986  0.48462216  1
  Ca  Ca9  1  0.46347949  0.13442649  0.11200799  1
  Si  Si10  1  0.38558921  0.60126433  0.63936863  1
  Si  Si11  1  0.18758247  0.40199540  0.37313603  1
  Si  Si12  1  0.79845257  0.41636020  0.15007828  1
  Si  Si13  1  0.31856218  0.12659026  0.76869450  1
  Si  Si14  1  0.15045741  0.31278889  0.92389881  1
  Si  Si15  1  0.81241753  0.59800460  0.62686397  1
  Si  Si16  1  0.20154743  0.58363980  0.84992172  1
  Si  Si17  1  0.24985917  0.86732187  0.23119064  1
  Si  Si18  1  0.61441079  0.39873567  0.36063137  1
  Si  Si19  1  0.68143782  0.87340974  0.23130550  1
  Si  Si20  1  0.75014083  0.13267813  0.76880936  1
  Si  Si21  1  0.84954259  0.68721111  0.07610119  1
  O  O22  1  0.21542805  0.50136742  0.50980425  1
  O  O23  1  0.26515572  0.26598671  0.82477577  1
  O  O24  1  0.88508694  0.75477553  0.62871130  1
  O  O25  1  0.80366685  0.02360046  0.86930384  1
  O  O26  1  0.38285013  0.75789353  0.64084910  1
  O  O27  1  0.78457195  0.49863258  0.49019575  1
  O  O28  1  0.27096648  0.91258295  0.38311884  1
  O  O29  1  0.73484428  0.73401329  0.17522423  1
  O  O30  1  0.54080373  0.18215185  0.76287877  1
  O  O31  1  0.11491306  0.24522447  0.37128870  1
  O  O32  1  0.64862973  0.45097567  0.22859474  1
  O  O33  1  0.19633315  0.97639954  0.13069616  1
  O  O34  1  0.78148995  0.52175037  0.04195304  1
  O  O35  1  0.35137027  0.54902433  0.77140526  1
  O  O36  1  0.08949936  0.72216268  0.16363407  1
  O  O37  1  0.72903352  0.08741705  0.61688116  1
  O  O38  1  0.61714987  0.24210647  0.35915090  1
  O  O39  1  0.26482996  0.73693891  0.91804412  1
  O  O40  1  0.67501545  0.97807870  0.12646799  1
  O  O41  1  0.59997824  0.56080985  0.65117995  1
  O  O42  1  0.21851005  0.47824963  0.95804696  1
  O  O43  1  0.45919627  0.81784815  0.23712123  1
  O  O44  1  0.20530661  0.24886076  0.05795666  1
  O  O45  1  0.73517004  0.26306109  0.08195588  1
  O  O46  1  0.82822259  0.93298307  0.38285109  1
  O  O47  1  0.79469339  0.75113924  0.94204334  1
  O  O48  1  0.96814955  0.54214011  0.74877076  1
  O  O49  1  0.03185045  0.45785989  0.25122924  1
  O  O50  1  0.91050064  0.27783732  0.83636593  1
  O  O51  1  0.17177741  0.06701693  0.61714891  1
  O  O52  1  0.40002176  0.43919015  0.34882005  1
  O  O53  1  0.32498455  0.02192130  0.87353201  1
