# generated using pymatgen
data_NaMn3F10
_symmetry_space_group_name_H-M   'P 1'
_cell_length_a   7.48413668
_cell_length_b   7.68163076
_cell_length_c   8.81495964
_cell_angle_alpha   78.06513624
_cell_angle_beta   64.88013816
_cell_angle_gamma   60.84689855
_symmetry_Int_Tables_number   1
_chemical_formula_structural   NaMn3F10
_chemical_formula_sum   'Na2 Mn6 F20'
_cell_volume   400.71935766
_cell_formula_units_Z   2
loop_
 _symmetry_equiv_pos_site_id
 _symmetry_equiv_pos_as_xyz
  1  'x, y, z'
loop_
 _atom_site_type_symbol
 _atom_site_label
 _atom_site_symmetry_multiplicity
 _atom_site_fract_x
 _atom_site_fract_y
 _atom_site_fract_z
 _atom_site_occupancy
  Na  Na0  1  0.98611655  1.00000000  1.00000000  1
  Na  Na1  1  0.73611655  0.50000000  0.50000000  1
  Mn  Mn2  1  0.50538533  1.00000000  1.00000000  1
  Mn  Mn3  1  0.25538533  0.50000000  0.50000000  1
  Mn  Mn4  1  0.75764374  0.00059025  0.50053183  1
  Mn  Mn5  1  0.25876582  0.99940975  0.49946817  1
  Mn  Mn6  1  0.50823399  0.49940975  0.00053183  1
  Mn  Mn7  1  0.00817557  0.50059025  0.99946817  1
  F  F8  1  0.87581904  0.00651311  0.27303754  1
  F  F9  1  0.15536969  0.99348689  0.72696246  1
  F  F10  1  0.63233215  0.49348689  0.77303754  1
  F  F11  1  0.89885657  0.50651311  0.22696246  1
  F  F12  1  0.80081066  0.40730841  0.00782457  1
  F  F13  1  0.21594365  0.59269159  0.99217543  1
  F  F14  1  0.95811907  0.09269159  0.50782457  1
  F  F15  1  0.55863523  0.90730841  0.49217543  1
  F  F16  1  0.34521379  0.69427541  0.49664525  1
  F  F17  1  0.53613445  0.30572459  0.50335475  1
  F  F18  1  0.78948920  0.80572459  0.99664525  1
  F  F19  1  0.59185904  0.19427541  0.00335475  1
  F  F20  1  0.36937160  1.00016515  0.26603587  1
  F  F21  1  0.63557262  -0.00016515  0.73396413  1
  F  F22  1  0.11953675  0.49983485  0.76603587  1
  F  F23  1  0.38540747  0.50016515  0.23396413  1
  F  F24  1  0.97552739  0.69767992  0.50191836  1
  F  F25  1  0.17512568  0.30232008  0.49808164  1
  F  F26  1  0.42320732  0.80232008  0.00191836  1
  F  F27  1  0.22744575  0.19767992  0.99808164  1
