# generated using pymatgen
data_Sb2SeI2F11
_symmetry_space_group_name_H-M   'P 1'
_cell_length_a   8.23793978
_cell_length_b   9.47810169
_cell_length_c   18.27272906
_cell_angle_alpha   91.90595978
_cell_angle_beta   95.17931656
_cell_angle_gamma   96.09550347
_symmetry_Int_Tables_number   1
_chemical_formula_structural   Sb2SeI2F11
_chemical_formula_sum   'Sb8 Se4 I8 F44'
_cell_volume   1411.55355641
_cell_formula_units_Z   4
loop_
 _symmetry_equiv_pos_site_id
 _symmetry_equiv_pos_as_xyz
  1  'x, y, z'
loop_
 _atom_site_type_symbol
 _atom_site_label
 _atom_site_symmetry_multiplicity
 _atom_site_fract_x
 _atom_site_fract_y
 _atom_site_fract_z
 _atom_site_occupancy
  Sb  Sb0  1  0.31279072  0.77097547  0.40979035  1
  Sb  Sb1  1  0.21297090  0.36742083  0.92937425  1
  Sb  Sb2  1  0.68720928  0.22902453  0.59020965  1
  Sb  Sb3  1  0.78702910  0.63257917  0.07062575  1
  Sb  Sb4  1  0.40136282  0.84652206  0.11204287  1
  Sb  Sb5  1  0.85456469  0.55569006  0.36709037  1
  Sb  Sb6  1  0.59863718  0.15347794  0.88795713  1
  Sb  Sb7  1  0.14543531  0.44430994  0.63290963  1
  Se  Se8  1  0.69557686  0.83477920  0.72316500  1
  Se  Se9  1  0.03024952  0.97990605  0.76058220  1
  Se  Se10  1  0.30442314  0.16522080  0.27683500  1
  Se  Se11  1  0.96975048  0.02009395  0.23941780  1
  I  I12  1  0.88465444  0.17513476  0.14012332  1
  I  I13  1  0.84414689  0.08647539  0.35240330  1
  I  I14  1  0.15585311  0.91352461  0.64759670  1
  I  I15  1  0.69725693  0.63803842  0.80875414  1
  I  I16  1  0.72347344  0.73434750  0.59802049  1
  I  I17  1  0.27652656  0.26565250  0.40197951  1
  I  I18  1  0.11534556  0.82486524  0.85987668  1
  I  I19  1  0.30274307  0.36196158  0.19124586  1
  F  F20  1  0.96270019  0.51767438  0.07791057  1
  F  F21  1  0.45650496  0.11576028  0.79954871  1
  F  F22  1  0.87153322  0.74968056  0.15505358  1
  F  F23  1  0.84009458  0.71775508  0.30978529  1
  F  F24  1  0.78049766  0.66003095  0.44679715  1
  F  F25  1  0.22839565  0.93462005  0.15300582  1
  F  F26  1  0.03729276  0.53480634  0.70632245  1
  F  F27  1  0.64449240  0.46317973  0.33307065  1
  F  F28  1  0.48683954  0.10851154  0.58620161  1
  F  F29  1  0.32960423  0.66454721  0.14546741  1
  F  F30  1  0.33970265  0.48921280  0.87011090  1
  F  F31  1  0.23872297  0.86994153  0.49120587  1
  F  F32  1  0.35230758  0.65897457  0.32690462  1
  F  F33  1  0.15990542  0.28224492  0.69021471  1
  F  F34  1  0.51316046  0.89148846  0.41379839  1
  F  F35  1  0.50989642  0.97672810  0.92158318  1
  F  F36  1  0.20297113  0.89451909  0.34525487  1
  F  F37  1  0.64769242  0.34102543  0.67309538  1
  F  F38  1  0.67039577  0.33545279  0.85453259  1
  F  F39  1  0.11420940  0.22835464  0.98913385  1
  F  F40  1  0.41048140  0.24168199  0.93292907  1
  F  F41  1  0.88579060  0.77164536  0.01086615  1
  F  F42  1  0.60401295  0.36325142  0.52590069  1
  F  F43  1  0.72186155  0.19954877  0.98029984  1
  F  F44  1  0.90435393  0.41088572  0.43237702  1
  F  F45  1  0.12846678  0.25031944  0.84494642  1
  F  F46  1  0.76127703  0.13005847  0.50879413  1
  F  F47  1  0.03729981  0.48232562  0.92208943  1
  F  F48  1  0.08917388  0.64978385  0.40647601  1
  F  F49  1  0.09564607  0.58911428  0.56762298  1
  F  F50  1  0.58951860  0.75831801  0.06707093  1
  F  F51  1  0.27813845  0.80045123  0.01970016  1
  F  F52  1  0.54349504  0.88423972  0.20045129  1
  F  F53  1  0.49010358  0.02327190  0.07841682  1
  F  F54  1  0.21950234  0.33996905  0.55320285  1
  F  F55  1  0.39598705  0.63674858  0.47409931  1
  F  F56  1  0.32393944  0.46057955  0.01620174  1
  F  F57  1  0.77160435  0.06537995  0.84699418  1
  F  F58  1  0.66029735  0.51078720  0.12988910  1
  F  F59  1  0.35550760  0.53682027  0.66692935  1
  F  F60  1  0.67606056  0.53942045  0.98379826  1
  F  F61  1  0.96270724  0.46519366  0.29367755  1
  F  F62  1  0.79702887  0.10548091  0.65474513  1
  F  F63  1  0.91082612  0.35021615  0.59352399  1
