# generated using pymatgen
data_Ba6Nb2Ir(ClO6)2
_symmetry_space_group_name_H-M   'P 1'
_cell_length_a   6.04528185
_cell_length_b   6.04528219
_cell_length_c   14.98879594
_cell_angle_alpha   90.00000000
_cell_angle_beta   90.00000000
_cell_angle_gamma   119.99999809
_symmetry_Int_Tables_number   1
_chemical_formula_structural   Ba6Nb2Ir(ClO6)2
_chemical_formula_sum   'Ba6 Nb2 Ir1 Cl2 O12'
_cell_volume   474.38453138
_cell_formula_units_Z   1
loop_
 _symmetry_equiv_pos_site_id
 _symmetry_equiv_pos_as_xyz
  1  'x, y, z'
loop_
 _atom_site_type_symbol
 _atom_site_label
 _atom_site_symmetry_multiplicity
 _atom_site_fract_x
 _atom_site_fract_y
 _atom_site_fract_z
 _atom_site_occupancy
  Ba  Ba0  1  0.33333300  0.66666700  0.36575985  1
  Ba  Ba1  1  0.33333300  0.66666700  0.79195783  1
  Ba  Ba2  1  0.66666700  0.33333300  0.63424015  1
  Ba  Ba3  1  0.66666700  0.33333300  0.92709989  1
  Ba  Ba4  1  0.33333300  0.66666700  0.07290011  1
  Ba  Ba5  1  0.66666700  0.33333300  0.20804217  1
  Nb  Nb6  1  0.00000000  0.00000000  0.81317238  1
  Nb  Nb7  1  0.00000000  0.00000000  0.18682762  1
  Ir  Ir8  1  0.00000000  0.00000000  0.00000000  1
  Cl  Cl9  1  0.66666700  0.33333300  0.42003110  1
  Cl  Cl10  1  0.33333300  0.66666700  0.57996890  1
  O  O11  1  0.15397746  0.30795491  0.91714892  1
  O  O12  1  0.32467587  0.16233794  0.75681621  1
  O  O13  1  0.16233794  0.32467587  0.24318379  1
  O  O14  1  0.83766206  0.67532413  0.75681621  1
  O  O15  1  0.83766206  0.16233794  0.75681621  1
  O  O16  1  0.84602254  0.69204509  0.08285108  1
  O  O17  1  0.16233794  0.83766206  0.24318379  1
  O  O18  1  0.30795491  0.15397746  0.08285108  1
  O  O19  1  0.84602254  0.15397746  0.08285108  1
  O  O20  1  0.69204509  0.84602254  0.91714892  1
  O  O21  1  0.67532413  0.83766206  0.24318379  1
  O  O22  1  0.15397746  0.84602254  0.91714892  1
