# generated using pymatgen
data_Yb3SiO
_symmetry_space_group_name_H-M   'P 1'
_cell_length_a   6.57434739
_cell_length_b   6.58953254
_cell_length_c   9.30522979
_cell_angle_alpha   90.00000000
_cell_angle_beta   90.00000000
_cell_angle_gamma   90.00000000
_symmetry_Int_Tables_number   1
_chemical_formula_structural   Yb3SiO
_chemical_formula_sum   'Yb12 Si4 O4'
_cell_volume   403.12001163
_cell_formula_units_Z   4
loop_
 _symmetry_equiv_pos_site_id
 _symmetry_equiv_pos_as_xyz
  1  'x, y, z'
loop_
 _atom_site_type_symbol
 _atom_site_label
 _atom_site_symmetry_multiplicity
 _atom_site_fract_x
 _atom_site_fract_y
 _atom_site_fract_z
 _atom_site_occupancy
  Yb  Yb0  1  0.76531892  0.23469137  0.98398853  1
  Yb  Yb1  1  0.23468108  0.76530863  0.48398853  1
  Yb  Yb2  1  -0.00108634  0.53139364  0.75000000  1
  Yb  Yb3  1  0.26531892  0.26530863  0.98398853  1
  Yb  Yb4  1  0.23468108  0.76530863  0.01601147  1
  Yb  Yb5  1  0.26531892  0.26530863  0.51601147  1
  Yb  Yb6  1  1.00108634  0.46860636  0.25000000  1
  Yb  Yb7  1  0.49891366  0.96860636  0.75000000  1
  Yb  Yb8  1  0.50108634  0.03139364  0.25000000  1
  Yb  Yb9  1  0.76531892  0.23469137  0.51601147  1
  Yb  Yb10  1  0.73468108  0.73469137  0.48398853  1
  Yb  Yb11  1  0.73468108  0.73469137  0.01601147  1
  Si  Si12  1  0.50624767  0.49899337  0.75000000  1
  Si  Si13  1  0.99375233  0.99899337  0.25000000  1
  Si  Si14  1  0.49375233  0.50100663  0.25000000  1
  Si  Si15  1  0.00624767  0.00100663  0.75000000  1
  O  O16  1  0.00000000  0.50000000  0.50000000  1
  O  O17  1  0.50000000  0.00000000  0.00000000  1
  O  O18  1  0.50000000  0.00000000  0.50000000  1
  O  O19  1  0.00000000  0.50000000  0.00000000  1
