# generated using pymatgen
data_Li4Zn(PO4)2
_symmetry_space_group_name_H-M   'P 1'
_cell_length_a   8.20926675
_cell_length_b   8.22224373
_cell_length_c   10.40428318
_cell_angle_alpha   90.00000000
_cell_angle_beta   90.00000000
_cell_angle_gamma   104.63982739
_symmetry_Int_Tables_number   1
_chemical_formula_structural   Li4Zn(PO4)2
_chemical_formula_sum   'Li16 Zn4 P8 O32'
_cell_volume   679.47422565
_cell_formula_units_Z   4
loop_
 _symmetry_equiv_pos_site_id
 _symmetry_equiv_pos_as_xyz
  1  'x, y, z'
loop_
 _atom_site_type_symbol
 _atom_site_label
 _atom_site_symmetry_multiplicity
 _atom_site_fract_x
 _atom_site_fract_y
 _atom_site_fract_z
 _atom_site_occupancy
  Li  Li0  1  0.72768700  0.47796715  0.92705676  1
  Li  Li1  1  0.84901278  0.85047066  0.34870596  1
  Li  Li2  1  0.65098722  0.14952934  0.84870596  1
  Li  Li3  1  0.27231300  0.52203285  0.07294324  1
  Li  Li4  1  0.22768700  0.47796715  0.57294324  1
  Li  Li5  1  0.15098722  0.14952934  0.65129404  1
  Li  Li6  1  0.40065713  0.39829032  0.83554103  1
  Li  Li7  1  0.84256594  0.34532503  0.16205538  1
  Li  Li8  1  0.77231300  0.52203285  0.42705676  1
  Li  Li9  1  0.34901278  0.85047066  0.15129404  1
  Li  Li10  1  0.65743406  0.65467497  0.66205538  1
  Li  Li11  1  0.34256594  0.34532503  0.33794462  1
  Li  Li12  1  0.59934287  0.60170968  0.16445897  1
  Li  Li13  1  0.15743406  0.65467497  0.83794462  1
  Li  Li14  1  0.09934287  0.60170968  0.33554103  1
  Li  Li15  1  0.90065713  0.39829032  0.66445897  1
  Zn  Zn16  1  0.09129167  0.09221352  0.15670597  1
  Zn  Zn17  1  0.59129167  0.09221352  0.34329403  1
  Zn  Zn18  1  0.90870833  0.90778648  0.84329403  1
  Zn  Zn19  1  0.40870833  0.90778648  0.65670597  1
  P  P20  1  0.53432152  0.76756777  0.90672898  1
  P  P21  1  0.46567848  0.23243223  0.09327102  1
  P  P22  1  0.97330545  0.71115216  0.09147239  1
  P  P23  1  0.52669455  0.28884784  0.59147239  1
  P  P24  1  0.03432152  0.76756777  0.59327102  1
  P  P25  1  0.47330545  0.71115216  0.40852761  1
  P  P26  1  0.02669455  0.28884784  0.90852761  1
  P  P27  1  0.96567848  0.23243223  0.40672898  1
  O  O28  1  0.91227533  0.38333608  0.34473141  1
  O  O29  1  0.37168658  0.33761596  0.65003568  1
  O  O30  1  0.00880794  0.75565214  0.94645853  1
  O  O31  1  0.99119206  0.24434786  0.05354147  1
  O  O32  1  0.58772467  0.61666392  0.84473141  1
  O  O33  1  0.12831342  0.66238404  0.15003568  1
  O  O34  1  0.88416831  0.80483410  0.66966835  1
  O  O35  1  0.31316121  0.56286328  0.39902937  1
  O  O36  1  0.62831342  0.66238404  0.34996432  1
  O  O37  1  0.31544386  0.07173699  0.10306383  1
  O  O38  1  0.47820102  0.72542431  0.04729056  1
  O  O39  1  0.68455614  0.92826301  0.89693617  1
  O  O40  1  0.97820102  0.72542431  0.45270944  1
  O  O41  1  0.08772467  0.61666392  0.65526859  1
  O  O42  1  0.02179898  0.27457569  0.54729056  1
  O  O43  1  0.41227533  0.38333608  0.15526859  1
  O  O44  1  0.43939957  0.86364812  0.33314734  1
  O  O45  1  0.38416831  0.80483410  0.83033165  1
  O  O46  1  0.11583169  0.19516590  0.33033165  1
  O  O47  1  0.06060043  0.13635188  0.83314734  1
  O  O48  1  0.61583169  0.19516590  0.16966835  1
  O  O49  1  0.50880794  0.75565214  0.55354147  1
  O  O50  1  0.18683879  0.43713672  0.89902937  1
  O  O51  1  0.93939957  0.86364812  0.16685266  1
  O  O52  1  0.52179898  0.27457569  0.95270944  1
  O  O53  1  0.18455614  0.92826301  0.60306383  1
  O  O54  1  0.56060043  0.13635188  0.66685266  1
  O  O55  1  0.49119206  0.24434786  0.44645853  1
  O  O56  1  0.81544386  0.07173699  0.39693617  1
  O  O57  1  0.87168658  0.33761596  0.84996432  1
  O  O58  1  0.81316121  0.56286328  0.10097063  1
  O  O59  1  0.68683879  0.43713672  0.60097063  1
