# generated using pymatgen
data_La3Fe2S7
_symmetry_space_group_name_H-M   'P 1'
_cell_length_a   10.16383485
_cell_length_b   10.16383445
_cell_length_c   5.93751903
_cell_angle_alpha   90.00000000
_cell_angle_beta   90.00000000
_cell_angle_gamma   120.00000134
_symmetry_Int_Tables_number   1
_chemical_formula_structural   La3Fe2S7
_chemical_formula_sum   'La6 Fe4 S14'
_cell_volume   531.19114008
_cell_formula_units_Z   2
loop_
 _symmetry_equiv_pos_site_id
 _symmetry_equiv_pos_as_xyz
  1  'x, y, z'
loop_
 _atom_site_type_symbol
 _atom_site_label
 _atom_site_symmetry_multiplicity
 _atom_site_fract_x
 _atom_site_fract_y
 _atom_site_fract_z
 _atom_site_occupancy
  La  La0  1  0.62568949  0.85813511  0.72475183  1
  La  La1  1  0.85813511  0.23244562  0.22475183  1
  La  La2  1  0.76755438  0.62568949  0.22475183  1
  La  La3  1  0.23244562  0.37431051  0.72475183  1
  La  La4  1  0.14186489  0.76755438  0.72475183  1
  La  La5  1  0.37431051  0.14186489  0.22475183  1
  Fe  Fe6  1  0.66666700  0.33333300  0.63869937  1
  Fe  Fe7  1  0.33333300  0.66666700  0.13869937  1
  Fe  Fe8  1  0.00000000  0.00000000  0.00619157  1
  Fe  Fe9  1  0.00000000  0.00000000  0.50619157  1
  S  S10  1  0.41934531  0.90356747  0.00462050  1
  S  S11  1  0.66666700  0.33333300  0.01404209  1
  S  S12  1  0.90356747  0.48422215  0.50462050  1
  S  S13  1  0.51577785  0.41934531  0.50462050  1
  S  S14  1  0.78718752  0.91946738  0.25965333  1
  S  S15  1  0.91946738  0.13227985  0.75965333  1
  S  S16  1  0.86772015  0.78718752  0.75965333  1
  S  S17  1  0.33333300  0.66666700  0.51404209  1
  S  S18  1  0.13227985  0.21281248  0.25965333  1
  S  S19  1  0.08053262  0.86772015  0.25965333  1
  S  S20  1  0.21281248  0.08053262  0.75965333  1
  S  S21  1  0.48422215  0.58065469  0.00462050  1
  S  S22  1  0.09643253  0.51577785  0.00462050  1
  S  S23  1  0.58065469  0.09643253  0.50462050  1
