# generated using pymatgen
data_GaN5O14
_symmetry_space_group_name_H-M   'P 1'
_cell_length_a   6.26467290
_cell_length_b   7.42006065
_cell_length_c   7.42006084
_cell_angle_alpha   79.73472631
_cell_angle_beta   65.02996413
_cell_angle_gamma   65.02996074
_symmetry_Int_Tables_number   1
_chemical_formula_structural   GaN5O14
_chemical_formula_sum   'Ga1 N5 O14'
_cell_volume   283.44996467
_cell_formula_units_Z   1
loop_
 _symmetry_equiv_pos_site_id
 _symmetry_equiv_pos_as_xyz
  1  'x, y, z'
loop_
 _atom_site_type_symbol
 _atom_site_label
 _atom_site_symmetry_multiplicity
 _atom_site_fract_x
 _atom_site_fract_y
 _atom_site_fract_z
 _atom_site_occupancy
  Ga  Ga0  1  0.00000000  0.00000000  0.00000000  1
  N  N1  1  0.12686828  0.30957657  0.00515341  1
  N  N2  1  0.86797831  0.00515341  0.69042343  1
  N  N3  1  0.44159826  0.69042343  0.99484659  1
  N  N4  1  0.56355515  0.99484659  0.30957657  1
  N  N5  1  0.75000000  0.50000000  0.50000000  1
  O  O6  1  0.48985528  0.16827343  0.24941215  1
  O  O7  1  0.81587716  0.07879452  0.54509732  1
  O  O8  1  0.63902552  0.54509732  0.92120548  1
  O  O9  1  0.32318052  0.79510139  0.86990321  1
  O  O10  1  0.34187129  0.75058785  0.16827343  1
  O  O11  1  0.43976900  0.92120548  0.45490268  1
  O  O12  1  0.80691627  0.86990321  0.20489861  1
  O  O13  1  0.98818512  0.20489861  0.13009679  1
  O  O14  1  0.10532832  0.45490268  0.07879452  1
  O  O15  1  0.93184330  0.50000000  0.50000000  1
  O  O16  1  0.88171809  0.13009679  0.79510139  1
  O  O17  1  0.26073257  0.24941215  0.83172657  1
  O  O18  1  0.90754086  0.83172657  0.75058785  1
  O  O19  1  0.56815670  0.50000000  0.50000000  1
