# generated using pymatgen
data_LuI3O10
_symmetry_space_group_name_H-M   'P 1'
_cell_length_a   5.69359389
_cell_length_b   11.98945716
_cell_length_c   14.25354163
_cell_angle_alpha   99.23699484
_cell_angle_beta   101.52091428
_cell_angle_gamma   90.00000000
_symmetry_Int_Tables_number   1
_chemical_formula_structural   LuI3O10
_chemical_formula_sum   'Lu4 I12 O40'
_cell_volume   940.50709271
_cell_formula_units_Z   4
loop_
 _symmetry_equiv_pos_site_id
 _symmetry_equiv_pos_as_xyz
  1  'x, y, z'
loop_
 _atom_site_type_symbol
 _atom_site_label
 _atom_site_symmetry_multiplicity
 _atom_site_fract_x
 _atom_site_fract_y
 _atom_site_fract_z
 _atom_site_occupancy
  Lu  Lu0  1  0.87993130  0.92904349  0.17242069  1
  Lu  Lu1  1  0.70751061  0.57095651  0.82757931  1
  Lu  Lu2  1  0.12006870  0.07095651  0.82757931  1
  Lu  Lu3  1  0.29248939  0.42904349  0.17242069  1
  I  I4  1  0.02154869  0.84717686  0.42838737  1
  I  I5  1  0.59316133  0.65282314  0.57161263  1
  I  I6  1  0.97845131  0.15282314  0.57161263  1
  I  I7  1  0.40683867  0.34717686  0.42838737  1
  I  I8  1  0.42700699  0.05852315  0.33342154  1
  I  I9  1  0.09358545  0.44147685  0.66657846  1
  I  I10  1  0.57299301  0.94147685  0.66657846  1
  I  I11  1  0.90641455  0.55852315  0.33342154  1
  I  I12  1  0.39049527  0.73529510  0.18246388  1
  I  I13  1  0.20803139  0.76470490  0.81753612  1
  I  I14  1  0.60950473  0.26470490  0.81753612  1
  I  I15  1  0.79196861  0.23529510  0.18246388  1
  O  O16  1  0.09290841  0.87867698  0.31323757  1
  O  O17  1  0.77967083  0.62132302  0.68676243  1
  O  O18  1  0.90709159  0.12132302  0.68676243  1
  O  O19  1  0.22032917  0.37867698  0.31323757  1
  O  O20  1  0.19903729  0.71906840  0.43570869  1
  O  O21  1  0.76332860  0.78093160  0.56429131  1
  O  O22  1  0.80096271  0.28093160  0.56429131  1
  O  O23  1  0.23667140  0.21906840  0.43570869  1
  O  O24  1  0.23877030  0.94883575  0.51151833  1
  O  O25  1  0.72725198  0.55116425  0.48848167  1
  O  O26  1  0.76122970  0.05116425  0.48848167  1
  O  O27  1  0.27274802  0.44883575  0.51151833  1
  O  O28  1  0.60945299  0.95305347  0.27189908  1
  O  O29  1  0.33755391  0.54694653  0.72810092  1
  O  O30  1  0.39054701  0.04694653  0.72810092  1
  O  O31  1  0.66244609  0.45305347  0.27189908  1
  O  O32  1  0.17421256  0.06250177  0.23034381  1
  O  O33  1  0.94386875  0.43749823  0.76965619  1
  O  O34  1  0.82578744  0.93749823  0.76965619  1
  O  O35  1  0.05613125  0.56250177  0.23034381  1
  O  O36  1  0.59123254  0.18598880  0.32080850  1
  O  O37  1  0.27042404  0.31401120  0.67919150  1
  O  O38  1  0.40876746  0.81401120  0.67919150  1
  O  O39  1  0.72957596  0.68598880  0.32080850  1
  O  O40  1  0.37534958  0.58801031  0.11844773  1
  O  O41  1  0.25690185  0.91198969  0.88155227  1
  O  O42  1  0.62465042  0.41198969  0.88155227  1
  O  O43  1  0.74309815  0.08801031  0.11844773  1
  O  O44  1  0.12974916  0.80098316  0.11592179  1
  O  O45  1  0.01382737  0.69901684  0.88407821  1
  O  O46  1  0.87025084  0.19901684  0.88407821  1
  O  O47  1  0.98617263  0.30098316  0.11592179  1
  O  O48  1  0.62189101  0.78258865  0.12442889  1
  O  O49  1  0.49746212  0.71741135  0.87557111  1
  O  O50  1  0.37810899  0.21741135  0.87557111  1
  O  O51  1  0.50253788  0.28258865  0.12442889  1
  O  O52  1  0.80503126  0.90707201  0.00066530  1
  O  O53  1  0.80436596  0.59292799  0.99933470  1
  O  O54  1  0.19496874  0.09292799  0.99933470  1
  O  O55  1  0.19563404  0.40707201  0.00066530  1
