# generated using pymatgen
data_PW5O17
_symmetry_space_group_name_H-M   'P 1'
_cell_length_a   5.43588232
_cell_length_b   6.71155324
_cell_length_c   36.75418301
_cell_angle_alpha   90.00000000
_cell_angle_beta   90.00000000
_cell_angle_gamma   90.00720405
_symmetry_Int_Tables_number   1
_chemical_formula_structural   PW5O17
_chemical_formula_sum   'P4 W20 O68'
_cell_volume   1340.91069749
_cell_formula_units_Z   4
loop_
 _symmetry_equiv_pos_site_id
 _symmetry_equiv_pos_as_xyz
  1  'x, y, z'
loop_
 _atom_site_type_symbol
 _atom_site_label
 _atom_site_symmetry_multiplicity
 _atom_site_fract_x
 _atom_site_fract_y
 _atom_site_fract_z
 _atom_site_occupancy
  P  P0  1  0.99507329  0.44454991  0.19988653  1
  P  P1  1  0.00492671  0.55545009  0.69988653  1
  P  P2  1  0.50437097  0.94454516  0.26095610  1
  P  P3  1  0.49562903  0.05545484  0.76095610  1
  W  W4  1  0.49613725  0.75047784  0.17179131  1
  W  W5  1  0.50386275  0.24952216  0.67179131  1
  W  W6  1  0.00309479  0.25044416  0.28905409  1
  W  W7  1  0.99690521  0.74955584  0.78905409  1
  W  W8  1  0.99518620  0.08879810  0.12957468  1
  W  W9  1  0.00481380  0.91120190  0.62957468  1
  W  W10  1  0.50434451  0.58872946  0.33124835  1
  W  W11  1  0.49565549  0.41127054  0.83124835  1
  W  W12  1  0.49538666  0.41965969  0.08588242  1
  W  W13  1  0.50461334  0.58034031  0.58588242  1
  W  W14  1  0.00409879  0.91946253  0.37494006  1
  W  W15  1  0.99590121  0.08053747  0.87494006  1
  W  W16  1  0.99473547  0.75330058  0.04379151  1
  W  W17  1  0.00526453  0.24669942  0.54379151  1
  W  W18  1  0.50497448  0.25305676  0.41702135  1
  W  W19  1  0.49502552  0.74694324  0.91702135  1
  W  W20  1  0.49500840  0.08377905  0.00130243  1
  W  W21  1  0.50499160  0.91622095  0.50130243  1
  W  W22  1  0.00495557  0.58349662  0.45949643  1
  W  W23  1  0.99504443  0.41650338  0.95949643  1
  O  O24  1  0.99611152  0.25600485  0.17611268  1
  O  O25  1  0.00388848  0.74399515  0.67611268  1
  O  O26  1  0.50263461  0.75590309  0.28470255  1
  O  O27  1  0.49736539  0.24409691  0.78470255  1
  O  O28  1  0.99549518  0.91732395  0.08994565  1
  O  O29  1  0.00450482  0.08267605  0.58994565  1
  O  O30  1  0.50415436  0.41721467  0.37087904  1
  O  O31  1  0.49584564  0.58278533  0.87087904  1
  O  O32  1  0.74890250  0.91590720  0.15551625  1
  O  O33  1  0.25109750  0.08409280  0.65551625  1
  O  O34  1  0.74946615  0.41521838  0.30522452  1
  O  O35  1  0.25053385  0.58478162  0.80522452  1
  O  O36  1  0.74018026  0.24769054  0.11136280  1
  O  O37  1  0.25981974  0.75230946  0.61136280  1
  O  O38  1  0.76064794  0.74690623  0.34931007  1
  O  O39  1  0.23935206  0.25309377  0.84931007  1
  O  O40  1  0.24271488  0.25321906  0.11067642  1
  O  O41  1  0.75728512  0.74678094  0.61067642  1
  O  O42  1  0.25816535  0.75394278  0.35026020  1
  O  O43  1  0.74183465  0.24605722  0.85026020  1
  O  O44  1  0.25113294  0.92138303  0.15488958  1
  O  O45  1  0.74886706  0.07861797  0.65488958  1
  O  O46  1  0.24723759  0.42203817  0.30602239  1
  O  O47  1  0.75276241  0.57796183  0.80602239  1
  O  O48  1  0.99468897  0.58637006  0.00198501  1
  O  O49  1  0.00531103  0.41362994  0.50198501  1
  O  O50  1  0.50528174  0.08622012  0.45884697  1
  O  O51  1  0.49471826  0.91377988  0.95884697  1
  O  O52  1  0.24046804  0.92113023  0.02383749  1
  O  O53  1  0.75953196  0.07886977  0.52383749  1
  O  O54  1  0.25998945  0.42125065  0.43703973  1
  O  O55  1  0.74001055  0.57874935  0.93703973  1
  O  O56  1  0.75077174  0.57980940  0.06741369  1
  O  O57  1  0.24922826  0.42019060  0.56741369  1
  O  O58  1  0.74778366  0.07884282  0.39333113  1
  O  O59  1  0.25221634  0.92115718  0.89333113  1
  O  O60  1  0.24820911  0.58553552  0.06670882  1
  O  O61  1  0.75179089  0.41446448  0.56670882  1
  O  O62  1  0.25033290  0.08594269  0.39423897  1
  O  O63  1  0.74966710  0.91405731  0.89423897  1
  O  O64  1  0.74019651  0.91511982  0.02464702  1
  O  O65  1  0.25980349  0.08488018  0.52464702  1
  O  O66  1  0.76025841  0.41443869  0.43613080  1
  O  O67  1  0.23974159  0.58556131  0.93613080  1
  O  O68  1  0.49506700  0.25079337  0.04549975  1
  O  O69  1  0.50493300  0.74920663  0.54549975  1
  O  O70  1  0.00456329  0.75034108  0.41528440  1
  O  O71  1  0.99543671  0.24965892  0.91528440  1
  O  O72  1  0.74961560  0.24683462  0.98075229  1
  O  O73  1  0.25038440  0.75316538  0.48075229  1
  O  O74  1  0.75040112  0.74668287  0.48003257  1
  O  O75  1  0.24959888  0.25331713  0.98003257  1
  O  O76  1  0.49633151  0.58940340  0.13105319  1
  O  O77  1  0.50366849  0.41059660  0.63105319  1
  O  O78  1  0.00323687  0.08949171  0.32980528  1
  O  O79  1  0.99676313  0.91050829  0.82980528  1
  O  O80  1  0.22648768  0.57107186  0.19282464  1
  O  O81  1  0.77351232  0.42892814  0.69282464  1
  O  O82  1  0.27365693  0.07178677  0.26806603  1
  O  O83  1  0.72634307  0.92821323  0.76806603  1
  O  O84  1  0.00183076  0.38048797  0.24022492  1
  O  O85  1  0.99816924  0.61951203  0.74022492  1
  O  O86  1  0.49705755  0.88065730  0.22060861  1
  O  O87  1  0.50294245  0.11934270  0.72060861  1
  O  O88  1  0.75735641  0.56473200  0.19381507  1
  O  O89  1  0.24264359  0.43526800  0.69381507  1
  O  O90  1  0.74276692  0.06393031  0.26700620  1
  O  O91  1  0.25723308  0.93606969  0.76700620  1
