# generated using pymatgen
data_Ca5Te3O14
_symmetry_space_group_name_H-M   'P 1'
_cell_length_a   7.45791469
_cell_length_b   7.45791470
_cell_length_c   10.60172739
_cell_angle_alpha   90.00000000
_cell_angle_beta   90.00000000
_cell_angle_gamma   90.22943553
_symmetry_Int_Tables_number   1
_chemical_formula_structural   Ca5Te3O14
_chemical_formula_sum   'Ca10 Te6 O28'
_cell_volume   589.66856152
_cell_formula_units_Z   2
loop_
 _symmetry_equiv_pos_site_id
 _symmetry_equiv_pos_as_xyz
  1  'x, y, z'
loop_
 _atom_site_type_symbol
 _atom_site_label
 _atom_site_symmetry_multiplicity
 _atom_site_fract_x
 _atom_site_fract_y
 _atom_site_fract_z
 _atom_site_occupancy
  Ca  Ca0  1  0.75500099  0.75500099  0.27281197  1
  Ca  Ca1  1  0.26766241  0.76766241  0.25000000  1
  Ca  Ca2  1  0.25500099  0.25500099  0.22718803  1
  Ca  Ca3  1  0.23233759  0.73233759  0.75000000  1
  Ca  Ca4  1  0.50000000  0.50000000  0.00000000  1
  Ca  Ca5  1  0.76766241  0.26766241  0.25000000  1
  Ca  Ca6  1  0.73233759  0.23233759  0.75000000  1
  Ca  Ca7  1  0.74499901  0.74499901  0.77281197  1
  Ca  Ca8  1  0.00000000  0.00000000  0.50000000  1
  Ca  Ca9  1  0.24499901  0.24499901  0.72718803  1
  Te  Te10  1  0.00000000  0.50000000  0.50000000  1
  Te  Te11  1  0.50000000  0.50000000  0.50000000  1
  Te  Te12  1  0.00000000  0.50000000  0.00000000  1
  Te  Te13  1  0.50000000  0.00000000  0.00000000  1
  Te  Te14  1  0.00000000  0.00000000  0.00000000  1
  Te  Te15  1  0.50000000  0.00000000  0.50000000  1
  O  O16  1  0.44516235  0.44516235  0.32987034  1
  O  O17  1  0.50674819  0.25227514  0.56487737  1
  O  O18  1  0.17790770  0.46377216  0.87025400  1
  O  O19  1  0.03622784  0.32209230  0.37025400  1
  O  O20  1  0.46713478  0.79584476  0.88756646  1
  O  O21  1  0.67790770  0.96377216  0.62974600  1
  O  O22  1  0.00674819  0.75227514  0.93512263  1
  O  O23  1  0.24772486  0.99325181  0.06487737  1
  O  O24  1  0.82209230  0.53622784  0.12974600  1
  O  O25  1  0.96713478  0.29584476  0.61243354  1
  O  O26  1  0.25227514  0.50674819  0.56487737  1
  O  O27  1  0.74772486  0.49325181  0.43512263  1
  O  O28  1  0.29584476  0.96713478  0.61243354  1
  O  O29  1  0.75227514  0.00674819  0.93512263  1
  O  O30  1  0.46377216  0.17790770  0.87025400  1
  O  O31  1  0.05483765  0.05483765  0.82987034  1
  O  O32  1  0.94516235  0.94516235  0.17012966  1
  O  O33  1  0.79584476  0.46713478  0.88756646  1
  O  O34  1  0.70415524  0.03286522  0.38756646  1
  O  O35  1  0.03286522  0.70415524  0.38756646  1
  O  O36  1  0.53622784  0.82209230  0.12974600  1
  O  O37  1  0.53286522  0.20415524  0.11243354  1
  O  O38  1  0.99325181  0.24772486  0.06487737  1
  O  O39  1  0.49325181  0.74772486  0.43512263  1
  O  O40  1  0.96377216  0.67790770  0.62974600  1
  O  O41  1  0.20415524  0.53286522  0.11243354  1
  O  O42  1  0.32209230  0.03622784  0.37025400  1
  O  O43  1  0.55483765  0.55483765  0.67012966  1
