# generated using pymatgen
data_K3Nb3Si2O13
_symmetry_space_group_name_H-M   'P 1'
_cell_length_a   9.24658263
_cell_length_b   9.24658269
_cell_length_c   7.96645565
_cell_angle_alpha   90.00000000
_cell_angle_beta   90.00000000
_cell_angle_gamma   119.99999983
_symmetry_Int_Tables_number   1
_chemical_formula_structural   K3Nb3Si2O13
_chemical_formula_sum   'K6 Nb6 Si4 O26'
_cell_volume   589.87268766
_cell_formula_units_Z   2
loop_
 _symmetry_equiv_pos_site_id
 _symmetry_equiv_pos_as_xyz
  1  'x, y, z'
loop_
 _atom_site_type_symbol
 _atom_site_label
 _atom_site_symmetry_multiplicity
 _atom_site_fract_x
 _atom_site_fract_y
 _atom_site_fract_z
 _atom_site_occupancy
  K  K0  1  0.38383038  0.96771493  0.25000000  1
  K  K1  1  0.61616962  0.58388455  0.75000000  1
  K  K2  1  0.03228507  0.41611545  0.25000000  1
  K  K3  1  0.58388455  0.61616962  0.25000000  1
  K  K4  1  0.41611545  0.03228507  0.75000000  1
  K  K5  1  0.96771493  0.38383038  0.75000000  1
  Nb  Nb6  1  0.76179916  0.00000000  0.50000000  1
  Nb  Nb7  1  0.76179916  0.00000000  0.00000000  1
  Nb  Nb8  1  0.23820084  0.23820084  0.00000000  1
  Nb  Nb9  1  0.23820084  0.23820084  0.50000000  1
  Nb  Nb10  1  0.00000000  0.76179916  0.50000000  1
  Nb  Nb11  1  0.00000000  0.76179916  0.00000000  1
  Si  Si12  1  0.33333300  0.66666700  0.95531494  1
  Si  Si13  1  0.66666700  0.33333300  0.04468506  1
  Si  Si14  1  0.66666700  0.33333300  0.45531494  1
  Si  Si15  1  0.33333300  0.66666700  0.54468506  1
  O  O16  1  0.48835292  0.30743585  0.98028370  1
  O  O17  1  0.98879750  0.74307854  0.25000000  1
  O  O18  1  0.01120250  0.75428104  0.75000000  1
  O  O19  1  0.74307854  0.98879750  0.75000000  1
  O  O20  1  0.75428104  0.01120250  0.25000000  1
  O  O21  1  0.51164708  0.81908293  0.48028370  1
  O  O22  1  0.18091707  0.69256415  0.01971630  1
  O  O23  1  0.24571896  0.25692146  0.75000000  1
  O  O24  1  0.81908293  0.51164708  0.98028370  1
  O  O25  1  0.69256415  0.18091707  0.51971630  1
  O  O26  1  0.82475963  0.82475963  0.50000000  1
  O  O27  1  0.82475963  0.82475963  0.00000000  1
  O  O28  1  0.69256415  0.18091707  0.98028370  1
  O  O29  1  0.25692146  0.24571896  0.25000000  1
  O  O30  1  0.81908293  0.51164708  0.51971630  1
  O  O31  1  0.30743585  0.48835292  0.01971630  1
  O  O32  1  0.51164708  0.81908293  0.01971630  1
  O  O33  1  0.30743585  0.48835292  0.48028370  1
  O  O34  1  0.17524037  0.00000000  0.50000000  1
  O  O35  1  0.18091707  0.69256415  0.48028370  1
  O  O36  1  0.66666700  0.33333300  0.25000000  1
  O  O37  1  0.00000000  0.17524037  0.50000000  1
  O  O38  1  0.48835292  0.30743585  0.51971630  1
  O  O39  1  0.00000000  0.17524037  0.00000000  1
  O  O40  1  0.17524037  0.00000000  0.00000000  1
  O  O41  1  0.33333300  0.66666700  0.75000000  1
