# generated using pymatgen
data_KSO3
_symmetry_space_group_name_H-M   'P 1'
_cell_length_a   10.14682989
_cell_length_b   10.14682945
_cell_length_c   6.49305907
_cell_angle_alpha   90.00000000
_cell_angle_beta   90.00000000
_cell_angle_gamma   120.00000147
_symmetry_Int_Tables_number   1
_chemical_formula_structural   KSO3
_chemical_formula_sum   'K6 S6 O18'
_cell_volume   578.94954816
_cell_formula_units_Z   6
loop_
 _symmetry_equiv_pos_site_id
 _symmetry_equiv_pos_as_xyz
  1  'x, y, z'
loop_
 _atom_site_type_symbol
 _atom_site_label
 _atom_site_symmetry_multiplicity
 _atom_site_fract_x
 _atom_site_fract_y
 _atom_site_fract_z
 _atom_site_occupancy
  K  K0  1  0.69867491  0.69867491  0.50000000  1
  K  K1  1  0.36332733  0.36332733  0.00000000  1
  K  K2  1  0.63667267  0.00000000  0.00000000  1
  K  K3  1  0.30132509  0.00000000  0.50000000  1
  K  K4  1  0.00000000  0.63667267  0.00000000  1
  K  K5  1  1.00000000  0.30132509  0.50000000  1
  S  S6  1  0.33333300  0.66666700  0.69914360  1
  S  S7  1  0.00000000  0.00000000  0.83076281  1
  S  S8  1  0.33333300  0.66666700  0.35871527  1
  S  S9  1  0.66666700  0.33333300  0.30085640  1
  S  S10  1  0.00000000  0.00000000  0.16923719  1
  S  S11  1  0.66666700  0.33333300  0.64128473  1
  O  O12  1  0.37895967  0.82415263  0.75676755  1
  O  O13  1  0.62104033  0.44519296  0.24323245  1
  O  O14  1  0.23439295  0.72848483  0.30252025  1
  O  O15  1  0.93905084  0.83955398  0.22652002  1
  O  O16  1  0.16044602  0.09949686  0.22652002  1
  O  O17  1  0.50590812  0.27151517  0.69747975  1
  O  O18  1  0.82415263  0.37895967  0.24323245  1
  O  O19  1  0.06094916  0.90050314  0.77347998  1
  O  O20  1  0.72848483  0.23439295  0.69747975  1
  O  O21  1  0.83955398  0.93905084  0.77347998  1
  O  O22  1  0.44519296  0.62104033  0.75676755  1
  O  O23  1  0.09949686  0.16044602  0.77347998  1
  O  O24  1  0.90050314  0.06094916  0.22652002  1
  O  O25  1  0.49409188  0.76560705  0.30252025  1
  O  O26  1  0.55480704  0.17584737  0.24323245  1
  O  O27  1  0.27151517  0.50590812  0.30252025  1
  O  O28  1  0.17584737  0.55480704  0.75676755  1
  O  O29  1  0.76560705  0.49409188  0.69747975  1
