# generated using pymatgen
data_InBi2S4Cl
_symmetry_space_group_name_H-M   'P 1'
_cell_length_a   3.94276457
_cell_length_b   6.60258378
_cell_length_c   8.42584698
_cell_angle_alpha   68.69924112
_cell_angle_beta   76.46917072
_cell_angle_gamma   72.62782109
_symmetry_Int_Tables_number   1
_chemical_formula_structural   InBi2S4Cl
_chemical_formula_sum   'In1 Bi2 S4 Cl1'
_cell_volume   193.08658718
_cell_formula_units_Z   1
loop_
 _symmetry_equiv_pos_site_id
 _symmetry_equiv_pos_as_xyz
  1  'x, y, z'
loop_
 _atom_site_type_symbol
 _atom_site_label
 _atom_site_symmetry_multiplicity
 _atom_site_fract_x
 _atom_site_fract_y
 _atom_site_fract_z
 _atom_site_occupancy
  In  In0  1  0.00000000  0.00000000  0.00000000  1
  Bi  Bi1  1  0.20434133  0.31615864  0.27515870  1
  Bi  Bi2  1  0.79565867  0.68384136  0.72484130  1
  S  S3  1  0.83659972  0.00991898  0.31688157  1
  S  S4  1  0.62541448  0.69509221  0.05407883  1
  S  S5  1  0.16340028  0.99008102  0.68311843  1
  S  S6  1  0.37458552  0.30490779  0.94592117  1
  Cl  Cl7  1  0.50000000  0.50000000  0.50000000  1
