# generated using pymatgen
data_Li3TaO4
_symmetry_space_group_name_H-M   'P 1'
_cell_length_a   6.05772102
_cell_length_b   6.08017695
_cell_length_c   12.95621987
_cell_angle_alpha   103.44460101
_cell_angle_beta   90.00000000
_cell_angle_gamma   90.00000000
_symmetry_Int_Tables_number   1
_chemical_formula_structural   Li3TaO4
_chemical_formula_sum   'Li18 Ta6 O24'
_cell_volume   464.12601369
_cell_formula_units_Z   6
loop_
 _symmetry_equiv_pos_site_id
 _symmetry_equiv_pos_as_xyz
  1  'x, y, z'
loop_
 _atom_site_type_symbol
 _atom_site_label
 _atom_site_symmetry_multiplicity
 _atom_site_fract_x
 _atom_site_fract_y
 _atom_site_fract_z
 _atom_site_occupancy
  Li  Li0  1  0.12215399  0.17265075  0.09080032  1
  Li  Li1  1  0.62410466  0.87139767  0.41704461  1
  Li  Li2  1  0.87784601  0.82734925  0.90919968  1
  Li  Li3  1  0.62514283  0.32563865  0.42357326  1
  Li  Li4  1  0.12215399  0.82734925  0.40919968  1
  Li  Li5  1  0.61154324  0.00000000  0.75000000  1
  Li  Li6  1  0.37589534  0.12860233  0.58295539  1
  Li  Li7  1  0.62410466  0.12860233  0.08295539  1
  Li  Li8  1  0.62514283  0.67436135  0.07642674  1
  Li  Li9  1  0.16424768  0.00000000  0.75000000  1
  Li  Li10  1  0.37485717  0.67436135  0.57642674  1
  Li  Li11  1  0.37485717  0.32563865  0.92357326  1
  Li  Li12  1  0.38845676  0.00000000  0.25000000  1
  Li  Li13  1  0.37589534  0.87139767  0.91704461  1
  Li  Li14  1  0.87784601  0.17265075  0.59080032  1
  Li  Li15  1  0.87760919  0.50000000  0.25000000  1
  Li  Li16  1  0.83575232  0.00000000  0.25000000  1
  Li  Li17  1  0.12239081  0.50000000  0.75000000  1
  Ta  Ta18  1  0.87730859  0.69788358  0.58349195  1
  Ta  Ta19  1  0.40714328  0.50000000  0.25000000  1
  Ta  Ta20  1  0.12269141  0.30211642  0.41650805  1
  Ta  Ta21  1  0.12269141  0.69788358  0.08349195  1
  Ta  Ta22  1  0.59285672  0.50000000  0.75000000  1
  Ta  Ta23  1  0.87730859  0.30211642  0.91650805  1
  O  O24  1  0.64010478  0.90204861  0.57914265  1
  O  O25  1  0.35762100  0.56520162  0.40741540  1
  O  O26  1  0.88694608  0.90641499  0.08823826  1
  O  O27  1  0.64237900  0.43479838  0.59258460  1
  O  O28  1  0.13744142  0.72820057  0.24090070  1
  O  O29  1  0.88710407  0.57104540  0.42607991  1
  O  O30  1  0.35989522  0.90204861  0.07914265  1
  O  O31  1  0.35762100  0.43479838  0.09258460  1
  O  O32  1  0.64010478  0.09795139  0.92085735  1
  O  O33  1  0.35989522  0.09795139  0.42085735  1
  O  O34  1  0.61159846  0.73935862  0.25492282  1
  O  O35  1  0.38840154  0.73935862  0.75492282  1
  O  O36  1  0.11289593  0.57104540  0.92607991  1
  O  O37  1  0.13744142  0.27179943  0.25909930  1
  O  O38  1  0.61159846  0.26064138  0.24507718  1
  O  O39  1  0.11305392  0.09358501  0.91176174  1
  O  O40  1  0.86255858  0.72820057  0.74090070  1
  O  O41  1  0.88710407  0.42895460  0.07392009  1
  O  O42  1  0.64237900  0.56520162  0.90741540  1
  O  O43  1  0.11305392  0.90641499  0.58823826  1
  O  O44  1  0.11289593  0.42895460  0.57392009  1
  O  O45  1  0.88694608  0.09358501  0.41176174  1
  O  O46  1  0.38840154  0.26064138  0.74507718  1
  O  O47  1  0.86255858  0.27179943  0.75909930  1
