# generated using pymatgen
data_Na17Al5O16
_symmetry_space_group_name_H-M   'P 1'
_cell_length_a   6.02937776
_cell_length_b   6.03477408
_cell_length_c   16.89021297
_cell_angle_alpha   84.92359020
_cell_angle_beta   79.71833516
_cell_angle_gamma   60.28113656
_symmetry_Int_Tables_number   1
_chemical_formula_structural   Na17Al5O16
_chemical_formula_sum   'Na17 Al5 O16'
_cell_volume   525.16070363
_cell_formula_units_Z   1
loop_
 _symmetry_equiv_pos_site_id
 _symmetry_equiv_pos_as_xyz
  1  'x, y, z'
loop_
 _atom_site_type_symbol
 _atom_site_label
 _atom_site_symmetry_multiplicity
 _atom_site_fract_x
 _atom_site_fract_y
 _atom_site_fract_z
 _atom_site_occupancy
  Na  Na0  1  0.21235359  0.94926483  0.45852813  1
  Na  Na1  1  0.08994205  0.80606522  0.82313146  1
  Na  Na2  1  0.67088172  0.94926483  0.54147187  1
  Na  Na3  1  0.33054308  0.94274152  0.27579129  1
  Na  Na4  1  0.58248962  0.38862019  0.90799359  1
  Na  Na5  1  0.91307351  0.80606522  0.17686854  1
  Na  Na6  1  0.82032637  0.53633414  0.35250485  1
  Na  Na7  1  0.39883358  0.41369044  0.27458294  1
  Na  Na8  1  0.67341652  0.41369044  0.72541706  1
  Na  Na9  1  0.51581778  0.92076244  0.90793040  1
  Na  Na10  1  0.17283122  0.53633414  0.64749515  1
  Na  Na11  1  0.77770879  0.37600457  0.55033330  1
  Na  Na12  1  0.60633437  0.94274152  0.72420871  1
  Na  Na13  1  0.42374819  0.92076244  0.09206960  1
  Na  Na14  1  0.49048321  0.38862019  0.09200641  1
  Na  Na15  1  0.32804209  0.37600457  0.44966670  1
  Na  Na16  1  0.00095694  0.51237052  0.00000000  1
  Al  Al17  1  0.82233102  0.00841297  0.36047970  1
  Al  Al18  1  0.18281072  0.00841297  0.63952030  1
  Al  Al19  1  0.91306174  0.32437478  0.18052937  1
  Al  Al20  1  0.09359111  0.32437478  0.81947063  1
  Al  Al21  1  0.00434245  0.99606987  1.00000000  1
  O  O22  1  0.72184558  0.97718297  0.00000000  1
  O  O23  1  0.77739973  0.23199843  0.43230438  1
  O  O24  1  0.13257013  0.12147363  0.74094635  1
  O  O25  1  0.95947014  0.17520734  0.08655233  1
  O  O26  1  0.81368395  0.62287926  0.81353803  1
  O  O27  1  0.04602247  0.17520734  0.91344767  1
  O  O28  1  0.28986363  0.69921142  1.00000000  1
  O  O29  1  0.47539127  0.71194505  0.62772015  1
  O  O30  1  0.53608976  0.98491960  0.37069100  1
  O  O31  1  0.10311142  0.71194505  0.37227985  1
  O  O32  1  0.62722198  0.62287926  0.18646197  1
  O  O33  1  0.19293406  0.34188820  0.18654078  1
  O  O34  1  0.20970411  0.23199843  0.56769562  1
  O  O35  1  0.37947484  0.34188820  0.81345922  1
  O  O36  1  0.87351648  0.12147363  0.25905365  1
  O  O37  1  0.90678076  0.98491960  0.62930900  1
