# generated using pymatgen
data_FeAs4F18
_symmetry_space_group_name_H-M   'P 1'
_cell_length_a   7.51873552
_cell_length_b   7.49771088
_cell_length_c   13.17393662
_cell_angle_alpha   90.00000000
_cell_angle_beta   90.00000000
_cell_angle_gamma   91.99632098
_symmetry_Int_Tables_number   1
_chemical_formula_structural   FeAs4F18
_chemical_formula_sum   'Fe2 As8 F36'
_cell_volume   742.20760450
_cell_formula_units_Z   2
loop_
 _symmetry_equiv_pos_site_id
 _symmetry_equiv_pos_as_xyz
  1  'x, y, z'
loop_
 _atom_site_type_symbol
 _atom_site_label
 _atom_site_symmetry_multiplicity
 _atom_site_fract_x
 _atom_site_fract_y
 _atom_site_fract_z
 _atom_site_occupancy
  Fe  Fe0  1  0.00000000  0.00000000  0.00000000  1
  Fe  Fe1  1  0.50000000  0.50000000  0.50000000  1
  As  As2  1  0.48384431  0.56798399  0.21820375  1
  As  As3  1  0.01615569  0.93201601  0.71820375  1
  As  As4  1  0.00000000  0.50000000  0.50000000  1
  As  As5  1  0.50000000  0.00000000  0.00000000  1
  As  As6  1  0.50000000  0.00000000  0.50000000  1
  As  As7  1  0.00000000  0.50000000  0.00000000  1
  As  As8  1  0.98384431  0.06798399  0.28179625  1
  As  As9  1  0.51615569  0.43201601  0.78179625  1
  F  F10  1  0.31547489  0.32785609  0.74355093  1
  F  F11  1  0.18452511  0.17214391  0.24355093  1
  F  F12  1  0.68452511  0.67214391  0.25644907  1
  F  F13  1  0.81547489  0.82785609  0.75644907  1
  F  F14  1  0.94299940  0.72953747  0.96986826  1
  F  F15  1  0.55700060  0.77046253  0.46986826  1
  F  F16  1  0.05700060  0.27046253  0.03013174  1
  F  F17  1  0.44299940  0.22953747  0.53013174  1
  F  F18  1  0.92875829  0.43385080  0.87878748  1
  F  F19  1  0.57124171  0.06614920  0.37878748  1
  F  F20  1  0.07124171  0.56614920  0.12121252  1
  F  F21  1  0.42875829  0.93385080  0.62121252  1
  F  F22  1  0.78327209  0.45929403  0.04590975  1
  F  F23  1  0.71672791  0.04070597  0.54590975  1
  F  F24  1  0.21672791  0.54070597  0.95409025  1
  F  F25  1  0.28327209  0.95929403  0.45409025  1
  F  F26  1  0.64995437  0.25389041  0.75164433  1
  F  F27  1  0.85004563  0.24610959  0.25164433  1
  F  F28  1  0.73216481  0.05370552  0.96909861  1
  F  F29  1  0.76783519  0.44629448  0.46909861  1
  F  F30  1  0.26783519  0.94629448  0.03090139  1
  F  F31  1  0.23216481  0.55370552  0.53090139  1
  F  F32  1  0.55975926  0.79242924  0.05115548  1
  F  F33  1  0.94024074  0.70757076  0.55115548  1
  F  F34  1  0.44024074  0.20757076  0.94884452  1
  F  F35  1  0.05975926  0.29242924  0.44884452  1
  F  F36  1  0.47011275  0.90039425  0.88133756  1
  F  F37  1  0.02988725  0.59960575  0.38133756  1
  F  F38  1  0.52988725  0.09960575  0.11866244  1
  F  F39  1  0.97011275  0.40039425  0.61866244  1
  F  F40  1  0.35004563  0.74610959  0.24835567  1
  F  F41  1  0.14995437  0.75389041  0.74835567  1
  F  F42  1  0.55245920  0.53696737  0.65498799  1
  F  F43  1  0.94754080  0.96303263  0.15498799  1
  F  F44  1  0.05245920  0.03696737  0.84501201  1
  F  F45  1  0.44754080  0.46303263  0.34501201  1
