# generated using pymatgen
data_La2Ti2O7
_symmetry_space_group_name_H-M   'P 1'
_cell_length_a   5.59752680
_cell_length_b   7.81717953
_cell_length_c   13.21908367
_cell_angle_alpha   98.53196610
_cell_angle_beta   90.00000000
_cell_angle_gamma   90.00000000
_symmetry_Int_Tables_number   1
_chemical_formula_structural   La2Ti2O7
_chemical_formula_sum   'La8 Ti8 O28'
_cell_volume   572.02445450
_cell_formula_units_Z   4
loop_
 _symmetry_equiv_pos_site_id
 _symmetry_equiv_pos_as_xyz
  1  'x, y, z'
loop_
 _atom_site_type_symbol
 _atom_site_label
 _atom_site_symmetry_multiplicity
 _atom_site_fract_x
 _atom_site_fract_y
 _atom_site_fract_z
 _atom_site_occupancy
  La  La0  1  0.35136034  0.14721600  0.57933687  1
  La  La1  1  0.85136034  0.85278400  0.42066313  1
  La  La2  1  0.30567899  0.64899301  0.61059764  1
  La  La3  1  0.26220465  0.77280230  0.09569178  1
  La  La4  1  0.25514112  0.27955668  0.11644527  1
  La  La5  1  0.80567899  0.35100699  0.38940236  1
  La  La6  1  0.75514112  0.72044332  0.88355473  1
  La  La7  1  0.76220465  0.22719770  0.90430822  1
  Ti  Ti8  1  0.80075062  0.41730302  0.67454335  1
  Ti  Ti9  1  0.76793376  0.03186999  0.11924617  1
  Ti  Ti10  1  0.26646763  0.47274653  0.87903917  1
  Ti  Ti11  1  0.79539258  0.92428045  0.67819576  1
  Ti  Ti12  1  0.26793376  0.96813001  0.88075383  1
  Ti  Ti13  1  0.76646763  0.52725347  0.12096083  1
  Ti  Ti14  1  0.30075062  0.58269698  0.32545665  1
  Ti  Ti15  1  0.29539258  0.07571955  0.32180424  1
  O  O16  1  0.57486189  0.87758945  0.56983204  1
  O  O17  1  0.07486189  0.12241055  0.43016796  1
  O  O18  1  0.71311480  0.17375818  0.69484008  1
  O  O19  1  0.95233867  0.97161150  0.81477378  1
  O  O20  1  0.08579381  0.59629941  0.43902628  1
  O  O21  1  0.18431234  0.72712855  0.90863336  1
  O  O22  1  0.46166227  0.89286471  0.77297437  1
  O  O23  1  0.05691454  0.91440629  0.59267337  1
  O  O24  1  0.52312614  0.52678756  0.97869143  1
  O  O25  1  0.02312614  0.47321244  0.02130857  1
  O  O26  1  0.07405092  0.38266260  0.60422575  1
  O  O27  1  0.45233867  0.02838850  0.18522622  1
  O  O28  1  0.32982947  0.32777183  0.30816591  1
  O  O29  1  0.52213277  0.96276108  0.98085743  1
  O  O30  1  0.94786785  0.43701101  0.81642171  1
  O  O31  1  0.68431234  0.27287145  0.09136664  1
  O  O32  1  0.96166227  0.10713529  0.22702563  1
  O  O33  1  0.57405092  0.61733740  0.39577425  1
  O  O34  1  0.80496253  0.77689660  0.10806388  1
  O  O35  1  0.95520231  0.50661800  0.23016781  1
  O  O36  1  0.02213277  0.03723892  0.01914257  1
  O  O37  1  0.82982947  0.67222817  0.69183409  1
  O  O38  1  0.44786785  0.56298899  0.18357829  1
  O  O39  1  0.55691454  0.08559371  0.40732663  1
  O  O40  1  0.58579381  0.40370059  0.56097372  1
  O  O41  1  0.30496253  0.22310340  0.89193612  1
  O  O42  1  0.21311480  0.82624182  0.30515992  1
  O  O43  1  0.45520231  0.49338200  0.76983219  1
