# generated using pymatgen
data_K6Ti2O7
_symmetry_space_group_name_H-M   'P 1'
_cell_length_a   6.64296786
_cell_length_b   9.38967635
_cell_length_c   9.57368967
_cell_angle_alpha   90.00000000
_cell_angle_beta   92.04713829
_cell_angle_gamma   90.00000000
_symmetry_Int_Tables_number   1
_chemical_formula_structural   K6Ti2O7
_chemical_formula_sum   'K12 Ti4 O14'
_cell_volume   596.78081677
_cell_formula_units_Z   2
loop_
 _symmetry_equiv_pos_site_id
 _symmetry_equiv_pos_as_xyz
  1  'x, y, z'
loop_
 _atom_site_type_symbol
 _atom_site_label
 _atom_site_symmetry_multiplicity
 _atom_site_fract_x
 _atom_site_fract_y
 _atom_site_fract_z
 _atom_site_occupancy
  K  K0  1  0.42736693  0.09458386  0.79375563  1
  K  K1  1  0.92736693  0.90541614  0.29375563  1
  K  K2  1  0.30153596  0.22103713  0.40306871  1
  K  K3  1  0.17273761  0.59133723  0.42537611  1
  K  K4  1  0.67273761  0.40866277  0.92537611  1
  K  K5  1  0.17684889  0.45736175  0.07862424  1
  K  K6  1  0.67684889  0.54263825  0.57862424  1
  K  K7  1  0.80153596  0.77896287  0.90306871  1
  K  K8  1  0.29807415  0.72516777  0.81292630  1
  K  K9  1  0.92120112  0.04567373  0.63795632  1
  K  K10  1  0.42120112  0.95432627  0.13795632  1
  K  K11  1  0.79807415  0.27483223  0.31292630  1
  Ti  Ti12  1  0.99101216  0.10721233  0.99264476  1
  Ti  Ti13  1  0.60643249  0.60546349  0.22589594  1
  Ti  Ti14  1  0.49101216  0.89278767  0.49264476  1
  Ti  Ti15  1  0.10643249  0.39453651  0.72589594  1
  O  O16  1  0.22060869  0.92412155  0.49498558  1
  O  O17  1  0.97676352  0.55384249  0.78144799  1
  O  O18  1  0.00695830  0.34298234  0.55402782  1
  O  O19  1  0.72060869  0.07587845  -0.00501442  1
  O  O20  1  0.09272990  0.15120726  0.16578823  1
  O  O21  1  0.47676352  0.44615751  0.28144799  1
  O  O22  1  0.12315162  0.95271133  0.92792467  1
  O  O23  1  0.04379742  0.25569811  0.86303690  1
  O  O24  1  0.54379742  0.74430189  0.36303690  1
  O  O25  1  0.37818125  0.42176295  0.72534079  1
  O  O26  1  0.87818125  0.57823705  0.22534079  1
  O  O27  1  0.50695830  0.65701766  0.05402782  1
  O  O28  1  0.59272990  0.84879274  0.66578823  1
  O  O29  1  0.62315162  0.04728867  0.42792467  1
