# generated using pymatgen
data_K2Bi3F11
_symmetry_space_group_name_H-M   'P 1'
_cell_length_a   4.49304939
_cell_length_b   4.29376365
_cell_length_c   22.30835234
_cell_angle_alpha   55.11302770
_cell_angle_beta   59.53485921
_cell_angle_gamma   57.87910481
_symmetry_Int_Tables_number   1
_chemical_formula_structural   K2Bi3F11
_chemical_formula_sum   'K2 Bi3 F11'
_cell_volume   285.95404783
_cell_formula_units_Z   1
loop_
 _symmetry_equiv_pos_site_id
 _symmetry_equiv_pos_as_xyz
  1  'x, y, z'
loop_
 _atom_site_type_symbol
 _atom_site_label
 _atom_site_symmetry_multiplicity
 _atom_site_fract_x
 _atom_site_fract_y
 _atom_site_fract_z
 _atom_site_occupancy
  K  K0  1  0.05007212  0.92503919  0.19776196  1
  K  K1  1  0.94586875  0.06393936  0.39742244  1
  Bi  Bi2  1  0.92812509  0.03110996  0.00479637  1
  Bi  Bi3  1  0.94132949  0.93482762  0.60029613  1
  Bi  Bi4  1  0.92449998  0.96952944  0.79874558  1
  F  F5  1  0.32218087  0.25267730  0.04619012  1
  F  F6  1  0.80013004  0.75617016  0.13217297  1
  F  F7  1  0.32276244  0.26273661  0.62645225  1
  F  F8  1  0.70593533  0.89989256  0.32795386  1
  F  F9  1  0.16738096  0.20281977  0.47870862  1
  F  F10  1  0.37370686  0.25230980  0.86129831  1
  F  F11  1  0.74767050  0.71804051  0.56279865  1
  F  F12  1  0.62511160  0.43654506  0.71327839  1
  F  F13  1  0.88540699  0.67449166  0.75100939  1
  F  F14  1  0.68741929  0.49262109  0.89947079  1
  F  F15  1  0.74639969  0.68524992  0.99004416  1
