# generated using pymatgen
data_CsCdAuS2
_symmetry_space_group_name_H-M   'P 1'
_cell_length_a   6.22467716
_cell_length_b   6.83984523
_cell_length_c   7.87829048
_cell_angle_alpha   115.72768644
_cell_angle_beta   90.00000000
_cell_angle_gamma   90.00000000
_symmetry_Int_Tables_number   1
_chemical_formula_structural   CsCdAuS2
_chemical_formula_sum   'Cs2 Cd2 Au2 S4'
_cell_volume   302.17320425
_cell_formula_units_Z   2
loop_
 _symmetry_equiv_pos_site_id
 _symmetry_equiv_pos_as_xyz
  1  'x, y, z'
loop_
 _atom_site_type_symbol
 _atom_site_label
 _atom_site_symmetry_multiplicity
 _atom_site_fract_x
 _atom_site_fract_y
 _atom_site_fract_z
 _atom_site_occupancy
  Cs  Cs0  1  0.23051238  0.75000000  0.50000000  1
  Cs  Cs1  1  0.76948762  0.25000000  0.50000000  1
  Cd  Cd2  1  0.50000000  0.75000000  0.00000000  1
  Cd  Cd3  1  0.50000000  0.25000000  0.00000000  1
  Au  Au4  1  0.00000000  0.00000000  0.00000000  1
  Au  Au5  1  0.00000000  0.50000000  0.00000000  1
  S  S6  1  0.70993630  0.89475078  0.78950157  1
  S  S7  1  0.70993630  0.60524922  0.21049843  1
  S  S8  1  0.29006370  0.39475078  0.78950157  1
  S  S9  1  0.29006370  0.10524922  0.21049843  1
