# generated using pymatgen
data_K2Ge3(BO5)2
_symmetry_space_group_name_H-M   'P 1'
_cell_length_a   6.26426816
_cell_length_b   8.65107414
_cell_length_c   9.57477417
_cell_angle_alpha   82.68071102
_cell_angle_beta   70.90572172
_cell_angle_gamma   68.77376019
_symmetry_Int_Tables_number   1
_chemical_formula_structural   K2Ge3(BO5)2
_chemical_formula_sum   'K4 Ge6 B4 O20'
_cell_volume   457.04540734
_cell_formula_units_Z   2
loop_
 _symmetry_equiv_pos_site_id
 _symmetry_equiv_pos_as_xyz
  1  'x, y, z'
loop_
 _atom_site_type_symbol
 _atom_site_label
 _atom_site_symmetry_multiplicity
 _atom_site_fract_x
 _atom_site_fract_y
 _atom_site_fract_z
 _atom_site_occupancy
  K  K0  1  0.20833337  0.59061259  0.88578304  1
  K  K1  1  0.04406951  0.91181672  0.38708771  1
  K  K2  1  0.68472899  0.40938741  0.11421696  1
  K  K3  1  0.34297394  0.08818328  0.61291229  1
  Ge  Ge4  1  0.10264399  1.00000000  0.00000000  1
  Ge  Ge5  1  0.63673188  0.90792528  0.17584227  1
  Ge  Ge6  1  0.80699836  0.56490978  0.68355511  1
  Ge  Ge7  1  0.35780867  0.50000000  0.50000000  1
  Ge  Ge8  1  0.05546325  0.43509022  0.31644489  1
  Ge  Ge9  1  0.72049943  0.09207472  0.82415773  1
  B  B10  1  0.62367553  0.71475904  0.44132529  1
  B  B11  1  0.31367054  0.20441006  0.07737958  1
  B  B12  1  0.77975986  0.28524096  0.55867471  1
  B  B13  1  0.59546017  0.79558994  0.92262042  1
  O  O14  1  0.25857282  0.52415241  0.34108400  1
  O  O15  1  0.68796456  0.41072727  0.67614599  1
  O  O16  1  0.50556474  0.12399135  0.14812429  1
  O  O17  1  0.37223616  0.87743313  0.87784486  1
  O  O18  1  0.77483782  0.58927273  0.32385401  1
  O  O19  1  0.81071306  0.11838720  0.62967981  1
  O  O20  1  0.77768038  0.87600865  0.85187571  1
  O  O21  1  0.12380923  0.47584759  0.65891600  1
  O  O22  1  0.93487755  0.13605662  0.88602467  1
  O  O23  1  0.74971856  0.72182026  0.54814165  1
  O  O24  1  0.12751415  0.12256687  0.12215514  1
  O  O25  1  0.39277951  0.68650494  0.52272539  1
  O  O26  1  0.18634356  0.37923640  0.12806415  1
  O  O27  1  0.41761618  0.21228946  0.91281526  1
  O  O28  1  0.54272090  0.78771054  0.08718474  1
  O  O29  1  0.60200984  0.31349506  0.47727461  1
  O  O30  1  0.01968046  0.27817974  0.45185835  1
  O  O31  1  0.69364411  0.62076360  0.87193585  1
  O  O32  1  0.55878006  0.88161280  0.37032019  1
  O  O33  1  0.95695884  0.86394338  0.11397533  1
