# generated using pymatgen
data_NaNb2PO8
_symmetry_space_group_name_H-M   'P 1'
_cell_length_a   5.51119117
_cell_length_b   6.85178048
_cell_length_c   18.24685979
_cell_angle_alpha   90.23286541
_cell_angle_beta   90.00000000
_cell_angle_gamma   90.00000000
_symmetry_Int_Tables_number   1
_chemical_formula_structural   NaNb2PO8
_chemical_formula_sum   'Na4 Nb8 P4 O32'
_cell_volume   689.02259590
_cell_formula_units_Z   4
loop_
 _symmetry_equiv_pos_site_id
 _symmetry_equiv_pos_as_xyz
  1  'x, y, z'
loop_
 _atom_site_type_symbol
 _atom_site_label
 _atom_site_symmetry_multiplicity
 _atom_site_fract_x
 _atom_site_fract_y
 _atom_site_fract_z
 _atom_site_occupancy
  Na  Na0  1  0.71410679  0.71183884  0.71584781  1
  Na  Na1  1  0.24971959  0.21108453  0.78339324  1
  Na  Na2  1  0.74971959  0.78891547  0.21660676  1
  Na  Na3  1  0.21410679  0.28816116  0.28415219  1
  Nb  Nb4  1  0.23375447  0.51004727  0.62735752  1
  Nb  Nb5  1  0.74774907  0.66121486  0.03900866  1
  Nb  Nb6  1  0.74353825  0.83566899  0.53910955  1
  Nb  Nb7  1  0.24089995  0.99124093  0.12599016  1
  Nb  Nb8  1  0.24353825  0.16433101  0.46089045  1
  Nb  Nb9  1  0.73375447  0.48995273  0.37264248  1
  Nb  Nb10  1  0.74089995  0.00875907  0.87400984  1
  Nb  Nb11  1  0.24774907  0.33878514  0.96099134  1
  P  P12  1  0.72097736  0.30805364  0.18566758  1
  P  P13  1  0.22097736  0.69194636  0.81433242  1
  P  P14  1  0.73334262  0.19007554  0.68722953  1
  P  P15  1  0.23334262  0.80992446  0.31277047  1
  O  O16  1  0.74648983  0.00784287  0.63779315  1
  O  O17  1  0.23591093  0.15790323  0.04008143  1
  O  O18  1  0.22180455  0.34223174  0.54076327  1
  O  O19  1  0.24648983  0.99215713  0.36220685  1
  O  O20  1  0.46613792  0.21259378  0.18120201  1
  O  O21  1  0.46973066  0.33151020  0.39804679  1
  O  O22  1  0.94702584  0.47732966  0.99238565  1
  O  O23  1  0.96613792  0.78740622  0.81879799  1
  O  O24  1  0.46523651  0.68467350  0.31780653  1
  O  O25  1  0.96523651  0.31532650  0.68219347  1
  O  O26  1  0.71497365  0.11607325  0.76797081  1
  O  O27  1  0.47854920  0.67492039  0.59606388  1
  O  O28  1  0.96973066  0.66848980  0.60195321  1
  O  O29  1  0.44702584  0.52267034  0.00761435  1
  O  O30  1  0.25683424  0.62300606  0.73309016  1
  O  O31  1  0.50744089  0.19215931  0.90757380  1
  O  O32  1  0.42630933  0.83736504  0.83037824  1
  O  O33  1  0.00744089  0.80784069  0.09242620  1
  O  O34  1  0.01297666  0.15282631  0.89588700  1
  O  O35  1  0.73591093  0.84209677  0.95991857  1
  O  O36  1  0.73496108  0.49245447  0.13764011  1
  O  O37  1  0.49939535  0.30860644  0.67366300  1
  O  O38  1  0.51297666  0.84717369  0.10411300  1
  O  O39  1  0.75683424  0.37699394  0.26690984  1
  O  O40  1  0.00313527  0.98311007  0.49830892  1
  O  O41  1  0.21497365  0.88392675  0.23202919  1
  O  O42  1  0.99939535  0.69139356  0.32633700  1
  O  O43  1  0.97854920  0.32507961  0.40393612  1
  O  O44  1  0.50313527  0.01688993  0.50169108  1
  O  O45  1  0.23496108  0.50754553  0.86235989  1
  O  O46  1  0.72180455  0.65776826  0.45923673  1
  O  O47  1  0.92630933  0.16263496  0.16962176  1
