# generated using pymatgen
data_Na4UC3O11
_symmetry_space_group_name_H-M   'P 1'
_cell_length_a   9.42685155
_cell_length_b   9.43992929
_cell_length_c   13.21495445
_cell_angle_alpha   89.34760259
_cell_angle_beta   89.57504866
_cell_angle_gamma   60.02252439
_symmetry_Int_Tables_number   1
_chemical_formula_structural   Na4UC3O11
_chemical_formula_sum   'Na16 U4 C12 O44'
_cell_volume   1018.59425140
_cell_formula_units_Z   4
loop_
 _symmetry_equiv_pos_site_id
 _symmetry_equiv_pos_as_xyz
  1  'x, y, z'
loop_
 _atom_site_type_symbol
 _atom_site_label
 _atom_site_symmetry_multiplicity
 _atom_site_fract_x
 _atom_site_fract_y
 _atom_site_fract_z
 _atom_site_occupancy
  Na  Na0  1  0.69196993  0.43775031  0.13308254  1
  Na  Na1  1  0.30519859  0.12951211  0.38045727  1
  Na  Na2  1  0.00272371  0.99953149  0.74990125  1
  Na  Na3  1  0.87102683  0.69308645  0.11996718  1
  Na  Na4  1  0.56391148  0.12690650  0.87789945  1
  Na  Na5  1  0.87232976  0.43633574  0.62506273  1
  Na  Na6  1  0.00000000  0.00000000  0.00000000  1
  Na  Na7  1  0.30803007  0.56224969  0.86691746  1
  Na  Na8  1  0.12767024  0.56366426  0.37493727  1
  Na  Na9  1  0.99727629  0.00046851  0.25009875  1
  Na  Na10  1  0.12897317  0.30691355  0.88003282  1
  Na  Na11  1  0.43608852  0.87309350  0.12210055  1
  Na  Na12  1  0.43665131  0.69221969  0.63144359  1
  Na  Na13  1  0.69480141  0.87048789  0.61954273  1
  Na  Na14  1  0.00000000  0.00000000  0.50000000  1
  Na  Na15  1  0.56334869  0.30778031  0.36855641  1
  U  U16  1  0.33532223  0.33191013  0.63007111  1
  U  U17  1  0.33164989  0.33430592  0.13100071  1
  U  U18  1  0.66835011  0.66569408  0.86899929  1
  U  U19  1  0.66467777  0.66808987  0.36992889  1
  C  C20  1  0.25541960  0.07546312  0.61841192  1
  C  C21  1  0.67173014  0.25269832  0.62961472  1
  C  C22  1  0.66932202  0.07778159  0.13164004  1
  C  C23  1  0.92500858  0.74595185  0.87623722  1
  C  C24  1  0.74458040  0.92453688  0.38158808  1
  C  C25  1  0.25232655  0.67042170  0.13218376  1
  C  C26  1  0.32826986  0.74730168  0.37038528  1
  C  C27  1  0.92123716  0.33091138  0.36330854  1
  C  C28  1  0.74767345  0.32957830  0.86781624  1
  C  C29  1  0.07876284  0.66908862  0.63669146  1
  C  C30  1  0.33067798  0.92221841  0.86835996  1
  C  C31  1  0.07499142  0.25404815  0.12376278  1
  O  O32  1  0.95440430  0.59459269  0.88090381  1
  O  O33  1  0.17959097  0.78478957  0.37823724  1
  O  O34  1  0.33343149  0.33967617  0.99007653  1
  O  O35  1  0.37798374  0.76825530  0.84941823  1
  O  O36  1  0.32924420  0.32768306  0.27205006  1
  O  O37  1  0.33713255  0.34451021  0.48946328  1
  O  O38  1  0.03585114  0.78369186  0.88375817  1
  O  O39  1  0.04559570  0.40540731  0.11909619  1
  O  O40  1  0.66286745  0.65548979  0.51053672  1
  O  O41  1  0.33292995  0.31909954  0.77105344  1
  O  O42  1  0.40668146  0.04656552  0.61340267  1
  O  O43  1  0.18158393  0.03318354  0.87290989  1
  O  O44  1  0.85634699  0.37639263  0.85198906  1
  O  O45  1  0.94987477  0.45137552  0.37876735  1
  O  O46  1  0.78202562  0.03586908  0.38536938  1
  O  O47  1  0.05012523  0.54862448  0.62123265  1
  O  O48  1  0.37514658  0.85679596  0.36090013  1
  O  O49  1  0.85399303  0.76851160  0.37302763  1
  O  O50  1  0.40293273  0.54857733  0.12325993  1
  O  O51  1  0.23326743  0.62047420  0.65688075  1
  O  O52  1  0.82040903  0.21521043  0.62176276  1
  O  O53  1  0.23082617  0.14522691  0.13568279  1
  O  O54  1  0.54780837  0.05016193  0.11678620  1
  O  O55  1  0.96876138  0.81826115  0.63154912  1
  O  O56  1  0.21463889  0.81911978  0.12531403  1
  O  O57  1  0.66656851  0.66032383  0.00992347  1
  O  O58  1  0.66707005  0.68090046  0.22894656  1
  O  O59  1  0.96414886  0.21630814  0.11624183  1
  O  O60  1  0.62485342  0.14320404  0.63909987  1
  O  O61  1  0.45219163  0.94983807  0.88321380  1
  O  O62  1  0.62201626  0.23174470  0.15058177  1
  O  O63  1  0.14600697  0.23148840  0.62697237  1
  O  O64  1  0.78536111  0.18088022  0.87468597  1
  O  O65  1  0.03123862  0.18173885  0.36845088  1
  O  O66  1  0.45028999  0.59596147  0.37186186  1
  O  O67  1  0.76673257  0.37952580  0.34311925  1
  O  O68  1  0.67075580  0.67231694  0.72794994  1
  O  O69  1  0.54971001  0.40403853  0.62813814  1
  O  O70  1  0.76917383  0.85477309  0.86431721  1
  O  O71  1  0.59706727  0.45142267  0.87674007  1
  O  O72  1  0.14365301  0.62360737  0.14801094  1
  O  O73  1  0.21797438  0.96413092  0.61463062  1
  O  O74  1  0.59331854  0.95343448  0.38659733  1
  O  O75  1  0.81841607  0.96681646  0.12709011  1
