# generated using pymatgen
data_K2MnF6
_symmetry_space_group_name_H-M   'P 1'
_cell_length_a   5.83945929
_cell_length_b   5.83945929
_cell_length_c   9.54313227
_cell_angle_alpha   90.00000000
_cell_angle_beta   90.00000000
_cell_angle_gamma   119.99999996
_symmetry_Int_Tables_number   1
_chemical_formula_structural   K2MnF6
_chemical_formula_sum   'K4 Mn2 F12'
_cell_volume   281.81677792
_cell_formula_units_Z   2
loop_
 _symmetry_equiv_pos_site_id
 _symmetry_equiv_pos_as_xyz
  1  'x, y, z'
loop_
 _atom_site_type_symbol
 _atom_site_label
 _atom_site_symmetry_multiplicity
 _atom_site_fract_x
 _atom_site_fract_y
 _atom_site_fract_z
 _atom_site_occupancy
  F  F0  1  0.51868054  0.48131946  0.64348072  1
  F  F1  1  0.03736108  0.51868054  0.14348072  1
  F  F2  1  0.48131946  0.96263892  0.14348072  1
  F  F3  1  0.51868054  0.03736108  0.64348072  1
  F  F4  1  0.96263892  0.48131946  0.64348072  1
  F  F5  1  0.48131946  0.51868054  0.14348072  1
  F  F6  1  0.18066795  0.81933205  0.36372333  1
  F  F7  1  0.36133590  0.18066795  0.86372333  1
  F  F8  1  0.81933205  0.63866410  0.86372333  1
  F  F9  1  0.18066795  0.36133590  0.36372333  1
  F  F10  1  0.63866410  0.81933205  0.36372333  1
  F  F11  1  0.81933205  0.18066795  0.86372333  1
  K  K12  1  0.00000000  0.00000000  0.09919689  1
  K  K13  1  0.00000000  0.00000000  0.59919689  1
  K  K14  1  0.66666667  0.33333333  0.37223450  1
  K  K15  1  0.33333333  0.66666667  0.87223450  1
  Mn  Mn16  1  0.66666667  0.33333333  0.75695645  1
  Mn  Mn17  1  0.33333333  0.66666667  0.25695645  1
