# generated using pymatgen
data_ZnS
_symmetry_space_group_name_H-M   'P 1'
_cell_length_a   3.85386690
_cell_length_b   3.85386687
_cell_length_c   50.39060574
_cell_angle_alpha   90.00000000
_cell_angle_beta   90.00000000
_cell_angle_gamma   120.00000028
_symmetry_Int_Tables_number   1
_chemical_formula_structural   ZnS
_chemical_formula_sum   'Zn16 S16'
_cell_volume   648.14716930
_cell_formula_units_Z   16
loop_
 _symmetry_equiv_pos_site_id
 _symmetry_equiv_pos_as_xyz
  1  'x, y, z'
loop_
 _atom_site_type_symbol
 _atom_site_label
 _atom_site_symmetry_multiplicity
 _atom_site_fract_x
 _atom_site_fract_y
 _atom_site_fract_z
 _atom_site_occupancy
  Zn  Zn0  1  0.33333300  0.66666700  0.50000469  1
  Zn  Zn1  1  0.33333300  0.66666700  0.87500695  1
  Zn  Zn2  1  0.66666700  0.33333300  0.18751068  1
  Zn  Zn3  1  0.00000000  0.00000000  0.43749754  1
  Zn  Zn4  1  0.33333300  0.66666700  0.12501276  1
  Zn  Zn5  1  0.66666700  0.33333300  0.00000469  1
  Zn  Zn6  1  0.66666700  0.33333300  0.62501276  1
  Zn  Zn7  1  0.00000000  0.00000000  0.25000355  1
  Zn  Zn8  1  0.00000000  0.00000000  0.93749754  1
  Zn  Zn9  1  0.66666700  0.33333300  0.81250134  1
  Zn  Zn10  1  0.33333300  0.66666700  0.68751068  1
  Zn  Zn11  1  0.00000000  0.00000000  0.75000355  1
  Zn  Zn12  1  0.66666700  0.33333300  0.37500695  1
  Zn  Zn13  1  0.00000000  0.00000000  0.56252748  1
  Zn  Zn14  1  0.33333300  0.66666700  0.31250134  1
  Zn  Zn15  1  0.00000000  0.00000000  0.06252748  1
  S  S16  1  0.66666700  0.33333300  0.04691010  1
  S  S17  1  0.00000000  0.00000000  0.10936638  1
  S  S18  1  0.33333300  0.66666700  0.35936539  1
  S  S19  1  0.66666700  0.33333300  0.42186033  1
  S  S20  1  0.66666700  0.33333300  0.67186708  1
  S  S21  1  0.33333300  0.66666700  0.54691010  1
  S  S22  1  0.66666700  0.33333300  0.85936539  1
  S  S23  1  0.00000000  0.00000000  0.48431978  1
  S  S24  1  0.00000000  0.00000000  0.98431978  1
  S  S25  1  0.00000000  0.00000000  0.79685423  1
  S  S26  1  0.33333300  0.66666700  0.73435171  1
  S  S27  1  0.00000000  0.00000000  0.29685423  1
  S  S28  1  0.33333300  0.66666700  0.92186033  1
  S  S29  1  0.00000000  0.00000000  0.60936638  1
  S  S30  1  0.33333300  0.66666700  0.17186708  1
  S  S31  1  0.66666700  0.33333300  0.23435171  1
