# generated using pymatgen
data_Ba4Ho(RuO4)3
_symmetry_space_group_name_H-M   'P 1'
_cell_length_a   10.39434137
_cell_length_b   10.39434150
_cell_length_c   10.39434165
_cell_angle_alpha   33.21631429
_cell_angle_beta   33.21631320
_cell_angle_gamma   33.21631293
_symmetry_Int_Tables_number   1
_chemical_formula_structural   Ba4Ho(RuO4)3
_chemical_formula_sum   'Ba4 Ho1 Ru3 O12'
_cell_volume   300.01144491
_cell_formula_units_Z   1
loop_
 _symmetry_equiv_pos_site_id
 _symmetry_equiv_pos_as_xyz
  1  'x, y, z'
loop_
 _atom_site_type_symbol
 _atom_site_label
 _atom_site_symmetry_multiplicity
 _atom_site_fract_x
 _atom_site_fract_y
 _atom_site_fract_z
 _atom_site_occupancy
  Ba  Ba0  1  0.71449910  0.71449910  0.71449910  1
  Ba  Ba1  1  0.28550090  0.28550090  0.28550090  1
  Ba  Ba2  1  0.12915335  0.12915335  0.12915335  1
  Ba  Ba3  1  0.87084665  0.87084665  0.87084665  1
  Ho  Ho4  1  0.00000000  0.00000000  0.00000000  1
  Ru  Ru5  1  0.41312517  0.41312517  0.41312517  1
  Ru  Ru6  1  0.50000000  0.50000000  0.50000000  1
  Ru  Ru7  1  0.58687483  0.58687483  0.58687483  1
  O  O8  1  0.21853014  0.21853013  0.69247376  1
  O  O9  1  0.61249482  0.14742399  0.61249482  1
  O  O10  1  0.85257601  0.38750518  0.38750518  1
  O  O11  1  0.61249482  0.61249482  0.14742399  1
  O  O12  1  0.38750518  0.38750518  0.85257601  1
  O  O13  1  0.78146986  0.78146987  0.30752624  1
  O  O14  1  0.69247376  0.21853014  0.21853013  1
  O  O15  1  0.21853014  0.69247376  0.21853013  1
  O  O16  1  0.78146986  0.30752624  0.78146987  1
  O  O17  1  0.38750518  0.85257601  0.38750518  1
  O  O18  1  0.14742399  0.61249482  0.61249482  1
  O  O19  1  0.30752624  0.78146986  0.78146987  1
