# generated using pymatgen
data_Na3La2(BO3)3
_symmetry_space_group_name_H-M   'P 1'
_cell_length_a   5.18312452
_cell_length_b   6.77767484
_cell_length_c   6.77767480
_cell_angle_alpha   114.28024964
_cell_angle_beta   90.00000000
_cell_angle_gamma   90.00000000
_symmetry_Int_Tables_number   1
_chemical_formula_structural   Na3La2(BO3)3
_chemical_formula_sum   'Na3 La2 B3 O9'
_cell_volume   217.03573591
_cell_formula_units_Z   1
loop_
 _symmetry_equiv_pos_site_id
 _symmetry_equiv_pos_as_xyz
  1  'x, y, z'
loop_
 _atom_site_type_symbol
 _atom_site_label
 _atom_site_symmetry_multiplicity
 _atom_site_fract_x
 _atom_site_fract_y
 _atom_site_fract_z
 _atom_site_occupancy
  Na  Na0  1  0.00000000  0.54243051  0.54243051  1
  Na  Na1  1  0.50000000  0.87091810  0.87091810  1
  Na  Na2  1  0.50000000  0.28854285  0.28854285  1
  La  La3  1  0.00000000  0.38312244  0.95674904  1
  La  La4  1  0.00000000  0.95674904  0.38312244  1
  B  B5  1  0.50000000  0.27843887  0.70814322  1
  B  B6  1  0.00000000  0.94199441  0.94199441  1
  B  B7  1  0.50000000  0.70814322  0.27843887  1
  O  O8  1  0.00000000  0.13227403  0.13227403  1
  O  O9  1  0.00000000  0.95484341  0.74458143  1
  O  O10  1  0.50000000  0.90030022  0.25026560  1
  O  O11  1  0.26637640  0.29935097  0.61709696  1
  O  O12  1  0.00000000  0.74458143  0.95484341  1
  O  O13  1  0.50000000  0.25026560  0.90030022  1
  O  O14  1  0.26637640  0.61709696  0.29935097  1
  O  O15  1  0.73362360  0.29935097  0.61709696  1
  O  O16  1  0.73362360  0.61709696  0.29935097  1
