# generated using pymatgen
data_LaP5O14
_symmetry_space_group_name_H-M   'P 1'
_cell_length_a   8.92581039
_cell_length_b   9.27574399
_cell_length_c   13.25470078
_cell_angle_alpha   90.00000000
_cell_angle_beta   90.55523889
_cell_angle_gamma   90.00000000
_symmetry_Int_Tables_number   1
_chemical_formula_structural   LaP5O14
_chemical_formula_sum   'La4 P20 O56'
_cell_volume   1097.35196547
_cell_formula_units_Z   4
loop_
 _symmetry_equiv_pos_site_id
 _symmetry_equiv_pos_as_xyz
  1  'x, y, z'
loop_
 _atom_site_type_symbol
 _atom_site_label
 _atom_site_symmetry_multiplicity
 _atom_site_fract_x
 _atom_site_fract_y
 _atom_site_fract_z
 _atom_site_occupancy
  La  La0  1  0.22374309  0.31207767  0.00149838  1
  La  La1  1  0.77625691  0.81207767  0.49850162  1
  La  La2  1  0.77625691  0.68792233  0.99850162  1
  La  La3  1  0.22374309  0.18792233  0.50149838  1
  P  P4  1  0.27481553  0.94939531  0.83771445  1
  P  P5  1  0.50720523  0.99735419  0.67737525  1
  P  P6  1  0.00917415  0.50695937  0.20593509  1
  P  P7  1  0.25381413  0.54659340  0.66360355  1
  P  P8  1  0.49279477  0.49735419  0.82262475  1
  P  P9  1  0.74618587  0.45340660  0.33639645  1
  P  P10  1  0.99082585  0.00695937  0.29406491  1
  P  P11  1  0.72518447  0.05060469  0.16228555  1
  P  P12  1  0.50720523  0.50264581  0.17737525  1
  P  P13  1  0.25381413  0.95340660  0.16360355  1
  P  P14  1  0.18670934  0.74821340  0.99971338  1
  P  P15  1  0.74618587  0.04659340  0.83639645  1
  P  P16  1  0.27481553  0.55060469  0.33771445  1
  P  P17  1  0.81329066  0.25178660  0.00028662  1
  P  P18  1  0.81329066  0.24821340  0.50028662  1
  P  P19  1  0.18670934  0.75178660  0.49971338  1
  P  P20  1  0.00917415  0.99304063  0.70593509  1
  P  P21  1  0.49279477  0.00264581  0.32262475  1
  P  P22  1  0.72518447  0.44939531  0.66228555  1
  P  P23  1  0.99082585  0.49304063  0.79406491  1
  O  O24  1  0.42186475  0.37998363  0.88203079  1
  O  O25  1  0.08677707  0.11227949  0.65263659  1
  O  O26  1  0.91801873  0.88257726  0.65179880  1
  O  O27  1  0.29429735  0.68179592  0.41263656  1
  O  O28  1  0.78592160  0.40985695  0.00112289  1
  O  O29  1  0.63569627  0.07894316  0.74573825  1
  O  O30  1  0.96665115  0.18817975  0.00688320  1
  O  O31  1  0.27993060  0.41017716  0.60899816  1
  O  O32  1  0.96665115  0.31182025  0.50688320  1
  O  O33  1  0.09106329  0.93191079  0.20656606  1
  O  O34  1  0.70570265  0.18179592  0.08736344  1
  O  O35  1  0.41111416  0.91810959  0.76599897  1
  O  O36  1  0.36430373  0.57894316  0.75426175  1
  O  O37  1  0.58888584  0.08189041  0.23400103  1
  O  O38  1  0.08198127  0.38257726  0.84820120  1
  O  O39  1  0.86993208  0.40416473  0.72514144  1
  O  O40  1  0.63569627  0.42105684  0.24573825  1
  O  O41  1  0.72905521  0.90630522  0.11560608  1
  O  O42  1  0.29429735  0.81820408  0.91263656  1
  O  O43  1  0.58249193  0.88690873  0.37191704  1
  O  O44  1  0.21407840  0.59014305  0.99887711  1
  O  O45  1  0.90893671  0.06808921  0.79343394  1
  O  O46  1  0.86993208  0.09583527  0.22514144  1
  O  O47  1  0.27993060  0.08982284  0.10899816  1
  O  O48  1  0.27094479  0.40630522  0.38439392  1
  O  O49  1  0.72476613  0.31124087  0.40042819  1
  O  O50  1  0.91322293  0.61227949  0.84736341  1
  O  O51  1  0.03334885  0.68817975  0.49311680  1
  O  O52  1  0.78592160  0.09014305  0.50112289  1
  O  O53  1  0.27094479  0.09369478  0.88439392  1
  O  O54  1  0.09106329  0.56808921  0.70656606  1
  O  O55  1  0.41750807  0.38690873  0.12808296  1
  O  O56  1  0.72476613  0.18875913  0.90042819  1
  O  O57  1  0.27523387  0.81124087  0.09957181  1
  O  O58  1  0.21407840  0.90985695  0.49887711  1
  O  O59  1  0.13006792  0.90416473  0.77485856  1
  O  O60  1  0.57813525  0.62001637  0.11796921  1
  O  O61  1  0.72006940  0.58982284  0.39100184  1
  O  O62  1  0.41750807  0.11309127  0.62808296  1
  O  O63  1  0.36430373  0.92105684  0.25426175  1
  O  O64  1  0.70570265  0.31820408  0.58736344  1
  O  O65  1  0.03334885  0.81182025  0.99311680  1
  O  O66  1  0.58249193  0.61309127  0.87191704  1
  O  O67  1  0.08677707  0.38772051  0.15263659  1
  O  O68  1  0.91801873  0.61742274  0.15179880  1
  O  O69  1  0.91322293  0.88772051  0.34736341  1
  O  O70  1  0.41111416  0.58189041  0.26599897  1
  O  O71  1  0.58888584  0.41810959  0.73400103  1
  O  O72  1  0.13006792  0.59583527  0.27485856  1
  O  O73  1  0.08198127  0.11742274  0.34820120  1
  O  O74  1  0.72006940  0.91017716  0.89100184  1
  O  O75  1  0.57813525  0.87998363  0.61796921  1
  O  O76  1  0.27523387  0.68875913  0.59957181  1
  O  O77  1  0.90893671  0.43191079  0.29343394  1
  O  O78  1  0.72905521  0.59369478  0.61560608  1
  O  O79  1  0.42186475  0.12001637  0.38203079  1
