# generated using pymatgen
data_BaNaZr2F11
_symmetry_space_group_name_H-M   'P 1'
_cell_length_a   8.37980574
_cell_length_b   8.37980571
_cell_length_c   13.38273067
_cell_angle_alpha   108.24510881
_cell_angle_beta   108.24510872
_cell_angle_gamma   90.00000193
_symmetry_Int_Tables_number   1
_chemical_formula_structural   BaNaZr2F11
_chemical_formula_sum   'Ba4 Na4 Zr8 F44'
_cell_volume   842.61546725
_cell_formula_units_Z   4
loop_
 _symmetry_equiv_pos_site_id
 _symmetry_equiv_pos_as_xyz
  1  'x, y, z'
loop_
 _atom_site_type_symbol
 _atom_site_label
 _atom_site_symmetry_multiplicity
 _atom_site_fract_x
 _atom_site_fract_y
 _atom_site_fract_z
 _atom_site_occupancy
  Ba  Ba0  1  0.71314675  0.46314675  0.92629350  1
  Ba  Ba1  1  0.28685325  0.53685325  0.07370650  1
  Ba  Ba2  1  0.46314675  0.71314675  0.42629350  1
  Ba  Ba3  1  0.53685325  0.28685325  0.57370650  1
  Na  Na4  1  0.99014186  0.24014186  0.48028373  1
  Na  Na5  1  0.24014186  0.99014186  0.98028373  1
  Na  Na6  1  0.00985814  0.75985814  0.51971627  1
  Na  Na7  1  0.75985814  0.00985814  0.01971627  1
  Zr  Zr8  1  0.16079178  0.98760977  0.25100914  1
  Zr  Zr9  1  0.40978264  0.73660063  0.74899086  1
  Zr  Zr10  1  0.01239023  0.40978264  0.24899086  1
  Zr  Zr11  1  0.73660063  0.83920822  0.24899086  1
  Zr  Zr12  1  0.83920822  0.01239023  0.74899086  1
  Zr  Zr13  1  0.98760977  0.59021736  0.75100914  1
  Zr  Zr14  1  0.26339937  0.16079178  0.75100914  1
  Zr  Zr15  1  0.59021736  0.26339937  0.25100914  1
  F  F16  1  0.75145978  0.28493255  0.14755722  1
  F  F17  1  0.33968197  0.01563773  0.40661155  1
  F  F18  1  0.66031803  0.98436227  0.59338845  1
  F  F19  1  0.81410816  0.13219579  0.90241381  1
  F  F20  1  0.58830564  0.77021801  0.90241381  1
  F  F21  1  0.99335299  0.97044360  0.34758379  1
  F  F22  1  0.22978199  0.18589184  0.59758619  1
  F  F23  1  0.01563773  0.56692958  0.90661155  1
  F  F24  1  0.14576920  0.62285981  0.65241621  1
  F  F25  1  0.37714019  0.99335299  0.84758379  1
  F  F26  1  0.86262467  0.75145978  0.64755722  1
  F  F27  1  0.81409541  0.25524437  0.74876638  1
  F  F28  1  0.10390256  0.13737533  0.85244278  1
  F  F29  1  0.98436227  0.43307042  0.09338845  1
  F  F30  1  0.97044360  0.85423080  0.84758379  1
  F  F31  1  0.77021801  0.81410816  0.40241381  1
  F  F32  1  0.74475563  0.56532904  0.75123362  1
  F  F33  1  0.85423080  0.37714019  0.34758379  1
  F  F34  1  0.18590459  0.74475563  0.25123362  1
  F  F35  1  0.87322151  0.62322151  0.24644302  1
  F  F36  1  0.13219579  0.58830564  0.40241381  1
  F  F37  1  0.39097383  0.33968197  0.90661155  1
  F  F38  1  0.56532904  0.50647799  0.25123362  1
  F  F39  1  0.50647799  0.18590459  0.75123362  1
  F  F40  1  0.18589184  0.86780421  0.09758619  1
  F  F41  1  0.49352201  0.81409541  0.24876638  1
  F  F42  1  0.89609744  0.86262467  0.14755722  1
  F  F43  1  0.00664701  0.02955640  0.65241621  1
  F  F44  1  0.02955640  0.14576920  0.15241621  1
  F  F45  1  0.62322151  0.87322151  0.74644302  1
  F  F46  1  0.12677849  0.37677849  0.75355698  1
  F  F47  1  0.60902617  0.66031803  0.09338845  1
  F  F48  1  0.71506745  0.10390256  0.35244278  1
  F  F49  1  0.43467096  0.49352201  0.74876638  1
  F  F50  1  0.13737533  0.24854022  0.35244278  1
  F  F51  1  0.37677849  0.12677849  0.25355698  1
  F  F52  1  0.25524437  0.43467096  0.24876638  1
  F  F53  1  0.43307042  0.60902617  0.59338845  1
  F  F54  1  0.24854022  0.71506745  0.85244278  1
  F  F55  1  0.41169436  0.22978199  0.09758619  1
  F  F56  1  0.56692958  0.39097383  0.40661155  1
  F  F57  1  0.28493255  0.89609744  0.64755722  1
  F  F58  1  0.86780421  0.41169436  0.59758619  1
  F  F59  1  0.62285981  0.00664701  0.15241621  1
