# generated using pymatgen
data_Gd8Zr7O26
_symmetry_space_group_name_H-M   'P 1'
_cell_length_a   7.54800539
_cell_length_b   7.54800603
_cell_length_c   14.62561772
_cell_angle_alpha   61.07564135
_cell_angle_beta   61.07563865
_cell_angle_gamma   60.57560852
_symmetry_Int_Tables_number   1
_chemical_formula_structural   Gd8Zr7O26
_chemical_formula_sum   'Gd8 Zr7 O26'
_cell_volume   601.24251690
_cell_formula_units_Z   1
loop_
 _symmetry_equiv_pos_site_id
 _symmetry_equiv_pos_as_xyz
  1  'x, y, z'
loop_
 _atom_site_type_symbol
 _atom_site_label
 _atom_site_symmetry_multiplicity
 _atom_site_fract_x
 _atom_site_fract_y
 _atom_site_fract_z
 _atom_site_occupancy
  Gd  Gd0  1  0.00000000  0.00000000  0.00000000  1
  Gd  Gd1  1  0.50000000  0.00000000  0.00000000  1
  Gd  Gd2  1  0.99461394  0.99461394  0.24671628  1
  Gd  Gd3  1  0.00000000  0.50000000  0.00000000  1
  Gd  Gd4  1  0.50000000  0.00000000  0.50000000  1
  Gd  Gd5  1  0.00000000  0.50000000  0.50000000  1
  Gd  Gd6  1  0.00000000  0.00000000  0.50000000  1
  Gd  Gd7  1  0.00538606  0.00538606  0.75328372  1
  Zr  Zr8  1  0.48113849  0.48113849  0.26302971  1
  Zr  Zr9  1  0.50000000  0.50000000  0.50000000  1
  Zr  Zr10  1  0.50255065  0.00486976  0.23258524  1
  Zr  Zr11  1  0.51886151  0.51886151  0.73697029  1
  Zr  Zr12  1  0.00486976  0.50255065  0.23258524  1
  Zr  Zr13  1  0.49744935  0.99513024  0.76741476  1
  Zr  Zr14  1  0.99513024  0.49744935  0.76741476  1
  O  O15  1  0.13102821  0.13102821  0.06461543  1
  O  O16  1  0.15965452  0.15965452  0.28194407  1
  O  O17  1  0.14476254  0.59120833  0.06945371  1
  O  O18  1  0.12806080  0.12806080  0.56135534  1
  O  O19  1  0.15808030  0.58477114  0.28989542  1
  O  O20  1  0.59120833  0.14476254  0.06945371  1
  O  O21  1  0.58477114  0.15808030  0.28989542  1
  O  O22  1  0.15806492  0.15806492  0.79821189  1
  O  O23  1  0.40102424  0.40102424  0.42404906  1
  O  O24  1  0.43132247  0.81037557  0.19341007  1
  O  O25  1  0.16544216  0.58827299  0.58529229  1
  O  O26  1  0.41172701  0.83455784  0.41470771  1
  O  O27  1  0.18962443  0.56867753  0.80658993  1
  O  O28  1  0.58827299  0.16544216  0.58529229  1
  O  O29  1  0.81037557  0.43132247  0.19341007  1
  O  O30  1  0.56867753  0.18962443  0.80658993  1
  O  O31  1  0.84193508  0.84193508  0.20178811  1
  O  O32  1  0.59897576  0.59897576  0.57595094  1
  O  O33  1  0.83455784  0.41172701  0.41470771  1
  O  O34  1  0.41522886  0.84191970  0.71010458  1
  O  O35  1  0.40879167  0.85523746  0.93054629  1
  O  O36  1  0.84191970  0.41522886  0.71010458  1
  O  O37  1  0.87193920  0.87193920  0.43864466  1
  O  O38  1  0.85523746  0.40879167  0.93054629  1
  O  O39  1  0.84034548  0.84034548  0.71805593  1
  O  O40  1  0.86897179  0.86897179  0.93538457  1
