# generated using pymatgen
data_Ba2AlCu2F11
_symmetry_space_group_name_H-M   'P 1'
_cell_length_a   7.41391835
_cell_length_b   7.41391792
_cell_length_c   14.37655327
_cell_angle_alpha   90.00000000
_cell_angle_beta   90.00000000
_cell_angle_gamma   120.00000191
_symmetry_Int_Tables_number   1
_chemical_formula_structural   Ba2AlCu2F11
_chemical_formula_sum   'Ba6 Al3 Cu6 F33'
_cell_volume   684.35425820
_cell_formula_units_Z   3
loop_
 _symmetry_equiv_pos_site_id
 _symmetry_equiv_pos_as_xyz
  1  'x, y, z'
loop_
 _atom_site_type_symbol
 _atom_site_label
 _atom_site_symmetry_multiplicity
 _atom_site_fract_x
 _atom_site_fract_y
 _atom_site_fract_z
 _atom_site_occupancy
  Ba  Ba0  1  0.53647199  0.18790412  0.66660278  1
  Ba  Ba1  1  0.17272558  0.49491449  0.80055169  1
  Ba  Ba2  1  0.65143213  0.46352801  0.99993578  1
  Ba  Ba3  1  0.50508551  0.67781109  0.46721769  1
  Ba  Ba4  1  0.32218891  0.82727442  0.13388469  1
  Ba  Ba5  1  0.81209588  0.34856787  0.33326878  1
  Al  Al6  1  0.16806570  0.00768143  0.87190278  1
  Al  Al7  1  0.83961573  0.83193430  0.20523578  1
  Al  Al8  1  0.99231857  0.16038427  0.53856878  1
  Cu  Cu9  1  0.64653923  0.99523331  0.89047933  1
  Cu  Cu10  1  0.79203207  0.76877982  0.72222314  1
  Cu  Cu11  1  0.23122018  0.02325225  0.38888914  1
  Cu  Cu12  1  0.34869408  0.35346077  0.22381233  1
  Cu  Cu13  1  0.97674775  0.20796793  0.05555614  1
  Cu  Cu14  1  0.00476669  0.65130592  0.55714533  1
  F  F15  1  0.68172992  0.09116592  0.02189195  1
  F  F16  1  0.50509505  0.71078668  0.92864290  1
  F  F17  1  0.40943600  0.31827008  0.35522495  1
  F  F18  1  0.09046895  0.41497840  0.48374222  1
  F  F19  1  0.52197122  0.24534559  0.18167192  1
  F  F20  1  0.90461396  0.62695609  0.17817770  1
  F  F21  1  0.58502160  0.67549055  0.15040922  1
  F  F22  1  0.37304391  0.27765786  0.84484470  1
  F  F23  1  0.72337437  0.47802878  0.51500492  1
  F  F24  1  0.26156826  0.34002944  0.09353387  1
  F  F25  1  0.32450945  0.90953105  0.81707622  1
  F  F26  1  0.90883408  0.59056400  0.68855895  1
  F  F27  1  0.29126779  0.02586051  0.98176587  1
  F  F28  1  0.02898099  0.47888448  0.02104288  1
  F  F29  1  0.73459272  0.70873221  0.31509887  1
  F  F30  1  0.28921332  0.79430837  0.59530890  1
  F  F31  1  0.01264785  0.12302628  0.90931558  1
  F  F32  1  0.07846118  0.73843174  0.42686687  1
  F  F33  1  0.99978624  0.06746636  0.41841836  1
  F  F34  1  0.97413949  0.26540728  0.64843187  1
  F  F35  1  0.06768012  0.00021376  0.75175236  1
  F  F36  1  0.52111552  0.55009651  0.68770988  1
  F  F37  1  0.44990349  0.97101901  0.35437588  1
  F  F38  1  0.11037843  0.98735215  0.24264858  1
  F  F39  1  0.65997056  0.92153882  0.76020087  1
  F  F40  1  0.75465441  0.27662563  0.84833892  1
  F  F41  1  0.20569163  0.49490495  0.26197590  1
  F  F42  1  0.95441663  0.74468301  0.88800603  1
  F  F43  1  0.79026637  0.04558337  0.22133903  1
  F  F44  1  0.93253364  0.93231988  0.08508536  1
  F  F45  1  0.72234214  0.09538604  0.51151070  1
  F  F46  1  0.87697372  0.88962157  0.57598158  1
  F  F47  1  0.25531699  0.20973363  0.55467203  1
