# generated using pymatgen
data_CsAlSiO4
_symmetry_space_group_name_H-M   'P 1'
_cell_length_a   5.50246969
_cell_length_b   9.01174292
_cell_length_c   9.59451353
_cell_angle_alpha   90.00000000
_cell_angle_beta   90.00000000
_cell_angle_gamma   90.00000000
_symmetry_Int_Tables_number   1
_chemical_formula_structural   CsAlSiO4
_chemical_formula_sum   'Cs4 Al4 Si4 O16'
_cell_volume   475.76162908
_cell_formula_units_Z   4
loop_
 _symmetry_equiv_pos_site_id
 _symmetry_equiv_pos_as_xyz
  1  'x, y, z'
loop_
 _atom_site_type_symbol
 _atom_site_label
 _atom_site_symmetry_multiplicity
 _atom_site_fract_x
 _atom_site_fract_y
 _atom_site_fract_z
 _atom_site_occupancy
  Cs  Cs0  1  0.99945250  0.49953822  0.80116436  1
  Cs  Cs1  1  0.49945250  0.50046178  0.19883564  1
  Cs  Cs2  1  0.49945250  0.00046178  0.30116436  1
  Cs  Cs3  1  0.99945250  0.99953822  0.69883564  1
  Al  Al4  1  0.99936637  0.31692812  0.41575335  1
  Al  Al5  1  0.99936637  0.81692812  0.08424665  1
  Al  Al6  1  0.49936637  0.68307188  0.58424665  1
  Al  Al7  1  0.49936637  0.18307188  0.91575335  1
  Si  Si8  1  0.49923771  0.80964205  0.91553108  1
  Si  Si9  1  0.49923771  0.30964205  0.58446892  1
  Si  Si10  1  0.99923771  0.69035795  0.41553108  1
  Si  Si11  1  0.99923771  0.19035795  0.08446892  1
  O  O12  1  0.00002827  0.25336189  0.24367188  1
  O  O13  1  0.75734768  0.75344456  0.49695043  1
  O  O14  1  0.24070295  0.75309558  0.49746958  1
  O  O15  1  0.24070295  0.25309558  0.00253042  1
  O  O16  1  0.00002827  0.75336189  0.25632812  1
  O  O17  1  0.50002827  0.74663811  0.75632812  1
  O  O18  1  0.74070295  0.24690442  0.50253042  1
  O  O19  1  0.50002827  0.24663811  0.74367188  1
  O  O20  1  0.25734768  0.24655544  0.50304957  1
  O  O21  1  0.25734768  0.74655544  0.99695043  1
  O  O22  1  0.49861452  0.48980087  0.58812512  1
  O  O23  1  0.75734768  0.25344456  0.00304957  1
  O  O24  1  0.74070295  0.74690442  0.99746958  1
  O  O25  1  0.99861452  0.51019913  0.41187488  1
  O  O26  1  0.49861452  0.98980087  0.91187488  1
  O  O27  1  0.99861452  0.01019913  0.08812512  1
