# generated using pymatgen
data_Na3GaS3
_symmetry_space_group_name_H-M   'P 1'
_cell_length_a   7.70270852
_cell_length_b   12.20304946
_cell_length_c   13.81947314
_cell_angle_alpha   90.00000000
_cell_angle_beta   98.37778326
_cell_angle_gamma   90.00000000
_symmetry_Int_Tables_number   1
_chemical_formula_structural   Na3GaS3
_chemical_formula_sum   'Na24 Ga8 S24'
_cell_volume   1285.12099513
_cell_formula_units_Z   8
loop_
 _symmetry_equiv_pos_site_id
 _symmetry_equiv_pos_as_xyz
  1  'x, y, z'
loop_
 _atom_site_type_symbol
 _atom_site_label
 _atom_site_symmetry_multiplicity
 _atom_site_fract_x
 _atom_site_fract_y
 _atom_site_fract_z
 _atom_site_occupancy
  Na  Na0  1  0.50311058  0.74947207  0.01385098  1
  Na  Na1  1  0.03635241  0.30790781  0.24068830  1
  Na  Na2  1  0.00311058  0.75052793  0.01385098  1
  Na  Na3  1  0.91560227  0.26367975  0.47386361  1
  Na  Na4  1  0.89016940  0.91194739  0.36656756  1
  Na  Na5  1  0.60983060  0.41194739  0.63343244  1
  Na  Na6  1  0.00549976  0.32812056  0.75694625  1
  Na  Na7  1  0.49688942  0.25052793  0.98614902  1
  Na  Na8  1  0.96364759  0.69209219  0.75931170  1
  Na  Na9  1  0.10983060  0.08805261  0.63343244  1
  Na  Na10  1  0.08439773  0.73632025  0.52613639  1
  Na  Na11  1  0.99450024  0.67187944  0.24305375  1
  Na  Na12  1  0.53635241  0.19209219  0.24068830  1
  Na  Na13  1  0.46364759  0.80790781  0.75931170  1
  Na  Na14  1  0.58142177  0.48100032  0.19350984  1
  Na  Na15  1  0.39016940  0.58805261  0.36656756  1
  Na  Na16  1  0.91857823  0.98100032  0.80649016  1
  Na  Na17  1  0.08142177  0.01899968  0.19350984  1
  Na  Na18  1  0.58439773  0.76367975  0.52613639  1
  Na  Na19  1  0.50549976  0.17187944  0.75694625  1
  Na  Na20  1  0.99688942  0.24947207  0.98614902  1
  Na  Na21  1  0.41857823  0.51899968  0.80649016  1
  Na  Na22  1  0.49450024  0.82812056  0.24305375  1
  Na  Na23  1  0.41560227  0.23632025  0.47386361  1
  Ga  Ga24  1  0.82140507  0.50750838  0.92609601  1
  Ga  Ga25  1  0.31722904  0.97788749  0.43345339  1
  Ga  Ga26  1  0.17859493  0.49249162  0.07390399  1
  Ga  Ga27  1  0.32140507  0.99249162  0.92609601  1
  Ga  Ga28  1  0.18277096  0.47788749  0.56654661  1
  Ga  Ga29  1  0.81722904  0.52211251  0.43345339  1
  Ga  Ga30  1  0.68277096  0.02211251  0.56654661  1
  Ga  Ga31  1  0.67859493  0.00750838  0.07390399  1
  S  S32  1  0.76408261  0.18632471  0.63092445  1
  S  S33  1  0.31153096  0.64114194  0.14819525  1
  S  S34  1  0.88026201  0.49791293  0.09790453  1
  S  S35  1  0.73591739  0.68632471  0.36907555  1
  S  S36  1  0.11973799  0.50208707  0.90209547  1
  S  S37  1  0.09143203  0.46654025  0.39544144  1
  S  S38  1  0.90856797  0.53345975  0.60455856  1
  S  S39  1  0.61973799  0.99791293  0.90209547  1
  S  S40  1  0.59143203  0.03345975  0.39544144  1
  S  S41  1  0.26408261  0.31367529  0.63092445  1
  S  S42  1  0.79843943  0.17049203  0.12290484  1
  S  S43  1  0.20156057  0.82950797  0.87709516  1
  S  S44  1  0.23591739  0.81367529  0.36907555  1
  S  S45  1  0.61723143  0.38955463  0.38621415  1
  S  S46  1  0.81153096  0.85885806  0.14819525  1
  S  S47  1  0.38026201  0.00208707  0.09790453  1
  S  S48  1  0.11723143  0.11044537  0.38621415  1
  S  S49  1  0.38276857  0.61044537  0.61378585  1
  S  S50  1  0.40856797  0.96654025  0.60455856  1
  S  S51  1  0.68846904  0.35885806  0.85180475  1
  S  S52  1  0.29843943  0.32950797  0.12290484  1
  S  S53  1  0.88276857  0.88955463  0.61378585  1
  S  S54  1  0.18846904  0.14114194  0.85180475  1
  S  S55  1  0.70156057  0.67049203  0.87709516  1
