# generated using pymatgen
data_NaGd(PO3)4
_symmetry_space_group_name_H-M   'P 1'
_cell_length_a   7.28370176
_cell_length_b   9.90441543
_cell_length_c   13.24072822
_cell_angle_alpha   90.00000000
_cell_angle_beta   90.00000000
_cell_angle_gamma   89.59912978
_symmetry_Int_Tables_number   1
_chemical_formula_structural   NaGd(PO3)4
_chemical_formula_sum   'Na4 Gd4 P16 O48'
_cell_volume   955.17345422
_cell_formula_units_Z   4
loop_
 _symmetry_equiv_pos_site_id
 _symmetry_equiv_pos_as_xyz
  1  'x, y, z'
loop_
 _atom_site_type_symbol
 _atom_site_label
 _atom_site_symmetry_multiplicity
 _atom_site_fract_x
 _atom_site_fract_y
 _atom_site_fract_z
 _atom_site_occupancy
  Na  Na0  1  0.00106118  0.06310345  0.72147565  1
  Na  Na1  1  0.49893882  0.43689655  0.22147565  1
  Na  Na2  1  0.50106118  0.56310345  0.77852435  1
  Na  Na3  1  0.99893882  0.93689655  0.27852435  1
  Gd  Gd4  1  0.01274071  0.52291498  0.21951298  1
  Gd  Gd5  1  0.98725929  0.47708502  0.78048702  1
  Gd  Gd6  1  0.51274071  0.02291498  0.28048702  1
  Gd  Gd7  1  0.48725929  0.97708502  0.71951298  1
  P  P8  1  0.24980532  0.74394460  0.89801112  1
  P  P9  1  0.75019468  0.25605540  0.10198888  1
  P  P10  1  0.25019468  0.75605540  0.39801112  1
  P  P11  1  0.37687446  0.73644726  0.11454255  1
  P  P12  1  0.85361883  0.80369518  0.87238047  1
  P  P13  1  0.64638117  0.69630482  0.37238047  1
  P  P14  1  0.35361883  0.30369518  0.62761953  1
  P  P15  1  0.26809059  0.29912757  0.40858475  1
  P  P16  1  0.14638117  0.19630482  0.12761953  1
  P  P17  1  0.73190941  0.70087243  0.59141525  1
  P  P18  1  0.23190941  0.20087243  0.90858475  1
  P  P19  1  0.74980532  0.24394460  0.60198888  1
  P  P20  1  0.87687446  0.23644726  0.38545745  1
  P  P21  1  0.76809059  0.79912757  0.09141525  1
  P  P22  1  0.12312554  0.76355274  0.61454255  1
  P  P23  1  0.62312554  0.26355274  0.88545745  1
  O  O24  1  0.22027301  0.10484430  0.20872985  1
  O  O25  1  0.20016406  0.89701436  0.64693494  1
  O  O26  1  0.90497574  0.29688456  0.66608584  1
  O  O27  1  0.76173672  0.58398174  0.66190176  1
  O  O28  1  0.07090614  0.83474093  0.87542768  1
  O  O29  1  0.86814879  0.35137946  0.31227126  1
  O  O30  1  0.71592495  0.20977039  0.98732139  1
  O  O31  1  0.77972699  0.89515570  0.79127015  1
  O  O32  1  0.79983594  0.10298564  0.35306506  1
  O  O33  1  0.70016406  0.39701436  0.85306506  1
  O  O34  1  0.58636694  0.70729303  0.08079898  1
  O  O35  1  0.91363306  0.79270697  0.58079898  1
  O  O36  1  0.72027301  0.60484430  0.29127015  1
  O  O37  1  0.71288428  0.09488812  0.60989456  1
  O  O38  1  0.78711572  0.40511188  0.10989456  1
  O  O39  1  0.23826328  0.41601826  0.33809824  1
  O  O40  1  0.73826328  0.91601826  0.16190176  1
  O  O41  1  0.42660934  0.20542203  0.38761147  1
  O  O42  1  0.27972699  0.39515570  0.70872985  1
  O  O43  1  0.29983594  0.60298564  0.14693494  1
  O  O44  1  0.78407505  0.29022961  0.48732139  1
  O  O45  1  0.21288428  0.59488812  0.89010544  1
  O  O46  1  0.28711572  0.90511188  0.39010544  1
  O  O47  1  0.63185121  0.14862054  0.81227126  1
  O  O48  1  0.28405470  0.36303905  0.52072037  1
  O  O49  1  0.08636694  0.20729303  0.41920102  1
  O  O50  1  0.13185121  0.64862054  0.68772874  1
  O  O51  1  0.17711813  0.34566310  0.13386704  1
  O  O52  1  0.67711813  0.84566310  0.36613296  1
  O  O53  1  0.42909386  0.66525907  0.37542768  1
  O  O54  1  0.92909386  0.16525907  0.12457232  1
  O  O55  1  0.32288187  0.15433690  0.63386704  1
  O  O56  1  0.09502426  0.70311544  0.33391416  1
  O  O57  1  0.36814879  0.85137946  0.18772874  1
  O  O58  1  0.92660934  0.70542203  0.11238853  1
  O  O59  1  0.78405470  0.86303905  0.97927963  1
  O  O60  1  0.71594530  0.63696095  0.47927963  1
  O  O61  1  0.40497574  0.79688456  0.83391416  1
  O  O62  1  0.57339066  0.79457797  0.61238853  1
  O  O63  1  0.21592495  0.70977039  0.51267861  1
  O  O64  1  0.59502426  0.20311544  0.16608584  1
  O  O65  1  0.57090614  0.33474093  0.62457232  1
  O  O66  1  0.82288187  0.65433690  0.86613296  1
  O  O67  1  0.41363306  0.29270697  0.91920102  1
  O  O68  1  0.26173672  0.08398174  0.83809824  1
  O  O69  1  0.28407505  0.79022961  0.01267861  1
  O  O70  1  0.07339066  0.29457797  0.88761147  1
  O  O71  1  0.21594530  0.13696095  0.02072037  1
