# generated using pymatgen
data_ZnS
_symmetry_space_group_name_H-M   'P 1'
_cell_length_a   3.85386867
_cell_length_b   3.85386856
_cell_length_c   62.97104486
_cell_angle_alpha   90.00000000
_cell_angle_beta   90.00000000
_cell_angle_gamma   120.00000084
_symmetry_Int_Tables_number   1
_chemical_formula_structural   ZnS
_chemical_formula_sum   'Zn20 S20'
_cell_volume   809.96329279
_cell_formula_units_Z   20
loop_
 _symmetry_equiv_pos_site_id
 _symmetry_equiv_pos_as_xyz
  1  'x, y, z'
loop_
 _atom_site_type_symbol
 _atom_site_label
 _atom_site_symmetry_multiplicity
 _atom_site_fract_x
 _atom_site_fract_y
 _atom_site_fract_z
 _atom_site_occupancy
  Zn  Zn0  1  0.00000000  0.00000000  0.40000295  1
  Zn  Zn1  1  0.33333300  0.66666700  0.44999839  1
  Zn  Zn2  1  0.66666700  0.33333300  0.20000306  1
  Zn  Zn3  1  0.66666700  0.33333300  0.65000342  1
  Zn  Zn4  1  0.33333300  0.66666700  0.70000306  1
  Zn  Zn5  1  0.00000000  0.00000000  0.60000259  1
  Zn  Zn6  1  0.66666700  0.33333300  0.94999839  1
  Zn  Zn7  1  0.00000000  0.00000000  0.10000259  1
  Zn  Zn8  1  0.66666700  0.33333300  0.35000309  1
  Zn  Zn9  1  0.66666700  0.33333300  0.05001423  1
  Zn  Zn10  1  0.00000000  0.00000000  0.90000295  1
  Zn  Zn11  1  0.33333300  0.66666700  0.55001423  1
  Zn  Zn12  1  0.00000000  0.00000000  0.25000288  1
  Zn  Zn13  1  0.33333300  0.66666700  0.85000309  1
  Zn  Zn14  1  0.00000000  0.00000000  0.75000288  1
  Zn  Zn15  1  0.66666700  0.33333300  0.49999988  1
  Zn  Zn16  1  0.33333300  0.66666700  0.15000342  1
  Zn  Zn17  1  0.66666700  0.33333300  0.80000339  1
  Zn  Zn18  1  0.33333300  0.66666700  0.30000339  1
  Zn  Zn19  1  0.33333300  0.66666700  0.99999988  1
  S  S20  1  0.66666700  0.33333300  0.23749663  1
  S  S21  1  0.66666700  0.33333300  0.83749667  1
  S  S22  1  0.33333300  0.66666700  0.88749662  1
  S  S23  1  0.33333300  0.66666700  0.33749667  1
  S  S24  1  0.00000000  0.00000000  0.78749641  1
  S  S25  1  0.66666700  0.33333300  0.08749533  1
  S  S26  1  0.33333300  0.66666700  0.48746681  1
  S  S27  1  0.00000000  0.00000000  0.28749641  1
  S  S28  1  0.00000000  0.00000000  0.13749616  1
  S  S29  1  0.66666700  0.33333300  0.68749689  1
  S  S30  1  0.33333300  0.66666700  0.03752853  1
  S  S31  1  0.66666700  0.33333300  0.98746681  1
  S  S32  1  0.66666700  0.33333300  0.53752853  1
  S  S33  1  0.66666700  0.33333300  0.38749662  1
  S  S34  1  0.33333300  0.66666700  0.73749663  1
  S  S35  1  0.33333300  0.66666700  0.18749689  1
  S  S36  1  0.00000000  0.00000000  0.63749616  1
  S  S37  1  0.33333300  0.66666700  0.58749533  1
  S  S38  1  0.00000000  0.00000000  0.93749608  1
  S  S39  1  0.00000000  0.00000000  0.43749608  1
