# generated using pymatgen
data_TlBi(PSe3)2
_symmetry_space_group_name_H-M   'P 1'
_cell_length_a   7.74937221
_cell_length_b   12.62207488
_cell_length_c   23.54602500
_cell_angle_alpha   97.60228085
_cell_angle_beta   90.00000000
_cell_angle_gamma   90.00000000
_symmetry_Int_Tables_number   1
_chemical_formula_structural   TlBi(PSe3)2
_chemical_formula_sum   'Tl8 Bi8 P16 Se48'
_cell_volume   2282.86731094
_cell_formula_units_Z   8
loop_
 _symmetry_equiv_pos_site_id
 _symmetry_equiv_pos_as_xyz
  1  'x, y, z'
loop_
 _atom_site_type_symbol
 _atom_site_label
 _atom_site_symmetry_multiplicity
 _atom_site_fract_x
 _atom_site_fract_y
 _atom_site_fract_z
 _atom_site_occupancy
  Tl  Tl0  1  0.58267472  0.66174467  0.57732480  1
  Tl  Tl1  1  0.41732528  0.33825533  0.42267520  1
  Tl  Tl2  1  0.91732528  0.66174467  0.07732480  1
  Tl  Tl3  1  0.08267472  0.33825533  0.92267520  1
  Tl  Tl4  1  0.09502852  0.58138293  0.67477784  1
  Tl  Tl5  1  0.59502852  0.41861707  0.82522216  1
  Tl  Tl6  1  0.90497148  0.41861707  0.32522216  1
  Tl  Tl7  1  0.40497148  0.58138293  0.17477784  1
  Bi  Bi8  1  0.15496684  0.79830211  0.41991394  1
  Bi  Bi9  1  0.84641163  0.93952646  0.82738899  1
  Bi  Bi10  1  0.65358837  0.93952646  0.32738899  1
  Bi  Bi11  1  0.65496684  0.20169789  0.08008606  1
  Bi  Bi12  1  0.34503316  0.79830211  0.91991394  1
  Bi  Bi13  1  0.34641163  0.06047354  0.67261101  1
  Bi  Bi14  1  0.15358837  0.06047354  0.17261101  1
  Bi  Bi15  1  0.84503316  0.20169789  0.58008606  1
  P  P16  1  0.09542742  0.60035799  0.84773158  1
  P  P17  1  0.90457258  0.39964201  0.15226842  1
  P  P18  1  0.12311136  0.33390627  0.09298730  1
  P  P19  1  0.87489940  0.92078205  0.65631032  1
  P  P20  1  0.90424991  0.14079617  0.40331358  1
  P  P21  1  0.40424991  0.85920383  0.09668642  1
  P  P22  1  0.59542742  0.39964201  0.65226842  1
  P  P23  1  0.87688864  0.66609373  0.90701270  1
  P  P24  1  0.62510060  0.92078205  0.15631032  1
  P  P25  1  0.37489940  0.07921795  0.84368968  1
  P  P26  1  0.12510060  0.07921795  0.34368968  1
  P  P27  1  0.62311136  0.66609373  0.40701270  1
  P  P28  1  0.59575009  0.14079617  0.90331358  1
  P  P29  1  0.40457258  0.60035799  0.34773158  1
  P  P30  1  0.09575009  0.85920383  0.59668642  1
  P  P31  1  0.37688864  0.33390627  0.59298730  1
  Se  Se32  1  0.49755039  0.27045956  0.96569270  1
  Se  Se33  1  0.00841899  0.46342997  0.79072990  1
  Se  Se34  1  0.31379078  0.27203190  0.15223144  1
  Se  Se35  1  0.50120823  0.05086623  0.21847823  1
  Se  Se36  1  0.99879177  0.05086623  0.71847823  1
  Se  Se37  1  0.49643704  0.20043973  0.53301200  1
  Se  Se38  1  0.99755039  0.72954044  0.53430730  1
  Se  Se39  1  0.68828318  0.99561591  0.93921787  1
  Se  Se40  1  0.71702710  0.79100437  0.20181664  1
  Se  Se41  1  0.31855994  0.01708064  0.40094738  1
  Se  Se42  1  0.50841899  0.53657003  0.70927010  1
  Se  Se43  1  0.28297290  0.20899563  0.79818336  1
  Se  Se44  1  0.79765731  0.18029434  0.84329271  1
  Se  Se45  1  0.81504371  0.25528993  0.19067148  1
  Se  Se46  1  0.72865856  0.53639843  0.44858086  1
  Se  Se47  1  0.81855994  0.98291936  0.09905262  1
  Se  Se48  1  0.78297290  0.79100437  0.70181664  1
  Se  Se49  1  0.81171682  0.99561591  0.43921787  1
  Se  Se50  1  0.21702710  0.20899563  0.29818336  1
  Se  Se51  1  0.18828318  0.00438409  0.56078213  1
  Se  Se52  1  0.68144006  0.98291936  0.59905262  1
  Se  Se53  1  0.30265692  0.56828516  0.90885960  1
  Se  Se54  1  0.19734308  0.56828516  0.40885960  1
  Se  Se55  1  0.69734308  0.43171484  0.09114040  1
  Se  Se56  1  0.31504371  0.74471007  0.30932852  1
  Se  Se57  1  0.20234269  0.81970566  0.15670729  1
  Se  Se58  1  0.18495629  0.74471007  0.80932852  1
  Se  Se59  1  0.50244961  0.72954044  0.03430730  1
  Se  Se60  1  0.29765731  0.81970566  0.65670729  1
  Se  Se61  1  0.68495629  0.25528993  0.69067148  1
  Se  Se62  1  0.80265692  0.43171484  0.59114040  1
  Se  Se63  1  0.77134144  0.53639843  0.94858086  1
  Se  Se64  1  0.31171682  0.00438409  0.06078213  1
  Se  Se65  1  0.49879177  0.94913377  0.78152177  1
  Se  Se66  1  0.00120823  0.94913377  0.28152177  1
  Se  Se67  1  0.49158101  0.46342997  0.29072990  1
  Se  Se68  1  0.00356296  0.20043973  0.03301200  1
  Se  Se69  1  0.70234269  0.18029434  0.34329271  1
  Se  Se70  1  0.99158101  0.53657003  0.20927010  1
  Se  Se71  1  0.50356296  0.79956027  0.46698800  1
  Se  Se72  1  0.99643704  0.79956027  0.96698800  1
  Se  Se73  1  0.18620922  0.27203190  0.65223144  1
  Se  Se74  1  0.81379078  0.72796810  0.34776856  1
  Se  Se75  1  0.27134144  0.46360157  0.55141914  1
  Se  Se76  1  0.00244961  0.27045956  0.46569270  1
  Se  Se77  1  0.68620922  0.72796810  0.84776856  1
  Se  Se78  1  0.18144006  0.01708064  0.90094738  1
  Se  Se79  1  0.22865856  0.46360157  0.05141914  1
