# generated using pymatgen
data_GeBr4
_symmetry_space_group_name_H-M   'P 1'
_cell_length_a   7.22359052
_cell_length_b   11.02939086
_cell_length_c   11.39707667
_cell_angle_alpha   102.16609163
_cell_angle_beta   90.00000000
_cell_angle_gamma   90.00000000
_symmetry_Int_Tables_number   1
_chemical_formula_structural   GeBr4
_chemical_formula_sum   'Ge4 Br16'
_cell_volume   887.63210938
_cell_formula_units_Z   4
loop_
 _symmetry_equiv_pos_site_id
 _symmetry_equiv_pos_as_xyz
  1  'x, y, z'
loop_
 _atom_site_type_symbol
 _atom_site_label
 _atom_site_symmetry_multiplicity
 _atom_site_fract_x
 _atom_site_fract_y
 _atom_site_fract_z
 _atom_site_occupancy
  Ge  Ge0  1  0.92912088  0.25068379  0.14191993  1
  Ge  Ge1  1  0.57087912  0.25068379  0.64191993  1
  Ge  Ge2  1  0.42912088  0.74931621  0.35808007  1
  Ge  Ge3  1  0.07087912  0.74931621  0.85808007  1
  Br  Br4  1  0.93034839  0.42051306  0.29962308  1
  Br  Br5  1  0.56965161  0.42051306  0.79962308  1
  Br  Br6  1  0.91789334  0.70058837  0.01961888  1
  Br  Br7  1  0.43034839  0.57948694  0.20037692  1
  Br  Br8  1  0.37246302  0.80558628  0.90970889  1
  Br  Br9  1  0.06965161  0.57948694  0.70037692  1
  Br  Br10  1  0.42136607  0.08750426  0.69927815  1
  Br  Br11  1  0.87246302  0.19441372  0.59029111  1
  Br  Br12  1  0.58210666  0.70058837  0.51961888  1
  Br  Br13  1  0.62753698  0.19441372  0.09029111  1
  Br  Br14  1  0.12753698  0.80558628  0.40970889  1
  Br  Br15  1  0.57863393  0.91249574  0.30072185  1
  Br  Br16  1  0.07863393  0.08750426  0.19927815  1
  Br  Br17  1  0.92136607  0.91249574  0.80072185  1
  Br  Br18  1  0.08210666  0.29941163  0.98038112  1
  Br  Br19  1  0.41789334  0.29941163  0.48038112  1
