# generated using pymatgen
data_Nb3Se12I
_symmetry_space_group_name_H-M   'P 1'
_cell_length_a   9.78490412
_cell_length_b   9.78490412
_cell_length_c   19.41691438
_cell_angle_alpha   90.00000000
_cell_angle_beta   90.00000000
_cell_angle_gamma   90.00000000
_symmetry_Int_Tables_number   1
_chemical_formula_structural   Nb3Se12I
_chemical_formula_sum   'Nb12 Se48 I4'
_cell_volume   1859.05981987
_cell_formula_units_Z   4
loop_
 _symmetry_equiv_pos_site_id
 _symmetry_equiv_pos_as_xyz
  1  'x, y, z'
loop_
 _atom_site_type_symbol
 _atom_site_label
 _atom_site_symmetry_multiplicity
 _atom_site_fract_x
 _atom_site_fract_y
 _atom_site_fract_z
 _atom_site_occupancy
  Nb  Nb0  1  0.00000000  0.50000000  0.58940455  1
  Nb  Nb1  1  0.00000000  0.50000000  0.08940455  1
  Nb  Nb2  1  0.50000000  0.00000000  0.57210665  1
  Nb  Nb3  1  0.00000000  0.50000000  0.76043713  1
  Nb  Nb4  1  0.50000000  0.00000000  0.73956287  1
  Nb  Nb5  1  0.50000000  0.00000000  0.07210665  1
  Nb  Nb6  1  0.00000000  0.50000000  0.26043713  1
  Nb  Nb7  1  0.00000000  0.50000000  0.42789335  1
  Nb  Nb8  1  0.50000000  0.00000000  0.23956287  1
  Nb  Nb9  1  0.00000000  0.50000000  0.92789335  1
  Nb  Nb10  1  0.50000000  0.00000000  0.91059545  1
  Nb  Nb11  1  0.50000000  0.00000000  0.41059545  1
  Se  Se12  1  0.54522142  0.21020543  0.31872866  1
  Se  Se13  1  0.95074564  0.71111925  0.83773662  1
  Se  Se14  1  0.54925436  0.21111925  0.66226338  1
  Se  Se15  1  0.81868427  0.37422721  0.84826333  1
  Se  Se16  1  0.37422721  0.18131573  0.15173667  1
  Se  Se17  1  0.78096794  0.48242677  0.50897536  1
  Se  Se18  1  0.45074564  0.78888075  0.66226338  1
  Se  Se19  1  0.04522142  0.28979457  0.18127134  1
  Se  Se20  1  0.95477858  0.71020543  0.18127134  1
  Se  Se21  1  0.04925436  0.28888075  0.83773662  1
  Se  Se22  1  0.45477858  0.78979457  0.31872866  1
  Se  Se23  1  0.12577279  0.68131573  0.34826333  1
  Se  Se24  1  0.89502839  0.69552617  0.50910537  1
  Se  Se25  1  0.12285528  0.68317719  0.66918220  1
  Se  Se26  1  0.98242677  0.28096794  0.00897536  1
  Se  Se27  1  0.28096794  0.01757323  0.99102464  1
  Se  Se28  1  0.78979457  0.54522142  0.68127134  1
  Se  Se29  1  0.31682281  0.12285528  0.33081780  1
  Se  Se30  1  0.71903206  0.98242677  0.99102464  1
  Se  Se31  1  0.28979457  0.95477858  0.81872866  1
  Se  Se32  1  0.51757323  0.78096794  0.49102464  1
  Se  Se33  1  0.31868427  0.12577279  0.65173667  1
  Se  Se34  1  0.21903206  0.51757323  0.50897536  1
  Se  Se35  1  0.71020543  0.04522142  0.81872866  1
  Se  Se36  1  0.62285528  0.81682281  0.83081780  1
  Se  Se37  1  0.18131573  0.62577279  0.84826333  1
  Se  Se38  1  0.81682281  0.37714472  0.16918220  1
  Se  Se39  1  0.21020543  0.45477858  0.68127134  1
  Se  Se40  1  0.18317719  0.62285528  0.16918220  1
  Se  Se41  1  0.39502839  0.80447383  0.99089463  1
  Se  Se42  1  0.68131573  0.87422721  0.65173667  1
  Se  Se43  1  0.19552617  0.39502839  0.00910537  1
  Se  Se44  1  0.48242677  0.21903206  0.49102464  1
  Se  Se45  1  0.21111925  0.45074564  0.33773662  1
  Se  Se46  1  0.87714472  0.31682281  0.66918220  1
  Se  Se47  1  0.60497161  0.19552617  0.99089463  1
  Se  Se48  1  0.28888075  0.95074564  0.16226338  1
  Se  Se49  1  0.71111925  0.04925436  0.16226338  1
  Se  Se50  1  0.87422721  0.31868427  0.34826333  1
  Se  Se51  1  0.62577279  0.81868427  0.15173667  1
  Se  Se52  1  0.01757323  0.71903206  0.00897536  1
  Se  Se53  1  0.69552617  0.10497161  0.49089463  1
  Se  Se54  1  0.10497161  0.30447383  0.50910537  1
  Se  Se55  1  0.37714472  0.18317719  0.83081780  1
  Se  Se56  1  0.78888075  0.54925436  0.33773662  1
  Se  Se57  1  0.30447383  0.89502839  0.49089463  1
  Se  Se58  1  0.80447383  0.60497161  0.00910537  1
  Se  Se59  1  0.68317719  0.87714472  0.33081780  1
  I  I60  1  0.50000000  0.50000000  0.86999617  1
  I  I61  1  0.00000000  0.00000000  0.36999617  1
  I  I62  1  0.50000000  0.50000000  0.13000383  1
  I  I63  1  0.00000000  0.00000000  0.63000383  1
