# generated using pymatgen
data_GaHg2SbCl4
_symmetry_space_group_name_H-M   'P 1'
_cell_length_a   8.98096150
_cell_length_b   12.50565666
_cell_length_c   18.03982028
_cell_angle_alpha   90.00000000
_cell_angle_beta   90.00000000
_cell_angle_gamma   90.00000000
_symmetry_Int_Tables_number   1
_chemical_formula_structural   GaHg2SbCl4
_chemical_formula_sum   'Ga8 Hg16 Sb8 Cl32'
_cell_volume   2026.10310590
_cell_formula_units_Z   8
loop_
 _symmetry_equiv_pos_site_id
 _symmetry_equiv_pos_as_xyz
  1  'x, y, z'
loop_
 _atom_site_type_symbol
 _atom_site_label
 _atom_site_symmetry_multiplicity
 _atom_site_fract_x
 _atom_site_fract_y
 _atom_site_fract_z
 _atom_site_occupancy
  Ga  Ga0  1  0.33163931  0.98958040  0.62257908  1
  Ga  Ga1  1  0.33775163  0.21000236  0.86554236  1
  Ga  Ga2  1  0.16836069  0.98958040  0.12257908  1
  Ga  Ga3  1  0.66224837  0.71000236  0.13445764  1
  Ga  Ga4  1  0.83163931  0.48958040  0.87742092  1
  Ga  Ga5  1  0.66836069  0.48958040  0.37742092  1
  Ga  Ga6  1  0.83775163  0.71000236  0.63445764  1
  Ga  Ga7  1  0.16224837  0.21000236  0.36554236  1
  Hg  Hg8  1  0.91838759  0.83322973  0.37570483  1
  Hg  Hg9  1  0.58161241  0.83322973  0.87570483  1
  Hg  Hg10  1  0.75509901  0.10105003  0.49249166  1
  Hg  Hg11  1  0.70335039  0.09649536  0.24335796  1
  Hg  Hg12  1  0.20335039  0.59649536  0.25664204  1
  Hg  Hg13  1  0.25509901  0.60105003  0.00750834  1
  Hg  Hg14  1  0.41927012  0.86310118  0.37883504  1
  Hg  Hg15  1  0.79664961  0.09649536  0.74335796  1
  Hg  Hg16  1  0.08072988  0.86310118  0.87883504  1
  Hg  Hg17  1  0.91927012  0.36310118  0.12116496  1
  Hg  Hg18  1  0.08161241  0.33322973  0.62429517  1
  Hg  Hg19  1  0.41838759  0.33322973  0.12429517  1
  Hg  Hg20  1  0.58072988  0.36310118  0.62116496  1
  Hg  Hg21  1  0.74490099  0.10105003  0.99249166  1
  Hg  Hg22  1  0.29664961  0.59649536  0.75664204  1
  Hg  Hg23  1  0.24490099  0.60105003  0.50750834  1
  Sb  Sb24  1  0.18467143  0.47553731  0.12907025  1
  Sb  Sb25  1  0.81670121  0.22177357  0.61778702  1
  Sb  Sb26  1  0.31670121  0.72177357  0.88221298  1
  Sb  Sb27  1  0.68467143  0.97553731  0.37092975  1
  Sb  Sb28  1  0.18329879  0.72177357  0.38221298  1
  Sb  Sb29  1  0.31532857  0.47553731  0.62907025  1
  Sb  Sb30  1  0.81532857  0.97553731  0.87092975  1
  Sb  Sb31  1  0.68329879  0.22177357  0.11778702  1
  Cl  Cl32  1  0.92542244  0.63088302  0.93567588  1
  Cl  Cl33  1  0.63939931  0.69320499  0.70432681  1
  Cl  Cl34  1  0.09232361  0.01555840  0.63411822  1
  Cl  Cl35  1  0.59232361  0.51555840  0.86588178  1
  Cl  Cl36  1  0.62262400  0.34452609  0.44396072  1
  Cl  Cl37  1  0.05670957  0.97084359  0.23025343  1
  Cl  Cl38  1  0.13939931  0.19320499  0.79567319  1
  Cl  Cl39  1  0.61554322  0.56098400  0.07270107  1
  Cl  Cl40  1  0.87737600  0.34452609  0.94396072  1
  Cl  Cl41  1  0.30672734  0.34066567  0.94649646  1
  Cl  Cl42  1  0.55670957  0.47084359  0.26974657  1
  Cl  Cl43  1  0.46837816  0.74974429  0.20530817  1
  Cl  Cl44  1  0.03162184  0.74974429  0.70530817  1
  Cl  Cl45  1  0.40767639  0.01555840  0.13411822  1
  Cl  Cl46  1  0.19327266  0.34066567  0.44649646  1
  Cl  Cl47  1  0.86060069  0.69320499  0.20432681  1
  Cl  Cl48  1  0.42542244  0.13088302  0.56432412  1
  Cl  Cl49  1  0.90767639  0.51555840  0.36588178  1
  Cl  Cl50  1  0.53162184  0.24974429  0.79469183  1
  Cl  Cl51  1  0.80672734  0.84066567  0.55350354  1
  Cl  Cl52  1  0.11554322  0.06098400  0.42729893  1
  Cl  Cl53  1  0.12262400  0.84452609  0.05603928  1
  Cl  Cl54  1  0.88445678  0.56098400  0.57270107  1
  Cl  Cl55  1  0.96837816  0.24974429  0.29469183  1
  Cl  Cl56  1  0.94329043  0.47084359  0.76974657  1
  Cl  Cl57  1  0.07457756  0.13088302  0.06432412  1
  Cl  Cl58  1  0.38445678  0.06098400  0.92729893  1
  Cl  Cl59  1  0.36060069  0.19320499  0.29567319  1
  Cl  Cl60  1  0.57457756  0.63088302  0.43567588  1
  Cl  Cl61  1  0.37737600  0.84452609  0.55603928  1
  Cl  Cl62  1  0.69327266  0.84066567  0.05350354  1
  Cl  Cl63  1  0.44329043  0.97084359  0.73025343  1
