# generated using pymatgen
data_Na2CrCoF7
_symmetry_space_group_name_H-M   'P 1'
_cell_length_a   7.37389540
_cell_length_b   7.37389612
_cell_length_c   24.82950084
_cell_angle_alpha   81.59371469
_cell_angle_beta   81.59371388
_cell_angle_gamma   60.62683831
_symmetry_Int_Tables_number   1
_chemical_formula_structural   Na2CrCoF7
_chemical_formula_sum   'Na16 Cr8 Co8 F56'
_cell_volume   1159.53264142
_cell_formula_units_Z   8
loop_
 _symmetry_equiv_pos_site_id
 _symmetry_equiv_pos_as_xyz
  1  'x, y, z'
loop_
 _atom_site_type_symbol
 _atom_site_label
 _atom_site_symmetry_multiplicity
 _atom_site_fract_x
 _atom_site_fract_y
 _atom_site_fract_z
 _atom_site_occupancy
  Na  Na0  1  0.29575426  0.20968005  0.74802897  1
  Na  Na1  1  0.79031995  0.70424574  0.75197103  1
  Na  Na2  1  0.88149091  0.86668290  0.87804883  1
  Na  Na3  1  0.50000000  0.50000000  0.00000000  1
  Na  Na4  1  0.21556780  0.78443220  0.25000000  1
  Na  Na5  1  0.11850909  0.13331710  0.12195117  1
  Na  Na6  1  0.13331710  0.11850909  0.62195117  1
  Na  Na7  1  0.00000000  0.50000000  0.00000000  1
  Na  Na8  1  0.86668290  0.88149091  0.37804883  1
  Na  Na9  1  0.78443220  0.21556780  0.75000000  1
  Na  Na10  1  0.00000000  0.00000000  0.50000000  1
  Na  Na11  1  0.00000000  0.00000000  0.00000000  1
  Na  Na12  1  0.20968005  0.29575426  0.24802897  1
  Na  Na13  1  0.50000000  0.50000000  0.50000000  1
  Na  Na14  1  0.70424574  0.79031995  0.25197103  1
  Na  Na15  1  0.50000000  0.00000000  0.50000000  1
  Cr  Cr16  1  0.88958387  0.36339448  0.87446220  1
  Cr  Cr17  1  0.63660552  0.11041613  0.62553780  1
  Cr  Cr18  1  0.25008095  0.74991905  0.75000000  1
  Cr  Cr19  1  0.36339448  0.88958387  0.37446220  1
  Cr  Cr20  1  0.50000000  0.00000000  0.00000000  1
  Cr  Cr21  1  0.11041613  0.63660552  0.12553780  1
  Cr  Cr22  1  0.00000000  0.50000000  0.50000000  1
  Cr  Cr23  1  0.74991905  0.25008095  0.25000000  1
  Co  Co24  1  0.36813913  0.38702630  0.37239522  1
  Co  Co25  1  0.61297370  0.63186087  0.12760478  1
  Co  Co26  1  0.38702630  0.36813913  0.87239522  1
  Co  Co27  1  0.13489783  0.61191430  0.62604009  1
  Co  Co28  1  0.38808570  0.86510217  0.87395991  1
  Co  Co29  1  0.86510217  0.38808570  0.37395991  1
  Co  Co30  1  0.61191430  0.13489783  0.12604009  1
  Co  Co31  1  0.63186087  0.61297370  0.62760478  1
  F  F32  1  0.97684083  0.86011328  0.79043185  1
  F  F33  1  0.46322225  0.07563400  0.38973300  1
  F  F34  1  0.91098307  0.53311970  0.65386085  1
  F  F35  1  0.41601892  0.86429548  0.95490412  1
  F  F36  1  0.86890151  0.79218528  0.46812128  1
  F  F37  1  0.64073879  0.03006687  0.70455141  1
  F  F38  1  0.18620990  0.63495910  0.04618527  1
  F  F39  1  0.65999879  0.70043483  0.35803768  1
  F  F40  1  0.53311970  0.91098307  0.15386085  1
  F  F41  1  0.58398108  0.13570452  0.04509588  1
  F  F42  1  0.13570452  0.58398108  0.54509588  1
  F  F43  1  0.08901693  0.46688030  0.34613915  1
  F  F44  1  0.86011328  0.97684083  0.29043185  1
  F  F45  1  0.63495910  0.18620990  0.54618527  1
  F  F46  1  0.35603284  0.69433086  0.59935209  1
  F  F47  1  0.13988672  0.02315917  0.70956815  1
  F  F48  1  0.47260584  0.36542550  0.29095496  1
  F  F49  1  0.52739416  0.63457450  0.70904504  1
  F  F50  1  0.63251901  0.13938544  0.20695326  1
  F  F51  1  0.07616591  0.06697425  0.89127988  1
  F  F52  1  0.92436600  0.53677775  0.11026700  1
  F  F53  1  0.64396716  0.30566914  0.40064791  1
  F  F54  1  0.02315917  0.13988672  0.20956815  1
  F  F55  1  0.58304815  0.74122893  0.04685632  1
  F  F56  1  0.86429548  0.41601892  0.45490412  1
  F  F57  1  0.70043483  0.65999879  0.85803768  1
  F  F58  1  0.30566914  0.64396716  0.90064791  1
  F  F59  1  0.86061456  0.36748099  0.29304674  1
  F  F60  1  0.69433086  0.35603284  0.09935209  1
  F  F61  1  0.29942188  0.73230594  0.14147614  1
  F  F62  1  0.36542550  0.47260584  0.79095496  1
  F  F63  1  0.73230594  0.29942188  0.64147614  1
  F  F64  1  0.92383409  0.93302575  0.10872012  1
  F  F65  1  0.13109849  0.20781472  0.53187872  1
  F  F66  1  0.70057812  0.26769406  0.85852386  1
  F  F67  1  0.03006687  0.64073879  0.20455141  1
  F  F68  1  0.93302575  0.92383409  0.60872012  1
  F  F69  1  0.34000121  0.29956517  0.64196232  1
  F  F70  1  0.26769406  0.70057812  0.35852386  1
  F  F71  1  0.53677775  0.92436600  0.61026700  1
  F  F72  1  0.25877107  0.41695185  0.45314368  1
  F  F73  1  0.36748099  0.86061456  0.79304674  1
  F  F74  1  0.46688030  0.08901693  0.84613915  1
  F  F75  1  0.35926121  0.96993313  0.29544859  1
  F  F76  1  0.63457450  0.52739416  0.20904504  1
  F  F77  1  0.13938544  0.63251901  0.70695326  1
  F  F78  1  0.41695185  0.25877107  0.95314368  1
  F  F79  1  0.36504090  0.81379010  0.45381473  1
  F  F80  1  0.07563400  0.46322225  0.88973300  1
  F  F81  1  0.20781472  0.13109849  0.03187872  1
  F  F82  1  0.06697425  0.07616591  0.39127988  1
  F  F83  1  0.96993313  0.35926121  0.79544859  1
  F  F84  1  0.74122893  0.58304815  0.54685632  1
  F  F85  1  0.29956517  0.34000121  0.14196232  1
  F  F86  1  0.81379010  0.36504090  0.95381473  1
  F  F87  1  0.79218528  0.86890151  0.96812128  1
