# generated using pymatgen
data_Pd(Se3Br)2
_symmetry_space_group_name_H-M   'P 1'
_cell_length_a   4.84521883
_cell_length_b   7.80617878
_cell_length_c   8.19998811
_cell_angle_alpha   65.49486983
_cell_angle_beta   85.48302855
_cell_angle_gamma   79.30541636
_symmetry_Int_Tables_number   1
_chemical_formula_structural   Pd(Se3Br)2
_chemical_formula_sum   'Pd1 Se6 Br2'
_cell_volume   277.30621629
_cell_formula_units_Z   1
loop_
 _symmetry_equiv_pos_site_id
 _symmetry_equiv_pos_as_xyz
  1  'x, y, z'
loop_
 _atom_site_type_symbol
 _atom_site_label
 _atom_site_symmetry_multiplicity
 _atom_site_fract_x
 _atom_site_fract_y
 _atom_site_fract_z
 _atom_site_occupancy
  Pd  Pd0  1  0.00000000  0.00000000  0.00000000  1
  Se  Se1  1  0.05127900  0.51738383  0.75531528  1
  Se  Se2  1  0.94872100  0.48261617  0.24468472  1
  Se  Se3  1  0.14749828  0.72930099  0.28065372  1
  Se  Se4  1  0.16359922  0.21772193  0.49206387  1
  Se  Se5  1  0.83640078  0.78227807  0.50793613  1
  Se  Se6  1  0.85250172  0.27069901  0.71934628  1
  Br  Br7  1  0.37963302  0.84092538  0.86415752  1
  Br  Br8  1  0.62036698  0.15907462  0.13584248  1
