# generated using pymatgen
data_Cs2HgI4
_symmetry_space_group_name_H-M   'P 1'
_cell_length_a   8.12100459
_cell_length_b   8.65715718
_cell_length_c   11.39409445
_cell_angle_alpha   90.00000000
_cell_angle_beta   111.53177298
_cell_angle_gamma   90.00000000
_symmetry_Int_Tables_number   1
_chemical_formula_structural   Cs2HgI4
_chemical_formula_sum   'Cs4 Hg2 I8'
_cell_volume   745.15707902
_cell_formula_units_Z   2
loop_
 _symmetry_equiv_pos_site_id
 _symmetry_equiv_pos_as_xyz
  1  'x, y, z'
loop_
 _atom_site_type_symbol
 _atom_site_label
 _atom_site_symmetry_multiplicity
 _atom_site_fract_x
 _atom_site_fract_y
 _atom_site_fract_z
 _atom_site_occupancy
  Cs  Cs0  1  0.21405905  0.25554647  0.90733593  1
  Cs  Cs1  1  0.33919287  0.76144613  0.53368804  1
  Cs  Cs2  1  0.78594095  0.75554647  0.09266407  1
  Cs  Cs3  1  0.66080713  0.26144613  0.46631196  1
  Hg  Hg4  1  0.09284092  0.26027396  0.27328216  1
  Hg  Hg5  1  0.90715908  0.76027396  0.72671784  1
  I  I6  1  0.75039972  0.49433361  0.78982465  1
  I  I7  1  0.72088644  0.25624960  0.14599646  1
  I  I8  1  0.81260982  0.75138551  0.45580064  1
  I  I9  1  0.74103921  0.02276471  0.78339425  1
  I  I10  1  0.27911356  0.75624960  0.85400354  1
  I  I11  1  0.24960028  0.99433361  0.21017535  1
  I  I12  1  0.18739018  0.25138551  0.54419936  1
  I  I13  1  0.25896079  0.52276471  0.21660575  1
