# generated using pymatgen
data_NaU2Cl6
_symmetry_space_group_name_H-M   'P 1'
_cell_length_a   7.73662597
_cell_length_b   15.54172655
_cell_length_c   4.12508494
_cell_angle_alpha   90.96273019
_cell_angle_beta   89.46413085
_cell_angle_gamma   120.34234412
_symmetry_Int_Tables_number   1
_chemical_formula_structural   NaU2Cl6
_chemical_formula_sum   'Na2 U4 Cl12'
_cell_volume   428.00054566
_cell_formula_units_Z   2
loop_
 _symmetry_equiv_pos_site_id
 _symmetry_equiv_pos_as_xyz
  1  'x, y, z'
loop_
 _atom_site_type_symbol
 _atom_site_label
 _atom_site_symmetry_multiplicity
 _atom_site_fract_x
 _atom_site_fract_y
 _atom_site_fract_z
 _atom_site_occupancy
  Na  Na0  1  0.00045943  -0.00089211  0.99889562  1
  Na  Na1  1  -0.00049908  0.50018762  0.50197435  1
  U  U2  1  0.33173097  0.83321643  0.24582461  1
  U  U3  1  0.32666622  0.33252133  0.24673386  1
  U  U4  1  0.66987986  0.66702821  0.75503464  1
  U  U5  1  0.66865208  0.16666452  0.75558354  1
  Cl  Cl6  1  0.30529344  0.96101446  0.74550366  1
  Cl  Cl7  1  0.08614297  0.69146844  0.74764713  1
  Cl  Cl8  1  0.38698625  0.65327670  0.25144849  1
  Cl  Cl9  1  0.62072463  0.85070079  0.74850467  1
  Cl  Cl10  1  0.30443711  0.46176188  0.74821408  1
  Cl  Cl11  1  0.08403980  0.19174623  0.74957001  1
  Cl  Cl12  1  0.92255851  0.80824052  0.24822135  1
  Cl  Cl13  1  0.70554705  0.54246338  0.25078843  1
  Cl  Cl14  1  0.38381429  0.15151962  0.25032879  1
  Cl  Cl15  1  0.61517684  0.34945183  0.74845315  1
  Cl  Cl16  1  0.92031153  0.30994267  0.24990740  1
  Cl  Cl17  1  0.70353109  0.04192449  0.25204923  1
