# generated using pymatgen
data_Sm2AlGe3
_symmetry_space_group_name_H-M   'P 1'
_cell_length_a   4.30969700
_cell_length_b   6.87566026
_cell_length_c   18.07959414
_cell_angle_alpha   90.00000000
_cell_angle_beta   90.00000000
_cell_angle_gamma   90.00000000
_symmetry_Int_Tables_number   1
_chemical_formula_structural   Sm2AlGe3
_chemical_formula_sum   'Sm8 Al4 Ge12'
_cell_volume   535.73475766
_cell_formula_units_Z   4
loop_
 _symmetry_equiv_pos_site_id
 _symmetry_equiv_pos_as_xyz
  1  'x, y, z'
loop_
 _atom_site_type_symbol
 _atom_site_label
 _atom_site_symmetry_multiplicity
 _atom_site_fract_x
 _atom_site_fract_y
 _atom_site_fract_z
 _atom_site_occupancy
  Sm  Sm0  1  0.25000000  0.67349337  0.29597244  1
  Sm  Sm1  1  0.25000000  0.67207506  0.08435285  1
  Sm  Sm2  1  0.75000000  0.82792494  0.58435285  1
  Sm  Sm3  1  0.25000000  0.17349337  0.20402756  1
  Sm  Sm4  1  0.25000000  0.17207506  0.41564715  1
  Sm  Sm5  1  0.75000000  0.82650663  0.79597244  1
  Sm  Sm6  1  0.75000000  0.32792494  0.91564715  1
  Sm  Sm7  1  0.75000000  0.32650663  0.70402756  1
  Al  Al8  1  0.25000000  0.95122726  0.93562310  1
  Al  Al9  1  0.25000000  0.45122726  0.56437690  1
  Al  Al10  1  0.75000000  0.04877274  0.06437690  1
  Al  Al11  1  0.75000000  0.54877274  0.43562310  1
  Ge  Ge12  1  0.75000000  0.75856896  0.96467332  1
  Ge  Ge13  1  0.25000000  0.52441578  0.82439913  1
  Ge  Ge14  1  0.25000000  0.14223996  0.81183690  1
  Ge  Ge15  1  0.75000000  0.35776004  0.31183690  1
  Ge  Ge16  1  0.75000000  0.25856896  0.53532668  1
  Ge  Ge17  1  0.75000000  0.97558422  0.32439913  1
  Ge  Ge18  1  0.75000000  0.85776004  0.18816310  1
  Ge  Ge19  1  0.25000000  0.64223996  0.68816310  1
  Ge  Ge20  1  0.25000000  0.02441578  0.67560087  1
  Ge  Ge21  1  0.25000000  0.24143104  0.03532668  1
  Ge  Ge22  1  0.75000000  0.47558422  0.17560087  1
  Ge  Ge23  1  0.25000000  0.74143104  0.46467332  1
