# generated using pymatgen
data_La3(SiNi)4
_symmetry_space_group_name_H-M   'P 1'
_cell_length_a   4.17747423
_cell_length_b   4.12661677
_cell_length_c   12.17247895
_cell_angle_alpha   99.76731814
_cell_angle_beta   99.88757683
_cell_angle_gamma   89.97682656
_symmetry_Int_Tables_number   1
_chemical_formula_structural   La3(SiNi)4
_chemical_formula_sum   'La3 Si4 Ni4'
_cell_volume   203.63684845
_cell_formula_units_Z   1
loop_
 _symmetry_equiv_pos_site_id
 _symmetry_equiv_pos_as_xyz
  1  'x, y, z'
loop_
 _atom_site_type_symbol
 _atom_site_label
 _atom_site_symmetry_multiplicity
 _atom_site_fract_x
 _atom_site_fract_y
 _atom_site_fract_z
 _atom_site_occupancy
  La  La0  1  0.85000027  0.34998592  0.70000315  1
  La  La1  1  0.00000000  0.00000000  0.00000000  1
  La  La2  1  0.14999973  0.65001408  0.29999685  1
  Si  Si3  1  0.70091542  0.20090137  0.40175754  1
  Si  Si4  1  0.44823275  0.44824811  0.89647560  1
  Si  Si5  1  0.55176725  0.55175189  0.10352440  1
  Si  Si6  1  0.29908458  0.79909863  0.59824246  1
  Ni  Ni7  1  0.24854503  0.24849035  0.49701406  1
  Ni  Ni8  1  0.75145497  0.75150965  0.50298594  1
  Ni  Ni9  1  0.59960480  0.09959047  0.19914258  1
  Ni  Ni10  1  0.40039520  0.90040953  0.80085742  1
