# generated using pymatgen
data_RbYbI3
_symmetry_space_group_name_H-M   'P 1'
_cell_length_a   4.67126875
_cell_length_b   10.63430038
_cell_length_c   17.50834027
_cell_angle_alpha   90.00000000
_cell_angle_beta   90.00000000
_cell_angle_gamma   90.00000000
_symmetry_Int_Tables_number   1
_chemical_formula_structural   RbYbI3
_chemical_formula_sum   'Rb4 Yb4 I12'
_cell_volume   869.73862180
_cell_formula_units_Z   4
loop_
 _symmetry_equiv_pos_site_id
 _symmetry_equiv_pos_as_xyz
  1  'x, y, z'
loop_
 _atom_site_type_symbol
 _atom_site_label
 _atom_site_symmetry_multiplicity
 _atom_site_fract_x
 _atom_site_fract_y
 _atom_site_fract_z
 _atom_site_occupancy
  Yb  Yb0  1  0.75000000  0.83182995  0.05445646  1
  Yb  Yb1  1  0.75000000  0.33182995  0.44554354  1
  Yb  Yb2  1  0.25000000  0.66817005  0.55445646  1
  Yb  Yb3  1  0.25000000  0.16817005  0.94554354  1
  Rb  Rb4  1  0.75000000  0.07315999  0.67893962  1
  Rb  Rb5  1  0.25000000  0.92684001  0.32106038  1
  Rb  Rb6  1  0.25000000  0.42684001  0.17893962  1
  Rb  Rb7  1  0.75000000  0.57315999  0.82106038  1
  I  I8  1  0.25000000  0.51827492  0.39668038  1
  I  I9  1  0.75000000  0.70488846  0.21159526  1
  I  I10  1  0.75000000  0.20488846  0.28840474  1
  I  I11  1  0.25000000  0.16625534  0.51103254  1
  I  I12  1  0.25000000  0.79511154  0.71159526  1
  I  I13  1  0.75000000  0.83374466  0.48896746  1
  I  I14  1  0.25000000  0.01827492  0.10331962  1
  I  I15  1  0.75000000  0.33374466  0.01103254  1
  I  I16  1  0.75000000  0.48172508  0.60331962  1
  I  I17  1  0.75000000  0.98172508  0.89668038  1
  I  I18  1  0.25000000  0.66625534  0.98896746  1
  I  I19  1  0.25000000  0.29511154  0.78840474  1
