# generated using pymatgen
data_Na4CaSn6
_symmetry_space_group_name_H-M   'P 1'
_cell_length_a   10.14501552
_cell_length_b   10.14501564
_cell_length_c   7.23202384
_cell_angle_alpha   90.00000000
_cell_angle_beta   90.00000000
_cell_angle_gamma   119.99999961
_symmetry_Int_Tables_number   1
_chemical_formula_structural   Na4CaSn6
_chemical_formula_sum   'Na8 Ca2 Sn12'
_cell_volume   644.60833848
_cell_formula_units_Z   2
loop_
 _symmetry_equiv_pos_site_id
 _symmetry_equiv_pos_as_xyz
  1  'x, y, z'
loop_
 _atom_site_type_symbol
 _atom_site_label
 _atom_site_symmetry_multiplicity
 _atom_site_fract_x
 _atom_site_fract_y
 _atom_site_fract_z
 _atom_site_occupancy
  Na  Na0  1  0.54064592  0.45935408  0.75000000  1
  Na  Na1  1  0.54064592  0.08129184  0.75000000  1
  Na  Na2  1  0.45935408  0.54064592  0.25000000  1
  Na  Na3  1  0.08129184  0.54064592  0.25000000  1
  Na  Na4  1  0.66666700  0.33333300  0.25000000  1
  Na  Na5  1  0.91870816  0.45935408  0.75000000  1
  Na  Na6  1  0.33333300  0.66666700  0.75000000  1
  Na  Na7  1  0.45935408  0.91870816  0.25000000  1
  Ca  Ca8  1  0.00000000  0.00000000  0.75000000  1
  Ca  Ca9  1  0.00000000  0.00000000  0.25000000  1
  Sn  Sn10  1  0.83117776  0.16882224  0.46120872  1
  Sn  Sn11  1  0.83117776  0.16882224  0.03879128  1
  Sn  Sn12  1  0.83117776  0.66235552  0.46120872  1
  Sn  Sn13  1  0.66235552  0.83117776  0.96120872  1
  Sn  Sn14  1  0.16882224  0.83117776  0.53879128  1
  Sn  Sn15  1  0.16882224  0.33764448  0.53879128  1
  Sn  Sn16  1  0.16882224  0.33764448  0.96120872  1
  Sn  Sn17  1  0.83117776  0.66235552  0.03879128  1
  Sn  Sn18  1  0.16882224  0.83117776  0.96120872  1
  Sn  Sn19  1  0.33764448  0.16882224  0.03879128  1
  Sn  Sn20  1  0.66235552  0.83117776  0.53879128  1
  Sn  Sn21  1  0.33764448  0.16882224  0.46120872  1
