# generated using pymatgen
data_LuNi4Sn
_symmetry_space_group_name_H-M   'P 1'
_cell_length_a   4.94334170
_cell_length_b   4.94334159
_cell_length_c   4.94334134
_cell_angle_alpha   60.00000167
_cell_angle_beta   60.00000238
_cell_angle_gamma   59.99999697
_symmetry_Int_Tables_number   1
_chemical_formula_structural   LuNi4Sn
_chemical_formula_sum   'Lu1 Ni4 Sn1'
_cell_volume   85.41750028
_cell_formula_units_Z   1
loop_
 _symmetry_equiv_pos_site_id
 _symmetry_equiv_pos_as_xyz
  1  'x, y, z'
loop_
 _atom_site_type_symbol
 _atom_site_label
 _atom_site_symmetry_multiplicity
 _atom_site_fract_x
 _atom_site_fract_y
 _atom_site_fract_z
 _atom_site_occupancy
  Lu  Lu0  1  0.00000000  0.00000000  0.00000000  1
  Ni  Ni1  1  0.62479301  0.62479301  0.12562098  1
  Ni  Ni2  1  0.62479301  0.12562098  0.62479301  1
  Ni  Ni3  1  0.12562098  0.62479301  0.62479301  1
  Ni  Ni4  1  0.62479301  0.62479301  0.62479301  1
  Sn  Sn5  1  0.25000000  0.25000000  0.25000000  1
