# generated using pymatgen
data_Na4Ge2Se5
_symmetry_space_group_name_H-M   'P 1'
_cell_length_a   12.20872231
_cell_length_b   13.30411929
_cell_length_c   14.34935028
_cell_angle_alpha   92.73877894
_cell_angle_beta   90.00000000
_cell_angle_gamma   90.00000000
_symmetry_Int_Tables_number   1
_chemical_formula_structural   Na4Ge2Se5
_chemical_formula_sum   'Na32 Ge16 Se40'
_cell_volume   2328.04961959
_cell_formula_units_Z   8
loop_
 _symmetry_equiv_pos_site_id
 _symmetry_equiv_pos_as_xyz
  1  'x, y, z'
loop_
 _atom_site_type_symbol
 _atom_site_label
 _atom_site_symmetry_multiplicity
 _atom_site_fract_x
 _atom_site_fract_y
 _atom_site_fract_z
 _atom_site_occupancy
  Na  Na0  1  0.88077150  0.90519170  0.55891636  1
  Na  Na1  1  0.59020021  0.48596999  0.23110921  1
  Na  Na2  1  0.40979979  0.51403001  0.76889079  1
  Na  Na3  1  0.08940579  0.19685550  0.14516581  1
  Na  Na4  1  0.13446684  0.38736552  0.53693131  1
  Na  Na5  1  0.09020021  0.51403001  0.26889079  1
  Na  Na6  1  0.87898788  0.08897479  0.94903580  1
  Na  Na7  1  0.83910030  0.01249850  0.23153730  1
  Na  Na8  1  0.12101212  0.91102521  0.05096420  1
  Na  Na9  1  0.58940579  0.80314450  0.35483419  1
  Na  Na10  1  0.62101212  0.08897479  0.44903580  1
  Na  Na11  1  0.66089970  0.01249850  0.73153730  1
  Na  Na12  1  0.85710851  0.29323267  0.34298762  1
  Na  Na13  1  0.11922850  0.09480830  0.44108364  1
  Na  Na14  1  0.36553316  0.38736552  0.03693131  1
  Na  Na15  1  0.90979979  0.48596999  0.73110921  1
  Na  Na16  1  0.63446684  0.61263448  0.96306869  1
  Na  Na17  1  0.64289149  0.29323267  0.84298762  1
  Na  Na18  1  0.91059421  0.80314450  0.85483419  1
  Na  Na19  1  0.16089970  0.98750150  0.76846270  1
  Na  Na20  1  0.41059421  0.19685550  0.64516581  1
  Na  Na21  1  0.86578693  0.42351354  0.07174443  1
  Na  Na22  1  0.33910030  0.98750150  0.26846270  1
  Na  Na23  1  0.86553316  0.61263448  0.46306869  1
  Na  Na24  1  0.13421307  0.57648646  0.92825557  1
  Na  Na25  1  0.37898788  0.91102521  0.55096420  1
  Na  Na26  1  0.36578693  0.57648646  0.42825557  1
  Na  Na27  1  0.61922850  0.90519170  0.05891636  1
  Na  Na28  1  0.14289149  0.70676733  0.65701238  1
  Na  Na29  1  0.63421307  0.42351354  0.57174443  1
  Na  Na30  1  0.35710851  0.70676733  0.15701238  1
  Na  Na31  1  0.38077150  0.09480830  0.94108364  1
  Ge  Ge32  1  0.83474562  0.22285549  0.57834511  1
  Ge  Ge33  1  0.70221442  0.67691889  0.71418694  1
  Ge  Ge34  1  0.66525438  0.22285549  0.07834511  1
  Ge  Ge35  1  0.20221442  0.32308111  0.78581306  1
  Ge  Ge36  1  0.94806250  0.17276600  0.71216297  1
  Ge  Ge37  1  0.16525438  0.77714451  0.42165489  1
  Ge  Ge38  1  0.55193750  0.17276600  0.21216297  1
  Ge  Ge39  1  0.29778558  0.32308111  0.28581306  1
  Ge  Ge40  1  0.59121468  0.72254508  0.58028872  1
  Ge  Ge41  1  0.44806250  0.82723400  0.78783703  1
  Ge  Ge42  1  0.79778558  0.67691889  0.21418694  1
  Ge  Ge43  1  0.90878532  0.72254508  0.08028872  1
  Ge  Ge44  1  0.09121468  0.27745492  0.91971128  1
  Ge  Ge45  1  0.33474562  0.77714451  0.92165489  1
  Ge  Ge46  1  0.05193750  0.82723400  0.28783703  1
  Ge  Ge47  1  0.40878532  0.27745492  0.41971128  1
  Se  Se48  1  0.38598478  0.39309585  0.54619459  1
  Se  Se49  1  0.63121456  0.10381231  0.95366925  1
  Se  Se50  1  0.13121456  0.89618769  0.54633075  1
  Se  Se51  1  0.35731585  0.19194608  0.16729611  1
  Se  Se52  1  0.88583677  0.70134284  0.66802393  1
  Se  Se53  1  0.86878544  0.10381231  0.45366925  1
  Se  Se54  1  0.09226062  0.71073358  0.15380957  1
  Se  Se55  1  0.61401522  0.60690415  0.45380541  1
  Se  Se56  1  0.41057823  0.99459398  0.75142219  1
  Se  Se57  1  0.59226062  0.28926642  0.34619043  1
  Se  Se58  1  0.12937728  0.10965933  0.95524528  1
  Se  Se59  1  0.38583677  0.29865716  0.83197607  1
  Se  Se60  1  0.88598478  0.60690415  0.95380541  1
  Se  Se61  1  0.58942177  0.00540602  0.24857781  1
  Se  Se62  1  0.84527338  0.21206306  0.14144345  1
  Se  Se63  1  0.11416323  0.29865716  0.33197607  1
  Se  Se64  1  0.16118444  0.48425662  0.73429659  1
  Se  Se65  1  0.90773938  0.28926642  0.84619043  1
  Se  Se66  1  0.88104457  0.38787890  0.53699912  1
  Se  Se67  1  0.33881556  0.48425662  0.23429659  1
  Se  Se68  1  0.34527338  0.78793694  0.35855655  1
  Se  Se69  1  0.85731585  0.80805392  0.33270389  1
  Se  Se70  1  0.66118444  0.51574338  0.76570341  1
  Se  Se71  1  0.08942177  0.99459398  0.25142219  1
  Se  Se72  1  0.37062272  0.10965933  0.45524528  1
  Se  Se73  1  0.15472662  0.78793694  0.85855655  1
  Se  Se74  1  0.38104457  0.61212110  0.96300088  1
  Se  Se75  1  0.64268415  0.80805392  0.83270389  1
  Se  Se76  1  0.61416323  0.70134284  0.16802393  1
  Se  Se77  1  0.87062272  0.89034067  0.04475472  1
  Se  Se78  1  0.14268415  0.19194608  0.66729611  1
  Se  Se79  1  0.61895543  0.38787890  0.03699912  1
  Se  Se80  1  0.91057823  0.00540602  0.74857781  1
  Se  Se81  1  0.11895543  0.61212110  0.46300088  1
  Se  Se82  1  0.11401522  0.39309585  0.04619459  1
  Se  Se83  1  0.40773938  0.71073358  0.65380957  1
  Se  Se84  1  0.83881556  0.51574338  0.26570341  1
  Se  Se85  1  0.36878544  0.89618769  0.04633075  1
  Se  Se86  1  0.65472662  0.21206306  0.64144345  1
  Se  Se87  1  0.62937728  0.89034067  0.54475472  1
