# generated using pymatgen
data_AgTe
_symmetry_space_group_name_H-M   'P 1'
_cell_length_a   4.74265880
_cell_length_b   8.93363039
_cell_length_c   20.35874347
_cell_angle_alpha   90.00000000
_cell_angle_beta   90.00000000
_cell_angle_gamma   90.00000000
_symmetry_Int_Tables_number   1
_chemical_formula_structural   AgTe
_chemical_formula_sum   'Ag16 Te16'
_cell_volume   862.58287546
_cell_formula_units_Z   16
loop_
 _symmetry_equiv_pos_site_id
 _symmetry_equiv_pos_as_xyz
  1  'x, y, z'
loop_
 _atom_site_type_symbol
 _atom_site_label
 _atom_site_symmetry_multiplicity
 _atom_site_fract_x
 _atom_site_fract_y
 _atom_site_fract_z
 _atom_site_occupancy
  Ag  Ag0  1  0.36311246  0.01516781  0.06850866  1
  Ag  Ag1  1  0.74861060  0.25000000  0.84422528  1
  Ag  Ag2  1  0.63688754  0.51516781  0.93149134  1
  Ag  Ag3  1  0.24861060  0.75000000  0.65577472  1
  Ag  Ag4  1  0.32010352  0.75000000  0.44782707  1
  Ag  Ag5  1  0.13688754  0.01516781  0.56850866  1
  Ag  Ag6  1  0.82010352  0.25000000  0.05217293  1
  Ag  Ag7  1  0.36311246  0.48483219  0.06850866  1
  Ag  Ag8  1  0.86311246  0.51516781  0.43149134  1
  Ag  Ag9  1  0.17989648  0.75000000  0.94782707  1
  Ag  Ag10  1  0.63688754  0.98483219  0.93149134  1
  Ag  Ag11  1  0.13688754  0.48483219  0.56850866  1
  Ag  Ag12  1  0.25138940  0.75000000  0.15577472  1
  Ag  Ag13  1  0.67989648  0.25000000  0.55217293  1
  Ag  Ag14  1  0.75138940  0.25000000  0.34422528  1
  Ag  Ag15  1  0.86311246  0.98483219  0.43149134  1
  Te  Te16  1  0.59568670  0.02286382  0.65743607  1
  Te  Te17  1  0.09568670  0.97713618  0.84256393  1
  Te  Te18  1  0.65255419  0.75000000  0.25900039  1
  Te  Te19  1  0.84744581  0.75000000  0.75900039  1
  Te  Te20  1  0.09568670  0.52286382  0.84256393  1
  Te  Te21  1  0.82934218  0.75000000  0.53059868  1
  Te  Te22  1  0.15255419  0.25000000  0.24099961  1
  Te  Te23  1  0.59568670  0.47713618  0.65743607  1
  Te  Te24  1  0.40431330  0.52286382  0.34256393  1
  Te  Te25  1  0.17065782  0.25000000  0.46940132  1
  Te  Te26  1  0.40431330  0.97713618  0.34256393  1
  Te  Te27  1  0.67065782  0.75000000  0.03059868  1
  Te  Te28  1  0.90431330  0.02286382  0.15743607  1
  Te  Te29  1  0.34744581  0.25000000  0.74099961  1
  Te  Te30  1  0.32934218  0.25000000  0.96940132  1
  Te  Te31  1  0.90431330  0.47713618  0.15743607  1
