# generated using pymatgen
data_In3SnI5
_symmetry_space_group_name_H-M   'P 1'
_cell_length_a   9.09115911
_cell_length_b   9.05888022
_cell_length_c   17.77693994
_cell_angle_alpha   90.00000000
_cell_angle_beta   99.48453686
_cell_angle_gamma   90.00000000
_symmetry_Int_Tables_number   1
_chemical_formula_structural   In3SnI5
_chemical_formula_sum   'In12 Sn4 I20'
_cell_volume   1444.01954680
_cell_formula_units_Z   4
loop_
 _symmetry_equiv_pos_site_id
 _symmetry_equiv_pos_as_xyz
  1  'x, y, z'
loop_
 _atom_site_type_symbol
 _atom_site_label
 _atom_site_symmetry_multiplicity
 _atom_site_fract_x
 _atom_site_fract_y
 _atom_site_fract_z
 _atom_site_occupancy
  In  In0  1  0.38515125  0.17832798  0.24967569  1
  In  In1  1  0.38515125  0.32167202  0.74967569  1
  In  In2  1  0.88985879  0.39604246  0.24925280  1
  In  In3  1  0.11014121  0.89604246  0.25074720  1
  In  In4  1  0.61484875  0.67832798  0.25032431  1
  In  In5  1  0.77988470  0.45448583  0.97219424  1
  In  In6  1  0.22011530  0.54551417  0.02780576  1
  In  In7  1  0.88985879  0.10395754  0.74925280  1
  In  In8  1  0.22011530  0.95448583  0.52780576  1
  In  In9  1  0.11014121  0.60395754  0.75074720  1
  In  In10  1  0.61484875  0.82167202  0.75032431  1
  In  In11  1  0.77988470  0.04551417  0.47219424  1
  Sn  Sn12  1  0.70372694  0.46334124  0.58590462  1
  Sn  Sn13  1  0.29627306  0.96334124  0.91409538  1
  Sn  Sn14  1  0.29627306  0.53665876  0.41409538  1
  Sn  Sn15  1  0.70372694  0.03665876  0.08590462  1
  I  I16  1  0.38529834  0.62214775  0.60372763  1
  I  I17  1  0.38529834  0.87785225  0.10372763  1
  I  I18  1  0.74845387  0.46264539  0.76127632  1
  I  I19  1  0.54547447  0.35089774  0.10263191  1
  I  I20  1  0.99375459  0.79038493  0.89375361  1
  I  I21  1  0.86820547  0.72186300  0.11327511  1
  I  I22  1  0.00624541  0.20961507  0.10624639  1
  I  I23  1  0.99375459  0.70961507  0.39375361  1
  I  I24  1  0.74845387  0.03735461  0.26127632  1
  I  I25  1  0.13179453  0.22186300  0.38672489  1
  I  I26  1  0.61470166  0.12214775  0.89627237  1
  I  I27  1  0.45452553  0.64910226  0.89736809  1
  I  I28  1  0.13179453  0.27813700  0.88672489  1
  I  I29  1  0.00624541  0.29038493  0.60624639  1
  I  I30  1  0.25154613  0.53735461  0.23872368  1
  I  I31  1  0.25154613  0.96264539  0.73872368  1
  I  I32  1  0.61470166  0.37785225  0.39627237  1
  I  I33  1  0.86820547  0.77813700  0.61327511  1
  I  I34  1  0.45452553  0.85089774  0.39736809  1
  I  I35  1  0.54547447  0.14910226  0.60263191  1
