# generated using pymatgen
data_Na4Al3Si3NO13
_symmetry_space_group_name_H-M   'P 1'
_cell_length_a   9.29859152
_cell_length_b   9.29733421
_cell_length_c   9.25470225
_cell_angle_alpha   90.00000000
_cell_angle_beta   90.02663106
_cell_angle_gamma   90.00000000
_symmetry_Int_Tables_number   1
_chemical_formula_structural   Na4Al3Si3NO13
_chemical_formula_sum   'Na8 Al6 Si6 N2 O26'
_cell_volume   800.08847877
_cell_formula_units_Z   2
loop_
 _symmetry_equiv_pos_site_id
 _symmetry_equiv_pos_as_xyz
  1  'x, y, z'
loop_
 _atom_site_type_symbol
 _atom_site_label
 _atom_site_symmetry_multiplicity
 _atom_site_fract_x
 _atom_site_fract_y
 _atom_site_fract_z
 _atom_site_occupancy
  Na  Na0  1  0.21482531  0.78058921  0.78451762  1
  Na  Na1  1  0.21482531  0.21941079  0.78451762  1
  Na  Na2  1  0.28528234  0.28066568  0.28429053  1
  Na  Na3  1  0.28528234  0.71933432  0.28429053  1
  Na  Na4  1  0.71572872  0.28998239  0.70644533  1
  Na  Na5  1  0.71572872  0.71001761  0.70644533  1
  Na  Na6  1  0.78409836  0.20983635  0.20640633  1
  Na  Na7  1  0.78409836  0.79016365  0.20640633  1
  Al  Al8  1  0.99969084  0.24991186  0.49971222  1
  Al  Al9  1  0.99969084  0.75008814  0.49971222  1
  Al  Al10  1  0.25023192  0.50000000  0.00272814  1
  Al  Al11  1  0.49831150  0.00000000  0.75023142  1
  Al  Al12  1  0.50217814  0.00000000  0.24999558  1
  Al  Al13  1  0.74978419  0.50000000  0.99801813  1
  Si  Si14  1  0.00405655  0.50000000  0.25001288  1
  Si  Si15  1  0.99668266  0.50000000  0.75021640  1
  Si  Si16  1  0.24979678  0.00000000  0.50420503  1
  Si  Si17  1  0.49972494  0.25024582  0.99967921  1
  Si  Si18  1  0.49972494  0.74975418  0.99967921  1
  Si  Si19  1  0.75011075  0.00000000  0.49632501  1
  N  N20  1  0.49792967  0.50000000  0.48567625  1
  N  N21  1  0.00209215  0.00000000  0.98579105  1
  O  O22  1  0.00277460  0.35036126  0.34131240  1
  O  O23  1  0.00127273  0.35072700  0.65827515  1
  O  O24  1  0.00277460  0.64963874  0.34131240  1
  O  O25  1  0.00127273  0.64927300  0.65827515  1
  O  O26  1  0.15799510  0.14915968  0.50052460  1
  O  O27  1  0.15799510  0.85084032  0.50052460  1
  O  O28  1  0.16081304  0.50000000  0.16840374  1
  O  O29  1  0.13916392  0.50000000  0.85231036  1
  O  O30  1  0.35004434  0.34209951  0.00149813  1
  O  O31  1  0.35004434  0.65790049  0.00149813  1
  O  O32  1  0.35186342  0.00000000  0.36185782  1
  O  O33  1  0.33200355  0.00000000  0.66052258  1
  O  O34  1  0.49975963  0.15820521  0.14946135  1
  O  O35  1  0.49616738  0.15859504  0.84995845  1
  O  O36  1  0.49975963  0.84179479  0.14946135  1
  O  O37  1  0.49616738  0.84140496  0.84995845  1
  O  O38  1  0.62730588  0.50000000  0.53256022  1
  O  O39  1  0.66633479  0.00000000  0.34110873  1
  O  O40  1  0.64707109  0.00000000  0.63756012  1
  O  O41  1  0.64764805  0.34312956  0.99831912  1
  O  O42  1  0.64764805  0.65687044  0.99831912  1
  O  O43  1  0.86345704  0.50000000  0.14688033  1
  O  O44  1  0.84231927  0.50000000  0.83373127  1
  O  O45  1  0.84292832  0.14832025  0.49935385  1
  O  O46  1  0.84292832  0.85167975  0.49935385  1
  O  O47  1  0.87261238  0.00000000  0.03235636  1
