# generated using pymatgen
data_Li2SO4
_symmetry_space_group_name_H-M   'P 1'
_cell_length_a   5.39082323
_cell_length_b   9.58484313
_cell_length_c   7.77738028
_cell_angle_alpha   34.28213593
_cell_angle_beta   46.83460905
_cell_angle_gamma   56.06522983
_symmetry_Int_Tables_number   1
_chemical_formula_structural   Li2SO4
_chemical_formula_sum   'Li4 S2 O8'
_cell_volume   165.07475344
_cell_formula_units_Z   2
loop_
 _symmetry_equiv_pos_site_id
 _symmetry_equiv_pos_as_xyz
  1  'x, y, z'
loop_
 _atom_site_type_symbol
 _atom_site_label
 _atom_site_symmetry_multiplicity
 _atom_site_fract_x
 _atom_site_fract_y
 _atom_site_fract_z
 _atom_site_occupancy
  Li  Li0  1  0.13007267  0.98615333  0.39394328  1
  Li  Li1  1  0.36561987  0.51830836  0.09910764  1
  Li  Li2  1  0.62518295  0.98673712  0.89333468  1
  Li  Li3  1  0.87868818  0.50832385  0.60758720  1
  S  S4  1  0.00821782  0.01220569  0.98706002  1
  S  S5  1  0.99313107  0.49015662  0.01165666  1
  O  O6  1  0.11327149  0.24532079  0.61107952  1
  O  O7  1  0.19362527  0.79325730  0.05641465  1
  O  O8  1  0.08963699  0.04085863  0.10517970  1
  O  O9  1  0.83828327  0.24924427  0.38397795  1
  O  O10  1  0.36774283  0.47039188  0.87092687  1
  O  O11  1  0.63856768  0.96788540  0.17642066  1
  O  O12  1  0.88233151  0.54360430  0.82963020  1
  O  O13  1  0.88880040  0.70178645  0.95602298  1
