# generated using pymatgen
data_Ba2P7Cl
_symmetry_space_group_name_H-M   'P 1'
_cell_length_a   6.42156459
_cell_length_b   6.92966938
_cell_length_c   11.87969215
_cell_angle_alpha   90.00000000
_cell_angle_beta   95.23233960
_cell_angle_gamma   90.00000000
_symmetry_Int_Tables_number   1
_chemical_formula_structural   Ba2P7Cl
_chemical_formula_sum   'Ba4 P14 Cl2'
_cell_volume   526.43542562
_cell_formula_units_Z   2
loop_
 _symmetry_equiv_pos_site_id
 _symmetry_equiv_pos_as_xyz
  1  'x, y, z'
loop_
 _atom_site_type_symbol
 _atom_site_label
 _atom_site_symmetry_multiplicity
 _atom_site_fract_x
 _atom_site_fract_y
 _atom_site_fract_z
 _atom_site_occupancy
  Ba  Ba0  1  0.77073600  0.75000000  0.95433778  1
  Ba  Ba1  1  0.56724328  0.75000000  0.34693717  1
  Ba  Ba2  1  0.22926400  0.25000000  0.04566222  1
  Ba  Ba3  1  0.43275672  0.25000000  0.65306283  1
  P  P4  1  0.99109741  0.75000000  0.55050929  1
  P  P5  1  0.88298224  0.00602968  0.19523826  1
  P  P6  1  0.67843730  0.25000000  0.22236615  1
  P  P7  1  0.32553278  0.75000000  0.59347726  1
  P  P8  1  0.85528331  0.58029892  0.68688710  1
  P  P9  1  0.85528331  0.91970108  0.68688710  1
  P  P10  1  0.14471669  0.08029892  0.31311290  1
  P  P11  1  0.11701776  0.99397032  0.80476174  1
  P  P12  1  0.32156270  0.75000000  0.77763385  1
  P  P13  1  0.11701776  0.50602968  0.80476174  1
  P  P14  1  0.14471669  0.41970108  0.31311290  1
  P  P15  1  0.67446722  0.25000000  0.40652274  1
  P  P16  1  0.88298224  0.49397032  0.19523826  1
  P  P17  1  0.00890259  0.25000000  0.44949071  1
  Cl  Cl18  1  0.63495933  0.25000000  0.91101341  1
  Cl  Cl19  1  0.36504067  0.75000000  0.08898659  1
