# generated using pymatgen
data_Ag5Te2Cl
_symmetry_space_group_name_H-M   'P 1'
_cell_length_a   7.79291518
_cell_length_b   19.71865882
_cell_length_c   19.89901027
_cell_angle_alpha   89.96826408
_cell_angle_beta   90.00000000
_cell_angle_gamma   90.00000000
_symmetry_Int_Tables_number   1
_chemical_formula_structural   Ag5Te2Cl
_chemical_formula_sum   'Ag80 Te32 Cl16'
_cell_volume   3057.79757148
_cell_formula_units_Z   16
loop_
 _symmetry_equiv_pos_site_id
 _symmetry_equiv_pos_as_xyz
  1  'x, y, z'
loop_
 _atom_site_type_symbol
 _atom_site_label
 _atom_site_symmetry_multiplicity
 _atom_site_fract_x
 _atom_site_fract_y
 _atom_site_fract_z
 _atom_site_occupancy
  Ag  Ag0  1  0.99008748  0.13209758  0.26322626  1
  Ag  Ag1  1  0.87546241  0.01202435  0.91078398  1
  Ag  Ag2  1  0.24437570  0.79511991  0.40820317  1
  Ag  Ag3  1  0.74437570  0.20488009  0.09179683  1
  Ag  Ag4  1  0.89171257  0.06773945  0.50009163  1
  Ag  Ag5  1  0.12453759  0.98797565  0.08921602  1
  Ag  Ag6  1  0.14222057  0.56280926  0.31786988  1
  Ag  Ag7  1  0.21275537  0.28144690  0.92273414  1
  Ag  Ag8  1  0.05002123  0.16601844  0.40503076  1
  Ag  Ag9  1  0.88523660  0.16599664  0.76550537  1
  Ag  Ag10  1  0.00867816  0.61421694  0.76331879  1
  Ag  Ag11  1  0.64469521  0.93211412  0.68651468  1
  Ag  Ag12  1  0.90983253  0.74099947  0.83017510  1
  Ag  Ag13  1  0.59016747  0.74099947  0.33017510  1
  Ag  Ag14  1  0.35777943  0.56280926  0.81786988  1
  Ag  Ag15  1  0.50991252  0.13209758  0.76322626  1
  Ag  Ag16  1  0.42047908  0.68958663  0.47832933  1
  Ag  Ag17  1  0.02062198  0.50845056  0.87025605  1
  Ag  Ag18  1  0.74457913  0.81867679  0.46950593  1
  Ag  Ag19  1  0.43635376  0.71623488  0.01168314  1
  Ag  Ag20  1  0.56364624  0.28376512  0.98831686  1
  Ag  Ag21  1  0.00991252  0.86790242  0.73677374  1
  Ag  Ag22  1  0.64222057  0.43719074  0.18213012  1
  Ag  Ag23  1  0.25562430  0.79511991  0.90820317  1
  Ag  Ag24  1  0.44997877  0.16601844  0.90503076  1
  Ag  Ag25  1  0.98431839  0.98060709  0.63211605  1
  Ag  Ag26  1  0.52062198  0.49154944  0.62974395  1
  Ag  Ag27  1  0.50867816  0.38578306  0.73668121  1
  Ag  Ag28  1  0.37147877  0.34065772  0.23516705  1
  Ag  Ag29  1  0.71275537  0.71855310  0.57726586  1
  Ag  Ag30  1  0.61476340  0.16599664  0.26550537  1
  Ag  Ag31  1  0.88827719  0.50154368  0.41860485  1
  Ag  Ag32  1  0.35530479  0.06788588  0.31348532  1
  Ag  Ag33  1  0.24457913  0.18132321  0.03049407  1
  Ag  Ag34  1  0.38827719  0.49845632  0.08139515  1
  Ag  Ag35  1  0.75542087  0.81867679  0.96950593  1
  Ag  Ag36  1  0.07952092  0.68958663  0.97832933  1
  Ag  Ag37  1  0.10828743  0.93226055  0.49990837  1
  Ag  Ag38  1  0.01568161  0.01939291  0.36788395  1
  Ag  Ag39  1  0.62453759  0.01202435  0.41078398  1
  Ag  Ag40  1  0.97937802  0.49154944  0.12974395  1
  Ag  Ag41  1  0.09016747  0.25900053  0.16982490  1
  Ag  Ag42  1  0.78724463  0.71855310  0.07726586  1
  Ag  Ag43  1  0.25542087  0.18132321  0.53049407  1
  Ag  Ag44  1  0.47937802  0.50845056  0.37025605  1
  Ag  Ag45  1  0.37546241  0.98797565  0.58921602  1
  Ag  Ag46  1  0.61172281  0.50154368  0.91860485  1
  Ag  Ag47  1  0.11172281  0.49845632  0.58139515  1
  Ag  Ag48  1  0.11158294  0.43837520  1.00040132  1
  Ag  Ag49  1  0.49132184  0.61421694  0.26331879  1
  Ag  Ag50  1  0.62852123  0.65934228  0.76483295  1
  Ag  Ag51  1  0.93635376  0.28376512  0.48831686  1
  Ag  Ag52  1  0.28724463  0.28144690  0.42273414  1
  Ag  Ag53  1  0.48431839  0.01939291  0.86788395  1
  Ag  Ag54  1  0.40983253  0.25900053  0.66982490  1
  Ag  Ag55  1  0.38523660  0.83400336  0.73449463  1
  Ag  Ag56  1  0.87147877  0.65934228  0.26483295  1
  Ag  Ag57  1  0.60828743  0.06773945  0.00009163  1
  Ag  Ag58  1  0.19130447  0.73301336  0.65877011  1
  Ag  Ag59  1  0.06364624  0.71623488  0.51168314  1
  Ag  Ag60  1  0.92047908  0.31041337  0.02167067  1
  Ag  Ag61  1  0.94997877  0.83398156  0.59496924  1
  Ag  Ag62  1  0.38841706  0.43837520  0.50040132  1
  Ag  Ag63  1  0.12852123  0.34065772  0.73516705  1
  Ag  Ag64  1  0.11476340  0.83400336  0.23449463  1
  Ag  Ag65  1  0.80869553  0.26698664  0.34122989  1
  Ag  Ag66  1  0.51568161  0.98060709  0.13211605  1
  Ag  Ag67  1  0.49008748  0.86790242  0.23677374  1
  Ag  Ag68  1  0.61158294  0.56162480  0.49959868  1
  Ag  Ag69  1  0.85777943  0.43719074  0.68213012  1
  Ag  Ag70  1  0.14469521  0.06788588  0.81348532  1
  Ag  Ag71  1  0.30869553  0.73301336  0.15877011  1
  Ag  Ag72  1  0.85530479  0.93211412  0.18651468  1
  Ag  Ag73  1  0.99132184  0.38578306  0.23668121  1
  Ag  Ag74  1  0.88841706  0.56162480  -0.00040132  1
  Ag  Ag75  1  0.39171257  0.93226055  0.99990837  1
  Ag  Ag76  1  0.75562430  0.20488009  0.59179683  1
  Ag  Ag77  1  0.69130447  0.26698664  0.84122989  1
  Ag  Ag78  1  0.55002123  0.83398156  0.09496924  1
  Ag  Ag79  1  0.57952092  0.31041337  0.52167067  1
  Te  Te80  1  0.27122471  0.56320532  0.95842961  1
  Te  Te81  1  0.26802354  0.47429015  0.21414289  1
  Te  Te82  1  0.28371617  0.05421053  0.45977750  1
  Te  Te83  1  0.23749198  0.96691071  0.22104834  1
  Te  Te84  1  0.22620732  0.32177684  0.56205110  1
  Te  Te85  1  0.22900321  0.70814710  0.29551913  1
  Te  Te86  1  0.73749198  0.03308929  0.27895166  1
  Te  Te87  1  0.77253317  0.78734575  0.20447150  1
  Te  Te88  1  0.76802354  0.52570985  0.28585711  1
  Te  Te89  1  0.27253317  0.21265425  0.29552850  1
  Te  Te90  1  0.80413719  0.18472283  0.94971423  1
  Te  Te91  1  0.22877529  0.56320532  0.45842961  1
  Te  Te92  1  0.22746683  0.21265425  0.79552850  1
  Te  Te93  1  0.23197646  0.47429015  0.71414289  1
  Te  Te94  1  0.27379268  0.32177684  0.06205110  1
  Te  Te95  1  0.27099679  0.70814710  0.79551913  1
  Te  Te96  1  0.72746683  0.78734575  0.70447150  1
  Te  Te97  1  0.73197646  0.52570985  0.78585711  1
  Te  Te98  1  0.69586281  0.18472283  0.44971423  1
  Te  Te99  1  0.72877529  0.43679468  0.04157039  1
  Te  Te100  1  0.26250802  0.96691071  0.72104834  1
  Te  Te101  1  0.77379268  0.67822316  0.43794890  1
  Te  Te102  1  0.76250802  0.03308929  0.77895166  1
  Te  Te103  1  0.77099679  0.29185290  0.70448087  1
  Te  Te104  1  0.78371617  0.94578947  0.04022250  1
  Te  Te105  1  0.19586281  0.81527717  0.05028577  1
  Te  Te106  1  0.72900321  0.29185290  0.20448087  1
  Te  Te107  1  0.72620732  0.67822316  0.93794890  1
  Te  Te108  1  0.30413719  0.81527717  0.55028577  1
  Te  Te109  1  0.71628383  0.94578947  0.54022250  1
  Te  Te110  1  0.21628383  0.05421053  0.95977750  1
  Te  Te111  1  0.77122471  0.43679468  0.54157039  1
  Cl  Cl112  1  0.01370737  0.63003305  0.12761770  1
  Cl  Cl113  1  0.01339294  0.12316888  0.12522894  1
  Cl  Cl114  1  0.98813348  0.62543715  0.62307800  1
  Cl  Cl115  1  0.48681000  0.12133362  0.12077843  1
  Cl  Cl116  1  0.51339294  0.87683112  0.37477106  1
  Cl  Cl117  1  0.51186652  0.62543715  0.12307800  1
  Cl  Cl118  1  0.48813348  0.37456285  0.87692200  1
  Cl  Cl119  1  0.51319000  0.87866638  0.87922157  1
  Cl  Cl120  1  0.98629263  0.36996695  0.87238230  1
  Cl  Cl121  1  0.01319000  0.12133362  0.62077843  1
  Cl  Cl122  1  0.48629263  0.63003305  0.62761770  1
  Cl  Cl123  1  0.01186652  0.37456285  0.37692200  1
  Cl  Cl124  1  0.51370737  0.36996695  0.37238230  1
  Cl  Cl125  1  0.98660706  0.87683112  0.87477106  1
  Cl  Cl126  1  0.48660706  0.12316888  0.62522894  1
  Cl  Cl127  1  0.98681000  0.87866638  0.37922157  1
