# generated using pymatgen
data_CdI2
_symmetry_space_group_name_H-M   'P 1'
_cell_length_a   4.33271802
_cell_length_b   4.33271829
_cell_length_c   67.42114646
_cell_angle_alpha   90.00000000
_cell_angle_beta   90.00000000
_cell_angle_gamma   119.99999797
_symmetry_Int_Tables_number   1
_chemical_formula_structural   CdI2
_chemical_formula_sum   'Cd9 I18'
_cell_volume   1096.09362345
_cell_formula_units_Z   9
loop_
 _symmetry_equiv_pos_site_id
 _symmetry_equiv_pos_as_xyz
  1  'x, y, z'
loop_
 _atom_site_type_symbol
 _atom_site_label
 _atom_site_symmetry_multiplicity
 _atom_site_fract_x
 _atom_site_fract_y
 _atom_site_fract_z
 _atom_site_occupancy
  Cd  Cd0  1  0.00000000  0.00000000  0.80555703  1
  Cd  Cd1  1  0.33333300  0.66666700  0.36108161  1
  Cd  Cd2  1  0.00000000  0.00000000  0.69443081  1
  Cd  Cd3  1  0.00000000  0.00000000  0.91663625  1
  Cd  Cd4  1  0.66666700  0.33333300  0.58331437  1
  Cd  Cd5  1  0.66666700  0.33333300  0.02781582  1
  Cd  Cd6  1  0.00000000  0.00000000  0.13889948  1
  Cd  Cd7  1  0.66666700  0.33333300  0.47223452  1
  Cd  Cd8  1  0.66666700  0.33333300  0.25003217  1
  I  I9  1  0.00000000  0.00000000  0.22442783  1
  I  I10  1  0.00000000  0.00000000  0.55771019  1
  I  I11  1  0.00000000  0.00000000  0.44661755  1
  I  I12  1  0.33333300  0.66666700  0.27564621  1
  I  I13  1  0.33333300  0.66666700  0.05341769  1
  I  I14  1  0.33333300  0.66666700  0.60892686  1
  I  I15  1  0.66666700  0.33333300  0.89102844  1
  I  I16  1  0.66666700  0.33333300  0.77994181  1
  I  I17  1  0.33333300  0.66666700  0.94223291  1
  I  I18  1  0.66666700  0.33333300  0.11331476  1
  I  I19  1  0.00000000  0.00000000  0.00221440  1
  I  I20  1  0.33333300  0.66666700  0.16448837  1
  I  I21  1  0.66666700  0.33333300  0.38667618  1
  I  I22  1  0.00000000  0.00000000  0.33548002  1
  I  I23  1  0.33333300  0.66666700  0.83118155  1
  I  I24  1  0.66666700  0.33333300  0.66880620  1
  I  I25  1  0.33333300  0.66666700  0.49784533  1
  I  I26  1  0.33333300  0.66666700  0.72004165  1
