# generated using pymatgen
data_TaBr5
_symmetry_space_group_name_H-M   'P 1'
_cell_length_a   6.71989075
_cell_length_b   14.07664471
_cell_length_c   19.58196257
_cell_angle_alpha   90.00000000
_cell_angle_beta   90.00000000
_cell_angle_gamma   90.00000000
_symmetry_Int_Tables_number   1
_chemical_formula_structural   TaBr5
_chemical_formula_sum   'Ta8 Br40'
_cell_volume   1852.32666183
_cell_formula_units_Z   8
loop_
 _symmetry_equiv_pos_site_id
 _symmetry_equiv_pos_as_xyz
  1  'x, y, z'
loop_
 _atom_site_type_symbol
 _atom_site_label
 _atom_site_symmetry_multiplicity
 _atom_site_fract_x
 _atom_site_fract_y
 _atom_site_fract_z
 _atom_site_occupancy
  Ta  Ta0  1  0.99252030  0.12502750  0.14201239  1
  Ta  Ta1  1  0.99252030  0.12502750  0.35798761  1
  Ta  Ta2  1  0.50747970  0.62502750  0.14201239  1
  Ta  Ta3  1  0.49252030  0.37497250  0.85798761  1
  Ta  Ta4  1  0.49252030  0.37497250  0.64201239  1
  Ta  Ta5  1  0.50747970  0.62502750  0.35798761  1
  Ta  Ta6  1  0.00747970  0.87497250  0.64201239  1
  Ta  Ta7  1  0.00747970  0.87497250  0.85798761  1
  Br  Br8  1  0.22167664  0.73146518  0.84741632  1
  Br  Br9  1  0.22252545  0.20352589  0.43610304  1
  Br  Br10  1  0.73911075  0.54651796  0.43545749  1
  Br  Br11  1  0.70229291  0.30390504  0.75000000  1
  Br  Br12  1  0.79236923  0.01829545  0.84775773  1
  Br  Br13  1  0.72167664  0.76853482  0.34741632  1
  Br  Br14  1  0.21583344  0.94653308  0.75000000  1
  Br  Br15  1  0.20229291  0.19609496  0.25000000  1
  Br  Br16  1  0.27832336  0.23146518  0.84741632  1
  Br  Br17  1  0.22252545  0.20352589  0.06389696  1
  Br  Br18  1  0.20763077  0.98170455  0.15224227  1
  Br  Br19  1  0.23911075  0.95348204  0.56454251  1
  Br  Br20  1  0.72252545  0.29647411  0.93610304  1
  Br  Br21  1  0.26088925  0.45348204  0.56454251  1
  Br  Br22  1  0.27747455  0.70352589  0.06389696  1
  Br  Br23  1  0.72252545  0.29647411  0.56389696  1
  Br  Br24  1  0.70763077  0.51829545  0.84775773  1
  Br  Br25  1  0.77747455  0.79647411  0.93610304  1
  Br  Br26  1  0.70763077  0.51829545  0.65224227  1
  Br  Br27  1  0.73911075  0.54651796  0.06454251  1
  Br  Br28  1  0.29770709  0.69609496  0.25000000  1
  Br  Br29  1  0.77747455  0.79647411  0.56389696  1
  Br  Br30  1  0.76088925  0.04651796  0.43545749  1
  Br  Br31  1  0.79770709  0.80390504  0.75000000  1
  Br  Br32  1  0.26088925  0.45348204  0.93545749  1
  Br  Br33  1  0.72167664  0.76853482  0.15258368  1
  Br  Br34  1  0.76088925  0.04651796  0.06454251  1
  Br  Br35  1  0.29236923  0.48170455  0.15224227  1
  Br  Br36  1  0.77832336  0.26853482  0.34741632  1
  Br  Br37  1  0.23911075  0.95348204  0.93545749  1
  Br  Br38  1  0.28416656  0.44653308  0.75000000  1
  Br  Br39  1  0.71583344  0.55346692  0.25000000  1
  Br  Br40  1  0.27832336  0.23146518  0.65258368  1
  Br  Br41  1  0.20763077  0.98170455  0.34775773  1
  Br  Br42  1  0.79236923  0.01829545  0.65224227  1
  Br  Br43  1  0.29236923  0.48170455  0.34775773  1
  Br  Br44  1  0.78416656  0.05346692  0.25000000  1
  Br  Br45  1  0.77832336  0.26853482  0.15258368  1
  Br  Br46  1  0.27747455  0.70352589  0.43610304  1
  Br  Br47  1  0.22167664  0.73146518  0.65258368  1
