# generated using pymatgen
data_CdI2
_symmetry_space_group_name_H-M   'P 1'
_cell_length_a   4.33444648
_cell_length_b   4.33444675
_cell_length_c   127.15438651
_cell_angle_alpha   90.00000000
_cell_angle_beta   90.00000000
_cell_angle_gamma   119.99999797
_symmetry_Int_Tables_number   1
_chemical_formula_structural   CdI2
_chemical_formula_sum   'Cd17 I34'
_cell_volume   2068.85142919
_cell_formula_units_Z   17
loop_
 _symmetry_equiv_pos_site_id
 _symmetry_equiv_pos_as_xyz
  1  'x, y, z'
loop_
 _atom_site_type_symbol
 _atom_site_label
 _atom_site_symmetry_multiplicity
 _atom_site_fract_x
 _atom_site_fract_y
 _atom_site_fract_z
 _atom_site_occupancy
  Cd  Cd0  1  0.00000000  0.00000000  0.60296454  1
  Cd  Cd1  1  0.00000000  0.00000000  0.72056970  1
  Cd  Cd2  1  0.66666700  0.33333300  0.36767385  1
  Cd  Cd3  1  0.00000000  0.00000000  0.48528215  1
  Cd  Cd4  1  0.00000000  0.00000000  0.95585841  1
  Cd  Cd5  1  0.00000000  0.00000000  0.54414624  1
  Cd  Cd6  1  0.00000000  0.00000000  0.89703546  1
  Cd  Cd7  1  0.00000000  0.00000000  0.30881091  1
  Cd  Cd8  1  0.66666700  0.33333300  0.25000818  1
  Cd  Cd9  1  0.00000000  0.00000000  0.83822701  1
  Cd  Cd10  1  0.00000000  0.00000000  0.42646656  1
  Cd  Cd11  1  0.00000000  0.00000000  0.66176830  1
  Cd  Cd12  1  0.66666700  0.33333300  0.01472152  1
  Cd  Cd13  1  0.66666700  0.33333300  0.13236102  1
  Cd  Cd14  1  0.00000000  0.00000000  0.07352242  1
  Cd  Cd15  1  0.00000000  0.00000000  0.77940318  1
  Cd  Cd16  1  0.00000000  0.00000000  0.19117513  1
  I  I17  1  0.33333300  0.66666700  0.32237571  1
  I  I18  1  0.33333300  0.66666700  0.44003251  1
  I  I19  1  0.33333300  0.66666700  0.55770731  1
  I  I20  1  0.66666700  0.33333300  0.47171174  1
  I  I21  1  0.66666700  0.33333300  0.58939334  1
  I  I22  1  0.66666700  0.33333300  0.88347148  1
  I  I23  1  0.33333300  0.66666700  0.14592739  1
  I  I24  1  0.66666700  0.33333300  0.17761004  1
  I  I25  1  0.66666700  0.33333300  0.64821215  1
  I  I26  1  0.00000000  0.00000000  0.23645078  1
  I  I27  1  0.33333300  0.66666700  0.20474242  1
  I  I28  1  0.33333300  0.66666700  0.67532918  1
  I  I29  1  0.00000000  0.00000000  0.11879730  1
  I  I30  1  0.33333300  0.66666700  0.38123528  1
  I  I31  1  0.66666700  0.33333300  0.41289560  1
  I  I32  1  0.66666700  0.33333300  0.05995909  1
  I  I33  1  0.66666700  0.33333300  0.94229721  1
  I  I34  1  0.33333300  0.66666700  0.02829022  1
  I  I35  1  0.00000000  0.00000000  0.00115555  1
  I  I36  1  0.66666700  0.33333300  0.53058240  1
  I  I37  1  0.00000000  0.00000000  0.35411393  1
  I  I38  1  0.33333300  0.66666700  0.61652625  1
  I  I39  1  0.66666700  0.33333300  0.70700932  1
  I  I40  1  0.33333300  0.66666700  0.91060881  1
  I  I41  1  0.33333300  0.66666700  0.08708951  1
  I  I42  1  0.33333300  0.66666700  0.79296745  1
  I  I43  1  0.66666700  0.33333300  0.29524720  1
  I  I44  1  0.66666700  0.33333300  0.82466735  1
  I  I45  1  0.33333300  0.66666700  0.96942652  1
  I  I46  1  0.66666700  0.33333300  0.76585480  1
  I  I47  1  0.33333300  0.66666700  0.73412148  1
  I  I48  1  0.33333300  0.66666700  0.26356913  1
  I  I49  1  0.33333300  0.66666700  0.85178389  1
  I  I50  1  0.33333300  0.66666700  0.49884308  1
