# generated using pymatgen
data_MnBr2
_symmetry_space_group_name_H-M   'P 1'
_cell_length_a   7.07929448
_cell_length_b   7.07929420
_cell_length_c   7.07929366
_cell_angle_alpha   31.79397827
_cell_angle_beta   31.79398164
_cell_angle_gamma   31.79398305
_symmetry_Int_Tables_number   1
_chemical_formula_structural   MnBr2
_chemical_formula_sum   'Mn1 Br2'
_cell_volume   87.47522089
_cell_formula_units_Z   1
loop_
 _symmetry_equiv_pos_site_id
 _symmetry_equiv_pos_as_xyz
  1  'x, y, z'
loop_
 _atom_site_type_symbol
 _atom_site_label
 _atom_site_symmetry_multiplicity
 _atom_site_fract_x
 _atom_site_fract_y
 _atom_site_fract_z
 _atom_site_occupancy
  Mn  Mn0  1  0.00000000  0.00000000  0.00000000  1
  Br  Br1  1  0.74186947  0.74186947  0.74186947  1
  Br  Br2  1  0.25813053  0.25813053  0.25813053  1
