# generated using pymatgen
data_CdI2
_symmetry_space_group_name_H-M   'P 1'
_cell_length_a   4.33596672
_cell_length_b   4.33596699
_cell_length_c   68.61868777
_cell_angle_alpha   90.00000000
_cell_angle_beta   90.00000000
_cell_angle_gamma   119.99999795
_symmetry_Int_Tables_number   1
_chemical_formula_structural   CdI2
_chemical_formula_sum   'Cd9 I18'
_cell_volume   1117.23609079
_cell_formula_units_Z   9
loop_
 _symmetry_equiv_pos_site_id
 _symmetry_equiv_pos_as_xyz
  1  'x, y, z'
loop_
 _atom_site_type_symbol
 _atom_site_label
 _atom_site_symmetry_multiplicity
 _atom_site_fract_x
 _atom_site_fract_y
 _atom_site_fract_z
 _atom_site_occupancy
  Cd  Cd0  1  0.66666700  0.33333300  0.13619618  1
  Cd  Cd1  1  0.66666700  0.33333300  0.36012766  1
  Cd  Cd2  1  0.00000000  0.00000000  0.80198616  1
  Cd  Cd3  1  0.33333300  0.66666700  0.69147914  1
  Cd  Cd4  1  0.33333300  0.66666700  0.91269787  1
  Cd  Cd5  1  0.33333300  0.66666700  0.02582179  1
  Cd  Cd6  1  0.33333300  0.66666700  0.47076473  1
  Cd  Cd7  1  0.33333300  0.66666700  0.24656441  1
  Cd  Cd8  1  0.00000000  0.00000000  0.58111638  1
  I  I9  1  0.00000000  0.00000000  0.11121956  1
  I  I10  1  0.66666700  0.33333300  0.82707847  1
  I  I11  1  0.33333300  0.66666700  0.16113403  1
  I  I12  1  0.33333300  0.66666700  0.38518708  1
  I  I13  1  0.66666700  0.33333300  0.27154039  1
  I  I14  1  0.66666700  0.33333300  0.71658544  1
  I  I15  1  0.66666700  0.33333300  0.05078691  1
  I  I16  1  0.00000000  0.00000000  0.33489936  1
  I  I17  1  0.66666700  0.33333300  0.60619223  1
  I  I18  1  0.33333300  0.66666700  0.55593592  1
  I  I19  1  0.66666700  0.33333300  0.93780090  1
  I  I20  1  0.00000000  0.00000000  0.00077914  1
  I  I21  1  0.00000000  0.00000000  0.66627083  1
  I  I22  1  0.00000000  0.00000000  0.44555888  1
  I  I23  1  0.33333300  0.66666700  0.77681434  1
  I  I24  1  0.00000000  0.00000000  0.88753104  1
  I  I25  1  0.66666700  0.33333300  0.49585767  1
  I  I26  1  0.00000000  0.00000000  0.22157351  1
