# generated using pymatgen
data_CdI2
_symmetry_space_group_name_H-M   'P 1'
_cell_length_a   4.33283213
_cell_length_b   4.33283239
_cell_length_c   67.36560710
_cell_angle_alpha   90.00000000
_cell_angle_beta   90.00000000
_cell_angle_gamma   119.99999793
_symmetry_Int_Tables_number   1
_chemical_formula_structural   CdI2
_chemical_formula_sum   'Cd9 I18'
_cell_volume   1095.24838477
_cell_formula_units_Z   9
loop_
 _symmetry_equiv_pos_site_id
 _symmetry_equiv_pos_as_xyz
  1  'x, y, z'
loop_
 _atom_site_type_symbol
 _atom_site_label
 _atom_site_symmetry_multiplicity
 _atom_site_fract_x
 _atom_site_fract_y
 _atom_site_fract_z
 _atom_site_occupancy
  Cd  Cd0  1  0.00000000  0.00000000  0.80554008  1
  Cd  Cd1  1  0.00000000  0.00000000  0.91663022  1
  Cd  Cd2  1  0.00000000  0.00000000  0.58333650  1
  Cd  Cd3  1  0.66666700  0.33333300  0.02779938  1
  Cd  Cd4  1  0.00000000  0.00000000  0.13888894  1
  Cd  Cd5  1  0.00000000  0.00000000  0.36107187  1
  Cd  Cd6  1  0.66666700  0.33333300  0.69446481  1
  Cd  Cd7  1  0.66666700  0.33333300  0.47223238  1
  Cd  Cd8  1  0.66666700  0.33333300  0.25002264  1
  I  I9  1  0.00000000  0.00000000  0.22440688  1
  I  I10  1  0.66666700  0.33333300  0.33547012  1
  I  I11  1  0.33333300  0.66666700  0.72009272  1
  I  I12  1  0.66666700  0.33333300  0.55772027  1
  I  I13  1  0.00000000  0.00000000  0.44659776  1
  I  I14  1  0.33333300  0.66666700  0.27565239  1
  I  I15  1  0.00000000  0.00000000  0.66884534  1
  I  I16  1  0.33333300  0.66666700  0.05341878  1
  I  I17  1  0.33333300  0.66666700  0.60895759  1
  I  I18  1  0.66666700  0.33333300  0.89101269  1
  I  I19  1  0.33333300  0.66666700  0.94224544  1
  I  I20  1  0.66666700  0.33333300  0.11328516  1
  I  I21  1  0.00000000  0.00000000  0.00218299  1
  I  I22  1  0.33333300  0.66666700  0.16449245  1
  I  I23  1  0.66666700  0.33333300  0.77991029  1
  I  I24  1  0.33333300  0.66666700  0.38668118  1
  I  I25  1  0.33333300  0.66666700  0.83117627  1
  I  I26  1  0.33333300  0.66666700  0.49786487  1
