# generated using pymatgen
data_VCl4
_symmetry_space_group_name_H-M   'P 1'
_cell_length_a   6.67535120
_cell_length_b   13.55795449
_cell_length_c   13.05524844
_cell_angle_alpha   118.44900976
_cell_angle_beta   90.00000000
_cell_angle_gamma   90.00000000
_symmetry_Int_Tables_number   1
_chemical_formula_structural   VCl4
_chemical_formula_sum   'V4 Cl16'
_cell_volume   1038.87086473
_cell_formula_units_Z   4
loop_
 _symmetry_equiv_pos_site_id
 _symmetry_equiv_pos_as_xyz
  1  'x, y, z'
loop_
 _atom_site_type_symbol
 _atom_site_label
 _atom_site_symmetry_multiplicity
 _atom_site_fract_x
 _atom_site_fract_y
 _atom_site_fract_z
 _atom_site_occupancy
  V  V0  1  0.92691605  0.74269278  0.13858712  1
  V  V1  1  0.07308395  0.25730722  0.86141288  1
  V  V2  1  0.07308395  0.74269278  0.63858712  1
  V  V3  1  0.92691605  0.25730722  0.36141288  1
  Cl  Cl4  1  0.07820812  0.38395077  0.33757992  1
  Cl  Cl5  1  0.91863230  0.77336536  0.51213247  1
  Cl  Cl6  1  0.92487494  0.89418656  0.30183166  1
  Cl  Cl7  1  0.92179188  0.61604923  0.66242008  1
  Cl  Cl8  1  0.91863230  0.22663464  0.98786753  1
  Cl  Cl9  1  0.37352111  0.68985246  0.57999810  1
  Cl  Cl10  1  0.62647889  0.31014754  0.42000190  1
  Cl  Cl11  1  0.92179188  0.38395077  0.83757992  1
  Cl  Cl12  1  0.37352111  0.31014754  0.92000190  1
  Cl  Cl13  1  0.07512506  0.10581344  0.69816834  1
  Cl  Cl14  1  0.62647889  0.68985246  0.07999810  1
  Cl  Cl15  1  0.08136770  0.77336536  0.01213247  1
  Cl  Cl16  1  0.07820812  0.61604923  0.16242008  1
  Cl  Cl17  1  0.07512506  0.89418656  0.80183166  1
  Cl  Cl18  1  0.92487494  0.10581344  0.19816834  1
  Cl  Cl19  1  0.08136770  0.22663464  0.48786753  1
