# generated using pymatgen
data_CdI2
_symmetry_space_group_name_H-M   'P 1'
_cell_length_a   4.33473600
_cell_length_b   4.33473626
_cell_length_c   45.13488808
_cell_angle_alpha   90.00000000
_cell_angle_beta   90.00000000
_cell_angle_gamma   119.99999798
_symmetry_Int_Tables_number   1
_chemical_formula_structural   CdI2
_chemical_formula_sum   'Cd6 I12'
_cell_volume   734.46032780
_cell_formula_units_Z   6
loop_
 _symmetry_equiv_pos_site_id
 _symmetry_equiv_pos_as_xyz
  1  'x, y, z'
loop_
 _atom_site_type_symbol
 _atom_site_label
 _atom_site_symmetry_multiplicity
 _atom_site_fract_x
 _atom_site_fract_y
 _atom_site_fract_z
 _atom_site_occupancy
  Cd  Cd0  1  0.00000000  0.00000000  0.54299887  1
  Cd  Cd1  1  0.66666700  0.33333300  0.04169147  1
  Cd  Cd2  1  0.00000000  0.00000000  0.70861276  1
  Cd  Cd3  1  0.66666700  0.33333300  0.37502597  1
  Cd  Cd4  1  0.00000000  0.00000000  0.20828541  1
  Cd  Cd5  1  0.00000000  0.00000000  0.87501234  1
  I  I6  1  0.33333300  0.66666700  0.07987443  1
  I  I7  1  0.33333300  0.66666700  0.41320507  1
  I  I8  1  0.66666700  0.33333300  0.67046856  1
  I  I9  1  0.33333300  0.66666700  0.74679064  1
  I  I10  1  0.33333300  0.66666700  0.91317979  1
  I  I11  1  0.00000000  0.00000000  0.33685219  1
  I  I12  1  0.00000000  0.00000000  0.00353493  1
  I  I13  1  0.66666700  0.33333300  0.83688084  1
  I  I14  1  0.66666700  0.33333300  0.50478831  1
  I  I15  1  0.33333300  0.66666700  0.58120178  1
  I  I16  1  0.33333300  0.66666700  0.24645425  1
  I  I17  1  0.66666700  0.33333300  0.17014241  1
