# generated using pymatgen
data_AlHg2SbCl4
_symmetry_space_group_name_H-M   'P 1'
_cell_length_a   8.98027482
_cell_length_b   12.47018334
_cell_length_c   18.04540446
_cell_angle_alpha   90.00000000
_cell_angle_beta   90.00000000
_cell_angle_gamma   90.00000000
_symmetry_Int_Tables_number   1
_chemical_formula_structural   AlHg2SbCl4
_chemical_formula_sum   'Al8 Hg16 Sb8 Cl32'
_cell_volume   2020.82677111
_cell_formula_units_Z   8
loop_
 _symmetry_equiv_pos_site_id
 _symmetry_equiv_pos_as_xyz
  1  'x, y, z'
loop_
 _atom_site_type_symbol
 _atom_site_label
 _atom_site_symmetry_multiplicity
 _atom_site_fract_x
 _atom_site_fract_y
 _atom_site_fract_z
 _atom_site_occupancy
  Al  Al0  1  0.16725364  0.98919929  0.12205298  1
  Al  Al1  1  0.83837823  0.70912958  0.63398011  1
  Al  Al2  1  0.33274636  0.98919929  0.62205298  1
  Al  Al3  1  0.66725364  0.48919929  0.37794702  1
  Al  Al4  1  0.33837823  0.20912958  0.86601989  1
  Al  Al5  1  0.66162177  0.70912958  0.13398011  1
  Al  Al6  1  0.16162177  0.20912958  0.36601989  1
  Al  Al7  1  0.83274636  0.48919929  0.87794702  1
  Hg  Hg8  1  0.42030587  0.33388306  0.12419736  1
  Hg  Hg9  1  0.75503531  0.10028624  0.49313752  1
  Hg  Hg10  1  0.92078757  0.36189311  0.12115057  1
  Hg  Hg11  1  0.25503531  0.60028624  0.00686248  1
  Hg  Hg12  1  0.57969413  0.83388306  0.87580264  1
  Hg  Hg13  1  0.07969413  0.33388306  0.62419736  1
  Hg  Hg14  1  0.79634574  0.09633515  0.74393857  1
  Hg  Hg15  1  0.24496469  0.60028624  0.50686248  1
  Hg  Hg16  1  0.57921243  0.36189311  0.62115057  1
  Hg  Hg17  1  0.29634574  0.59633515  0.75606143  1
  Hg  Hg18  1  0.70365426  0.09633515  0.24393857  1
  Hg  Hg19  1  0.92030587  0.83388306  0.37580264  1
  Hg  Hg20  1  0.20365426  0.59633515  0.25606143  1
  Hg  Hg21  1  0.74496469  0.10028624  0.99313752  1
  Hg  Hg22  1  0.42078757  0.86189311  0.37884943  1
  Hg  Hg23  1  0.07921243  0.86189311  0.87884943  1
  Sb  Sb24  1  0.81590897  0.22120167  0.61829660  1
  Sb  Sb25  1  0.68409103  0.22120167  0.11829660  1
  Sb  Sb26  1  0.18409103  0.72120167  0.38170340  1
  Sb  Sb27  1  0.31455411  0.47524371  0.62866039  1
  Sb  Sb28  1  0.68544589  0.97524371  0.37133961  1
  Sb  Sb29  1  0.31590897  0.72120167  0.88170340  1
  Sb  Sb30  1  0.18544589  0.47524371  0.12866039  1
  Sb  Sb31  1  0.81455411  0.97524371  0.87133961  1
  Cl  Cl32  1  0.31046024  0.33735748  0.94556100  1
  Cl  Cl33  1  0.12597046  0.84728365  0.05586219  1
  Cl  Cl34  1  0.14117814  0.19247395  0.79967100  1
  Cl  Cl35  1  0.57333231  0.62736811  0.43468669  1
  Cl  Cl36  1  0.07333231  0.12736811  0.06531331  1
  Cl  Cl37  1  0.47403341  0.74850408  0.20463172  1
  Cl  Cl38  1  0.94271029  0.46863952  0.77281162  1
  Cl  Cl39  1  0.59893667  0.51662900  0.86493638  1
  Cl  Cl40  1  0.88586683  0.56252240  0.57402676  1
  Cl  Cl41  1  0.18953976  0.33735748  0.44556100  1
  Cl  Cl42  1  0.44271029  0.96863952  0.72718838  1
  Cl  Cl43  1  0.42666769  0.12736811  0.56531331  1
  Cl  Cl44  1  0.62597046  0.34728365  0.44413781  1
  Cl  Cl45  1  0.09893667  0.01662900  0.63506362  1
  Cl  Cl46  1  0.64117814  0.69247395  0.70032900  1
  Cl  Cl47  1  0.85882186  0.69247395  0.20032900  1
  Cl  Cl48  1  0.87402954  0.34728365  0.94413781  1
  Cl  Cl49  1  0.61413317  0.56252240  0.07402676  1
  Cl  Cl50  1  0.40106333  0.01662900  0.13506362  1
  Cl  Cl51  1  0.37402954  0.84728365  0.55586219  1
  Cl  Cl52  1  0.90106333  0.51662900  0.36493638  1
  Cl  Cl53  1  0.55728971  0.46863952  0.27281162  1
  Cl  Cl54  1  0.05728971  0.96863952  0.22718838  1
  Cl  Cl55  1  0.35882186  0.19247395  0.29967100  1
  Cl  Cl56  1  0.52596659  0.24850408  0.79536828  1
  Cl  Cl57  1  0.92666769  0.62736811  0.93468669  1
  Cl  Cl58  1  0.81046024  0.83735748  0.55443900  1
  Cl  Cl59  1  0.11413317  0.06252240  0.42597324  1
  Cl  Cl60  1  0.38586683  0.06252240  0.92597324  1
  Cl  Cl61  1  0.68953976  0.83735748  0.05443900  1
  Cl  Cl62  1  0.97403341  0.24850408  0.29536828  1
  Cl  Cl63  1  0.02596659  0.74850408  0.70463172  1
