# generated using pymatgen
data_Be(GaO2)2
_symmetry_space_group_name_H-M   'P 1'
_cell_length_a   5.88376557
_cell_length_b   12.17599884
_cell_length_c   5.14158673
_cell_angle_alpha   89.02819100
_cell_angle_beta   90.14673243
_cell_angle_gamma   118.80413634
_symmetry_Int_Tables_number   1
_chemical_formula_structural   Be(GaO2)2
_chemical_formula_sum   'Be4 Ga8 O16'
_cell_volume   322.71907071
_cell_formula_units_Z   4
loop_
 _symmetry_equiv_pos_site_id
 _symmetry_equiv_pos_as_xyz
  1  'x, y, z'
loop_
 _atom_site_type_symbol
 _atom_site_label
 _atom_site_symmetry_multiplicity
 _atom_site_fract_x
 _atom_site_fract_y
 _atom_site_fract_z
 _atom_site_occupancy
  Be  Be0  1  0.68029902  0.91059543  0.82900692  1
  Be  Be1  1  0.16270580  0.42146605  0.82675970  1
  Be  Be2  1  0.85471080  0.58716369  0.17000020  1
  Be  Be3  1  0.31977737  0.08205642  0.17344047  1
  Ga  Ga4  1  0.21394308  0.93732792  0.68240451  1
  Ga  Ga5  1  0.16479233  0.67040533  0.67510719  1
  Ga  Ga6  1  0.34052866  0.56730704  0.31814647  1
  Ga  Ga7  1  0.13465641  0.17122884  0.83399240  1
  Ga  Ga8  1  0.83249109  0.82997774  0.32530385  1
  Ga  Ga9  1  0.65801480  0.42509617  0.66946990  1
  Ga  Ga10  1  0.80268999  0.32948718  0.16680222  1
  Ga  Ga11  1  0.80052892  0.07135513  0.32918175  1
  O  O12  1  0.19517404  0.94560984  0.31372419  1
  O  O13  1  0.14625702  0.65638601  0.30210328  1
  O  O14  1  0.36823053  0.83779270  0.75093439  1
  O  O15  1  0.30485021  0.55794898  0.68668393  1
  O  O16  1  0.16815572  0.42010651  0.14989892  1
  O  O17  1  0.69417795  0.91901476  0.15162830  1
  O  O18  1  0.14112033  0.15763764  0.20305298  1
  O  O19  1  0.30017194  0.33799071  0.73070496  1
  O  O20  1  0.69390356  0.66221909  0.25061528  1
  O  O21  1  0.84108744  0.84526058  0.69716350  1
  O  O22  1  0.32579115  0.08348731  0.85123775  1
  O  O23  1  0.84977746  0.57839588  0.84695764  1
  O  O24  1  0.70250425  0.44098504  0.30623062  1
  O  O25  1  0.62472918  0.16293815  0.26945401  1
  O  O26  1  0.83342605  0.34220923  0.79744106  1
  O  O27  1  0.81347890  0.05734460  0.69330864  1
