# generated using pymatgen
data_RbNb3VCl11
_symmetry_space_group_name_H-M   'P 1'
_cell_length_a   6.89598033
_cell_length_b   13.65287502
_cell_length_c   17.24663213
_cell_angle_alpha   90.00000000
_cell_angle_beta   90.00000000
_cell_angle_gamma   90.00000000
_symmetry_Int_Tables_number   1
_chemical_formula_structural   RbNb3VCl11
_chemical_formula_sum   'Rb4 Nb12 V4 Cl44'
_cell_volume   1623.76968354
_cell_formula_units_Z   4
loop_
 _symmetry_equiv_pos_site_id
 _symmetry_equiv_pos_as_xyz
  1  'x, y, z'
loop_
 _atom_site_type_symbol
 _atom_site_label
 _atom_site_symmetry_multiplicity
 _atom_site_fract_x
 _atom_site_fract_y
 _atom_site_fract_z
 _atom_site_occupancy
  Rb  Rb0  1  0.25000000  0.00684045  0.23870464  1
  Rb  Rb1  1  0.75000000  0.99315955  0.76129536  1
  Rb  Rb2  1  0.75000000  0.49315955  0.73870464  1
  Rb  Rb3  1  0.25000000  0.50684045  0.26129536  1
  Nb  Nb4  1  0.75000000  0.69049143  0.14679495  1
  Nb  Nb5  1  0.45590238  0.75262268  0.51266017  1
  Nb  Nb6  1  0.25000000  0.80950857  0.64679495  1
  Nb  Nb7  1  0.95590238  0.24737732  0.48733983  1
  Nb  Nb8  1  0.54409762  0.24737732  0.48733983  1
  Nb  Nb9  1  0.04409762  0.25262268  0.98733983  1
  Nb  Nb10  1  0.75000000  0.19049143  0.35320505  1
  Nb  Nb11  1  0.45590238  0.25262268  0.98733983  1
  Nb  Nb12  1  0.04409762  0.75262268  0.51266017  1
  Nb  Nb13  1  0.25000000  0.30950857  0.85320505  1
  Nb  Nb14  1  0.54409762  0.74737732  0.01266017  1
  Nb  Nb15  1  0.95590238  0.74737732  0.01266017  1
  V  V16  1  0.75000000  0.18138832  0.16402211  1
  V  V17  1  0.25000000  0.81861168  0.83597789  1
  V  V18  1  0.75000000  0.68138832  0.33597789  1
  V  V19  1  0.25000000  0.31861168  0.66402211  1
  Cl  Cl20  1  0.49792515  0.61060652  0.41889491  1
  Cl  Cl21  1  0.25000000  0.82186515  0.08410848  1
  Cl  Cl22  1  0.75000000  0.65862579  0.91945374  1
  Cl  Cl23  1  0.25000000  0.64307348  0.59037110  1
  Cl  Cl24  1  0.25000000  0.67794018  0.92758445  1
  Cl  Cl25  1  0.50435654  0.58989923  0.08095940  1
  Cl  Cl26  1  0.25000000  0.84137421  0.41945374  1
  Cl  Cl27  1  0.99564346  0.08989923  0.41904060  1
  Cl  Cl28  1  0.75000000  0.85692652  0.09037110  1
  Cl  Cl29  1  0.98914373  0.75413775  0.24702544  1
  Cl  Cl30  1  0.51085627  0.25413775  0.25297456  1
  Cl  Cl31  1  0.75000000  0.82205982  0.42758445  1
  Cl  Cl32  1  0.49792515  0.11060652  0.08110509  1
  Cl  Cl33  1  0.00207485  0.11060652  0.08110509  1
  Cl  Cl34  1  0.01085627  0.74586225  0.74702544  1
  Cl  Cl35  1  0.25000000  0.14307348  0.90962890  1
  Cl  Cl36  1  0.01085627  0.24586225  0.75297456  1
  Cl  Cl37  1  0.25000000  0.34137421  0.08054626  1
  Cl  Cl38  1  0.75000000  0.54302503  0.24622417  1
  Cl  Cl39  1  0.50435654  0.08989923  0.41904060  1
  Cl  Cl40  1  0.48914373  0.24586225  0.75297456  1
  Cl  Cl41  1  0.25000000  0.45697497  0.75377583  1
  Cl  Cl42  1  0.75000000  0.32205982  0.07241555  1
  Cl  Cl43  1  0.48914373  0.74586225  0.74702544  1
  Cl  Cl44  1  0.00207485  0.61060652  0.41889491  1
  Cl  Cl45  1  0.75000000  0.67813485  0.58410848  1
  Cl  Cl46  1  0.75000000  0.17813485  0.91589152  1
  Cl  Cl47  1  0.49564346  0.91010077  0.58095940  1
  Cl  Cl48  1  0.00435654  0.91010077  0.58095940  1
  Cl  Cl49  1  0.99564346  0.58989923  0.08095940  1
  Cl  Cl50  1  0.51085627  0.75413775  0.24702544  1
  Cl  Cl51  1  0.25000000  0.17794018  0.57241555  1
  Cl  Cl52  1  0.25000000  0.32186515  0.41589152  1
  Cl  Cl53  1  0.99792515  0.38939348  0.58110509  1
  Cl  Cl54  1  0.75000000  0.15862579  0.58054626  1
  Cl  Cl55  1  0.00435654  0.41010077  0.91904060  1
  Cl  Cl56  1  0.98914373  0.25413775  0.25297456  1
  Cl  Cl57  1  0.25000000  0.95697497  0.74622417  1
  Cl  Cl58  1  0.50207485  0.88939348  0.91889491  1
  Cl  Cl59  1  0.75000000  0.04302503  0.25377583  1
  Cl  Cl60  1  0.50207485  0.38939348  0.58110509  1
  Cl  Cl61  1  0.99792515  0.88939348  0.91889491  1
  Cl  Cl62  1  0.49564346  0.41010077  0.91904060  1
  Cl  Cl63  1  0.75000000  0.35692652  0.40962890  1
