# generated using pymatgen
data_CdI2
_symmetry_space_group_name_H-M   'P 1'
_cell_length_a   4.33379758
_cell_length_b   4.33379785
_cell_length_c   45.35168921
_cell_angle_alpha   90.00000000
_cell_angle_beta   90.00000000
_cell_angle_gamma   119.99999795
_symmetry_Int_Tables_number   1
_chemical_formula_structural   CdI2
_chemical_formula_sum   'Cd6 I12'
_cell_volume   737.66874186
_cell_formula_units_Z   6
loop_
 _symmetry_equiv_pos_site_id
 _symmetry_equiv_pos_as_xyz
  1  'x, y, z'
loop_
 _atom_site_type_symbol
 _atom_site_label
 _atom_site_symmetry_multiplicity
 _atom_site_fract_x
 _atom_site_fract_y
 _atom_site_fract_z
 _atom_site_occupancy
  Cd  Cd0  1  0.33333300  0.66666700  0.54156199  1
  Cd  Cd1  1  0.33333300  0.66666700  0.37494793  1
  Cd  Cd2  1  0.00000000  0.00000000  0.70836063  1
  Cd  Cd3  1  0.66666700  0.33333300  0.04176369  1
  Cd  Cd4  1  0.00000000  0.00000000  0.20834759  1
  Cd  Cd5  1  0.00000000  0.00000000  0.87501579  1
  I  I6  1  0.33333300  0.66666700  0.07973630  1
  I  I7  1  0.00000000  0.00000000  0.57953399  1
  I  I8  1  0.66666700  0.33333300  0.83702245  1
  I  I9  1  0.33333300  0.66666700  0.91300634  1
  I  I10  1  0.66666700  0.33333300  0.33697830  1
  I  I11  1  0.33333300  0.66666700  0.74635285  1
  I  I12  1  0.00000000  0.00000000  0.41293544  1
  I  I13  1  0.00000000  0.00000000  0.00377199  1
  I  I14  1  0.66666700  0.33333300  0.67037796  1
  I  I15  1  0.66666700  0.33333300  0.50358323  1
  I  I16  1  0.33333300  0.66666700  0.24633538  1
  I  I17  1  0.66666700  0.33333300  0.17036814  1
