# generated using pymatgen
data_CdI2
_symmetry_space_group_name_H-M   'P 1'
_cell_length_a   4.33181388
_cell_length_b   4.33181414
_cell_length_c   74.82742339
_cell_angle_alpha   90.00000000
_cell_angle_beta   90.00000000
_cell_angle_gamma   119.99999798
_symmetry_Int_Tables_number   1
_chemical_formula_structural   CdI2
_chemical_formula_sum   'Cd10 I20'
_cell_volume   1215.99288858
_cell_formula_units_Z   10
loop_
 _symmetry_equiv_pos_site_id
 _symmetry_equiv_pos_as_xyz
  1  'x, y, z'
loop_
 _atom_site_type_symbol
 _atom_site_label
 _atom_site_symmetry_multiplicity
 _atom_site_fract_x
 _atom_site_fract_y
 _atom_site_fract_z
 _atom_site_occupancy
  Cd  Cd0  1  0.00000000  0.00000000  0.92498519  1
  Cd  Cd1  1  0.00000000  0.00000000  0.72502181  1
  Cd  Cd2  1  0.00000000  0.00000000  0.42498616  1
  Cd  Cd3  1  0.66666700  0.33333300  0.02499784  1
  Cd  Cd4  1  0.00000000  0.00000000  0.22502159  1
  Cd  Cd5  1  0.00000000  0.00000000  0.32500082  1
  Cd  Cd6  1  0.00000000  0.00000000  0.52497841  1
  Cd  Cd7  1  0.00000000  0.00000000  0.12500415  1
  Cd  Cd8  1  0.00000000  0.00000000  0.82500707  1
  Cd  Cd9  1  0.00000000  0.00000000  0.62500035  1
  I  I10  1  0.33333300  0.66666700  0.44806213  1
  I  I11  1  0.33333300  0.66666700  0.34806867  1
  I  I12  1  0.66666700  0.33333300  0.10193027  1
  I  I13  1  0.66666700  0.33333300  0.90191694  1
  I  I14  1  0.33333300  0.66666700  0.94806037  1
  I  I15  1  0.66666700  0.33333300  0.70194176  1
  I  I16  1  0.66666700  0.33333300  0.80193414  1
  I  I17  1  0.33333300  0.66666700  0.04806930  1
  I  I18  1  0.66666700  0.33333300  0.60192759  1
  I  I19  1  0.00000000  0.00000000  0.00191485  1
  I  I20  1  0.33333300  0.66666700  0.54806013  1
  I  I21  1  0.66666700  0.33333300  0.30192966  1
  I  I22  1  0.33333300  0.66666700  0.14807702  1
  I  I23  1  0.66666700  0.33333300  0.40191723  1
  I  I24  1  0.33333300  0.66666700  0.24809705  1
  I  I25  1  0.66666700  0.33333300  0.50190049  1
  I  I26  1  0.33333300  0.66666700  0.84807538  1
  I  I27  1  0.33333300  0.66666700  0.64807348  1
  I  I28  1  0.66666700  0.33333300  0.20194200  1
  I  I29  1  0.33333300  0.66666700  0.74809813  1
