# generated using pymatgen
data_CdI2
_symmetry_space_group_name_H-M   'P 1'
_cell_length_a   4.33837376
_cell_length_b   4.33837403
_cell_length_c   65.07854809
_cell_angle_alpha   90.00000000
_cell_angle_beta   90.00000000
_cell_angle_gamma   119.99999793
_symmetry_Int_Tables_number   1
_chemical_formula_structural   CdI2
_chemical_formula_sum   'Cd8 I16'
_cell_volume   1060.77298865
_cell_formula_units_Z   8
loop_
 _symmetry_equiv_pos_site_id
 _symmetry_equiv_pos_as_xyz
  1  'x, y, z'
loop_
 _atom_site_type_symbol
 _atom_site_label
 _atom_site_symmetry_multiplicity
 _atom_site_fract_x
 _atom_site_fract_y
 _atom_site_fract_z
 _atom_site_occupancy
  Cd  Cd0  1  0.00000000  0.00000000  0.15633604  1
  Cd  Cd1  1  0.33333300  0.66666700  0.28138973  1
  Cd  Cd2  1  0.33333300  0.66666700  0.03143910  1
  Cd  Cd3  1  0.00000000  0.00000000  0.78126216  1
  Cd  Cd4  1  0.00000000  0.00000000  0.65631937  1
  Cd  Cd5  1  0.00000000  0.00000000  0.40624643  1
  Cd  Cd6  1  0.33333300  0.66666700  0.90643205  1
  Cd  Cd7  1  0.66666700  0.33333300  0.53125980  1
  I  I8  1  0.33333300  0.66666700  0.62992518  1
  I  I9  1  0.66666700  0.33333300  0.18272981  1
  I  I10  1  0.33333300  0.66666700  0.75486944  1
  I  I11  1  0.66666700  0.33333300  0.43264309  1
  I  I12  1  0.66666700  0.33333300  0.80765226  1
  I  I13  1  0.00000000  0.00000000  0.55765511  1
  I  I14  1  0.66666700  0.33333300  0.68271698  1
  I  I15  1  0.66666700  0.33333300  0.30777183  1
  I  I16  1  0.66666700  0.33333300  0.93281879  1
  I  I17  1  0.00000000  0.00000000  0.00503549  1
  I  I18  1  0.33333300  0.66666700  0.37984933  1
  I  I19  1  0.33333300  0.66666700  0.12993803  1
  I  I20  1  0.00000000  0.00000000  0.88002905  1
  I  I21  1  0.33333300  0.66666700  0.50486403  1
  I  I22  1  0.00000000  0.00000000  0.25498602  1
  I  I23  1  0.66666700  0.33333300  0.05783088  1
