# generated using pymatgen
data_CdI2
_symmetry_space_group_name_H-M   'P 1'
_cell_length_a   4.33298933
_cell_length_b   4.33298960
_cell_length_c   60.15454657
_cell_angle_alpha   90.00000000
_cell_angle_beta   90.00000000
_cell_angle_gamma   119.99999803
_symmetry_Int_Tables_number   1
_chemical_formula_structural   CdI2
_chemical_formula_sum   'Cd8 I16'
_cell_volume   978.07996703
_cell_formula_units_Z   8
loop_
 _symmetry_equiv_pos_site_id
 _symmetry_equiv_pos_as_xyz
  1  'x, y, z'
loop_
 _atom_site_type_symbol
 _atom_site_label
 _atom_site_symmetry_multiplicity
 _atom_site_fract_x
 _atom_site_fract_y
 _atom_site_fract_z
 _atom_site_occupancy
  Cd  Cd0  1  0.66666700  0.33333300  0.90622315  1
  Cd  Cd1  1  0.66666700  0.33333300  0.78128861  1
  Cd  Cd2  1  0.66666700  0.33333300  0.53128063  1
  Cd  Cd3  1  0.66666700  0.33333300  0.28128990  1
  Cd  Cd4  1  0.00000000  0.00000000  0.15620386  1
  Cd  Cd5  1  0.66666700  0.33333300  0.03127956  1
  Cd  Cd6  1  0.66666700  0.33333300  0.65622445  1
  Cd  Cd7  1  0.66666700  0.33333300  0.40623990  1
  I  I8  1  0.33333300  0.66666700  0.80997254  1
  I  I9  1  0.00000000  0.00000000  0.00258430  1
  I  I10  1  0.33333300  0.66666700  0.55996469  1
  I  I11  1  0.00000000  0.00000000  0.25259278  1
  I  I12  1  0.00000000  0.00000000  0.37754558  1
  I  I13  1  0.33333300  0.66666700  0.05996238  1
  I  I14  1  0.66666700  0.33333300  0.12751654  1
  I  I15  1  0.33333300  0.66666700  0.43492349  1
  I  I16  1  0.33333300  0.66666700  0.18489151  1
  I  I17  1  0.00000000  0.00000000  0.62752527  1
  I  I18  1  0.33333300  0.66666700  0.30997409  1
  I  I19  1  0.33333300  0.66666700  0.93490739  1
  I  I20  1  0.00000000  0.00000000  0.75259152  1
  I  I21  1  0.00000000  0.00000000  0.87752470  1
  I  I22  1  0.33333300  0.66666700  0.68490848  1
  I  I23  1  0.00000000  0.00000000  0.50258470  1
