# generated using pymatgen
data_CdI2
_symmetry_space_group_name_H-M   'P 1'
_cell_length_a   4.33656390
_cell_length_b   4.33656417
_cell_length_c   122.10049337
_cell_angle_alpha   90.00000000
_cell_angle_beta   90.00000000
_cell_angle_gamma   119.99999797
_symmetry_Int_Tables_number   1
_chemical_formula_structural   CdI2
_chemical_formula_sum   'Cd16 I32'
_cell_volume   1988.56406185
_cell_formula_units_Z   16
loop_
 _symmetry_equiv_pos_site_id
 _symmetry_equiv_pos_as_xyz
  1  'x, y, z'
loop_
 _atom_site_type_symbol
 _atom_site_label
 _atom_site_symmetry_multiplicity
 _atom_site_fract_x
 _atom_site_fract_y
 _atom_site_fract_z
 _atom_site_occupancy
  Cd  Cd0  1  0.33333300  0.66666700  0.45314641  1
  Cd  Cd1  1  0.66666700  0.33333300  0.14058492  1
  Cd  Cd2  1  0.33333300  0.66666700  0.20314660  1
  Cd  Cd3  1  0.33333300  0.66666700  0.70314831  1
  Cd  Cd4  1  0.00000000  0.00000000  0.89065046  1
  Cd  Cd5  1  0.00000000  0.00000000  0.76565112  1
  Cd  Cd6  1  0.66666700  0.33333300  0.01560188  1
  Cd  Cd7  1  0.66666700  0.33333300  0.39059088  1
  Cd  Cd8  1  0.66666700  0.33333300  0.64059165  1
  Cd  Cd9  1  0.33333300  0.66666700  0.57814784  1
  Cd  Cd10  1  0.33333300  0.66666700  0.07814744  1
  Cd  Cd11  1  0.66666700  0.33333300  0.51559291  1
  Cd  Cd12  1  0.33333300  0.66666700  0.95314840  1
  Cd  Cd13  1  0.66666700  0.33333300  0.26558709  1
  Cd  Cd14  1  0.33333300  0.66666700  0.32814685  1
  Cd  Cd15  1  0.33333300  0.66666700  0.82814854  1
  I  I16  1  0.66666700  0.33333300  0.90473260  1
  I  I17  1  0.33333300  0.66666700  0.02968684  1
  I  I18  1  0.00000000  0.00000000  0.56405665  1
  I  I19  1  0.33333300  0.66666700  0.52967856  1
  I  I20  1  0.66666700  0.33333300  0.21723993  1
  I  I21  1  0.00000000  0.00000000  0.31405585  1
  I  I22  1  0.66666700  0.33333300  0.77973295  1
  I  I23  1  0.00000000  0.00000000  0.43905594  1
  I  I24  1  0.66666700  0.33333300  0.96724380  1
  I  I25  1  0.00000000  0.00000000  0.93905565  1
  I  I26  1  0.33333300  0.66666700  0.15467121  1
  I  I27  1  0.00000000  0.00000000  0.68905714  1
  I  I28  1  0.66666700  0.33333300  0.34223953  1
  I  I29  1  0.66666700  0.33333300  0.84224066  1
  I  I30  1  0.00000000  0.00000000  0.12649703  1
  I  I31  1  0.66666700  0.33333300  0.71724017  1
  I  I32  1  0.66666700  0.33333300  0.09224172  1
  I  I33  1  0.00000000  0.00000000  0.37650277  1
  I  I34  1  0.00000000  0.00000000  0.18905539  1
  I  I35  1  0.33333300  0.66666700  0.87656164  1
  I  I36  1  0.66666700  0.33333300  0.59224168  1
  I  I37  1  0.00000000  0.00000000  0.06405590  1
  I  I38  1  0.00000000  0.00000000  0.62650371  1
  I  I39  1  0.33333300  0.66666700  0.75156206  1
  I  I40  1  0.00000000  0.00000000  0.81405641  1
  I  I41  1  0.33333300  0.66666700  0.27967324  1
  I  I42  1  0.33333300  0.66666700  0.40467606  1
  I  I43  1  0.00000000  0.00000000  0.50150443  1
  I  I44  1  0.66666700  0.33333300  0.46723909  1
  I  I45  1  0.00000000  0.00000000  0.00151394  1
  I  I46  1  0.33333300  0.66666700  0.65467692  1
  I  I47  1  0.00000000  0.00000000  0.25149923  1
