# generated using pymatgen
data_Cd2GeAs4
_symmetry_space_group_name_H-M   'P 1'
_cell_length_a   7.37476901
_cell_length_b   7.55532497
_cell_length_c   12.93373317
_cell_angle_alpha   90.00000000
_cell_angle_beta   90.00000000
_cell_angle_gamma   90.00000000
_symmetry_Int_Tables_number   1
_chemical_formula_structural   Cd2GeAs4
_chemical_formula_sum   'Cd8 Ge4 As16'
_cell_volume   720.65178715
_cell_formula_units_Z   4
loop_
 _symmetry_equiv_pos_site_id
 _symmetry_equiv_pos_as_xyz
  1  'x, y, z'
loop_
 _atom_site_type_symbol
 _atom_site_label
 _atom_site_symmetry_multiplicity
 _atom_site_fract_x
 _atom_site_fract_y
 _atom_site_fract_z
 _atom_site_occupancy
  Ge  Ge0  1  0.91806958  0.75000000  0.08109972  1
  Ge  Ge1  1  0.41806958  0.75000000  0.41890028  1
  Ge  Ge2  1  0.08193042  0.25000000  0.91890028  1
  Ge  Ge3  1  0.58193042  0.25000000  0.58109972  1
  As  As4  1  0.40841319  0.25000000  0.96143295  1
  As  As5  1  0.45603613  0.51202121  0.67458555  1
  As  As6  1  0.04396387  0.48797879  0.17458555  1
  As  As7  1  0.54396387  0.01202121  0.32541445  1
  As  As8  1  0.90841319  0.25000000  0.53856705  1
  As  As9  1  0.61232398  0.75000000  0.57754760  1
  As  As10  1  0.09158681  0.75000000  0.46143295  1
  As  As11  1  0.59158681  0.75000000  0.03856705  1
  As  As12  1  0.38767602  0.25000000  0.42245240  1
  As  As13  1  0.88767602  0.25000000  0.07754760  1
  As  As14  1  0.04396387  0.01202121  0.17458555  1
  As  As15  1  0.11232398  0.75000000  0.92245240  1
  As  As16  1  0.45603613  0.98797879  0.67458555  1
  As  As17  1  0.54396387  0.48797879  0.32541445  1
  As  As18  1  0.95603613  0.51202121  0.82541445  1
  As  As19  1  0.95603613  0.98797879  0.82541445  1
  Cd  Cd20  1  0.59417091  0.97628923  0.86957609  1
  Cd  Cd21  1  0.09417091  0.52371077  0.63042391  1
  Cd  Cd22  1  0.40582909  0.47628923  0.13042391  1
  Cd  Cd23  1  0.90582909  0.02371077  0.36957609  1
  Cd  Cd24  1  0.09417091  0.97628923  0.63042391  1
  Cd  Cd25  1  0.59417091  0.52371077  0.86957609  1
  Cd  Cd26  1  0.90582909  0.47628923  0.36957609  1
  Cd  Cd27  1  0.40582909  0.02371077  0.13042391  1
