# generated using pymatgen
data_SiC
_symmetry_space_group_name_H-M   'P 1'
_cell_length_a   3.09416321
_cell_length_b   3.09416314
_cell_length_c   98.70974130
_cell_angle_alpha   90.00000000
_cell_angle_beta   90.00000000
_cell_angle_gamma   120.00000060
_symmetry_Int_Tables_number   1
_chemical_formula_structural   SiC
_chemical_formula_sum   'Si39 C39'
_cell_volume   818.42157485
_cell_formula_units_Z   39
loop_
 _symmetry_equiv_pos_site_id
 _symmetry_equiv_pos_as_xyz
  1  'x, y, z'
loop_
 _atom_site_type_symbol
 _atom_site_label
 _atom_site_symmetry_multiplicity
 _atom_site_fract_x
 _atom_site_fract_y
 _atom_site_fract_z
 _atom_site_occupancy
  Si  Si0  1  0.33333300  0.66666700  0.17949272  1
  Si  Si1  1  0.00000000  0.00000000  0.79484448  1
  Si  Si2  1  0.33333300  0.66666700  0.61538717  1
  Si  Si3  1  0.66666700  0.33333300  0.46154136  1
  Si  Si4  1  0.33333300  0.66666700  0.97435111  1
  Si  Si5  1  0.33333300  0.66666700  0.76922665  1
  Si  Si6  1  0.00000000  0.00000000  0.53846486  1
  Si  Si7  1  0.33333300  0.66666700  0.56409123  1
  Si  Si8  1  0.33333300  0.66666700  0.92306924  1
  Si  Si9  1  0.00000000  0.00000000  0.15384108  1
  Si  Si10  1  0.66666700  0.33333300  0.05125924  1
  Si  Si11  1  0.00000000  0.00000000  0.89744292  1
  Si  Si12  1  0.66666700  0.33333300  0.41024738  1
  Si  Si13  1  0.33333300  0.66666700  0.33333200  1
  Si  Si14  1  0.33333300  0.66666700  0.43588538  1
  Si  Si15  1  0.00000000  0.00000000  0.84613569  1
  Si  Si16  1  0.33333300  0.66666700  0.51279561  1
  Si  Si17  1  0.66666700  0.33333300  0.82050267  1
  Si  Si18  1  0.00000000  0.00000000  0.48715462  1
  Si  Si19  1  0.66666700  0.33333300  0.58973238  1
  Si  Si20  1  0.00000000  0.00000000  0.69231319  1
  Si  Si21  1  0.66666700  0.33333300  0.25640833  1
  Si  Si22  1  0.66666700  0.33333300  0.74358110  1
  Si  Si23  1  0.66666700  0.33333300  0.20510553  1
  Si  Si24  1  0.33333300  0.66666700  0.71793025  1
  Si  Si25  1  0.33333300  0.66666700  0.02564342  1
  Si  Si26  1  0.00000000  0.00000000  0.23076310  1
  Si  Si27  1  0.00000000  0.00000000  0.64100568  1
  Si  Si28  1  0.33333300  0.66666700  0.12818277  1
  Si  Si29  1  0.33333300  0.66666700  0.87176861  1
  Si  Si30  1  0.00000000  0.00000000  0.07691041  1
  Si  Si31  1  0.66666700  0.33333300  0.35894802  1
  Si  Si32  1  0.00000000  0.00000000  0.30767969  1
  Si  Si33  1  0.66666700  0.33333300  0.10256037  1
  Si  Si34  1  0.00000000  0.00000000  0.99999138  1
  Si  Si35  1  0.66666700  0.33333300  0.66666132  1
  Si  Si36  1  0.66666700  0.33333300  0.94871175  1
  Si  Si37  1  0.00000000  0.00000000  0.38461201  1
  Si  Si38  1  0.33333300  0.66666700  0.28201839  1
  C  C39  1  0.00000000  0.00000000  0.40389656  1
  C  C40  1  0.00000000  0.00000000  0.66023586  1
  C  C41  1  0.00000000  0.00000000  0.32696149  1
  C  C42  1  0.66666700  0.33333300  0.42946109  1
  C  C43  1  0.66666700  0.33333300  0.60902259  1
  C  C44  1  0.33333300  0.66666700  0.19872428  1
  C  C45  1  0.00000000  0.00000000  0.91671327  1
  C  C46  1  0.00000000  0.00000000  0.86535120  1
  C  C47  1  0.00000000  0.00000000  0.01927422  1
  C  C48  1  0.33333300  0.66666700  0.45518245  1
  C  C49  1  0.33333300  0.66666700  0.73716313  1
  C  C50  1  0.33333300  0.66666700  0.78847206  1
  C  C51  1  0.33333300  0.66666700  0.14741702  1
  C  C52  1  0.33333300  0.66666700  0.04486950  1
  C  C53  1  0.66666700  0.33333300  0.83978640  1
  C  C54  1  0.66666700  0.33333300  0.12180168  1
  C  C55  1  0.33333300  0.66666700  0.35256736  1
  C  C56  1  0.66666700  0.33333300  0.76286483  1
  C  C57  1  0.66666700  0.33333300  0.27564335  1
  C  C58  1  0.66666700  0.33333300  0.96799503  1
  C  C59  1  0.00000000  0.00000000  0.81407925  1
  C  C60  1  0.00000000  0.00000000  0.71153969  1
  C  C61  1  0.00000000  0.00000000  0.55773267  1
  C  C62  1  0.33333300  0.66666700  0.94228377  1
  C  C63  1  0.66666700  0.33333300  0.37818525  1
  C  C64  1  0.00000000  0.00000000  0.50638895  1
  C  C65  1  0.33333300  0.66666700  0.89104294  1
  C  C66  1  0.33333300  0.66666700  0.30125868  1
  C  C67  1  0.66666700  0.33333300  0.22433872  1
  C  C68  1  0.66666700  0.33333300  0.68594391  1
  C  C69  1  0.00000000  0.00000000  0.17312823  1
  C  C70  1  0.33333300  0.66666700  0.99356062  1
  C  C71  1  0.66666700  0.33333300  0.48077588  1
  C  C72  1  0.33333300  0.66666700  0.53206347  1
  C  C73  1  0.33333300  0.66666700  0.58330393  1
  C  C74  1  0.66666700  0.33333300  0.07049280  1
  C  C75  1  0.00000000  0.00000000  0.09619547  1
  C  C76  1  0.33333300  0.66666700  0.63462240  1
  C  C77  1  0.00000000  0.00000000  0.25004694  1
