# generated using pymatgen
data_NaAl3Tl2(SiO4)3
_symmetry_space_group_name_H-M   'P 1'
_cell_length_a   12.42000068
_cell_length_b   12.55092738
_cell_length_c   12.55092738
_cell_angle_alpha   90.00000000
_cell_angle_beta   90.00000000
_cell_angle_gamma   90.00000000
_symmetry_Int_Tables_number   1
_chemical_formula_structural   NaAl3Tl2(SiO4)3
_chemical_formula_sum   'Na4 Al12 Tl8 Si12 O48'
_cell_volume   1956.47027110
_cell_formula_units_Z   4
loop_
 _symmetry_equiv_pos_site_id
 _symmetry_equiv_pos_as_xyz
  1  'x, y, z'
loop_
 _atom_site_type_symbol
 _atom_site_label
 _atom_site_symmetry_multiplicity
 _atom_site_fract_x
 _atom_site_fract_y
 _atom_site_fract_z
 _atom_site_occupancy
  Na  Na0  1  0.56812118  0.00000000  0.39148730  1
  Na  Na1  1  0.56812118  0.39148730  0.00000000  1
  Na  Na2  1  0.56812118  0.00000000  0.60851270  1
  Na  Na3  1  0.56812118  0.60851270  0.00000000  1
  Al  Al4  1  0.18288871  0.00000000  0.62851013  1
  Al  Al5  1  0.18288871  0.37148987  0.00000000  1
  Al  Al6  1  0.18288871  0.62851013  0.00000000  1
  Al  Al7  1  0.18288871  0.00000000  0.37148987  1
  Al  Al8  1  0.63067877  0.00000000  0.18080012  1
  Al  Al9  1  0.63067877  0.18080012  0.00000000  1
  Al  Al10  1  0.63067877  0.00000000  0.81919988  1
  Al  Al11  1  0.63067877  0.81919988  0.00000000  1
  Al  Al12  1  0.82085938  0.00000000  0.62491563  1
  Al  Al13  1  0.82085938  0.62491563  0.00000000  1
  Al  Al14  1  0.82085938  0.37508437  0.00000000  1
  Al  Al15  1  0.82085938  0.00000000  0.37508437  1
  Tl  Tl16  1  0.24681257  0.25089631  0.25089631  1
  Tl  Tl17  1  0.24681257  0.25089631  0.74910369  1
  Tl  Tl18  1  0.24681257  0.74910369  0.25089631  1
  Tl  Tl19  1  0.24681257  0.74910369  0.74910369  1
  Tl  Tl20  1  0.74544838  0.24470791  0.24470791  1
  Tl  Tl21  1  0.74544838  0.24470791  0.75529209  1
  Tl  Tl22  1  0.74544838  0.75529209  0.24470791  1
  Tl  Tl23  1  0.74544838  0.75529209  0.75529209  1
  Si  Si24  1  0.00255509  0.62631226  0.18922140  1
  Si  Si25  1  0.00255509  0.18922140  0.62631226  1
  Si  Si26  1  0.00255509  0.81077860  0.62631226  1
  Si  Si27  1  0.37441995  0.00000000  0.18142475  1
  Si  Si28  1  0.37441995  0.18142475  0.00000000  1
  Si  Si29  1  0.37441995  0.00000000  0.81857525  1
  Si  Si30  1  0.37441995  0.81857525  0.00000000  1
  Si  Si31  1  0.00255509  0.18922140  0.37368774  1
  Si  Si32  1  0.00255509  0.37368774  0.18922140  1
  Si  Si33  1  0.00255509  0.37368774  0.81077860  1
  Si  Si34  1  0.00255509  0.62631226  0.81077860  1
  Si  Si35  1  0.00255509  0.81077860  0.37368774  1
  O  O36  1  0.00277728  0.29965504  0.29965504  1
  O  O37  1  0.00597312  0.50000000  0.22657893  1
  O  O38  1  0.00277728  0.29965504  0.70034496  1
  O  O39  1  0.00277728  0.70034496  0.29965504  1
  O  O40  1  0.00597312  0.77342107  0.50000000  1
  O  O41  1  0.00277728  0.70034496  0.70034496  1
  O  O42  1  0.11068848  0.12077182  0.34326833  1
  O  O43  1  0.11068848  0.34326833  0.12077182  1
  O  O44  1  0.11068848  0.34326833  0.87922818  1
  O  O45  1  0.11068848  0.87922818  0.34326833  1
  O  O46  1  0.11068848  0.12077182  0.65673167  1
  O  O47  1  0.11068848  0.65673167  0.12077182  1
  O  O48  1  0.11068848  0.65673167  0.87922818  1
  O  O49  1  0.11068848  0.87922818  0.65673167  1
  O  O50  1  0.23185473  0.00000000  0.50000000  1
  O  O51  1  0.23185473  0.50000000  0.00000000  1
  O  O52  1  0.28655101  0.00000000  0.27547204  1
  O  O53  1  0.28655101  0.27547204  0.00000000  1
  O  O54  1  0.28655101  0.00000000  0.72452796  1
  O  O55  1  0.28655101  0.72452796  0.00000000  1
  O  O56  1  0.35613532  0.10702421  0.10702421  1
  O  O57  1  0.35613532  0.10702421  0.89297579  1
  O  O58  1  0.35613532  0.89297579  0.10702421  1
  O  O59  1  0.35613532  0.89297579  0.89297579  1
  O  O60  1  0.49450324  0.00000000  0.23221127  1
  O  O61  1  0.49450324  0.23221127  0.00000000  1
  O  O62  1  0.49450324  0.00000000  0.76778873  1
  O  O63  1  0.49450324  0.76778873  0.00000000  1
  O  O64  1  0.65438768  0.11865206  0.11865206  1
  O  O65  1  0.65438768  0.11865206  0.88134794  1
  O  O66  1  0.65438768  0.88134794  0.11865206  1
  O  O67  1  0.65438768  0.88134794  0.88134794  1
  O  O68  1  0.70938275  0.00000000  0.29375029  1
  O  O69  1  0.70938275  0.00000000  0.70624971  1
  O  O70  1  0.70938275  0.29375029  0.00000000  1
  O  O71  1  0.70938275  0.70624971  0.00000000  1
  O  O72  1  0.75680127  0.00000000  0.50000000  1
  O  O73  1  0.75680127  0.50000000  0.00000000  1
  O  O74  1  0.89512276  0.11947017  0.34982468  1
  O  O75  1  0.89512276  0.34982468  0.11947017  1
  O  O76  1  0.89512276  0.34982468  0.88052983  1
  O  O77  1  0.89512276  0.88052983  0.34982468  1
  O  O78  1  0.89512276  0.11947017  0.65017532  1
  O  O79  1  0.89512276  0.65017532  0.11947017  1
  O  O80  1  0.89512276  0.65017532  0.88052983  1
  O  O81  1  0.89512276  0.88052983  0.65017532  1
  O  O82  1  0.00597312  0.22657893  0.50000000  1
  O  O83  1  0.00597312  0.50000000  0.77342107  1
