# generated using pymatgen
data_CdI2
_symmetry_space_group_name_H-M   'P 1'
_cell_length_a   4.33445733
_cell_length_b   4.33445759
_cell_length_c   90.38394665
_cell_angle_alpha   90.00000000
_cell_angle_beta   90.00000000
_cell_angle_gamma   119.99999796
_symmetry_Int_Tables_number   1
_chemical_formula_structural   CdI2
_chemical_formula_sum   'Cd12 I24'
_cell_volume   1470.58940058
_cell_formula_units_Z   12
loop_
 _symmetry_equiv_pos_site_id
 _symmetry_equiv_pos_as_xyz
  1  'x, y, z'
loop_
 _atom_site_type_symbol
 _atom_site_label
 _atom_site_symmetry_multiplicity
 _atom_site_fract_x
 _atom_site_fract_y
 _atom_site_fract_z
 _atom_site_occupancy
  Cd  Cd0  1  0.00000000  0.00000000  0.27081661  1
  Cd  Cd1  1  0.00000000  0.00000000  0.93747504  1
  Cd  Cd2  1  0.66666700  0.33333300  0.02086501  1
  Cd  Cd3  1  0.00000000  0.00000000  0.43747695  1
  Cd  Cd4  1  0.66666700  0.33333300  0.77082571  1
  Cd  Cd5  1  0.00000000  0.00000000  0.10415081  1
  Cd  Cd6  1  0.66666700  0.33333300  0.35419834  1
  Cd  Cd7  1  0.00000000  0.00000000  0.60414739  1
  Cd  Cd8  1  0.66666700  0.33333300  0.18753346  1
  Cd  Cd9  1  0.00000000  0.00000000  0.85417178  1
  Cd  Cd10  1  0.66666700  0.33333300  0.52086312  1
  Cd  Cd11  1  0.00000000  0.00000000  0.68749391  1
  I  I12  1  0.00000000  0.00000000  0.16845669  1
  I  I13  1  0.66666700  0.33333300  0.58507414  1
  I  I14  1  0.33333300  0.66666700  0.78989429  1
  I  I15  1  0.66666700  0.33333300  0.08508104  1
  I  I16  1  0.33333300  0.66666700  0.45654479  1
  I  I17  1  0.33333300  0.66666700  0.20660352  1
  I  I18  1  0.33333300  0.66666700  0.95654328  1
  I  I19  1  0.66666700  0.33333300  0.83510552  1
  I  I20  1  0.66666700  0.33333300  0.91840363  1
  I  I21  1  0.33333300  0.66666700  0.53993299  1
  I  I22  1  0.33333300  0.66666700  0.12321925  1
  I  I23  1  0.33333300  0.66666700  0.03993605  1
  I  I24  1  0.00000000  0.00000000  0.75174488  1
  I  I25  1  0.33333300  0.66666700  0.28988527  1
  I  I26  1  0.33333300  0.66666700  0.37326850  1
  I  I27  1  0.00000000  0.00000000  0.33512135  1
  I  I28  1  0.33333300  0.66666700  0.62321725  1
  I  I29  1  0.66666700  0.33333300  0.41840474  1
  I  I30  1  0.33333300  0.66666700  0.70655791  1
  I  I31  1  0.00000000  0.00000000  0.00178451  1
  I  I32  1  0.66666700  0.33333300  0.66843006  1
  I  I33  1  0.66666700  0.33333300  0.25174742  1
  I  I34  1  0.33333300  0.66666700  0.87324206  1
  I  I35  1  0.00000000  0.00000000  0.50178273  1
