# generated using pymatgen
data_Ba(BO2)2
_symmetry_space_group_name_H-M   'P 1'
_cell_length_a   8.51903760
_cell_length_b   8.51903760
_cell_length_c   8.51903760
_cell_angle_alpha   96.10076283
_cell_angle_beta   96.10076279
_cell_angle_gamma   96.10076284
_symmetry_Int_Tables_number   1
_chemical_formula_structural   Ba(BO2)2
_chemical_formula_sum   'Ba6 B12 O24'
_cell_volume   606.94009750
_cell_formula_units_Z   6
loop_
 _symmetry_equiv_pos_site_id
 _symmetry_equiv_pos_as_xyz
  1  'x, y, z'
loop_
 _atom_site_type_symbol
 _atom_site_label
 _atom_site_symmetry_multiplicity
 _atom_site_fract_x
 _atom_site_fract_y
 _atom_site_fract_z
 _atom_site_occupancy
  B  B0  1  0.12273208  0.95107651  0.90618468  1
  B  B1  1  0.95107651  0.90618468  0.12273208  1
  B  B2  1  0.90618468  0.12273208  0.95107651  1
  B  B3  1  0.40618468  0.45107651  0.62273208  1
  B  B4  1  0.45107651  0.62273208  0.40618468  1
  B  B5  1  0.62273208  0.40618468  0.45107651  1
  B  B6  1  0.65575900  0.73350841  0.87968143  1
  B  B7  1  0.87968143  0.65575900  0.73350841  1
  B  B8  1  0.73350841  0.87968143  0.65575900  1
  B  B9  1  0.23350841  0.15575900  0.37968143  1
  B  B10  1  0.37968143  0.23350841  0.15575900  1
  B  B11  1  0.15575900  0.37968143  0.23350841  1
  O  O12  1  0.57827957  0.53634500  0.37108659  1
  O  O13  1  0.37108659  0.57827957  0.53634500  1
  O  O14  1  0.53634500  0.37108659  0.57827957  1
  O  O15  1  0.03634500  0.07827957  0.87108659  1
  O  O16  1  0.87108659  0.03634500  0.07827957  1
  O  O17  1  0.07827957  0.87108659  0.03634500  1
  O  O18  1  0.57141043  0.71427430  0.00033165  1
  O  O19  1  0.00033165  0.57141043  0.71427430  1
  O  O20  1  0.71427430  0.00033165  0.57141043  1
  O  O21  1  0.21427430  0.07141043  0.50033165  1
  O  O22  1  0.50033165  0.21427430  0.07141043  1
  O  O23  1  0.07141043  0.50033165  0.21427430  1
  O  O24  1  0.77665484  0.63522545  0.85063906  1
  O  O25  1  0.85063906  0.77665484  0.63522545  1
  O  O26  1  0.63522545  0.85063906  0.77665484  1
  O  O27  1  0.13522545  0.27665484  0.35063906  1
  O  O28  1  0.35063906  0.13522545  0.27665484  1
  O  O29  1  0.27665484  0.35063906  0.13522545  1
  O  O30  1  0.73727849  0.32494387  0.40370126  1
  O  O31  1  0.40370126  0.73727849  0.32494387  1
  O  O32  1  0.32494387  0.40370126  0.73727849  1
  O  O33  1  0.82494387  0.23727849  0.90370126  1
  O  O34  1  0.90370126  0.82494387  0.23727849  1
  O  O35  1  0.23727849  0.90370126  0.82494387  1
  Ba  Ba36  1  0.25881436  0.62050593  0.97147710  1
  Ba  Ba37  1  0.62050593  0.97147710  0.25881436  1
  Ba  Ba38  1  0.97147710  0.25881436  0.62050593  1
  Ba  Ba39  1  0.47147710  0.12050593  0.75881436  1
  Ba  Ba40  1  0.12050593  0.75881436  0.47147710  1
  Ba  Ba41  1  0.75881436  0.47147710  0.12050593  1
