# generated using pymatgen
data_CdI2
_symmetry_space_group_name_H-M   'P 1'
_cell_length_a   4.33910658
_cell_length_b   4.33910685
_cell_length_c   79.46546046
_cell_angle_alpha   90.00000000
_cell_angle_beta   90.00000000
_cell_angle_gamma   119.99999794
_symmetry_Int_Tables_number   1
_chemical_formula_structural   CdI2
_chemical_formula_sum   'Cd10 I20'
_cell_volume   1295.71565909
_cell_formula_units_Z   10
loop_
 _symmetry_equiv_pos_site_id
 _symmetry_equiv_pos_as_xyz
  1  'x, y, z'
loop_
 _atom_site_type_symbol
 _atom_site_label
 _atom_site_symmetry_multiplicity
 _atom_site_fract_x
 _atom_site_fract_y
 _atom_site_fract_z
 _atom_site_occupancy
  Cd  Cd0  1  0.66666700  0.33333300  0.52501401  1
  Cd  Cd1  1  0.66666700  0.33333300  0.32500302  1
  Cd  Cd2  1  0.66666700  0.33333300  0.02499232  1
  Cd  Cd3  1  0.66666700  0.33333300  0.22502736  1
  Cd  Cd4  1  0.66666700  0.33333300  0.62505403  1
  Cd  Cd5  1  0.66666700  0.33333300  0.42501375  1
  Cd  Cd6  1  0.00000000  0.00000000  0.72491920  1
  Cd  Cd7  1  0.00000000  0.00000000  0.82493056  1
  Cd  Cd8  1  0.66666700  0.33333300  0.12504862  1
  Cd  Cd9  1  0.66666700  0.33333300  0.92499545  1
  I  I10  1  0.00000000  0.00000000  0.10343360  1
  I  I11  1  0.33333300  0.66666700  0.44663390  1
  I  I12  1  0.33333300  0.66666700  0.34662849  1
  I  I13  1  0.00000000  0.00000000  0.30339975  1
  I  I14  1  0.33333300  0.66666700  0.94660609  1
  I  I15  1  0.00000000  0.00000000  0.60342912  1
  I  I16  1  0.66666700  0.33333300  0.70329078  1
  I  I17  1  0.00000000  0.00000000  0.40341243  1
  I  I18  1  0.00000000  0.00000000  0.20344250  1
  I  I19  1  0.66666700  0.33333300  0.80336180  1
  I  I20  1  0.00000000  0.00000000  0.90338132  1
  I  I21  1  0.33333300  0.66666700  0.04660593  1
  I  I22  1  0.00000000  0.00000000  0.00337496  1
  I  I23  1  0.33333300  0.66666700  0.54663307  1
  I  I24  1  0.33333300  0.66666700  0.84650428  1
  I  I25  1  0.33333300  0.66666700  0.24662348  1
  I  I26  1  0.00000000  0.00000000  0.50340573  1
  I  I27  1  0.33333300  0.66666700  0.14666519  1
  I  I28  1  0.33333300  0.66666700  0.64665811  1
  I  I29  1  0.33333300  0.66666700  0.74651112  1
