# generated using pymatgen
data_CdI2
_symmetry_space_group_name_H-M   'P 1'
_cell_length_a   4.33779477
_cell_length_b   4.33779503
_cell_length_c   89.52674191
_cell_angle_alpha   90.00000000
_cell_angle_beta   90.00000000
_cell_angle_gamma   119.99999794
_symmetry_Int_Tables_number   1
_chemical_formula_structural   CdI2
_chemical_formula_sum   'Cd12 I24'
_cell_volume   1458.88630707
_cell_formula_units_Z   12
loop_
 _symmetry_equiv_pos_site_id
 _symmetry_equiv_pos_as_xyz
  1  'x, y, z'
loop_
 _atom_site_type_symbol
 _atom_site_label
 _atom_site_symmetry_multiplicity
 _atom_site_fract_x
 _atom_site_fract_y
 _atom_site_fract_z
 _atom_site_occupancy
  Cd  Cd0  1  0.66666700  0.33333300  0.02086383  1
  Cd  Cd1  1  0.00000000  0.00000000  0.35417585  1
  Cd  Cd2  1  0.00000000  0.00000000  0.43748284  1
  Cd  Cd3  1  0.00000000  0.00000000  0.10415220  1
  Cd  Cd4  1  0.00000000  0.00000000  0.52083817  1
  Cd  Cd5  1  0.00000000  0.00000000  0.77081653  1
  Cd  Cd6  1  0.00000000  0.00000000  0.85417677  1
  Cd  Cd7  1  0.66666700  0.33333300  0.27082182  1
  Cd  Cd8  1  0.00000000  0.00000000  0.93747948  1
  Cd  Cd9  1  0.66666700  0.33333300  0.60416158  1
  Cd  Cd10  1  0.00000000  0.00000000  0.68751456  1
  Cd  Cd11  1  0.00000000  0.00000000  0.18750843  1
  I  I12  1  0.66666700  0.33333300  0.83494406  1
  I  I13  1  0.33333300  0.66666700  0.79005175  1
  I  I14  1  0.66666700  0.33333300  0.33494331  1
  I  I15  1  0.66666700  0.33333300  0.08491281  1
  I  I16  1  0.33333300  0.66666700  0.45671811  1
  I  I17  1  0.33333300  0.66666700  0.20675060  1
  I  I18  1  0.33333300  0.66666700  0.95671322  1
  I  I19  1  0.66666700  0.33333300  0.91823840  1
  I  I20  1  0.66666700  0.33333300  0.75157782  1
  I  I21  1  0.00000000  0.00000000  0.58492591  1
  I  I22  1  0.33333300  0.66666700  0.54008195  1
  I  I23  1  0.33333300  0.66666700  0.12338694  1
  I  I24  1  0.33333300  0.66666700  0.04010138  1
  I  I25  1  0.00000000  0.00000000  0.00163263  1
  I  I26  1  0.33333300  0.66666700  0.29005477  1
  I  I27  1  0.33333300  0.66666700  0.37341444  1
  I  I28  1  0.33333300  0.66666700  0.62339520  1
  I  I29  1  0.66666700  0.33333300  0.41824306  1
  I  I30  1  0.33333300  0.66666700  0.70675484  1
  I  I31  1  0.00000000  0.00000000  0.25158563  1
  I  I32  1  0.66666700  0.33333300  0.66828084  1
  I  I33  1  0.66666700  0.33333300  0.50160876  1
  I  I34  1  0.66666700  0.33333300  0.16827660  1
  I  I35  1  0.33333300  0.66666700  0.87341491  1
