# generated using pymatgen
data_Dy5Sn13
_symmetry_space_group_name_H-M   'P 1'
_cell_length_a   4.39439453
_cell_length_b   4.47588775
_cell_length_c   24.47762189
_cell_angle_alpha   95.24577540
_cell_angle_beta   95.15000260
_cell_angle_gamma   90.00000288
_symmetry_Int_Tables_number   1
_chemical_formula_structural   Dy5Sn13
_chemical_formula_sum   'Dy5 Sn13'
_cell_volume   477.47765035
_cell_formula_units_Z   1
loop_
 _symmetry_equiv_pos_site_id
 _symmetry_equiv_pos_as_xyz
  1  'x, y, z'
loop_
 _atom_site_type_symbol
 _atom_site_label
 _atom_site_symmetry_multiplicity
 _atom_site_fract_x
 _atom_site_fract_y
 _atom_site_fract_z
 _atom_site_occupancy
  Dy  Dy0  1  0.67124561  0.67124561  0.34249122  1
  Dy  Dy1  1  0.89674813  0.39674813  0.79349626  1
  Dy  Dy2  1  0.32875439  0.32875439  0.65750878  1
  Dy  Dy3  1  0.10325187  0.60325187  0.20650374  1
  Dy  Dy4  1  0.50000000  0.00000000  0.00000000  1
  Sn  Sn5  1  0.77968708  0.27968708  0.55937415  1
  Sn  Sn6  1  0.15738477  0.15738477  0.31476954  1
  Sn  Sn7  1  0.38473376  0.88473376  0.76946751  1
  Sn  Sn8  1  0.28041344  0.78041344  0.56082688  1
  Sn  Sn9  1  0.61526624  0.11526624  0.23053249  1
  Sn  Sn10  1  0.05312796  0.05312796  0.10625591  1
  Sn  Sn11  1  0.71958656  0.21958656  0.43917312  1
  Sn  Sn12  1  0.22031292  0.72031292  0.44062585  1
  Sn  Sn13  1  0.44759164  0.44759164  0.89518328  1
  Sn  Sn14  1  0.55240836  0.55240836  0.10481672  1
  Sn  Sn15  1  0.84261523  0.84261523  0.68523046  1
  Sn  Sn16  1  0.00000000  0.50000000  0.00000000  1
  Sn  Sn17  1  0.94687204  0.94687204  0.89374409  1
