# generated using pymatgen
data_CdI2
_symmetry_space_group_name_H-M   'P 1'
_cell_length_a   4.33213247
_cell_length_b   4.33213274
_cell_length_c   74.71438252
_cell_angle_alpha   90.00000000
_cell_angle_beta   90.00000000
_cell_angle_gamma   119.99999802
_symmetry_Int_Tables_number   1
_chemical_formula_structural   CdI2
_chemical_formula_sum   'Cd10 I20'
_cell_volume   1214.33450455
_cell_formula_units_Z   10
loop_
 _symmetry_equiv_pos_site_id
 _symmetry_equiv_pos_as_xyz
  1  'x, y, z'
loop_
 _atom_site_type_symbol
 _atom_site_label
 _atom_site_symmetry_multiplicity
 _atom_site_fract_x
 _atom_site_fract_y
 _atom_site_fract_z
 _atom_site_occupancy
  Cd  Cd0  1  0.66666700  0.33333300  0.32502008  1
  Cd  Cd1  1  0.00000000  0.00000000  0.42498457  1
  Cd  Cd2  1  0.00000000  0.00000000  0.92498190  1
  Cd  Cd3  1  0.66666700  0.33333300  0.02499659  1
  Cd  Cd4  1  0.00000000  0.00000000  0.22501923  1
  Cd  Cd5  1  0.00000000  0.00000000  0.52497207  1
  Cd  Cd6  1  0.00000000  0.00000000  0.72502270  1
  Cd  Cd7  1  0.00000000  0.00000000  0.12500235  1
  Cd  Cd8  1  0.00000000  0.00000000  0.82501225  1
  Cd  Cd9  1  0.00000000  0.00000000  0.62499455  1
  I  I10  1  0.33333300  0.66666700  0.44808085  1
  I  I11  1  0.33333300  0.66666700  0.34812718  1
  I  I12  1  0.66666700  0.33333300  0.10190075  1
  I  I13  1  0.66666700  0.33333300  0.90188437  1
  I  I14  1  0.33333300  0.66666700  0.94807692  1
  I  I15  1  0.00000000  0.00000000  0.30191140  1
  I  I16  1  0.66666700  0.33333300  0.70192218  1
  I  I17  1  0.66666700  0.33333300  0.80191635  1
  I  I18  1  0.33333300  0.66666700  0.04809469  1
  I  I19  1  0.66666700  0.33333300  0.60189520  1
  I  I20  1  0.00000000  0.00000000  0.00189079  1
  I  I21  1  0.33333300  0.66666700  0.54807372  1
  I  I22  1  0.33333300  0.66666700  0.14810092  1
  I  I23  1  0.66666700  0.33333300  0.40188770  1
  I  I24  1  0.33333300  0.66666700  0.24811737  1
  I  I25  1  0.66666700  0.33333300  0.50186711  1
  I  I26  1  0.33333300  0.66666700  0.84810627  1
  I  I27  1  0.33333300  0.66666700  0.64809572  1
  I  I28  1  0.66666700  0.33333300  0.20191983  1
  I  I29  1  0.33333300  0.66666700  0.74812437  1
