# generated using pymatgen
data_CdI2
_symmetry_space_group_name_H-M   'P 1'
_cell_length_a   4.33788847
_cell_length_b   4.33788872
_cell_length_c   96.70980364
_cell_angle_alpha   90.00000000
_cell_angle_beta   90.00000000
_cell_angle_gamma   119.99999799
_symmetry_Int_Tables_number   1
_chemical_formula_structural   CdI2
_chemical_formula_sum   'Cd12 I24'
_cell_volume   1576.00623414
_cell_formula_units_Z   12
loop_
 _symmetry_equiv_pos_site_id
 _symmetry_equiv_pos_as_xyz
  1  'x, y, z'
loop_
 _atom_site_type_symbol
 _atom_site_label
 _atom_site_symmetry_multiplicity
 _atom_site_fract_x
 _atom_site_fract_y
 _atom_site_fract_z
 _atom_site_occupancy
  Cd  Cd0  1  0.66666700  0.33333300  0.27011701  1
  Cd  Cd1  1  0.66666700  0.33333300  0.02134241  1
  Cd  Cd2  1  0.00000000  0.00000000  0.10335726  1
  Cd  Cd3  1  0.66666700  0.33333300  0.35514198  1
  Cd  Cd4  1  0.00000000  0.00000000  0.52042978  1
  Cd  Cd5  1  0.00000000  0.00000000  0.77102453  1
  Cd  Cd6  1  0.66666700  0.33333300  0.18755947  1
  Cd  Cd7  1  0.66666700  0.33333300  0.60383715  1
  Cd  Cd8  1  0.00000000  0.00000000  0.85451951  1
  Cd  Cd9  1  0.66666700  0.33333300  0.68839294  1
  Cd  Cd10  1  0.00000000  0.00000000  0.93659968  1
  Cd  Cd11  1  0.00000000  0.00000000  0.43768897  1
  I  I12  1  0.00000000  0.00000000  0.16977962  1
  I  I13  1  0.66666700  0.33333300  0.83673719  1
  I  I14  1  0.33333300  0.66666700  0.78879920  1
  I  I15  1  0.66666700  0.33333300  0.08558856  1
  I  I16  1  0.33333300  0.66666700  0.45546429  1
  I  I17  1  0.33333300  0.66666700  0.20533145  1
  I  I18  1  0.33333300  0.66666700  0.95435873  1
  I  I19  1  0.00000000  0.00000000  0.67061465  1
  I  I20  1  0.66666700  0.33333300  0.75324759  1
  I  I21  1  0.00000000  0.00000000  0.58606149  1
  I  I22  1  0.33333300  0.66666700  0.53821069  1
  I  I23  1  0.33333300  0.66666700  0.12111850  1
  I  I24  1  0.33333300  0.66666700  0.03909865  1
  I  I25  1  0.00000000  0.00000000  0.00358301  1
  I  I26  1  0.33333300  0.66666700  0.28789400  1
  I  I27  1  0.33333300  0.66666700  0.37291063  1
  I  I28  1  0.00000000  0.00000000  0.33738159  1
  I  I29  1  0.33333300  0.66666700  0.62161598  1
  I  I30  1  0.66666700  0.33333300  0.41991316  1
  I  I31  1  0.33333300  0.66666700  0.70616067  1
  I  I32  1  0.00000000  0.00000000  0.25234486  1
  I  I33  1  0.66666700  0.33333300  0.91881928  1
  I  I34  1  0.66666700  0.33333300  0.50266214  1
  I  I35  1  0.33333300  0.66666700  0.87229340  1
