# generated using pymatgen
data_CdI2
_symmetry_space_group_name_H-M   'P 1'
_cell_length_a   4.33562154
_cell_length_b   4.33562181
_cell_length_c   89.78258394
_cell_angle_alpha   90.00000000
_cell_angle_beta   90.00000000
_cell_angle_gamma   119.99999792
_symmetry_Int_Tables_number   1
_chemical_formula_structural   CdI2
_chemical_formula_sum   'Cd12 I24'
_cell_volume   1461.58978436
_cell_formula_units_Z   12
loop_
 _symmetry_equiv_pos_site_id
 _symmetry_equiv_pos_as_xyz
  1  'x, y, z'
loop_
 _atom_site_type_symbol
 _atom_site_label
 _atom_site_symmetry_multiplicity
 _atom_site_fract_x
 _atom_site_fract_y
 _atom_site_fract_z
 _atom_site_occupancy
  Cd  Cd0  1  0.00000000  0.00000000  0.27081543  1
  Cd  Cd1  1  0.66666700  0.33333300  0.02085686  1
  Cd  Cd2  1  0.66666700  0.33333300  0.18752694  1
  Cd  Cd3  1  0.00000000  0.00000000  0.85416223  1
  Cd  Cd4  1  0.00000000  0.00000000  0.10414702  1
  Cd  Cd5  1  0.66666700  0.33333300  0.35419735  1
  Cd  Cd6  1  0.00000000  0.00000000  0.52082398  1
  Cd  Cd7  1  0.00000000  0.00000000  0.77081609  1
  Cd  Cd8  1  0.66666700  0.33333300  0.93749794  1
  Cd  Cd9  1  0.66666700  0.33333300  0.68752205  1
  Cd  Cd10  1  0.00000000  0.00000000  0.43748291  1
  Cd  Cd11  1  0.66666700  0.33333300  0.60416142  1
  I  I12  1  0.00000000  0.00000000  0.16833190  1
  I  I13  1  0.66666700  0.33333300  0.83497373  1
  I  I14  1  0.33333300  0.66666700  0.79000777  1
  I  I15  1  0.66666700  0.33333300  0.08495323  1
  I  I16  1  0.33333300  0.66666700  0.45667405  1
  I  I17  1  0.33333300  0.66666700  0.20671851  1
  I  I18  1  0.33333300  0.66666700  0.95668902  1
  I  I19  1  0.00000000  0.00000000  0.66832840  1
  I  I20  1  0.66666700  0.33333300  0.50163779  1
  I  I21  1  0.66666700  0.33333300  0.75162114  1
  I  I22  1  0.00000000  0.00000000  0.91830164  1
  I  I23  1  0.00000000  0.00000000  0.58496563  1
  I  I24  1  0.33333300  0.66666700  0.54001079  1
  I  I25  1  0.33333300  0.66666700  0.12333940  1
  I  I26  1  0.33333300  0.66666700  0.04004717  1
  I  I27  1  0.00000000  0.00000000  0.00166358  1
  I  I28  1  0.33333300  0.66666700  0.29000720  1
  I  I29  1  0.33333300  0.66666700  0.37339449  1
  I  I30  1  0.00000000  0.00000000  0.33500183  1
  I  I31  1  0.33333300  0.66666700  0.62335330  1
  I  I32  1  0.66666700  0.33333300  0.41828825  1
  I  I33  1  0.33333300  0.66666700  0.70671352  1
  I  I34  1  0.66666700  0.33333300  0.25161964  1
  I  I35  1  0.33333300  0.66666700  0.87334781  1
