# generated using pymatgen
data_Al12Si12Ag16S5O48
_symmetry_space_group_name_H-M   'P 1'
_cell_length_a   9.03001871
_cell_length_b   8.98361123
_cell_length_c   17.95618869
_cell_angle_alpha   90.17567189
_cell_angle_beta   89.93642134
_cell_angle_gamma   89.91241249
_symmetry_Int_Tables_number   1
_chemical_formula_structural   Al12Si12Ag16S5O48
_chemical_formula_sum   'Al12 Si12 Ag16 S5 O48'
_cell_volume   1456.63567280
_cell_formula_units_Z   1
loop_
 _symmetry_equiv_pos_site_id
 _symmetry_equiv_pos_as_xyz
  1  'x, y, z'
loop_
 _atom_site_type_symbol
 _atom_site_label
 _atom_site_symmetry_multiplicity
 _atom_site_fract_x
 _atom_site_fract_y
 _atom_site_fract_z
 _atom_site_occupancy
  Al  Al0  1  0.99775628  0.75001786  0.24693152  1
  Al  Al1  1  0.99663477  0.25016882  0.75117433  1
  Al  Al2  1  0.99861515  0.75009075  0.75083096  1
  Al  Al3  1  0.24684642  0.49995420  0.99896927  1
  Al  Al4  1  0.25033856  0.50179351  0.50037912  1
  Al  Al5  1  0.49877589  -0.00032159  0.37263347  1
  Al  Al6  1  0.49996616  0.99804140  0.12329308  1
  Al  Al7  1  0.49906318  0.00097160  0.62599848  1
  Al  Al8  1  0.49972115  0.00280889  0.87453570  1
  Al  Al9  1  0.74572036  0.49906915  0.99894225  1
  Al  Al10  1  0.74880345  0.49862440  0.50047474  1
  Al  Al11  1  0.99818954  0.25084521  0.24672776  1
  Si  Si12  1  0.99578216  0.50049305  0.12306460  1
  Si  Si13  1  0.24861245  -0.00058143  0.24731625  1
  Si  Si14  1  0.24787347  0.00097010  0.75027832  1
  Si  Si15  1  0.49813347  0.74933623  0.99943842  1
  Si  Si16  1  0.49902259  0.74911894  0.50023685  1
  Si  Si17  1  0.49921384  0.25084335  0.99859060  1
  Si  Si18  1  0.50025015  0.25132360  0.50021641  1
  Si  Si19  1  0.74879179  0.99977807  0.24702390  1
  Si  Si20  1  0.74848490  0.00080426  0.75068473  1
  Si  Si21  1  0.99946193  0.50027118  0.37354703  1
  Si  Si22  1  0.99937908  0.49956286  0.62597101  1
  Si  Si23  1  0.99536096  0.49927561  0.87486186  1
  Ag  Ag24  1  0.16631424  0.16066196  0.07658051  1
  Ag  Ag25  1  0.17886813  0.18163018  0.59051031  1
  Ag  Ag26  1  0.18073282  0.81718212  0.40762532  1
  Ag  Ag27  1  0.16577911  0.83569411  0.91887308  1
  Ag  Ag28  1  0.33916562  0.33902119  0.32729143  1
  Ag  Ag29  1  0.34987548  0.64519788  0.17165836  1
  Ag  Ag30  1  0.34534397  0.34649837  0.82859612  1
  Ag  Ag31  1  0.34356476  0.65957664  0.67676755  1
  Ag  Ag32  1  0.64294359  0.35082444  0.17125143  1
  Ag  Ag33  1  0.65897338  0.66105073  0.32670597  1
  Ag  Ag34  1  0.65731699  0.34335055  0.67758930  1
  Ag  Ag35  1  0.65245876  0.65321092  0.82772789  1
  Ag  Ag36  1  0.81757199  0.18243243  0.40744514  1
  Ag  Ag37  1  0.84629499  0.83812440  0.06953254  1
  Ag  Ag38  1  0.84675176  0.15044160  0.92261615  1
  Ag  Ag39  1  0.81912746  0.81834116  0.59090536  1
  S  S40  1  0.10705622  0.00240914  0.49765282  1
  S  S41  1  0.49726949  0.49967133  0.75056157  1
  S  S42  1  0.49755851  0.49978116  0.25698089  1
  S  S43  1  0.00528321  0.00479683  0.00142966  1
  S  S44  1  0.88891598  0.99739586  0.49740922  1
  O  O45  1  0.06242567  0.63678522  0.17415177  1
  O  O46  1  0.05833938  0.36009987  0.32322486  1
  O  O47  1  0.06017810  0.63939688  0.67567643  1
  O  O48  1  0.06140644  0.36321152  0.82356389  1
  O  O49  1  0.13257000  0.43580338  0.07197515  1
  O  O50  1  0.13671972  0.43774152  0.57385862  1
  O  O51  1  0.13677997  0.56119522  0.42593699  1
  O  O52  1  0.13201548  0.56424685  0.92602198  1
  O  O53  1  0.14654319  0.13736532  0.21688132  1
  O  O54  1  0.14478757  0.13866610  0.71870504  1
  O  O55  1  0.14609890  0.86163852  0.27935646  1
  O  O56  1  0.14462709  0.86423508  0.78161596  1
  O  O57  1  0.34957923  0.06078992  0.31760723  1
  O  O58  1  0.35181993  0.93476796  0.17966326  1
  O  O59  1  0.35025130  0.06326331  0.81816664  1
  O  O60  1  0.34853916  0.93940979  0.68016899  1
  O  O61  1  0.36332614  0.35464395  0.47071491  1
  O  O62  1  0.35862132  0.64899640  0.02978427  1
  O  O63  1  0.36045102  0.35236716  0.96831876  1
  O  O64  1  0.35805240  0.65175450  0.53110690  1
  O  O65  1  0.43727077  0.14397888  0.06601039  1
  O  O66  1  0.43909209  0.14851735  0.56899769  1
  O  O67  1  0.44132175  0.85146913  0.43033487  1
  O  O68  1  0.43734409  0.85648709  0.93201708  1
  O  O69  1  0.55691590  0.14855317  0.42991866  1
  O  O70  1  0.56415723  0.15315640  0.92853146  1
  O  O71  1  0.56414645  0.84820144  0.06891480  1
  O  O72  1  0.55931677  0.85254865  0.56918987  1
  O  O73  1  0.63370231  0.35325189  0.03212206  1
  O  O74  1  0.63650761  0.64633201  0.47080079  1
  O  O75  1  0.63308338  0.64552283  0.96654001  1
  O  O76  1  0.64115543  0.34831660  0.53093596  1
  O  O77  1  0.64526134  0.06519367  0.17993105  1
  O  O78  1  0.64791285  0.93802970  0.31735495  1
  O  O79  1  0.64855122  0.06251999  0.68058721  1
  O  O80  1  0.64561234  0.93546497  0.81770073  1
  O  O81  1  0.85094168  0.13797271  0.27923494  1
  O  O82  1  0.84991754  0.13769791  0.78277129  1
  O  O83  1  0.85092968  0.86286668  0.21583412  1
  O  O84  1  0.85214447  0.86333013  0.71844490  1
  O  O85  1  0.86287879  0.43857215  0.42610550  1
  O  O86  1  0.85716302  0.43469251  0.92480642  1
  O  O87  1  0.85851470  0.56550017  0.07230403  1
  O  O88  1  0.86303279  0.56198840  0.57374720  1
  O  O89  1  0.93718907  0.36026824  0.67542870  1
  O  O90  1  0.93136902  0.36408306  0.17463491  1
  O  O91  1  0.93995542  0.64066910  0.32387369  1
  O  O92  1  0.93351612  0.63788368  0.82359598  1
