# generated using pymatgen
data_K3ClO
_symmetry_space_group_name_H-M   'P 1'
_cell_length_a   7.35301070
_cell_length_b   7.33791475
_cell_length_c   10.42158948
_cell_angle_alpha   90.00000000
_cell_angle_beta   90.00000000
_cell_angle_gamma   90.00000000
_symmetry_Int_Tables_number   1
_chemical_formula_structural   K3ClO
_chemical_formula_sum   'K12 Cl4 O4'
_cell_volume   562.30483992
_cell_formula_units_Z   4
loop_
 _symmetry_equiv_pos_site_id
 _symmetry_equiv_pos_as_xyz
  1  'x, y, z'
loop_
 _atom_site_type_symbol
 _atom_site_label
 _atom_site_symmetry_multiplicity
 _atom_site_fract_x
 _atom_site_fract_y
 _atom_site_fract_z
 _atom_site_occupancy
  K  K0  1  0.51618210  0.94209491  0.75000000  1
  K  K1  1  0.20892686  0.20891950  0.97066944  1
  K  K2  1  0.01618210  0.55790509  0.75000000  1
  K  K3  1  0.29107314  0.70891950  0.02933056  1
  K  K4  1  0.70892686  0.29108050  0.52933056  1
  K  K5  1  0.70892686  0.29108050  0.97066944  1
  K  K6  1  0.79107314  0.79108050  0.02933056  1
  K  K7  1  0.48381790  0.05790509  0.25000000  1
  K  K8  1  0.79107314  0.79108050  0.47066944  1
  K  K9  1  0.98381790  0.44209491  0.25000000  1
  K  K10  1  0.29107314  0.70891950  0.47066944  1
  K  K11  1  0.20892686  0.20891950  0.52933056  1
  Cl  Cl12  1  0.52516372  0.50080348  0.25000000  1
  Cl  Cl13  1  0.02516372  -0.00080348  0.25000000  1
  Cl  Cl14  1  0.47483628  0.49919652  0.75000000  1
  Cl  Cl15  1  0.97483628  1.00080348  0.75000000  1
  O  O16  1  0.50000000  0.00000000  0.00000000  1
  O  O17  1  0.00000000  0.50000000  0.50000000  1
  O  O18  1  0.00000000  0.50000000  0.00000000  1
  O  O19  1  0.50000000  0.00000000  0.50000000  1
