# generated using pymatgen
data_Ba4Tb(RuO4)3
_symmetry_space_group_name_H-M   'P 1'
_cell_length_a   10.43888826
_cell_length_b   10.43888826
_cell_length_c   10.43888826
_cell_angle_alpha   33.13082188
_cell_angle_beta   33.13082187
_cell_angle_gamma   33.13082187
_symmetry_Int_Tables_number   1
_chemical_formula_structural   Ba4Tb(RuO4)3
_chemical_formula_sum   'Ba4 Tb1 Ru3 O12'
_cell_volume   302.45910840
_cell_formula_units_Z   1
loop_
 _symmetry_equiv_pos_site_id
 _symmetry_equiv_pos_as_xyz
  1  'x, y, z'
loop_
 _atom_site_type_symbol
 _atom_site_label
 _atom_site_symmetry_multiplicity
 _atom_site_fract_x
 _atom_site_fract_y
 _atom_site_fract_z
 _atom_site_occupancy
  O  O0  1  0.21976771  0.21976771  0.69204911  1
  O  O1  1  0.21976771  0.69204911  0.21976771  1
  O  O2  1  0.69204911  0.21976771  0.21976771  1
  O  O3  1  0.30795089  0.78023229  0.78023229  1
  O  O4  1  0.78023229  0.78023229  0.30795089  1
  O  O5  1  0.78023229  0.30795089  0.78023229  1
  O  O6  1  0.38720569  0.38720569  0.85235496  1
  O  O7  1  0.38720569  0.85235496  0.38720569  1
  O  O8  1  0.61279431  0.14764504  0.61279431  1
  O  O9  1  0.61279431  0.61279431  0.14764504  1
  O  O10  1  0.14764504  0.61279431  0.61279431  1
  O  O11  1  0.85235496  0.38720569  0.38720569  1
  Ru  Ru12  1  0.58636615  0.58636615  0.58636615  1
  Ru  Ru13  1  0.41363385  0.41363385  0.41363385  1
  Ru  Ru14  1  0.50000000  0.50000000  0.50000000  1
  Ba  Ba15  1  0.71496677  0.71496677  0.71496677  1
  Ba  Ba16  1  0.87073589  0.87073589  0.87073589  1
  Ba  Ba17  1  0.28503323  0.28503323  0.28503323  1
  Ba  Ba18  1  0.12926411  0.12926411  0.12926411  1
  Tb  Tb19  1  0.00000000  0.00000000  0.00000000  1
