# generated using pymatgen
data_Cs4Ga2Se5
_symmetry_space_group_name_H-M   'P 1'
_cell_length_a   8.11897691
_cell_length_b   9.53717157
_cell_length_c   11.47220280
_cell_angle_alpha   76.20651292
_cell_angle_beta   85.72572446
_cell_angle_gamma   80.88376370
_symmetry_Int_Tables_number   1
_chemical_formula_structural   Cs4Ga2Se5
_chemical_formula_sum   'Cs8 Ga4 Se10'
_cell_volume   851.17586787
_cell_formula_units_Z   2
loop_
 _symmetry_equiv_pos_site_id
 _symmetry_equiv_pos_as_xyz
  1  'x, y, z'
loop_
 _atom_site_type_symbol
 _atom_site_label
 _atom_site_symmetry_multiplicity
 _atom_site_fract_x
 _atom_site_fract_y
 _atom_site_fract_z
 _atom_site_occupancy
  Cs  Cs0  1  0.42066528  0.32650195  0.08773469  1
  Cs  Cs1  1  0.57933472  0.67349805  0.91226531  1
  Cs  Cs2  1  0.20050191  0.07844154  0.86757181  1
  Cs  Cs3  1  0.05451140  0.60697971  0.75066071  1
  Cs  Cs4  1  0.79949809  0.92155846  0.13242819  1
  Cs  Cs5  1  0.94548860  0.39302029  0.24933929  1
  Cs  Cs6  1  0.57855254  0.71035440  0.49982619  1
  Cs  Cs7  1  0.42144746  0.28964560  0.50017381  1
  Ga  Ga8  1  0.90521686  0.08678438  0.59877131  1
  Ga  Ga9  1  0.09478314  0.91321562  0.40122869  1
  Ga  Ga10  1  0.27481662  0.71993404  0.21007402  1
  Ga  Ga11  1  0.72518338  0.28006596  0.78992598  1
  Se  Se12  1  0.90432165  0.34031661  0.60076131  1
  Se  Se13  1  0.19382543  0.95690921  0.58567683  1
  Se  Se14  1  0.44820928  0.41197286  0.76406263  1
  Se  Se15  1  0.14959825  0.69158926  0.03588762  1
  Se  Se16  1  0.85040175  0.30841074  0.96411238  1
  Se  Se17  1  0.55179072  0.58802714  0.23593737  1
  Se  Se18  1  0.09567835  0.65968339  0.39923869  1
  Se  Se19  1  0.26571878  0.98608263  0.21944905  1
  Se  Se20  1  0.73428122  0.01391737  0.78055095  1
  Se  Se21  1  0.80617457  0.04309079  0.41432317  1
