# generated using pymatgen
data_BiP(PbO2)4
_symmetry_space_group_name_H-M   'P 1'
_cell_length_a   6.44437221
_cell_length_b   7.35105747
_cell_length_c   11.05482127
_cell_angle_alpha   99.30800727
_cell_angle_beta   105.31561913
_cell_angle_gamma   90.14848786
_symmetry_Int_Tables_number   1
_chemical_formula_structural   BiP(PbO2)4
_chemical_formula_sum   'Bi2 P2 Pb8 O16'
_cell_volume   497.88473742
_cell_formula_units_Z   2
loop_
 _symmetry_equiv_pos_site_id
 _symmetry_equiv_pos_as_xyz
  1  'x, y, z'
loop_
 _atom_site_type_symbol
 _atom_site_label
 _atom_site_symmetry_multiplicity
 _atom_site_fract_x
 _atom_site_fract_y
 _atom_site_fract_z
 _atom_site_occupancy
  Bi  Bi0  1  0.69119069  0.77571396  0.60386003  1
  Bi  Bi1  1  0.30880931  0.22428604  0.39613997  1
  P  P2  1  0.75861559  0.29413580  0.68404191  1
  P  P3  1  0.24138441  0.70586420  0.31595809  1
  Pb  Pb4  1  0.72537934  0.11692549  0.96577732  1
  Pb  Pb5  1  0.23118621  0.55725179  0.70474158  1
  Pb  Pb6  1  0.27462066  0.88307451  0.03422268  1
  Pb  Pb7  1  0.72724050  0.62043987  0.96919043  1
  Pb  Pb8  1  0.27275950  0.37956013  0.03080957  1
  Pb  Pb9  1  0.76881379  0.44274821  0.29525842  1
  Pb  Pb10  1  0.23323961  0.04630020  0.70204282  1
  Pb  Pb11  1  0.76676039  0.95369980  0.29795718  1
  O  O12  1  0.99476105  0.31390661  0.77117555  1
  O  O13  1  0.27974131  0.89839473  0.40510674  1
  O  O14  1  0.40190903  0.68634737  0.23122603  1
  O  O15  1  0.51880241  0.81018513  0.74259515  1
  O  O16  1  0.64107521  0.89582220  0.08445734  1
  O  O17  1  0.72025869  0.10160527  0.59489326  1
  O  O18  1  0.48119759  0.18981487  0.25740485  1
  O  O19  1  0.35892479  0.10417780  0.91554266  1
  O  O20  1  0.64771729  0.39515999  0.08026451  1
  O  O21  1  0.27700827  0.55410781  0.40282556  1
  O  O22  1  0.35228271  0.60484001  0.91973549  1
  O  O23  1  0.01345125  0.80762505  0.72865043  1
  O  O24  1  0.98654875  0.19237495  0.27134957  1
  O  O25  1  0.72299173  0.44589219  0.59717444  1
  O  O26  1  0.00523895  0.68609339  0.22882445  1
  O  O27  1  0.59809097  0.31365263  0.76877397  1
