# generated using pymatgen
data_ZnS
_symmetry_space_group_name_H-M   'P 1'
_cell_length_a   3.85326947
_cell_length_b   3.85326937
_cell_length_c   125.91018516
_cell_angle_alpha   90.00000000
_cell_angle_beta   90.00000000
_cell_angle_gamma   120.00000095
_symmetry_Int_Tables_number   1
_chemical_formula_structural   ZnS
_chemical_formula_sum   'Zn40 S40'
_cell_volume   1619.01264921
_cell_formula_units_Z   40
loop_
 _symmetry_equiv_pos_site_id
 _symmetry_equiv_pos_as_xyz
  1  'x, y, z'
loop_
 _atom_site_type_symbol
 _atom_site_label
 _atom_site_symmetry_multiplicity
 _atom_site_fract_x
 _atom_site_fract_y
 _atom_site_fract_z
 _atom_site_occupancy
  Zn  Zn0  1  0.00000000  0.00000000  0.27500419  1
  Zn  Zn1  1  0.00000000  0.00000000  0.82500431  1
  Zn  Zn2  1  0.66666700  0.33333300  0.44999973  1
  Zn  Zn3  1  0.33333300  0.66666700  0.32499883  1
  Zn  Zn4  1  0.33333300  0.66666700  0.17499940  1
  Zn  Zn5  1  0.33333300  0.66666700  0.09999957  1
  Zn  Zn6  1  0.00000000  0.00000000  0.42499957  1
  Zn  Zn7  1  0.00000000  0.00000000  0.95000191  1
  Zn  Zn8  1  0.66666700  0.33333300  0.20000085  1
  Zn  Zn9  1  0.66666700  0.33333300  0.52499729  1
  Zn  Zn10  1  0.33333300  0.66666700  0.92499910  1
  Zn  Zn11  1  0.33333300  0.66666700  0.47500106  1
  Zn  Zn12  1  0.00000000  0.00000000  0.14999926  1
  Zn  Zn13  1  0.66666700  0.33333300  0.97499591  1
  Zn  Zn14  1  0.33333300  0.66666700  0.57499738  1
  Zn  Zn15  1  0.00000000  0.00000000  0.55000370  1
  Zn  Zn16  1  0.00000000  0.00000000  0.69999749  1
  Zn  Zn17  1  0.66666700  0.33333300  0.72500467  1
  Zn  Zn18  1  0.66666700  0.33333300  0.37499977  1
  Zn  Zn19  1  0.66666700  0.33333300  0.04999904  1
  Zn  Zn20  1  0.66666700  0.33333300  0.79999738  1
  Zn  Zn21  1  0.00000000  0.00000000  0.22499698  1
  Zn  Zn22  1  0.33333300  0.66666700  0.39999947  1
  Zn  Zn23  1  0.66666700  0.33333300  0.29999762  1
  Zn  Zn24  1  0.00000000  0.00000000  0.00000399  1
  Zn  Zn25  1  0.00000000  0.00000000  0.77499680  1
  Zn  Zn26  1  0.66666700  0.33333300  0.87500110  1
  Zn  Zn27  1  0.33333300  0.66666700  0.02499778  1
  Zn  Zn28  1  0.00000000  0.00000000  0.89999762  1
  Zn  Zn29  1  0.00000000  0.00000000  0.07499943  1
  Zn  Zn30  1  0.66666700  0.33333300  0.59999886  1
  Zn  Zn31  1  0.33333300  0.66666700  0.84999820  1
  Zn  Zn32  1  0.33333300  0.66666700  0.74999955  1
  Zn  Zn33  1  0.00000000  0.00000000  0.49999700  1
  Zn  Zn34  1  0.00000000  0.00000000  0.34999954  1
  Zn  Zn35  1  0.66666700  0.33333300  0.12499928  1
  Zn  Zn36  1  0.33333300  0.66666700  0.65000114  1
  Zn  Zn37  1  0.66666700  0.33333300  0.67499700  1
  Zn  Zn38  1  0.33333300  0.66666700  0.24999718  1
  Zn  Zn39  1  0.00000000  0.00000000  0.62499944  1
  S  S40  1  0.33333300  0.66666700  0.76875173  1
  S  S41  1  0.00000000  0.00000000  0.96873304  1
  S  S42  1  0.33333300  0.66666700  0.59374967  1
  S  S43  1  0.33333300  0.66666700  0.49375260  1
  S  S44  1  0.66666700  0.33333300  0.74374919  1
  S  S45  1  0.33333300  0.66666700  0.04374975  1
  S  S46  1  0.00000000  0.00000000  0.91873596  1
  S  S47  1  0.66666700  0.33333300  0.21875256  1
  S  S48  1  0.00000000  0.00000000  0.51873493  1
  S  S49  1  0.66666700  0.33333300  0.81876590  1
  S  S50  1  0.00000000  0.00000000  0.84374875  1
  S  S51  1  0.33333300  0.66666700  0.11875082  1
  S  S52  1  0.33333300  0.66666700  0.66875270  1
  S  S53  1  0.66666700  0.33333300  0.46875162  1
  S  S54  1  0.00000000  0.00000000  0.56874706  1
  S  S55  1  0.66666700  0.33333300  0.61875043  1
  S  S56  1  0.33333300  0.66666700  0.19375121  1
  S  S57  1  0.00000000  0.00000000  0.29374857  1
  S  S58  1  0.66666700  0.33333300  0.14375063  1
  S  S59  1  0.00000000  0.00000000  0.16875066  1
  S  S60  1  0.00000000  0.00000000  0.44375092  1
  S  S61  1  0.00000000  0.00000000  0.36875105  1
  S  S62  1  0.66666700  0.33333300  0.31874968  1
  S  S63  1  0.00000000  0.00000000  0.01874855  1
  S  S64  1  0.66666700  0.33333300  0.39375112  1
  S  S65  1  0.33333300  0.66666700  0.41875087  1
  S  S66  1  0.66666700  0.33333300  0.89375294  1
  S  S67  1  0.00000000  0.00000000  0.09375089  1
  S  S68  1  0.66666700  0.33333300  0.69373500  1
  S  S69  1  0.00000000  0.00000000  0.79373487  1
  S  S70  1  0.66666700  0.33333300  0.54376577  1
  S  S71  1  0.00000000  0.00000000  0.24373497  1
  S  S72  1  0.33333300  0.66666700  0.34375057  1
  S  S73  1  0.66666700  0.33333300  0.99376491  1
  S  S74  1  0.00000000  0.00000000  0.64375128  1
  S  S75  1  0.33333300  0.66666700  0.86875060  1
  S  S76  1  0.33333300  0.66666700  0.26876583  1
  S  S77  1  0.33333300  0.66666700  0.94376729  1
  S  S78  1  0.00000000  0.00000000  0.71876606  1
  S  S79  1  0.66666700  0.33333300  0.06875060  1
