# generated using pymatgen
data_Ba17Al3O7
_symmetry_space_group_name_H-M   'P 1'
_cell_length_a   15.09219956
_cell_length_b   15.09219956
_cell_length_c   18.54085910
_cell_angle_alpha   90.00000000
_cell_angle_beta   90.00000000
_cell_angle_gamma   90.00000000
_symmetry_Int_Tables_number   1
_chemical_formula_structural   Ba17Al3O7
_chemical_formula_sum   'Ba68 Al12 O28'
_cell_volume   4223.13468040
_cell_formula_units_Z   4
loop_
 _symmetry_equiv_pos_site_id
 _symmetry_equiv_pos_as_xyz
  1  'x, y, z'
loop_
 _atom_site_type_symbol
 _atom_site_label
 _atom_site_symmetry_multiplicity
 _atom_site_fract_x
 _atom_site_fract_y
 _atom_site_fract_z
 _atom_site_occupancy
  Ba  Ba0  1  0.75000000  0.75000000  0.15272168  1
  Ba  Ba1  1  0.88159088  0.61840912  0.98535862  1
  Ba  Ba2  1  0.11840912  0.11840912  0.51464138  1
  Ba  Ba3  1  0.52740424  0.24320547  0.29151044  1
  Ba  Ba4  1  0.97259576  0.25679453  0.29151044  1
  Ba  Ba5  1  0.47259576  0.74320547  0.20848956  1
  Ba  Ba6  1  0.06939249  0.43060751  0.41075217  1
  Ba  Ba7  1  0.52740424  0.25679453  0.79151044  1
  Ba  Ba8  1  0.56939249  0.93060751  0.58924783  1
  Ba  Ba9  1  0.75679453  0.47259576  0.70848956  1
  Ba  Ba10  1  0.06939249  0.06939249  0.91075217  1
  Ba  Ba11  1  0.11840912  0.38159088  0.01464138  1
  Ba  Ba12  1  0.74320547  0.02740424  0.70848956  1
  Ba  Ba13  1  0.24320547  0.52740424  0.29151044  1
  Ba  Ba14  1  0.38159088  0.11840912  0.01464138  1
  Ba  Ba15  1  0.89700779  0.25186685  0.08984979  1
  Ba  Ba16  1  0.48870883  0.48870883  0.68387737  1
  Ba  Ba17  1  0.98870883  0.51129117  0.81612263  1
  Ba  Ba18  1  0.74320547  0.47259576  0.20848956  1
  Ba  Ba19  1  0.62972235  0.87027765  0.37007490  1
  Ba  Ba20  1  0.75679453  0.02740424  0.20848956  1
  Ba  Ba21  1  0.47259576  0.75679453  0.70848956  1
  Ba  Ba22  1  0.61840912  0.61840912  0.48535862  1
  Ba  Ba23  1  0.43060751  0.06939249  0.41075217  1
  Ba  Ba24  1  0.01129117  0.48870883  0.18387737  1
  Ba  Ba25  1  0.87027765  0.87027765  0.87007490  1
  Ba  Ba26  1  0.02740424  0.74320547  0.70848956  1
  Ba  Ba27  1  0.10299221  0.74813315  0.91015021  1
  Ba  Ba28  1  0.75000000  0.75000000  0.65272168  1
  Ba  Ba29  1  0.39700779  0.75186685  0.91015021  1
  Ba  Ba30  1  0.12972235  0.12972235  0.12992510  1
  Ba  Ba31  1  0.61840912  0.88159088  0.98535862  1
  Ba  Ba32  1  0.75186685  0.10299221  0.41015021  1
  Ba  Ba33  1  0.62972235  0.62972235  0.87007490  1
  Ba  Ba34  1  0.37027765  0.37027765  0.12992510  1
  Ba  Ba35  1  0.74813315  0.10299221  0.91015021  1
  Ba  Ba36  1  0.93060751  0.93060751  0.08924783  1
  Ba  Ba37  1  0.12972235  0.37027765  0.62992510  1
  Ba  Ba38  1  0.25679453  0.97259576  0.29151044  1
  Ba  Ba39  1  0.10299221  0.75186685  0.41015021  1
  Ba  Ba40  1  0.60299221  0.25186685  0.58984979  1
  Ba  Ba41  1  0.51129117  0.98870883  0.81612263  1
  Ba  Ba42  1  0.24813315  0.60299221  0.08984979  1
  Ba  Ba43  1  0.89700779  0.24813315  0.58984979  1
  Ba  Ba44  1  0.25679453  0.52740424  0.79151044  1
  Ba  Ba45  1  0.24813315  0.89700779  0.58984979  1
  Ba  Ba46  1  0.87027765  0.62972235  0.37007490  1
  Ba  Ba47  1  0.38159088  0.38159088  0.51464138  1
  Ba  Ba48  1  0.02740424  0.75679453  0.20848956  1
  Ba  Ba49  1  0.25000000  0.25000000  0.34727832  1
  Ba  Ba50  1  0.37027765  0.12972235  0.62992510  1
  Ba  Ba51  1  0.51129117  0.51129117  0.31612263  1
  Ba  Ba52  1  0.97259576  0.24320547  0.79151044  1
  Ba  Ba53  1  0.25186685  0.60299221  0.58984979  1
  Ba  Ba54  1  0.88159088  0.88159088  0.48535862  1
  Ba  Ba55  1  0.98870883  0.98870883  0.31612263  1
  Ba  Ba56  1  0.25186685  0.89700779  0.08984979  1
  Ba  Ba57  1  0.01129117  0.01129117  0.68387737  1
  Ba  Ba58  1  0.74813315  0.39700779  0.41015021  1
  Ba  Ba59  1  0.56939249  0.56939249  0.08924783  1
  Ba  Ba60  1  0.39700779  0.74813315  0.41015021  1
  Ba  Ba61  1  0.75186685  0.39700779  0.91015021  1
  Ba  Ba62  1  0.43060751  0.43060751  0.91075217  1
  Ba  Ba63  1  0.48870883  0.01129117  0.18387737  1
  Ba  Ba64  1  0.25000000  0.25000000  0.84727832  1
  Ba  Ba65  1  0.93060751  0.56939249  0.58924783  1
  Ba  Ba66  1  0.60299221  0.24813315  0.08984979  1
  Ba  Ba67  1  0.24320547  0.97259576  0.79151044  1
  Al  Al68  1  0.33638168  0.33638168  0.69467078  1
  Al  Al69  1  0.16361832  0.16361832  0.69467078  1
  Al  Al70  1  0.83638168  0.66361832  0.80532922  1
  Al  Al71  1  0.66361832  0.83638168  0.80532922  1
  Al  Al72  1  0.33638168  0.16361832  0.19467078  1
  Al  Al73  1  0.16361832  0.33638168  0.19467078  1
  Al  Al74  1  0.66361832  0.66361832  0.30532922  1
  Al  Al75  1  0.75000000  0.25000000  0.75000000  1
  Al  Al76  1  0.25000000  0.75000000  0.75000000  1
  Al  Al77  1  0.83638168  0.83638168  0.30532922  1
  Al  Al78  1  0.25000000  0.75000000  0.25000000  1
  Al  Al79  1  0.75000000  0.25000000  0.25000000  1
  O  O80  1  0.79737902  0.56704060  0.85139071  1
  O  O81  1  0.25000000  0.25000000  0.19529132  1
  O  O82  1  0.20262098  0.06704060  0.64860929  1
  O  O83  1  0.29737902  0.43295940  0.64860929  1
  O  O84  1  0.06704060  0.20262098  0.64860929  1
  O  O85  1  0.63393837  0.63393837  0.21512978  1
  O  O86  1  0.56704060  0.79737902  0.85139071  1
  O  O87  1  0.70262098  0.93295940  0.85139071  1
  O  O88  1  0.56704060  0.70262098  0.35139071  1
  O  O89  1  0.13393837  0.13393837  0.78487022  1
  O  O90  1  0.79737902  0.93295940  0.35139071  1
  O  O91  1  0.43295940  0.20262098  0.14860929  1
  O  O92  1  0.06704060  0.29737902  0.14860929  1
  O  O93  1  0.13393837  0.36606163  0.28487022  1
  O  O94  1  0.20262098  0.43295940  0.14860929  1
  O  O95  1  0.86606163  0.86606163  0.21512978  1
  O  O96  1  0.36606163  0.36606163  0.78487022  1
  O  O97  1  0.25000000  0.25000000  0.69529132  1
  O  O98  1  0.63393837  0.86606163  0.71512978  1
  O  O99  1  0.75000000  0.75000000  0.30470868  1
  O  O100  1  0.29737902  0.06704060  0.14860929  1
  O  O101  1  0.43295940  0.29737902  0.64860929  1
  O  O102  1  0.93295940  0.70262098  0.85139071  1
  O  O103  1  0.93295940  0.79737902  0.35139071  1
  O  O104  1  0.86606163  0.63393837  0.71512978  1
  O  O105  1  0.36606163  0.13393837  0.28487022  1
  O  O106  1  0.75000000  0.75000000  0.80470868  1
  O  O107  1  0.70262098  0.56704060  0.35139071  1
