# generated using pymatgen
data_ZnS
_symmetry_space_group_name_H-M   'P 1'
_cell_length_a   3.85225839
_cell_length_b   3.85225829
_cell_length_c   113.30076348
_cell_angle_alpha   90.00000000
_cell_angle_beta   90.00000000
_cell_angle_gamma   120.00000094
_symmetry_Int_Tables_number   1
_chemical_formula_structural   ZnS
_chemical_formula_sum   'Zn36 S36'
_cell_volume   1456.11029410
_cell_formula_units_Z   36
loop_
 _symmetry_equiv_pos_site_id
 _symmetry_equiv_pos_as_xyz
  1  'x, y, z'
loop_
 _atom_site_type_symbol
 _atom_site_label
 _atom_site_symmetry_multiplicity
 _atom_site_fract_x
 _atom_site_fract_y
 _atom_site_fract_z
 _atom_site_occupancy
  Zn  Zn0  1  0.00000000  0.00000000  0.16666687  1
  Zn  Zn1  1  0.33333300  0.66666700  0.91666658  1
  Zn  Zn2  1  0.66666700  0.33333300  0.33333270  1
  Zn  Zn3  1  0.33333300  0.66666700  0.36111067  1
  Zn  Zn4  1  0.66666700  0.33333300  0.13888741  1
  Zn  Zn5  1  0.66666700  0.33333300  0.97221917  1
  Zn  Zn6  1  0.33333300  0.66666700  0.55555423  1
  Zn  Zn7  1  0.00000000  0.00000000  0.38888395  1
  Zn  Zn8  1  0.00000000  0.00000000  0.94443902  1
  Zn  Zn9  1  0.00000000  0.00000000  0.44445053  1
  Zn  Zn10  1  0.33333300  0.66666700  0.27777668  1
  Zn  Zn11  1  0.00000000  0.00000000  0.66666260  1
  Zn  Zn12  1  0.33333300  0.66666700  0.02777796  1
  Zn  Zn13  1  0.00000000  0.00000000  0.52777403  1
  Zn  Zn14  1  0.66666700  0.33333300  0.88888645  1
  Zn  Zn15  1  0.66666700  0.33333300  0.61110964  1
  Zn  Zn16  1  0.33333300  0.66666700  0.63888697  1
  Zn  Zn17  1  0.00000000  0.00000000  0.58333954  1
  Zn  Zn18  1  0.33333300  0.66666700  0.19444360  1
  Zn  Zn19  1  0.33333300  0.66666700  0.47222080  1
  Zn  Zn20  1  0.66666700  0.33333300  0.22222153  1
  Zn  Zn21  1  0.66666700  0.33333300  0.05555621  1
  Zn  Zn22  1  0.00000000  0.00000000  0.30556452  1
  Zn  Zn23  1  0.00000000  0.00000000  0.00000625  1
  Zn  Zn24  1  0.33333300  0.66666700  0.11111028  1
  Zn  Zn25  1  0.00000000  0.00000000  0.80555278  1
  Zn  Zn26  1  0.00000000  0.00000000  0.72222901  1
  Zn  Zn27  1  0.00000000  0.00000000  0.08333238  1
  Zn  Zn28  1  0.66666700  0.33333300  0.77777854  1
  Zn  Zn29  1  0.66666700  0.33333300  0.69444141  1
  Zn  Zn30  1  0.66666700  0.33333300  0.41666510  1
  Zn  Zn31  1  0.33333300  0.66666700  0.83333053  1
  Zn  Zn32  1  0.00000000  0.00000000  0.24999533  1
  Zn  Zn33  1  0.66666700  0.33333300  0.49999895  1
  Zn  Zn34  1  0.33333300  0.66666700  0.74999895  1
  Zn  Zn35  1  0.00000000  0.00000000  0.86111683  1
  S  S36  1  0.00000000  0.00000000  0.46527713  1
  S  S37  1  0.33333300  0.66666700  0.38194385  1
  S  S38  1  0.66666700  0.33333300  0.79861356  1
  S  S39  1  0.66666700  0.33333300  0.52083282  1
  S  S40  1  0.33333300  0.66666700  0.93750047  1
  S  S41  1  0.66666700  0.33333300  0.99307327  1
  S  S42  1  0.33333300  0.66666700  0.13194407  1
  S  S43  1  0.33333300  0.66666700  0.57640712  1
  S  S44  1  0.66666700  0.33333300  0.90972148  1
  S  S45  1  0.00000000  0.00000000  0.32639086  1
  S  S46  1  0.00000000  0.00000000  0.10416743  1
  S  S47  1  0.33333300  0.66666700  0.21527857  1
  S  S48  1  0.66666700  0.33333300  0.71529529  1
  S  S49  1  0.66666700  0.33333300  0.07639026  1
  S  S50  1  0.66666700  0.33333300  0.24305600  1
  S  S51  1  0.66666700  0.33333300  0.43751800  1
  S  S52  1  0.33333300  0.66666700  0.04861288  1
  S  S53  1  0.00000000  0.00000000  0.60416643  1
  S  S54  1  0.00000000  0.00000000  0.40970530  1
  S  S55  1  0.00000000  0.00000000  0.88194173  1
  S  S56  1  0.66666700  0.33333300  0.15972226  1
  S  S57  1  0.33333300  0.66666700  0.29863050  1
  S  S58  1  0.66666700  0.33333300  0.63194297  1
  S  S59  1  0.33333300  0.66666700  0.85418405  1
  S  S60  1  0.33333300  0.66666700  0.65972131  1
  S  S61  1  0.00000000  0.00000000  0.82637286  1
  S  S62  1  0.33333300  0.66666700  0.77083333  1
  S  S63  1  0.00000000  0.00000000  0.96525991  1
  S  S64  1  0.00000000  0.00000000  0.27081622  1
  S  S65  1  0.00000000  0.00000000  0.74305670  1
  S  S66  1  0.33333300  0.66666700  0.49305596  1
  S  S67  1  0.00000000  0.00000000  0.02083274  1
  S  S68  1  0.66666700  0.33333300  0.35416764  1
  S  S69  1  0.00000000  0.00000000  0.54859482  1
  S  S70  1  0.00000000  0.00000000  0.68748303  1
  S  S71  1  0.00000000  0.00000000  0.18750119  1
