# generated using pymatgen
data_CdI2
_symmetry_space_group_name_H-M   'P 1'
_cell_length_a   4.33362692
_cell_length_b   4.33362719
_cell_length_c   136.42000122
_cell_angle_alpha   90.00000000
_cell_angle_beta   90.00000000
_cell_angle_gamma   119.99999797
_symmetry_Int_Tables_number   1
_chemical_formula_structural   CdI2
_chemical_formula_sum   'Cd18 I36'
_cell_volume   2218.76730186
_cell_formula_units_Z   18
loop_
 _symmetry_equiv_pos_site_id
 _symmetry_equiv_pos_as_xyz
  1  'x, y, z'
loop_
 _atom_site_type_symbol
 _atom_site_label
 _atom_site_symmetry_multiplicity
 _atom_site_fract_x
 _atom_site_fract_y
 _atom_site_fract_z
 _atom_site_occupancy
  Cd  Cd0  1  0.00000000  0.00000000  0.40279720  1
  Cd  Cd1  1  0.66666700  0.33333300  0.45836836  1
  Cd  Cd2  1  0.66666700  0.33333300  0.12501935  1
  Cd  Cd3  1  0.66666700  0.33333300  0.68053059  1
  Cd  Cd4  1  0.00000000  0.00000000  0.84720241  1
  Cd  Cd5  1  0.66666700  0.33333300  0.90278762  1
  Cd  Cd6  1  0.66666700  0.33333300  0.56940690  1
  Cd  Cd7  1  0.66666700  0.33333300  0.73608625  1
  Cd  Cd8  1  0.00000000  0.00000000  0.95829238  1
  Cd  Cd9  1  0.00000000  0.00000000  0.51389382  1
  Cd  Cd10  1  0.66666700  0.33333300  0.62501757  1
  Cd  Cd11  1  0.66666700  0.33333300  0.23608375  1
  Cd  Cd12  1  0.66666700  0.33333300  0.01388914  1
  Cd  Cd13  1  0.66666700  0.33333300  0.34724945  1
  Cd  Cd14  1  0.66666700  0.33333300  0.29169393  1
  Cd  Cd15  1  0.66666700  0.33333300  0.79169247  1
  Cd  Cd16  1  0.00000000  0.00000000  0.18054249  1
  Cd  Cd17  1  0.00000000  0.00000000  0.06943901  1
  I  I18  1  0.00000000  0.00000000  0.11237714  1
  I  I19  1  0.33333300  0.66666700  0.91543397  1
  I  I20  1  0.00000000  0.00000000  0.44574720  1
  I  I21  1  0.33333300  0.66666700  0.35988520  1
  I  I22  1  0.00000000  0.00000000  0.27904502  1
  I  I23  1  0.33333300  0.66666700  0.80434362  1
  I  I24  1  0.00000000  0.00000000  0.77904387  1
  I  I25  1  0.33333300  0.66666700  0.08207804  1
  I  I26  1  0.33333300  0.66666700  0.30434476  1
  I  I27  1  0.00000000  0.00000000  0.22344396  1
  I  I28  1  0.33333300  0.66666700  0.13767002  1
  I  I29  1  0.00000000  0.00000000  0.66788924  1
  I  I30  1  0.66666700  0.33333300  0.83455995  1
  I  I31  1  0.33333300  0.66666700  0.02653171  1
  I  I32  1  0.33333300  0.66666700  0.85984012  1
  I  I33  1  0.66666700  0.33333300  0.16790863  1
  I  I34  1  0.33333300  0.66666700  0.63766842  1
  I  I35  1  0.33333300  0.66666700  0.19318287  1
  I  I36  1  0.33333300  0.66666700  0.47098550  1
  I  I37  1  0.33333300  0.66666700  0.69317585  1
  I  I38  1  0.66666700  0.33333300  0.05680180  1
  I  I39  1  0.00000000  0.00000000  0.00124038  1
  I  I40  1  0.33333300  0.66666700  0.41544233  1
  I  I41  1  0.00000000  0.00000000  0.55675598  1
  I  I42  1  0.00000000  0.00000000  0.72344554  1
  I  I43  1  0.33333300  0.66666700  0.97094270  1
  I  I44  1  0.66666700  0.33333300  0.39015808  1
  I  I45  1  0.66666700  0.33333300  0.94563769  1
  I  I46  1  0.33333300  0.66666700  0.52653081  1
  I  I47  1  0.00000000  0.00000000  0.33461502  1
  I  I48  1  0.33333300  0.66666700  0.74872971  1
  I  I49  1  0.33333300  0.66666700  0.58205858  1
  I  I50  1  0.66666700  0.33333300  0.50125813  1
  I  I51  1  0.33333300  0.66666700  0.24872686  1
  I  I52  1  0.00000000  0.00000000  0.89013366  1
  I  I53  1  0.00000000  0.00000000  0.61237496  1
