# generated using pymatgen
data_K2FeF5
_symmetry_space_group_name_H-M   'P 1'
_cell_length_a   7.55976149
_cell_length_b   13.05865993
_cell_length_c   20.77814287
_cell_angle_alpha   90.00000000
_cell_angle_beta   90.00000000
_cell_angle_gamma   90.00000000
_symmetry_Int_Tables_number   1
_chemical_formula_structural   K2FeF5
_chemical_formula_sum   'K32 Fe16 F80'
_cell_volume   2051.22562894
_cell_formula_units_Z   16
loop_
 _symmetry_equiv_pos_site_id
 _symmetry_equiv_pos_as_xyz
  1  'x, y, z'
loop_
 _atom_site_type_symbol
 _atom_site_label
 _atom_site_symmetry_multiplicity
 _atom_site_fract_x
 _atom_site_fract_y
 _atom_site_fract_z
 _atom_site_occupancy
  K  K0  1  0.67719152  0.01897325  0.50756706  1
  K  K1  1  0.67719152  0.48102675  0.00756706  1
  K  K2  1  0.01471086  0.46096274  0.33666456  1
  K  K3  1  0.65166567  0.48076857  0.49373256  1
  K  K4  1  0.66788361  0.21386481  0.24984715  1
  K  K5  1  0.32566316  0.22905281  0.41566308  1
  K  K6  1  0.81455336  0.96477382  0.33818606  1
  K  K7  1  0.50788071  0.76774367  0.91752046  1
  K  K8  1  0.15166567  0.51923143  0.50626744  1
  K  K9  1  0.16609305  0.32354906  0.74919715  1
  K  K10  1  0.15166567  0.98076857  0.00626744  1
  K  K11  1  0.17719152  0.51897325  0.99243294  1
  K  K12  1  0.82566316  0.72905281  0.08433692  1
  K  K13  1  0.66609305  0.82354906  0.75080285  1
  K  K14  1  0.81455336  0.53522618  0.83818606  1
  K  K15  1  0.31455336  0.46477382  0.16181394  1
  K  K16  1  0.00788071  0.26774367  0.58247954  1
  K  K17  1  0.16788361  0.71386481  0.25015285  1
  K  K18  1  0.50788071  0.73225633  0.41752046  1
  K  K19  1  0.16609305  0.17645094  0.24919715  1
  K  K20  1  0.01471086  0.03903726  0.83666456  1
  K  K21  1  0.17719152  0.98102675  0.49243294  1
  K  K22  1  0.65166567  0.01923143  0.99373256  1
  K  K23  1  0.51471086  0.53903726  0.66333544  1
  K  K24  1  0.32566316  0.27094719  0.91566308  1
  K  K25  1  0.51471086  0.96096274  0.16333544  1
  K  K26  1  0.66609305  0.67645094  0.25080285  1
  K  K27  1  0.66788361  0.28613519  0.74984715  1
  K  K28  1  0.16788361  0.78613519  0.75015285  1
  K  K29  1  0.31455336  0.03522618  0.66181394  1
  K  K30  1  0.00788071  0.23225633  0.08247954  1
  K  K31  1  0.82566316  0.77094719  0.58433692  1
  Fe  Fe32  1  0.49307476  0.24982143  0.07809090  1
  Fe  Fe33  1  0.32872995  0.94633333  0.32767438  1
  Fe  Fe34  1  0.33230476  0.75136457  0.57721885  1
  Fe  Fe35  1  0.50093790  0.05317987  0.82886367  1
  Fe  Fe36  1  0.50093790  0.44682013  0.32886367  1
  Fe  Fe37  1  0.83230476  0.24863543  0.42278115  1
  Fe  Fe38  1  0.00093790  0.55317987  0.67113633  1
  Fe  Fe39  1  0.33230476  0.74863543  0.07721885  1
  Fe  Fe40  1  0.49307476  0.25017857  0.57809090  1
  Fe  Fe41  1  0.82872995  0.44633333  0.17232562  1
  Fe  Fe42  1  0.99307476  0.75017857  0.92190910  1
  Fe  Fe43  1  0.82872995  0.05366667  0.67232562  1
  Fe  Fe44  1  0.83230476  0.25136457  0.92278115  1
  Fe  Fe45  1  0.99307476  0.74982143  0.42190910  1
  Fe  Fe46  1  0.32872995  0.55366667  0.82767438  1
  Fe  Fe47  1  0.00093790  0.94682013  0.17113633  1
  F  F48  1  0.47241208  0.55017693  0.90387482  1
  F  F49  1  0.45710526  0.67258437  0.79702347  1
  F  F50  1  0.99070338  0.33936685  0.96900816  1
  F  F51  1  0.38967931  0.37344879  0.03907497  1
  F  F52  1  0.84660857  0.54870401  0.59787108  1
  F  F53  1  0.17188115  0.92843359  0.24725427  1
  F  F54  1  0.16316067  0.65429603  0.87398393  1
  F  F55  1  0.47795138  0.74229018  0.65254130  1
  F  F56  1  0.83411943  0.73899835  0.85045190  1
  F  F57  1  0.17027673  0.75122842  0.49710585  1
  F  F58  1  0.86941521  0.45610050  0.72285722  1
  F  F59  1  0.69066416  0.36110530  0.89020568  1
  F  F60  1  0.84167300  0.83672401  0.97220000  1
  F  F61  1  0.16316067  0.84570397  0.37398393  1
  F  F62  1  0.95710526  0.17258437  0.70297653  1
  F  F63  1  0.33411943  0.26100165  0.14954810  1
  F  F64  1  0.62484508  0.36121320  0.61392667  1
  F  F65  1  0.87610116  0.67241840  0.70385082  1
  F  F66  1  0.87610116  0.82758160  0.20385082  1
  F  F67  1  0.67027673  0.25122842  0.00289415  1
  F  F68  1  0.94129966  0.37146469  0.46021898  1
  F  F69  1  0.96795951  0.54354426  0.22135505  1
  F  F70  1  0.19066416  0.86110530  0.60979432  1
  F  F71  1  0.88967931  0.87344879  0.46092503  1
  F  F72  1  0.34167300  0.33672401  0.52780000  1
  F  F73  1  0.47795138  0.75770982  0.15254130  1
  F  F74  1  0.17027673  0.74877158  0.99710585  1
  F  F75  1  0.34660857  0.45129599  0.40212892  1
  F  F76  1  0.12484508  0.86121320  0.88607333  1
  F  F77  1  0.49070338  0.83936685  0.53099184  1
  F  F78  1  0.44129966  0.62853531  0.53978102  1
  F  F79  1  0.45710526  0.82741563  0.29702347  1
  F  F80  1  0.67419219  0.94741265  0.64214651  1
  F  F81  1  0.84167300  0.66327599  0.47220000  1
  F  F82  1  0.67188115  0.07156641  0.75274573  1
  F  F83  1  0.34660857  0.04870401  0.90212892  1
  F  F84  1  0.66316067  0.15429603  0.62601607  1
  F  F85  1  0.86941521  0.04389950  0.22285722  1
  F  F86  1  0.37610116  0.17241840  0.79614918  1
  F  F87  1  0.83411943  0.76100165  0.35045190  1
  F  F88  1  0.19066416  0.63889470  0.10979432  1
  F  F89  1  0.65556134  0.15433487  0.87990126  1
  F  F90  1  0.65270140  0.94744215  0.86156504  1
  F  F91  1  0.12484508  0.63878680  0.38607333  1
  F  F92  1  0.47241208  0.94982307  0.40387482  1
  F  F93  1  0.84660857  0.95129599  0.09787108  1
  F  F94  1  0.46795951  0.04354426  0.27864495  1
  F  F95  1  0.96795951  0.95645574  0.72135505  1
  F  F96  1  0.88967931  0.62655121  0.96092503  1
  F  F97  1  0.15556134  0.84566513  0.12009874  1
  F  F98  1  0.65556134  0.34566513  0.37990126  1
  F  F99  1  0.66316067  0.34570397  0.12601607  1
  F  F100  1  0.67027673  0.24877158  0.50289415  1
  F  F101  1  0.36941521  0.95610050  0.77714278  1
  F  F102  1  0.46795951  0.45645574  0.77864495  1
  F  F103  1  0.34167300  0.16327599  0.02780000  1
  F  F104  1  0.33411943  0.23899835  0.64954810  1
  F  F105  1  0.38967931  0.12655121  0.53907497  1
  F  F106  1  0.65270140  0.55255785  0.36156504  1
  F  F107  1  0.97241208  0.05017693  0.59612518  1
  F  F108  1  0.17419219  0.44741265  0.85785349  1
  F  F109  1  0.49070338  0.66063315  0.03099184  1
  F  F110  1  0.17188115  0.57156641  0.74725427  1
  F  F111  1  0.95710526  0.32741563  0.20297653  1
  F  F112  1  0.67419219  0.55258735  0.14214651  1
  F  F113  1  0.99070338  0.16063315  0.46900816  1
  F  F114  1  0.67188115  0.42843359  0.25274573  1
  F  F115  1  0.62484508  0.13878680  0.11392667  1
  F  F116  1  0.97795138  0.24229018  0.84745870  1
  F  F117  1  0.97241208  0.44982307  0.09612518  1
  F  F118  1  0.94129966  0.12853531  0.96021898  1
  F  F119  1  0.37610116  0.32758160  0.29614918  1
  F  F120  1  0.44129966  0.87146469  0.03978102  1
  F  F121  1  0.15270140  0.44744215  0.63843496  1
  F  F122  1  0.69066416  0.13889470  0.39020568  1
  F  F123  1  0.97795138  0.25770982  0.34745870  1
  F  F124  1  0.15556134  0.65433487  0.62009874  1
  F  F125  1  0.36941521  0.54389950  0.27714278  1
  F  F126  1  0.15270140  0.05255785  0.13843496  1
  F  F127  1  0.17419219  0.05258735  0.35785349  1
