# generated using pymatgen
data_ZnS
_symmetry_space_group_name_H-M   'P 1'
_cell_length_a   3.85345461
_cell_length_b   3.85345450
_cell_length_c   113.26671902
_cell_angle_alpha   90.00000000
_cell_angle_beta   90.00000000
_cell_angle_gamma   120.00000086
_symmetry_Int_Tables_number   1
_chemical_formula_structural   ZnS
_chemical_formula_sum   'Zn36 S36'
_cell_volume   1456.57694507
_cell_formula_units_Z   36
loop_
 _symmetry_equiv_pos_site_id
 _symmetry_equiv_pos_as_xyz
  1  'x, y, z'
loop_
 _atom_site_type_symbol
 _atom_site_label
 _atom_site_symmetry_multiplicity
 _atom_site_fract_x
 _atom_site_fract_y
 _atom_site_fract_z
 _atom_site_occupancy
  Zn  Zn0  1  0.00000000  0.00000000  0.16666727  1
  Zn  Zn1  1  0.33333300  0.66666700  0.11111044  1
  Zn  Zn2  1  0.33333300  0.66666700  0.91667560  1
  Zn  Zn3  1  0.66666700  0.33333300  0.55555724  1
  Zn  Zn4  1  0.00000000  0.00000000  0.41666719  1
  Zn  Zn5  1  0.33333300  0.66666700  0.36111056  1
  Zn  Zn6  1  0.66666700  0.33333300  0.13888793  1
  Zn  Zn7  1  0.66666700  0.33333300  0.97222071  1
  Zn  Zn8  1  0.66666700  0.33333300  0.72223056  1
  Zn  Zn9  1  0.00000000  0.00000000  0.94443936  1
  Zn  Zn10  1  0.00000000  0.00000000  0.83333351  1
  Zn  Zn11  1  0.66666700  0.33333300  0.30555725  1
  Zn  Zn12  1  0.33333300  0.66666700  0.27777884  1
  Zn  Zn13  1  0.66666700  0.33333300  0.80555716  1
  Zn  Zn14  1  0.33333300  0.66666700  0.02777818  1
  Zn  Zn15  1  0.33333300  0.66666700  0.61110887  1
  Zn  Zn16  1  0.66666700  0.33333300  0.88888613  1
  Zn  Zn17  1  0.00000000  0.00000000  0.58332887  1
  Zn  Zn18  1  0.33333300  0.66666700  0.19444412  1
  Zn  Zn19  1  0.33333300  0.66666700  0.69444215  1
  Zn  Zn20  1  0.66666700  0.33333300  0.22222249  1
  Zn  Zn21  1  0.66666700  0.33333300  0.05555692  1
  Zn  Zn22  1  0.00000000  0.00000000  0.50000002  1
  Zn  Zn23  1  0.33333300  0.66666700  0.44444408  1
  Zn  Zn24  1  0.33333300  0.66666700  0.86110570  1
  Zn  Zn25  1  0.00000000  0.00000000  0.08333328  1
  Zn  Zn26  1  0.66666700  0.33333300  0.38888795  1
  Zn  Zn27  1  0.66666700  0.33333300  0.47222246  1
  Zn  Zn28  1  0.33333300  0.66666700  0.52777876  1
  Zn  Zn29  1  0.00000000  0.00000000  0.33333345  1
  Zn  Zn30  1  0.33333300  0.66666700  0.77777867  1
  Zn  Zn31  1  0.00000000  0.00000000  0.00000796  1
  Zn  Zn32  1  0.66666700  0.33333300  0.66666221  1
  Zn  Zn33  1  0.00000000  0.00000000  0.63889632  1
  Zn  Zn34  1  0.00000000  0.00000000  0.74999958  1
  Zn  Zn35  1  0.00000000  0.00000000  0.25000003  1
  S  S36  1  0.33333300  0.66666700  0.88192468  1
  S  S37  1  0.33333300  0.66666700  0.63196163  1
  S  S38  1  0.00000000  0.00000000  0.27083307  1
  S  S39  1  0.33333300  0.66666700  0.79861186  1
  S  S40  1  0.66666700  0.33333300  0.07638929  1
  S  S41  1  0.00000000  0.00000000  0.10416608  1
  S  S42  1  0.33333300  0.66666700  0.46527719  1
  S  S43  1  0.00000000  0.00000000  0.96525918  1
  S  S44  1  0.33333300  0.66666700  0.21527724  1
  S  S45  1  0.33333300  0.66666700  0.13194294  1
  S  S46  1  0.66666700  0.33333300  0.99307399  1
  S  S47  1  0.00000000  0.00000000  0.52083303  1
  S  S48  1  0.00000000  0.00000000  0.77083260  1
  S  S49  1  0.00000000  0.00000000  0.60414829  1
  S  S50  1  0.66666700  0.33333300  0.24305564  1
  S  S51  1  0.66666700  0.33333300  0.74305554  1
  S  S52  1  0.66666700  0.33333300  0.68748131  1
  S  S53  1  0.66666700  0.33333300  0.32638949  1
  S  S54  1  0.33333300  0.66666700  0.04861140  1
  S  S55  1  0.00000000  0.00000000  0.85416546  1
  S  S56  1  0.66666700  0.33333300  0.90974002  1
  S  S57  1  0.00000000  0.00000000  0.43749984  1
  S  S58  1  0.33333300  0.66666700  0.54861196  1
  S  S59  1  0.66666700  0.33333300  0.49305556  1
  S  S60  1  0.66666700  0.33333300  0.82638955  1
  S  S61  1  0.66666700  0.33333300  0.15972145  1
  S  S62  1  0.33333300  0.66666700  0.71529558  1
  S  S63  1  0.00000000  0.00000000  0.65972079  1
  S  S64  1  0.33333300  0.66666700  0.38194303  1
  S  S65  1  0.66666700  0.33333300  0.40972143  1
  S  S66  1  0.00000000  0.00000000  0.18749989  1
  S  S67  1  0.66666700  0.33333300  0.57638876  1
  S  S68  1  0.00000000  0.00000000  0.35416614  1
  S  S69  1  0.00000000  0.00000000  0.02083287  1
  S  S70  1  0.33333300  0.66666700  0.93749938  1
  S  S71  1  0.33333300  0.66666700  0.29861202  1
