# generated using pymatgen
data_HfMg6Sb
_symmetry_space_group_name_H-M   'P 1'
_cell_length_a   6.35941978
_cell_length_b   6.07404384
_cell_length_c   5.32390609
_cell_angle_alpha   90.00000000
_cell_angle_beta   90.00000000
_cell_angle_gamma   118.52634641
_symmetry_Int_Tables_number   1
_chemical_formula_structural   HfMg6Sb
_chemical_formula_sum   'Hf1 Mg6 Sb1'
_cell_volume   180.68238611
_cell_formula_units_Z   1
loop_
 _symmetry_equiv_pos_site_id
 _symmetry_equiv_pos_as_xyz
  1  'x, y, z'
loop_
 _atom_site_type_symbol
 _atom_site_label
 _atom_site_symmetry_multiplicity
 _atom_site_fract_x
 _atom_site_fract_y
 _atom_site_fract_z
 _atom_site_occupancy
  Hf  Hf0  1  0.16131316  0.83065608  0.25000000  1
  Mg  Mg1  1  0.66522735  0.33469855  0.25000000  1
  Mg  Mg2  1  0.66522735  0.83052780  0.25000000  1
  Mg  Mg3  1  0.33701065  0.16162451  0.75000000  1
  Mg  Mg4  1  0.33701065  0.67538713  0.75000000  1
  Mg  Mg5  1  0.82928987  0.16464544  0.75000000  1
  Mg  Mg6  1  0.83965266  0.66982683  0.75000000  1
  Sb  Sb7  1  0.16526830  0.33263365  0.25000000  1
