# generated using pymatgen
data_CeSe2
_symmetry_space_group_name_H-M   'P 1'
_cell_length_a   6.60219586
_cell_length_b   7.76990302
_cell_length_c   21.62169344
_cell_angle_alpha   90.00000000
_cell_angle_beta   90.00000000
_cell_angle_gamma   90.00000000
_symmetry_Int_Tables_number   1
_chemical_formula_structural   CeSe2
_chemical_formula_sum   'Ce12 Se24'
_cell_volume   1109.15874474
_cell_formula_units_Z   12
loop_
 _symmetry_equiv_pos_site_id
 _symmetry_equiv_pos_as_xyz
  1  'x, y, z'
loop_
 _atom_site_type_symbol
 _atom_site_label
 _atom_site_symmetry_multiplicity
 _atom_site_fract_x
 _atom_site_fract_y
 _atom_site_fract_z
 _atom_site_occupancy
  Ce  Ce0  1  0.00000000  0.00089516  0.75000000  1
  Ce  Ce1  1  0.50000000  0.49910484  0.25000000  1
  Ce  Ce2  1  0.00000000  -0.00089516  0.25000000  1
  Ce  Ce3  1  0.50000000  0.50089516  0.75000000  1
  Ce  Ce4  1  0.99891637  0.68380019  0.58256290  1
  Ce  Ce5  1  0.50108363  0.81619981  0.08256290  1
  Ce  Ce6  1  0.49891637  0.81619981  0.41743710  1
  Ce  Ce7  1  0.00108363  0.68380019  0.91743710  1
  Ce  Ce8  1  0.00108363  0.31619981  0.41743710  1
  Ce  Ce9  1  0.49891637  0.18380019  0.91743710  1
  Ce  Ce10  1  0.50108363  0.18380019  0.58256290  1
  Ce  Ce11  1  0.99891637  0.31619981  0.08256290  1
  Se  Se12  1  0.26607976  0.91993248  0.52330996  1
  Se  Se13  1  0.23392024  0.58006752  0.02330996  1
  Se  Se14  1  0.76607976  0.58006752  0.47669004  1
  Se  Se15  1  0.73392024  0.91993248  0.97669004  1
  Se  Se16  1  0.73392024  0.08006752  0.47669004  1
  Se  Se17  1  0.76607976  0.41993248  0.97669004  1
  Se  Se18  1  0.23392024  0.41993248  0.52330996  1
  Se  Se19  1  0.26607976  0.08006752  0.02330996  1
  Se  Se20  1  0.75768630  0.93725633  0.64416733  1
  Se  Se21  1  0.74231370  0.56274367  0.14416733  1
  Se  Se22  1  0.25768630  0.56274367  0.35583267  1
  Se  Se23  1  0.24231370  0.93725633  0.85583267  1
  Se  Se24  1  0.24231370  0.06274367  0.35583267  1
  Se  Se25  1  0.25768630  0.43725633  0.85583267  1
  Se  Se26  1  0.74231370  0.43725633  0.64416733  1
  Se  Se27  1  0.75768630  0.06274367  0.14416733  1
  Se  Se28  1  0.25172869  0.75648560  0.68796772  1
  Se  Se29  1  0.24827131  0.74351440  0.18796772  1
  Se  Se30  1  0.75172869  0.74351440  0.31203228  1
  Se  Se31  1  0.74827131  0.75648560  0.81203228  1
  Se  Se32  1  0.74827131  0.24351440  0.31203228  1
  Se  Se33  1  0.75172869  0.25648560  0.81203228  1
  Se  Se34  1  0.24827131  0.25648560  0.68796772  1
  Se  Se35  1  0.25172869  0.24351440  0.18796772  1
