# generated using pymatgen
data_CuH7C3NO6
_symmetry_space_group_name_H-M   'P 1'
_cell_length_a   7.18507052
_cell_length_b   8.19301527
_cell_length_c   13.64532424
_cell_angle_alpha   90.00000000
_cell_angle_beta   90.00000000
_cell_angle_gamma   90.00000000
_symmetry_Int_Tables_number   1
_chemical_formula_structural   CuH7C3NO6
_chemical_formula_sum   'Cu4 H28 C12 N4 O24'
_cell_volume   803.26465764
_cell_formula_units_Z   4
loop_
 _symmetry_equiv_pos_site_id
 _symmetry_equiv_pos_as_xyz
  1  'x, y, z'
loop_
 _atom_site_type_symbol
 _atom_site_label
 _atom_site_symmetry_multiplicity
 _atom_site_fract_x
 _atom_site_fract_y
 _atom_site_fract_z
 _atom_site_occupancy
  Cu  Cu0  1  0.24958961  0.26553444  0.33588037  1
  Cu  Cu1  1  0.25041039  0.76553444  0.66411963  1
  Cu  Cu2  1  0.74958961  0.73446556  0.16411963  1
  Cu  Cu3  1  0.75041039  0.23446556  0.83588037  1
  H  H4  1  0.30758783  0.17206789  0.08125852  1
  H  H5  1  0.19241217  0.67206789  0.91874148  1
  H  H6  1  0.80758783  0.82793211  0.41874148  1
  H  H7  1  0.69241217  0.32793211  0.58125852  1
  H  H8  1  0.19552418  0.34486426  0.06193500  1
  H  H9  1  0.30447582  0.84486426  0.93806500  1
  H  H10  1  0.69552418  0.65513574  0.43806500  1
  H  H11  1  0.80447582  0.15513574  0.56193500  1
  H  H12  1  0.35985762  0.28738117  0.97966314  1
  H  H13  1  0.14014238  0.78738117  0.02033686  1
  H  H14  1  0.85985762  0.71261883  0.52033686  1
  H  H15  1  0.64014238  0.21261883  0.47966314  1
  H  H16  1  0.14822805  0.18596405  0.98802014  1
  H  H17  1  0.35177195  0.68596405  0.01197986  1
  H  H18  1  0.64822805  0.81403595  0.51197986  1
  H  H19  1  0.85177195  0.31403595  0.48802014  1
  H  H20  1  0.51882685  0.95402057  0.28756859  1
  H  H21  1  0.98117315  0.45402057  0.71243141  1
  H  H22  1  0.01882685  0.04597943  0.21243141  1
  H  H23  1  0.48117315  0.54597943  0.78756859  1
  H  H24  1  0.96893833  0.53092744  0.30236949  1
  H  H25  1  0.53106167  0.03092744  0.69763051  1
  H  H26  1  0.46893833  0.46907256  0.19763051  1
  H  H27  1  0.03106167  0.96907256  0.80236949  1
  H  H28  1  0.18571488  0.01268595  0.49086179  1
  H  H29  1  0.31428512  0.51268595  0.50913821  1
  H  H30  1  0.68571488  0.98731405  0.00913821  1
  H  H31  1  0.81428512  0.48731405  0.99086179  1
  C  C32  1  0.47431547  0.97807148  0.21113593  1
  C  C33  1  0.02568453  0.47807148  0.78886407  1
  C  C34  1  0.97431547  0.02192852  0.28886407  1
  C  C35  1  0.52568453  0.52192852  0.71113593  1
  C  C36  1  0.01958931  0.49709341  0.22873174  1
  C  C37  1  0.48041069  0.99709341  0.77126826  1
  C  C38  1  0.51958931  0.50290659  0.27126826  1
  C  C39  1  0.98041069  0.00290659  0.72873174  1
  C  C40  1  0.33901335  0.02601427  0.48990295  1
  C  C41  1  0.16098665  0.52601427  0.51009705  1
  C  C42  1  0.83901335  0.97398573  0.01009705  1
  C  C43  1  0.66098665  0.47398573  0.98990295  1
  N  N44  1  0.25295428  0.24735264  0.02544777  1
  N  N45  1  0.24704572  0.74735264  0.97455223  1
  N  N46  1  0.75295428  0.75264736  0.47455223  1
  N  N47  1  0.74704572  0.25264736  0.52544777  1
  O  O48  1  0.36793272  0.09744031  0.19534071  1
  O  O49  1  0.13206728  0.59744031  0.80465929  1
  O  O50  1  0.86793272  0.90255969  0.30465929  1
  O  O51  1  0.63206728  0.40255969  0.69534071  1
  O  O52  1  0.53499639  0.88217019  0.14390233  1
  O  O53  1  0.96500361  0.38217019  0.85609767  1
  O  O54  1  0.03499639  0.11782981  0.35609767  1
  O  O55  1  0.46500361  0.61782981  0.64390233  1
  O  O56  1  0.14010267  0.38338096  0.22123075  1
  O  O57  1  0.35989733  0.88338096  0.77876925  1
  O  O58  1  0.64010267  0.61661904  0.27876925  1
  O  O59  1  0.85989733  0.11661904  0.72123075  1
  O  O60  1  0.95686895  0.57184325  0.15399210  1
  O  O61  1  0.54313105  0.07184325  0.84600790  1
  O  O62  1  0.45686895  0.42815675  0.34600790  1
  O  O63  1  0.04313105  0.92815675  0.65399210  1
  O  O64  1  0.40645122  0.13653025  0.43235477  1
  O  O65  1  0.09354878  0.63653025  0.56764523  1
  O  O66  1  0.90645122  0.86346975  0.06764523  1
  O  O67  1  0.59354878  0.36346975  0.93235477  1
  O  O68  1  0.43673363  0.93571810  0.54372596  1
  O  O69  1  0.06326637  0.43571810  0.45627404  1
  O  O70  1  0.93673363  0.06428190  0.95627404  1
  O  O71  1  0.56326637  0.56428190  0.04372596  1
