# generated using pymatgen
data_Sr(H8O5)2
_symmetry_space_group_name_H-M   'P 1'
_cell_length_a   6.34056889
_cell_length_b   6.34260830
_cell_length_c   11.16185081
_cell_angle_alpha   90.00000000
_cell_angle_beta   89.88727053
_cell_angle_gamma   90.00000000
_symmetry_Int_Tables_number   1
_chemical_formula_structural   Sr(H8O5)2
_chemical_formula_sum   'Sr2 H32 O20'
_cell_volume   448.88127563
_cell_formula_units_Z   2
loop_
 _symmetry_equiv_pos_site_id
 _symmetry_equiv_pos_as_xyz
  1  'x, y, z'
loop_
 _atom_site_type_symbol
 _atom_site_label
 _atom_site_symmetry_multiplicity
 _atom_site_fract_x
 _atom_site_fract_y
 _atom_site_fract_z
 _atom_site_occupancy
  Sr  Sr0  1  0.00076483  0.00632667  0.25351450  1
  Sr  Sr1  1  0.00076483  0.99367333  0.75351450  1
  H  H2  1  0.03570134  0.45108778  0.37463029  1
  H  H3  1  0.27887323  0.38959399  0.35628135  1
  H  H4  1  0.72387343  0.60748080  0.35570588  1
  H  H5  1  0.85982653  0.68802812  0.46723127  1
  H  H6  1  0.60967260  0.27841196  0.35577750  1
  H  H7  1  0.55145646  0.03549172  0.37456556  1
  H  H8  1  0.39135077  0.72309483  0.35607766  1
  H  H9  1  0.31266481  0.86035832  0.46732196  1
  H  H10  1  0.72387343  0.39251920  0.85570588  1
  H  H11  1  0.85982653  0.31197188  0.96723127  1
  H  H12  1  0.03570134  0.54891222  0.87463029  1
  H  H13  1  0.27887323  0.61040601  0.85628135  1
  H  H14  1  0.39135077  0.27690517  0.85607766  1
  H  H15  1  0.31266481  0.13964168  0.96732196  1
  H  H16  1  0.60967260  0.72158804  0.85577750  1
  H  H17  1  0.55145646  0.96450828  0.87456556  1
  H  H18  1  0.72137535  0.61001648  0.64633176  1
  H  H19  1  0.96200067  0.54710133  0.62723365  1
  H  H20  1  0.26521503  0.38556427  0.65579387  1
  H  H21  1  0.14355365  0.31407907  0.53718775  1
  H  H22  1  0.38911648  0.72010923  0.64618955  1
  H  H23  1  0.45044106  0.96149871  0.62734759  1
  H  H24  1  0.61371591  0.26348713  0.65595496  1
  H  H25  1  0.68581078  0.14249875  0.53728367  1
  H  H26  1  0.26521503  0.61443573  0.15579387  1
  H  H27  1  0.14355365  0.68592093  0.03718775  1
  H  H28  1  0.96200067  0.45289867  0.12723365  1
  H  H29  1  0.72137535  0.38998352  0.14633176  1
  H  H30  1  0.61371591  0.73651287  0.15595496  1
  H  H31  1  0.68581078  0.85750125  0.03728367  1
  H  H32  1  0.45044106  0.03850129  0.12734759  1
  H  H33  1  0.38911648  0.27989077  0.14618955  1
  O  O34  1  0.50034346  0.49454542  0.32103264  1
  O  O35  1  0.50034346  0.50545458  0.82103264  1
  O  O36  1  0.49771510  0.49714302  0.68688861  1
  O  O37  1  0.49771510  0.50285698  0.18688861  1
  O  O38  1  0.13565271  0.32900342  0.38188006  1
  O  O39  1  0.86676149  0.67041844  0.37779950  1
  O  O40  1  0.67233777  0.13655422  0.38243972  1
  O  O41  1  0.33076225  0.86703601  0.37783549  1
  O  O42  1  0.86676149  0.32958156  0.87779950  1
  O  O43  1  0.13565271  0.67099658  0.88188006  1
  O  O44  1  0.33076225  0.13296399  0.87783549  1
  O  O45  1  0.67233777  0.86344578  0.88243972  1
  O  O46  1  0.86404198  0.67103765  0.62143060  1
  O  O47  1  0.12535764  0.32698331  0.62690584  1
  O  O48  1  0.32732437  0.86236355  0.62090857  1
  O  O49  1  0.66965430  0.12292690  0.62686623  1
  O  O50  1  0.12535764  0.67301669  0.12690584  1
  O  O51  1  0.86404198  0.32896235  0.12143060  1
  O  O52  1  0.66965430  0.87707310  0.12686623  1
  O  O53  1  0.32732437  0.13763645  0.12090857  1
