# generated using pymatgen
data_Bi2Te2W3O16
_symmetry_space_group_name_H-M   'P 1'
_cell_length_a   5.61718539
_cell_length_b   11.25093478
_cell_length_c   11.73446983
_cell_angle_alpha   69.37029458
_cell_angle_beta   76.14889078
_cell_angle_gamma   75.54155750
_symmetry_Int_Tables_number   1
_chemical_formula_structural   Bi2Te2W3O16
_chemical_formula_sum   'Bi4 Te4 W6 O32'
_cell_volume   662.61775373
_cell_formula_units_Z   2
loop_
 _symmetry_equiv_pos_site_id
 _symmetry_equiv_pos_as_xyz
  1  'x, y, z'
loop_
 _atom_site_type_symbol
 _atom_site_label
 _atom_site_symmetry_multiplicity
 _atom_site_fract_x
 _atom_site_fract_y
 _atom_site_fract_z
 _atom_site_occupancy
  Bi  Bi0  1  0.55501987  0.39767298  0.15670389  1
  Bi  Bi1  1  0.89062730  0.89762084  0.65672154  1
  Bi  Bi2  1  0.10937270  0.10237916  0.34327846  1
  Bi  Bi3  1  0.44498013  0.60232702  0.84329611  1
  Te  Te4  1  0.70913412  0.03498205  0.15610322  1
  Te  Te5  1  0.29086588  0.96501795  0.84389678  1
  Te  Te6  1  0.90015270  0.46515954  0.34380865  1
  Te  Te7  1  0.09984730  0.53484046  0.65619135  1
  W  W8  1  0.48988825  0.21029603  0.53763445  1
  W  W9  1  0.51011175  0.78970397  0.46236555  1
  W  W10  1  0.23787141  0.28965399  0.96238341  1
  W  W11  1  0.12904977  0.75002614  0.25000685  1
  W  W12  1  0.76212859  0.71034601  0.03761659  1
  W  W13  1  0.87095023  0.24997386  0.74999315  1
  O  O14  1  0.88893425  0.79322808  0.12350227  1
  O  O15  1  0.43088208  0.65175076  0.59993094  1
  O  O16  1  0.80561182  0.70678085  0.37640241  1
  O  O17  1  0.09272854  0.33330270  0.27812239  1
  O  O18  1  0.29572107  0.83323651  0.77815289  1
  O  O19  1  0.29988876  0.72035198  0.37574361  1
  O  O20  1  0.81061675  0.09902778  0.50773174  1
  O  O21  1  0.58256706  0.59904687  0.00772628  1
  O  O22  1  0.17239814  0.56794630  0.25980961  1
  O  O23  1  0.56911792  0.34824924  0.40006906  1
  O  O24  1  0.06604287  0.64154026  0.97033657  1
  O  O25  1  0.39601268  0.77967512  0.12427025  1
  O  O26  1  0.93395713  0.35845974  0.02966343  1
  O  O27  1  0.18938325  0.90097222  0.49226826  1
  O  O28  1  0.90727146  0.66669730  0.72187761  1
  O  O29  1  0.68233766  0.84825489  0.90002273  1
  O  O30  1  0.67807263  0.85845732  0.52962072  1
  O  O31  1  0.26699746  0.44661465  0.79531705  1
  O  O32  1  0.60398732  0.22032488  0.87572975  1
  O  O33  1  0.70427893  0.16676349  0.22184711  1
  O  O34  1  0.19438818  0.29321915  0.62359759  1
  O  O35  1  0.31766234  0.15174511  0.09997727  1
  O  O36  1  0.70011124  0.27964802  0.62425639  1
  O  O37  1  0.50886620  0.05330979  0.70473720  1
  O  O38  1  0.41743294  0.40095313  0.99227372  1
  O  O39  1  0.49113380  0.94669021  0.29526280  1
  O  O40  1  1.00011708  0.93207108  0.24016680  1
  O  O41  1  0.11106575  0.20677192  0.87649773  1
  O  O42  1  0.73300254  0.55338535  0.20468295  1
  O  O43  1  0.32192737  0.14154268  0.47037928  1
  O  O44  1  0.82760186  0.43205370  0.74019039  1
  O  O45  1  -0.00011708  0.06792892  0.75983320  1
