# generated using pymatgen
data_SnS16(Cl2O)2
_symmetry_space_group_name_H-M   'P 1'
_cell_length_a   8.90686199
_cell_length_b   14.21997009
_cell_length_c   22.51319705
_cell_angle_alpha   90.00000000
_cell_angle_beta   91.67345604
_cell_angle_gamma   90.00000000
_symmetry_Int_Tables_number   1
_chemical_formula_structural   SnS16(Cl2O)2
_chemical_formula_sum   'Sn4 S64 Cl16 O8'
_cell_volume   2850.19983643
_cell_formula_units_Z   4
loop_
 _symmetry_equiv_pos_site_id
 _symmetry_equiv_pos_as_xyz
  1  'x, y, z'
loop_
 _atom_site_type_symbol
 _atom_site_label
 _atom_site_symmetry_multiplicity
 _atom_site_fract_x
 _atom_site_fract_y
 _atom_site_fract_z
 _atom_site_occupancy
  Sn  Sn0  1  0.31424065  0.63172973  0.29706522  1
  Sn  Sn1  1  0.18575935  0.13172973  0.20293478  1
  Sn  Sn2  1  0.68575935  0.36827027  0.70293478  1
  Sn  Sn3  1  0.81424065  0.86827027  0.79706522  1
  S  S4  1  0.57115772  0.29699333  0.95411508  1
  S  S5  1  0.24520818  0.54803621  0.51685552  1
  S  S6  1  0.68148820  0.96980436  0.22894024  1
  S  S7  1  0.74184669  0.30053520  0.36903874  1
  S  S8  1  0.31360726  0.45294868  0.18022203  1
  S  S9  1  0.18148820  0.53019564  0.72894024  1
  S  S10  1  0.12816237  0.47054310  0.11198295  1
  S  S11  1  0.51912593  0.41798488  0.12957187  1
  S  S12  1  0.62615678  0.35303881  0.43917004  1
  S  S13  1  0.24184669  0.19946480  0.86903874  1
  S  S14  1  0.87384322  0.85303881  0.06082996  1
  S  S15  1  0.37183763  0.97054310  0.38801705  1
  S  S16  1  0.30954473  0.41465169  0.54762822  1
  S  S17  1  0.61376536  0.89079023  0.59737613  1
  S  S18  1  0.01912593  0.08201512  0.62957187  1
  S  S19  1  0.63027678  0.54001582  0.12422428  1
  S  S20  1  0.42884228  0.70300567  0.04588492  1
  S  S21  1  0.32901123  0.63046230  0.70920498  1
  S  S22  1  0.25815331  0.69946480  0.63096126  1
  S  S23  1  0.62816237  0.02945690  0.61198295  1
  S  S24  1  0.90681424  0.10266255  0.45926965  1
  S  S25  1  0.71497197  0.60223770  0.30443426  1
  S  S26  1  0.77441698  0.35456148  0.97983813  1
  S  S27  1  0.38623464  0.10920977  0.40262387  1
  S  S28  1  0.19045527  0.91465169  0.95237178  1
  S  S29  1  0.17098877  0.13046230  0.79079502  1
  S  S30  1  0.75479182  0.45196379  0.48314448  1
  S  S31  1  0.74520818  0.95196379  0.01685552  1
  S  S32  1  0.80954473  0.08534831  0.04762822  1
  S  S33  1  0.66767769  0.13147293  0.10841064  1
  S  S34  1  0.81360726  0.04705132  0.68022203  1
  S  S35  1  0.22558302  0.64543852  0.02016187  1
  S  S36  1  0.83232231  0.63147293  0.39158936  1
  S  S37  1  0.69045527  0.58534831  0.45237178  1
  S  S38  1  0.72558302  0.85456148  0.52016187  1
  S  S39  1  0.33232231  0.86852707  0.89158936  1
  S  S40  1  0.28502803  0.39776230  0.69556574  1
  S  S41  1  0.36972322  0.45998418  0.87577572  1
  S  S42  1  0.12615678  0.14696119  0.93917004  1
  S  S43  1  0.86972322  0.04001582  0.37577572  1
  S  S44  1  0.40681424  0.39733745  0.95926965  1
  S  S45  1  0.37384322  0.64696119  0.56082996  1
  S  S46  1  0.48087407  0.58201512  0.87042813  1
  S  S47  1  0.09318576  0.89733745  0.54073035  1
  S  S48  1  0.78502803  0.10223770  0.19556574  1
  S  S49  1  0.18639274  0.95294868  0.31977797  1
  S  S50  1  0.21497197  0.89776230  0.80443426  1
  S  S51  1  0.75815331  0.80053520  0.13096126  1
  S  S52  1  0.59318576  0.60266255  0.04073035  1
  S  S53  1  0.11376536  0.60920977  0.09737613  1
  S  S54  1  0.88623464  0.39079023  0.90262387  1
  S  S55  1  0.67098877  0.36953770  0.29079502  1
  S  S56  1  0.07115772  0.20300567  0.45411508  1
  S  S57  1  0.82901123  0.86953770  0.20920498  1
  S  S58  1  0.98087407  0.91798488  0.37042813  1
  S  S59  1  0.13027678  0.95998418  0.62422428  1
  S  S60  1  0.25479182  0.04803621  0.98314448  1
  S  S61  1  0.87183763  0.52945690  0.88801705  1
  S  S62  1  0.27441698  0.14543852  0.47983813  1
  S  S63  1  0.68639274  0.54705132  0.81977797  1
  S  S64  1  0.92884228  0.79699433  0.54588492  1
  S  S65  1  0.16767769  0.36852707  0.60841064  1
  S  S66  1  0.81851180  0.46980436  0.27105976  1
  S  S67  1  0.31851180  0.03019564  0.77105976  1
  Cl  Cl68  1  0.44380521  0.74709291  0.24212502  1
  Cl  Cl69  1  0.05619479  0.24709291  0.25787498  1
  Cl  Cl70  1  0.68762926  0.27966976  0.61238890  1
  Cl  Cl71  1  0.43654824  0.17096398  0.23880073  1
  Cl  Cl72  1  0.56345176  0.82903602  0.76119927  1
  Cl  Cl73  1  0.06345176  0.67096398  0.26119927  1
  Cl  Cl74  1  0.55619479  0.25290709  0.75787498  1
  Cl  Cl75  1  0.24708170  0.98123853  0.16630417  1
  Cl  Cl76  1  0.31237074  0.72033024  0.38761110  1
  Cl  Cl77  1  0.75291830  0.01876147  0.83369583  1
  Cl  Cl78  1  0.25291830  0.48123853  0.33369583  1
  Cl  Cl79  1  0.74708170  0.51876147  0.66630417  1
  Cl  Cl80  1  0.81237074  0.77966976  0.88761110  1
  Cl  Cl81  1  0.18762926  0.22033024  0.11238890  1
  Cl  Cl82  1  0.93654824  0.32903602  0.73880073  1
  Cl  Cl83  1  0.94380521  0.75290709  0.74212502  1
  O  O84  1  0.94114713  0.07172596  0.17889275  1
  O  O85  1  0.55885287  0.57172596  0.32110725  1
  O  O86  1  0.65391599  0.44881548  0.79735025  1
  O  O87  1  0.05885287  0.92827404  0.82110725  1
  O  O88  1  0.84608401  0.94881548  0.70264975  1
  O  O89  1  0.44114713  0.42827404  0.67889275  1
  O  O90  1  0.34608401  0.55118452  0.20264975  1
  O  O91  1  0.15391599  0.05118452  0.29735025  1
