# generated using pymatgen
data_Bi3(TeCl5)2
_symmetry_space_group_name_H-M   'P 1'
_cell_length_a   7.27223979
_cell_length_b   11.37354511
_cell_length_c   15.52232990
_cell_angle_alpha   108.68725905
_cell_angle_beta   91.39709825
_cell_angle_gamma   69.15221397
_symmetry_Int_Tables_number   1
_chemical_formula_structural   Bi3(TeCl5)2
_chemical_formula_sum   'Bi6 Te4 Cl20'
_cell_volume   1130.71898758
_cell_formula_units_Z   2
loop_
 _symmetry_equiv_pos_site_id
 _symmetry_equiv_pos_as_xyz
  1  'x, y, z'
loop_
 _atom_site_type_symbol
 _atom_site_label
 _atom_site_symmetry_multiplicity
 _atom_site_fract_x
 _atom_site_fract_y
 _atom_site_fract_z
 _atom_site_occupancy
  Bi  Bi0  1  0.41249873  0.98957181  0.82301839  1
  Bi  Bi1  1  0.92327278  0.69648370  0.97440677  1
  Bi  Bi2  1  0.07672722  0.30351630  0.02559323  1
  Bi  Bi3  1  0.58750127  0.01042819  0.17698161  1
  Bi  Bi4  1  0.43500106  0.47017305  0.25760653  1
  Bi  Bi5  1  0.56499894  0.52982695  0.74239347  1
  Te  Te6  1  0.20643468  0.84303289  0.50996054  1
  Te  Te7  1  0.79356532  0.15696711  0.49003946  1
  Te  Te8  1  0.12655066  0.11122821  0.57985229  1
  Te  Te9  1  0.87344934  0.88877179  0.42014771  1
  Cl  Cl10  1  0.28799443  0.63270173  0.90735185  1
  Cl  Cl11  1  0.82585368  0.43614989  0.60189541  1
  Cl  Cl12  1  0.17414632  0.56385011  0.39810459  1
  Cl  Cl13  1  0.56970537  0.77426971  0.09533485  1
  Cl  Cl14  1  0.94863520  0.89576695  0.19386860  1
  Cl  Cl15  1  0.88203911  0.45919807  0.90089958  1
  Cl  Cl16  1  0.78518935  0.71922267  0.81752421  1
  Cl  Cl17  1  0.65376921  0.26241864  0.29477510  1
  Cl  Cl18  1  0.61922911  0.61189081  0.34632221  1
  Cl  Cl19  1  0.21481065  0.28077733  0.18247579  1
  Cl  Cl20  1  0.43029463  0.22573029  0.90466515  1
  Cl  Cl21  1  0.11796089  0.54080193  0.09910042  1
  Cl  Cl22  1  0.38077089  0.38810919  0.65367779  1
  Cl  Cl23  1  0.34623079  0.73758136  0.70522490  1
  Cl  Cl24  1  0.23819169  0.02550369  0.99159630  1
  Cl  Cl25  1  0.48666573  0.00595099  0.34006942  1
  Cl  Cl26  1  0.05136480  0.10423305  0.80613140  1
  Cl  Cl27  1  0.76180831  0.97449631  0.00840370  1
  Cl  Cl28  1  0.51333427  0.99404901  0.65993058  1
  Cl  Cl29  1  0.71200557  0.36729827  0.09264815  1
