# generated using pymatgen
data_TePb2O5
_symmetry_space_group_name_H-M   'P 1'
_cell_length_a   5.84026947
_cell_length_b   7.26048244
_cell_length_c   7.37606719
_cell_angle_alpha   63.10331450
_cell_angle_beta   66.64582590
_cell_angle_gamma   66.38724302
_symmetry_Int_Tables_number   1
_chemical_formula_structural   TePb2O5
_chemical_formula_sum   'Te2 Pb4 O10'
_cell_volume   246.55733837
_cell_formula_units_Z   2
loop_
 _symmetry_equiv_pos_site_id
 _symmetry_equiv_pos_as_xyz
  1  'x, y, z'
loop_
 _atom_site_type_symbol
 _atom_site_label
 _atom_site_symmetry_multiplicity
 _atom_site_fract_x
 _atom_site_fract_y
 _atom_site_fract_z
 _atom_site_occupancy
  Te  Te0  1  0.05254456  0.21542570  0.68749469  1
  Te  Te1  1  0.04403097  0.71524355  0.18802351  1
  Pb  Pb2  1  0.38954501  0.53262484  0.68159040  1
  Pb  Pb3  1  0.72357005  0.90247163  0.68095563  1
  Pb  Pb4  1  0.39530685  0.03241321  0.18385842  1
  Pb  Pb5  1  0.69509348  0.40138636  0.17803499  1
  O  O6  1  0.28435070  0.70011014  0.31792990  1
  O  O7  1  0.99875708  0.41826534  0.81479270  1
  O  O8  1  0.80179719  0.73347056  0.05863104  1
  O  O9  1  0.69787965  0.19929597  0.81810648  1
  O  O10  1  0.76666907  0.91400364  0.31901481  1
  O  O11  1  0.40584448  0.23451099  0.55792425  1
  O  O12  1  0.32141910  0.51767472  0.05405798  1
  O  O13  1  0.10866817  0.01418264  0.55702150  1
  O  O14  1  0.17637875  0.96558329  0.93848508  1
  O  O15  1  0.92180988  0.46203043  0.43611764  1
