# generated using pymatgen
data_Cs3Fe2F9
_symmetry_space_group_name_H-M   'P 1'
_cell_length_a   6.45735497
_cell_length_b   6.45738725
_cell_length_c   15.17187063
_cell_angle_alpha   89.99994321
_cell_angle_beta   89.99995112
_cell_angle_gamma   120.00104926
_symmetry_Int_Tables_number   1
_chemical_formula_structural   Cs3Fe2F9
_chemical_formula_sum   'Cs6 Fe4 F18'
_cell_volume   547.86891874
_cell_formula_units_Z   2
loop_
 _symmetry_equiv_pos_site_id
 _symmetry_equiv_pos_as_xyz
  1  'x, y, z'
loop_
 _atom_site_type_symbol
 _atom_site_label
 _atom_site_symmetry_multiplicity
 _atom_site_fract_x
 _atom_site_fract_y
 _atom_site_fract_z
 _atom_site_occupancy
  Cs  Cs0  1  0.33333311  0.66666667  0.75000112  1
  Cs  Cs1  1  0.66666685  0.33333336  0.24999891  1
  Cs  Cs2  1  0.33333315  0.66666699  0.43286834  1
  Cs  Cs3  1  0.66666667  0.33333275  0.93286949  1
  Cs  Cs4  1  0.66666686  0.33333299  0.56713131  1
  Cs  Cs5  1  0.33333329  0.66666720  0.06713097  1
  Fe  Fe6  1  -0.00000051  0.00000024  0.15300027  1
  Fe  Fe7  1  0.00000055  0.00000002  0.65301007  1
  Fe  Fe8  1  0.00000086  -0.00000058  0.84699926  1
  Fe  Fe9  1  -0.00000052  0.00000023  0.34698965  1
  F  F10  1  0.13177627  0.26355132  0.24999822  1
  F  F11  1  0.86822510  0.13177409  0.75000188  1
  F  F12  1  0.26355233  0.13177649  0.75000188  1
  F  F13  1  0.73644849  0.86822397  0.24999821  1
  F  F14  1  0.13177444  0.86822635  0.24999820  1
  F  F15  1  0.86822328  0.73644784  0.75000187  1
  F  F16  1  0.14967478  0.29934807  0.59498551  1
  F  F17  1  0.85032584  0.14967374  0.09498368  1
  F  F18  1  0.29934950  0.14967515  0.09498353  1
  F  F19  1  0.70065125  0.85032504  0.59498549  1
  F  F20  1  0.14967382  0.85032652  0.59498542  1
  F  F21  1  0.85032534  0.70065237  0.40501443  1
  F  F22  1  0.85032617  0.14967338  0.40501461  1
  F  F23  1  0.85032497  0.70065117  0.09498357  1
  F  F24  1  0.29934855  0.14967492  0.40501454  1
  F  F25  1  0.70065042  0.85032482  0.90501657  1
  F  F26  1  0.14967495  0.29934880  0.90501655  1
  F  F27  1  0.14967416  0.85032611  0.90501645  1
