# generated using pymatgen
data_SiC4(SN)4
_symmetry_space_group_name_H-M   'P 1'
_cell_length_a   14.28040533
_cell_length_b   14.28040557
_cell_length_c   14.28040544
_cell_angle_alpha   97.53136071
_cell_angle_beta   115.75129302
_cell_angle_gamma   115.75129318
_symmetry_Int_Tables_number   1
_chemical_formula_structural   SiC4(SN)4
_chemical_formula_sum   'Si8 C32 S32 N32'
_cell_volume   2171.14254053
_cell_formula_units_Z   8
loop_
 _symmetry_equiv_pos_site_id
 _symmetry_equiv_pos_as_xyz
  1  'x, y, z'
loop_
 _atom_site_type_symbol
 _atom_site_label
 _atom_site_symmetry_multiplicity
 _atom_site_fract_x
 _atom_site_fract_y
 _atom_site_fract_z
 _atom_site_occupancy
  Si  Si0  1  0.96377852  0.60213946  0.74496600  1
  Si  Si1  1  0.64282654  0.86163906  0.89786054  1
  Si  Si2  1  0.53622148  0.28118749  0.63836094  1
  Si  Si3  1  0.03622148  0.39786054  0.25503400  1
  Si  Si4  1  0.35717346  0.13836094  0.10213946  1
  Si  Si5  1  0.85717346  0.75503400  0.21881251  1
  Si  Si6  1  0.14282654  0.24496600  0.78118749  1
  Si  Si7  1  0.46377852  0.71881251  0.36163906  1
  C  C8  1  0.17383935  0.75627180  0.97399239  1
  C  C9  1  0.64565871  0.77296249  0.16048022  1
  C  C10  1  0.21772060  0.47399239  0.80015304  1
  C  C11  1  0.61248227  0.33951978  0.48517848  1
  C  C12  1  0.38751773  0.66048022  0.51482152  1
  C  C13  1  0.11248227  0.62730378  0.27296249  1
  C  C14  1  0.75238958  0.44117411  0.86344431  1
  C  C15  1  0.53040121  0.94707390  0.38428007  1
  C  C16  1  0.24761042  0.55882589  0.13655569  1
  C  C17  1  0.03040121  0.64612114  0.58332731  1
  C  C18  1  0.42227021  0.36344431  0.11105474  1
  C  C19  1  0.06279383  0.91667269  0.44707390  1
  C  C20  1  0.57772979  0.63655569  0.88894526  1
  C  C21  1  0.43720617  0.88428007  0.85387886  1
  C  C22  1  0.82616065  0.24372820  0.02600761  1
  C  C23  1  0.46959879  0.05292610  0.61571993  1
  C  C24  1  0.92227021  0.81121547  0.05882589  1
  C  C25  1  0.88751773  0.37269622  0.72703751  1
  C  C26  1  0.35434129  0.22703751  0.83951978  1
  C  C27  1  0.71772060  0.91756756  0.74372820  1
  C  C28  1  0.93720617  0.08332731  0.55292610  1
  C  C29  1  0.74761042  0.61105474  0.68878453  1
  C  C30  1  0.56279383  0.11571993  0.14612114  1
  C  C31  1  0.96959879  0.35387886  0.41667269  1
  C  C32  1  0.07772979  0.18878453  0.94117411  1
  C  C33  1  0.78227940  0.52600761  0.19984696  1
  C  C34  1  0.25238958  0.38894526  0.31121547  1
  C  C35  1  0.14565871  0.98517848  0.87269622  1
  C  C36  1  0.28227940  0.08243244  0.25627180  1
  C  C37  1  0.85434129  0.01482152  0.12730378  1
  C  C38  1  0.67383935  0.69984696  0.41756756  1
  C  C39  1  0.32616065  0.30015304  0.58243244  1
  S  S40  1  0.43341246  0.92940406  0.60201637  1
  S  S41  1  0.73710427  0.40152012  0.18993973  1
  S  S42  1  0.46855584  0.21606528  0.87644404  1
  S  S43  1  0.33962124  0.62355596  0.59211180  1
  S  S44  1  0.78841961  0.68993973  0.45283547  1
  S  S45  1  0.26289573  0.59847988  0.81006027  1
  S  S46  1  0.82738769  0.99599160  0.42940406  1
  S  S47  1  0.16037876  0.75249056  0.28393472  1
  S  S48  1  0.96855584  0.09211180  0.25249056  1
  S  S49  1  0.95514072  0.84527277  0.97216768  1
  S  S50  1  0.76289573  0.95283547  0.66441586  1
  S  S51  1  0.04485928  0.15472723  0.02783232  1
  S  S52  1  0.53144416  0.78393472  0.12355596  1
  S  S53  1  0.45514072  0.48297304  0.10986795  1
  S  S54  1  0.67261231  0.10201637  0.16860391  1
  S  S55  1  0.54485928  0.51702696  0.89013205  1
  S  S56  1  0.17261231  0.00400840  0.57059594  1
  S  S57  1  0.37310509  0.39013205  0.34527277  1
  S  S58  1  0.21158039  0.31006027  0.54716453  1
  S  S59  1  0.32738769  0.89798363  0.83139609  1
  S  S60  1  0.23710427  0.04716453  0.33558414  1
  S  S61  1  0.03144416  0.90788820  0.74750944  1
  S  S62  1  0.56658754  0.07059594  0.39798363  1
  S  S63  1  0.62689491  0.60986795  0.65472723  1
  S  S64  1  0.87310509  0.52783232  0.98297304  1
  S  S65  1  0.12689491  0.47216768  0.01702696  1
  S  S66  1  0.28841961  0.83558414  0.09847988  1
  S  S67  1  0.83962124  0.24750944  0.71606528  1
  S  S68  1  0.93341246  0.33139609  0.50400840  1
  S  S69  1  0.66037876  0.37644404  0.40788820  1
  S  S70  1  0.06658754  0.66860391  0.49599160  1
  S  S71  1  0.71158039  0.16441586  0.90152012  1
  N  N72  1  0.57560128  0.31085982  0.54444502  1
  N  N73  1  0.15997585  0.38896494  0.28483472  1
  N  N74  1  0.42439872  0.68914018  0.45555498  1
  N  N75  1  0.31834680  0.11066451  0.19640037  1
  N  N76  1  0.65997585  0.37514113  0.77101092  1
  N  N77  1  0.58573587  0.70768230  0.38933549  1
  N  N78  1  0.68165320  0.88933549  0.80359963  1
  N  N79  1  0.49734271  0.14837499  0.62758842  1
  N  N80  1  0.07560128  0.53115626  0.26474146  1
  N  N81  1  0.08573587  0.69640037  0.87805357  1
  N  N82  1  0.99734271  0.36975429  0.34896772  1
  N  N83  1  0.34002415  0.62485887  0.22898908  1
  N  N84  1  0.52078657  0.87241158  0.86975429  1
  N  N85  1  0.41426413  0.29231770  0.61066451  1
  N  N86  1  0.02078657  0.15103228  0.64837499  1
  N  N87  1  0.47921343  0.12758842  0.13024571  1
  N  N88  1  0.26641480  0.23525854  0.81085982  1
  N  N89  1  0.23358520  0.04444502  0.96884374  1
  N  N90  1  0.76641480  0.95555498  0.03115626  1
  N  N91  1  0.39586979  0.27101092  0.11103506  1
  N  N92  1  0.89586979  0.78483472  0.12485887  1
  N  N93  1  0.81834680  0.62194643  0.20768230  1
  N  N94  1  0.50265729  0.85162501  0.37241158  1
  N  N95  1  0.84002415  0.61103506  0.71516528  1
  N  N96  1  0.18165320  0.37805357  0.79231770  1
  N  N97  1  0.92439872  0.46884374  0.73525854  1
  N  N98  1  0.10413021  0.21516528  0.87514113  1
  N  N99  1  0.73358520  0.76474146  0.18914018  1
  N  N100  1  0.00265729  0.63024571  0.65103228  1
  N  N101  1  0.60413021  0.72898908  0.88896494  1
  N  N102  1  0.97921343  0.84896772  0.35162501  1
  N  N103  1  0.91426413  0.30359963  0.12194643  1
