# generated using pymatgen
data_Tl2Cd2(SO4)3
_symmetry_space_group_name_H-M   'P 1'
_cell_length_a   10.59570263
_cell_length_b   10.59570263
_cell_length_c   10.59570263
_cell_angle_alpha   90.00000000
_cell_angle_beta   90.00000000
_cell_angle_gamma   90.00000000
_symmetry_Int_Tables_number   1
_chemical_formula_structural   Tl2Cd2(SO4)3
_chemical_formula_sum   'Tl8 Cd8 S12 O48'
_cell_volume   1189.56802970
_cell_formula_units_Z   4
loop_
 _symmetry_equiv_pos_site_id
 _symmetry_equiv_pos_as_xyz
  1  'x, y, z'
loop_
 _atom_site_type_symbol
 _atom_site_label
 _atom_site_symmetry_multiplicity
 _atom_site_fract_x
 _atom_site_fract_y
 _atom_site_fract_z
 _atom_site_occupancy
  O  O0  1  0.25534590  0.41600672  0.14547387  1
  O  O1  1  0.75534590  0.08399328  0.85452613  1
  O  O2  1  0.74465410  0.91600672  0.35452613  1
  O  O3  1  0.08399328  0.85452613  0.75534590  1
  O  O4  1  0.35452613  0.74465410  0.91600672  1
  O  O5  1  0.85452613  0.75534590  0.08399328  1
  O  O6  1  0.41600672  0.14547387  0.25534590  1
  O  O7  1  0.14547387  0.25534590  0.41600672  1
  O  O8  1  0.91600672  0.35452613  0.74465410  1
  O  O9  1  0.58399328  0.64547387  0.24465410  1
  O  O10  1  0.64547387  0.24465410  0.58399328  1
  O  O11  1  0.24465410  0.58399328  0.64547387  1
  O  O12  1  0.23848768  0.48591645  0.92867475  1
  O  O13  1  0.73848768  0.01408355  0.07132525  1
  O  O14  1  0.76151232  0.98591645  0.57132525  1
  O  O15  1  0.01408355  0.07132525  0.73848768  1
  O  O16  1  0.57132525  0.76151232  0.98591645  1
  O  O17  1  0.07132525  0.73848768  0.01408355  1
  O  O18  1  0.49268302  0.90559665  0.82265246  1
  O  O19  1  0.48591645  0.92867475  0.23848768  1
  O  O20  1  0.98591645  0.57132525  0.76151232  1
  O  O21  1  0.51408355  0.42867475  0.26151232  1
  O  O22  1  0.42867475  0.26151232  0.51408355  1
  O  O23  1  0.26151232  0.51408355  0.42867475  1
  O  O24  1  0.09440335  0.32265246  0.00731698  1
  O  O25  1  0.59440335  0.17734754  0.99268302  1
  O  O26  1  0.90559665  0.82265246  0.49268302  1
  O  O27  1  0.17734754  0.99268302  0.59440335  1
  O  O28  1  0.18396461  0.72320309  0.47098432  1
  O  O29  1  0.47098432  0.18396461  0.72320309  1
  O  O30  1  0.72320309  0.47098432  0.18396461  1
  O  O31  1  0.77679691  0.52901568  0.68396461  1
  O  O32  1  0.97098432  0.31603539  0.27679691  1
  O  O33  1  0.27679691  0.97098432  0.31603539  1
  O  O34  1  0.02901568  0.81603539  0.22320309  1
  O  O35  1  0.52901568  0.68396461  0.77679691  1
  O  O36  1  0.22320309  0.02901568  0.81603539  1
  O  O37  1  0.68396461  0.77679691  0.52901568  1
  O  O38  1  0.81603539  0.22320309  0.02901568  1
  O  O39  1  0.31603539  0.27679691  0.97098432  1
  O  O40  1  0.40559665  0.67734754  0.50731698  1
  O  O41  1  0.50731698  0.40559665  0.67734754  1
  O  O42  1  0.67734754  0.50731698  0.40559665  1
  O  O43  1  0.82265246  0.49268302  0.90559665  1
  O  O44  1  0.00731698  0.09440335  0.32265246  1
  O  O45  1  0.32265246  0.00731698  0.09440335  1
  O  O46  1  0.99268302  0.59440335  0.17734754  1
  O  O47  1  0.92867475  0.23848768  0.48591645  1
  S  S48  1  0.22599087  0.37499551  0.01384008  1
  S  S49  1  0.72599087  0.12500449  0.98615992  1
  S  S50  1  0.77400913  0.87499551  0.48615992  1
  S  S51  1  0.12500449  0.98615992  0.72599087  1
  S  S52  1  0.48615992  0.77400913  0.87499551  1
  S  S53  1  0.98615992  0.72599087  0.12500449  1
  S  S54  1  0.37499551  0.01384008  0.22599087  1
  S  S55  1  0.01384008  0.22599087  0.37499551  1
  S  S56  1  0.87499551  0.48615992  0.77400913  1
  S  S57  1  0.62500449  0.51384008  0.27400913  1
  S  S58  1  0.51384008  0.27400913  0.62500449  1
  S  S59  1  0.27400913  0.62500449  0.51384008  1
  Cd  Cd60  1  0.41345143  0.08654857  0.91345143  1
  Cd  Cd61  1  0.08654857  0.91345143  0.41345143  1
  Cd  Cd62  1  0.91345143  0.41345143  0.08654857  1
  Cd  Cd63  1  0.58654857  0.58654857  0.58654857  1
  Cd  Cd64  1  0.66984300  0.83015700  0.16984300  1
  Cd  Cd65  1  0.83015700  0.16984300  0.66984300  1
  Cd  Cd66  1  0.16984300  0.66984300  0.83015700  1
  Cd  Cd67  1  0.33015700  0.33015700  0.33015700  1
  Tl  Tl68  1  0.05303424  0.05303424  0.05303424  1
  Tl  Tl69  1  0.94696576  0.55303424  0.44696576  1
  Tl  Tl70  1  0.55303424  0.44696576  0.94696576  1
  Tl  Tl71  1  0.44696576  0.94696576  0.55303424  1
  Tl  Tl72  1  0.81598656  0.81598656  0.81598656  1
  Tl  Tl73  1  0.31598656  0.68401344  0.18401344  1
  Tl  Tl74  1  0.68401344  0.18401344  0.31598656  1
  Tl  Tl75  1  0.18401344  0.31598656  0.68401344  1
