# generated using pymatgen
data_K3Na(MoO4)2
_symmetry_space_group_name_H-M   'P 1'
_cell_length_a   6.14683155
_cell_length_b   6.15585672
_cell_length_c   15.51974058
_cell_angle_alpha   90.05352800
_cell_angle_beta   90.00000000
_cell_angle_gamma   119.95151331
_symmetry_Int_Tables_number   1
_chemical_formula_structural   K3Na(MoO4)2
_chemical_formula_sum   'K6 Na2 Mo4 O16'
_cell_volume   508.82288231
_cell_formula_units_Z   2
loop_
 _symmetry_equiv_pos_site_id
 _symmetry_equiv_pos_as_xyz
  1  'x, y, z'
loop_
 _atom_site_type_symbol
 _atom_site_label
 _atom_site_symmetry_multiplicity
 _atom_site_fract_x
 _atom_site_fract_y
 _atom_site_fract_z
 _atom_site_occupancy
  K  K0  1  0.34998355  0.65855041  0.08461728  1
  K  K1  1  0.65001645  0.34144959  0.91538272  1
  K  K2  1  0.05543759  0.00000000  0.25000000  1
  K  K3  1  0.94456241  0.00000000  0.75000000  1
  K  K4  1  0.69143314  0.34144959  0.41538272  1
  K  K5  1  0.30856686  0.65855041  0.58461728  1
  Na  Na6  1  0.00000000  0.00000000  0.00000000  1
  Na  Na7  1  0.00000000  0.00000000  0.50000000  1
  Mo  Mo8  1  0.31753955  0.67501008  0.86099805  1
  Mo  Mo9  1  0.68246045  0.32498992  0.13900195  1
  Mo  Mo10  1  0.64252947  0.32498992  0.63900195  1
  Mo  Mo11  1  0.35747053  0.67501008  0.36099805  1
  O  O12  1  0.72268736  0.34319838  0.75053566  1
  O  O13  1  0.85585371  0.63227554  0.09106351  1
  O  O14  1  0.84919251  0.15777932  0.12039681  1
  O  O15  1  0.22393488  0.83710691  0.41774231  1
  O  O16  1  0.14414629  0.36772446  0.90893649  1
  O  O17  1  0.69141319  0.84222068  0.37960319  1
  O  O18  1  0.22357817  0.36772446  0.40893649  1
  O  O19  1  0.30858681  0.15777932  0.62039681  1
  O  O20  1  0.77606512  0.16289309  0.58225769  1
  O  O21  1  0.27731264  0.65680162  0.24946434  1
  O  O22  1  0.15080749  0.84222068  0.87960319  1
  O  O23  1  0.38682797  0.16289309  0.08225769  1
  O  O24  1  0.37948898  0.65680162  0.74946434  1
  O  O25  1  0.62051102  0.34319838  0.25053566  1
  O  O26  1  0.61317203  0.83710691  0.91774231  1
  O  O27  1  0.77642183  0.63227554  0.59106351  1
