# generated using pymatgen
data_LiHS
_symmetry_space_group_name_H-M   'P 1'
_cell_length_a   6.16526638
_cell_length_b   3.94303510
_cell_length_c   7.85631407
_cell_angle_alpha   90.00000000
_cell_angle_beta   90.00000000
_cell_angle_gamma   90.00000000
_symmetry_Int_Tables_number   1
_chemical_formula_structural   LiHS
_chemical_formula_sum   'Li4 H4 S4'
_cell_volume   190.98590881
_cell_formula_units_Z   4
loop_
 _symmetry_equiv_pos_site_id
 _symmetry_equiv_pos_as_xyz
  1  'x, y, z'
loop_
 _atom_site_type_symbol
 _atom_site_label
 _atom_site_symmetry_multiplicity
 _atom_site_fract_x
 _atom_site_fract_y
 _atom_site_fract_z
 _atom_site_occupancy
  Li  Li0  1  0.25003987  0.49927313  0.24858746  1
  Li  Li1  1  0.74996013  0.49927313  0.24858746  1
  Li  Li2  1  0.74996013  0.50072687  0.74858746  1
  Li  Li3  1  0.25003987  0.50072687  0.74858746  1
  H  H4  1  0.00000000  0.01350654  0.93376838  1
  H  H5  1  0.00000000  0.98649346  0.43376838  1
  H  H6  1  0.50000000  0.87543134  0.49963559  1
  H  H7  1  0.50000000  0.12456866  0.99963559  1
  S  S8  1  0.00000000  0.00233937  0.76225631  1
  S  S9  1  0.00000000  0.99766063  0.26225631  1
  S  S10  1  0.50000000  0.53338008  0.49977479  1
  S  S11  1  0.50000000  0.46661992  0.99977479  1
