# generated using pymatgen
data_LiB13C2
_symmetry_space_group_name_H-M   'P 1'
_cell_length_a   5.67727518
_cell_length_b   7.32315016
_cell_length_c   7.29086105
_cell_angle_alpha   66.78051758
_cell_angle_beta   67.34124013
_cell_angle_gamma   67.38637655
_symmetry_Int_Tables_number   1
_chemical_formula_structural   LiB13C2
_chemical_formula_sum   'Li2 B26 C4'
_cell_volume   247.20727038
_cell_formula_units_Z   2
loop_
 _symmetry_equiv_pos_site_id
 _symmetry_equiv_pos_as_xyz
  1  'x, y, z'
loop_
 _atom_site_type_symbol
 _atom_site_label
 _atom_site_symmetry_multiplicity
 _atom_site_fract_x
 _atom_site_fract_y
 _atom_site_fract_z
 _atom_site_occupancy
  Li  Li0  1  0.75569224  0.93879638  0.56016931  1
  Li  Li1  1  0.25257295  0.06896901  0.43029244  1
  B  B2  1  0.66659138  0.32051269  0.34663800  1
  B  B3  1  0.82347017  0.48024973  0.37876734  1
  B  B4  1  0.18245722  0.12184068  0.02230805  1
  B  B5  1  0.17639271  0.51851428  0.62463211  1
  B  B6  1  0.90980377  0.09012102  0.77253141  1
  B  B7  1  0.27194920  0.72713097  0.41150293  1
  B  B8  1  0.68127600  0.51939531  0.62632620  1
  B  B9  1  0.67725852  0.12277422  0.02217536  1
  B  B10  1  0.40906655  0.27080972  0.59112645  1
  B  B11  1  0.33372263  0.67723677  0.65688505  1
  B  B12  1  0.42718732  0.39474203  0.75290933  1
  B  B13  1  0.59151439  0.72761615  0.41207468  1
  B  B14  1  0.81925540  0.87732646  0.98093534  1
  B  B15  1  0.83493855  0.15327212  0.18120854  1
  B  B16  1  0.31870142  0.47899751  0.37688709  1
  B  B17  1  0.75173432  0.61405101  0.88863934  1
  B  B18  1  0.77211737  0.90851299  0.23058504  1
  B  B19  1  0.16714335  0.84506181  0.82172694  1
  B  B20  1  0.92815914  0.24995639  0.89817949  1
  B  B21  1  0.72913506  0.27153815  0.59223118  1
  B  B22  1  0.23013268  0.08967147  0.77236240  1
  B  B23  1  0.07352902  0.74932470  0.10479855  1
  B  B24  1  0.32505591  0.87631961  0.98116305  1
  B  B25  1  0.57365558  0.60284320  0.25035264  1
  B  B26  1  0.24792659  0.38757166  0.11265182  1
  B  B27  1  0.09248047  0.90835681  0.23082256  1
  C  C28  1  0.11689989  0.51113587  0.25084054  1
  C  C29  1  0.38318542  0.24603708  0.99229771  1
  C  C30  1  0.61896520  0.75219231  0.01161314  1
  C  C31  1  0.88272260  0.48803988  0.75168900  1
