# generated using pymatgen
data_Ca2Ta2O7
_symmetry_space_group_name_H-M   'P 1'
_cell_length_a   7.42489440
_cell_length_b   7.42489437
_cell_length_c   48.80940413
_cell_angle_alpha   90.00000000
_cell_angle_beta   90.00000000
_cell_angle_gamma   119.86112671
_symmetry_Int_Tables_number   1
_chemical_formula_structural   Ca2Ta2O7
_chemical_formula_sum   'Ca32 Ta32 O112'
_cell_volume   2333.56950962
_cell_formula_units_Z   16
loop_
 _symmetry_equiv_pos_site_id
 _symmetry_equiv_pos_as_xyz
  1  'x, y, z'
loop_
 _atom_site_type_symbol
 _atom_site_label
 _atom_site_symmetry_multiplicity
 _atom_site_fract_x
 _atom_site_fract_y
 _atom_site_fract_z
 _atom_site_occupancy
  Ca  Ca0  1  0.74409069  0.74706593  0.81217373  1
  Ca  Ca1  1  0.58487779  0.42025349  0.62574044  1
  Ca  Ca2  1  0.24698969  0.76155878  0.31468210  1
  Ca  Ca3  1  0.23844122  0.75301031  0.18531790  1
  Ca  Ca4  1  0.56765336  0.41135731  0.43732392  1
  Ca  Ca5  1  0.09952242  0.94249790  0.06073994  1
  Ca  Ca6  1  0.41135731  0.56765336  0.56267608  1
  Ca  Ca7  1  0.74706593  0.74409069  0.18782627  1
  Ca  Ca8  1  0.25590931  0.25293407  0.31217373  1
  Ca  Ca9  1  0.41512221  0.57974651  0.12574044  1
  Ca  Ca10  1  0.24206743  0.74926948  0.81415303  1
  Ca  Ca11  1  0.07973560  0.43212109  0.06366299  1
  Ca  Ca12  1  0.74926948  0.24206743  0.18584697  1
  Ca  Ca13  1  0.58864269  0.43234664  0.06267608  1
  Ca  Ca14  1  0.43212109  0.07973560  0.93633701  1
  Ca  Ca15  1  0.92026440  0.56787891  0.56366299  1
  Ca  Ca16  1  0.94249790  0.09952242  0.93926006  1
  Ca  Ca17  1  0.24016454  0.24016454  0.50000000  1
  Ca  Ca18  1  0.75793257  0.25073052  0.31415303  1
  Ca  Ca19  1  0.90047758  0.05750210  0.56073994  1
  Ca  Ca20  1  0.75301031  0.23844122  0.81468210  1
  Ca  Ca21  1  0.75983546  0.75983546  0.00000000  1
  Ca  Ca22  1  0.05750210  0.90047758  0.43926006  1
  Ca  Ca23  1  0.25073052  0.75793257  0.68584697  1
  Ca  Ca24  1  0.56787891  0.92026440  0.43633701  1
  Ca  Ca25  1  0.59028321  0.40971679  0.25000000  1
  Ca  Ca26  1  0.43234664  0.58864269  0.93732392  1
  Ca  Ca27  1  0.42025349  0.58487779  0.37425956  1
  Ca  Ca28  1  0.76155878  0.24698969  0.68531790  1
  Ca  Ca29  1  0.57974651  0.41512221  0.87425956  1
  Ca  Ca30  1  0.25293407  0.25590931  0.68782627  1
  Ca  Ca31  1  0.40971679  0.59028321  0.75000000  1
  Ta  Ta32  1  0.59072126  0.91069990  0.24714316  1
  Ta  Ta33  1  0.27159717  0.27357361  0.18877490  1
  Ta  Ta34  1  0.40927874  0.08930010  0.74714316  1
  Ta  Ta35  1  0.59020722  0.91769324  0.87561460  1
  Ta  Ta36  1  0.10343780  0.41336089  0.43726018  1
  Ta  Ta37  1  0.73982161  0.73982161  0.50000000  1
  Ta  Ta38  1  0.91139076  0.07945230  0.37391323  1
  Ta  Ta39  1  0.74283026  0.24176411  0.49842320  1
  Ta  Ta40  1  0.08860924  0.92054770  0.87391323  1
  Ta  Ta41  1  0.58663911  0.89656220  0.06273982  1
  Ta  Ta42  1  0.08915435  0.91084565  0.25000000  1
  Ta  Ta43  1  0.08930010  0.40927874  0.25285684  1
  Ta  Ta44  1  0.91285327  0.58182007  0.37635267  1
  Ta  Ta45  1  0.08230676  0.40979278  0.62438540  1
  Ta  Ta46  1  0.40979278  0.08230676  0.37561460  1
  Ta  Ta47  1  0.26017839  0.26017839  0.00000000  1
  Ta  Ta48  1  0.41817993  0.08714673  0.12364733  1
  Ta  Ta49  1  0.72642639  0.72840283  0.31122510  1
  Ta  Ta50  1  0.25716974  0.75823589  0.99842320  1
  Ta  Ta51  1  0.89656220  0.58663911  0.93726018  1
  Ta  Ta52  1  0.75823589  0.25716974  0.00157680  1
  Ta  Ta53  1  0.91084565  0.08915435  0.75000000  1
  Ta  Ta54  1  0.91769324  0.59020722  0.12438540  1
  Ta  Ta55  1  0.08714673  0.41817993  0.87635267  1
  Ta  Ta56  1  0.91069990  0.59072126  0.75285684  1
  Ta  Ta57  1  0.24176411  0.74283026  0.50157680  1
  Ta  Ta58  1  0.41336089  0.10343780  0.56273982  1
  Ta  Ta59  1  0.92054770  0.08860924  0.12608677  1
  Ta  Ta60  1  0.27357361  0.27159717  0.81122510  1
  Ta  Ta61  1  0.07945230  0.91139076  0.62608677  1
  Ta  Ta62  1  0.58182007  0.91285327  0.62364733  1
  Ta  Ta63  1  0.72840283  0.72642639  0.68877490  1
  O  O64  1  0.78757691  0.80998915  0.86966216  1
  O  O65  1  0.75905178  0.72320554  0.54085422  1
  O  O66  1  0.03929355  0.64129762  0.86257742  1
  O  O67  1  0.12698802  0.99657447  0.83480205  1
  O  O68  1  0.83765195  0.04937603  0.08631970  1
  O  O69  1  0.61599200  0.38400800  0.75000000  1
  O  O70  1  0.20722518  0.18722718  0.74007419  1
  O  O71  1  0.21752568  0.78247432  0.75000000  1
  O  O72  1  0.78930801  0.22189501  0.87003499  1
  O  O73  1  0.77810499  0.21069199  0.62996501  1
  O  O74  1  0.74043605  0.78480694  0.04434062  1
  O  O75  1  0.38400800  0.61599200  0.25000000  1
  O  O76  1  0.62557845  0.02202887  0.75880363  1
  O  O77  1  0.99657447  0.12698802  0.16519795  1
  O  O78  1  0.38755734  0.01702215  0.88003529  1
  O  O79  1  0.92191039  0.56536609  0.79254263  1
  O  O80  1  0.43463391  0.07808961  0.70745737  1
  O  O81  1  0.04310776  0.44757028  0.91591660  1
  O  O82  1  0.27155515  0.81786149  0.54067249  1
  O  O83  1  0.96070645  0.35870238  0.36257742  1
  O  O84  1  0.45773947  0.61682384  0.32942807  1
  O  O85  1  0.19617999  0.14906617  0.11262571  1
  O  O86  1  0.85093383  0.80382001  0.38737429  1
  O  O87  1  0.37362905  0.13193080  0.16283986  1
  O  O88  1  0.01047912  0.85291130  0.28980693  1
  O  O89  1  0.02202887  0.62557845  0.24119637  1
  O  O90  1  0.84233711  0.04252374  0.50573148  1
  O  O91  1  0.14708870  0.98952088  0.21019307  1
  O  O92  1  0.56536609  0.92191039  0.20745737  1
  O  O93  1  0.38919094  0.61531940  0.88175324  1
  O  O94  1  0.56534681  0.36565627  0.58144739  1
  O  O95  1  0.45787292  0.61474106  0.70565804  1
  O  O96  1  0.09910176  0.35074103  0.21159262  1
  O  O97  1  0.63434373  0.43465319  0.91855261  1
  O  O98  1  0.04937603  0.83765195  0.91368030  1
  O  O99  1  0.64925897  0.90089824  0.28840738  1
  O  O100  1  0.85291130  0.01047912  0.71019307  1
  O  O101  1  0.19001085  0.21242309  0.63033784  1
  O  O102  1  0.07808961  0.43463391  0.29254263  1
  O  O103  1  0.46117613  0.01668178  0.48800807  1
  O  O104  1  0.54212708  0.38525894  0.20565804  1
  O  O105  1  0.81786149  0.27155515  0.45932751  1
  O  O106  1  0.80382001  0.85093383  0.61262571  1
  O  O107  1  0.43653750  0.63656003  0.50638010  1
  O  O108  1  0.37442155  0.97797113  0.25880363  1
  O  O109  1  0.90089824  0.64925897  0.71159262  1
  O  O110  1  0.62518497  0.93904406  0.91623486  1
  O  O111  1  0.18722718  0.20722518  0.25992581  1
  O  O112  1  0.44757028  0.04310776  0.08408340  1
  O  O113  1  0.95689224  0.55242972  0.41591660  1
  O  O114  1  0.79277482  0.81277282  0.24007419  1
  O  O115  1  0.01702215  0.38755734  0.11996471  1
  O  O116  1  0.61682384  0.45773947  0.67057193  1
  O  O117  1  0.36565627  0.56534681  0.41855261  1
  O  O118  1  0.16234805  0.95062397  0.58631970  1
  O  O119  1  0.80998915  0.78757691  0.13033784  1
  O  O120  1  0.27679446  0.24094822  0.95914578  1
  O  O121  1  0.72320554  0.75905178  0.45914578  1
  O  O122  1  0.15766289  0.95747626  0.00573148  1
  O  O123  1  0.93904406  0.62518497  0.08376514  1
  O  O124  1  0.37481503  0.06095594  0.41623486  1
  O  O125  1  0.61080906  0.38468060  0.38175324  1
  O  O126  1  0.98952088  0.14708870  0.78980693  1
  O  O127  1  0.06095594  0.37481503  0.58376514  1
  O  O128  1  0.04252374  0.84233711  0.49426852  1
  O  O129  1  0.20288187  0.65908758  0.46163017  1
  O  O130  1  0.56351996  0.90478585  0.83439476  1
  O  O131  1  0.61474106  0.45787292  0.29434196  1
  O  O132  1  0.56346250  0.36343997  0.00638010  1
  O  O133  1  0.18213851  0.72844485  0.95932751  1
  O  O134  1  0.38468060  0.61080906  0.61824676  1
  O  O135  1  0.21519306  0.25956395  0.45565938  1
  O  O136  1  0.78247432  0.21752568  0.25000000  1
  O  O137  1  0.14906617  0.19617999  0.88737429  1
  O  O138  1  0.98331822  0.53882387  0.01199193  1
  O  O139  1  0.61244266  0.98297785  0.38003529  1
  O  O140  1  0.53882387  0.98331822  0.98800807  1
  O  O141  1  0.21069199  0.77810499  0.37003499  1
  O  O142  1  0.35870238  0.96070645  0.63742258  1
  O  O143  1  0.54226053  0.38317616  0.82942807  1
  O  O144  1  0.13193080  0.37362905  0.83716014  1
  O  O145  1  0.65908758  0.20288187  0.53836983  1
  O  O146  1  0.34091242  0.79711813  0.03836983  1
  O  O147  1  0.63656003  0.43653750  0.49361990  1
  O  O148  1  0.97797113  0.37442155  0.74119637  1
  O  O149  1  0.22189501  0.78930801  0.12996501  1
  O  O150  1  0.43465319  0.63434373  0.08144739  1
  O  O151  1  0.81277282  0.79277482  0.75992581  1
  O  O152  1  0.95062397  0.16234805  0.41368030  1
  O  O153  1  0.78480694  0.74043605  0.95565938  1
  O  O154  1  0.72844485  0.18213851  0.04067249  1
  O  O155  1  0.21242309  0.19001085  0.36966216  1
  O  O156  1  0.00342553  0.87301198  0.66519795  1
  O  O157  1  0.95747626  0.15766289  0.99426852  1
  O  O158  1  0.35074103  0.09910176  0.78840738  1
  O  O159  1  0.79711813  0.34091242  0.96163017  1
  O  O160  1  0.43648004  0.09521415  0.33439476  1
  O  O161  1  0.86806920  0.62637095  0.33716014  1
  O  O162  1  0.01668178  0.46117613  0.51199193  1
  O  O163  1  0.36343997  0.56346250  0.99361990  1
  O  O164  1  0.24094822  0.27679446  0.04085422  1
  O  O165  1  0.62637095  0.86806920  0.66283986  1
  O  O166  1  0.09521415  0.43648004  0.66560524  1
  O  O167  1  0.64129762  0.03929355  0.13742258  1
  O  O168  1  0.90478585  0.56351996  0.16560524  1
  O  O169  1  0.38317616  0.54226053  0.17057193  1
  O  O170  1  0.25956395  0.21519306  0.54434062  1
  O  O171  1  0.38525894  0.54212708  0.79434196  1
  O  O172  1  0.61531940  0.38919094  0.11824676  1
  O  O173  1  0.98297785  0.61244266  0.61996471  1
  O  O174  1  0.55242972  0.95689224  0.58408340  1
  O  O175  1  0.87301198  0.00342553  0.33480205  1
