# generated using pymatgen
data_Na3In(PO4)2
_symmetry_space_group_name_H-M   'P 1'
_cell_length_a   5.21618842
_cell_length_b   7.21065981
_cell_length_c   18.46323248
_cell_angle_alpha   90.00000000
_cell_angle_beta   90.00000000
_cell_angle_gamma   92.21421548
_symmetry_Int_Tables_number   1
_chemical_formula_structural   Na3In(PO4)2
_chemical_formula_sum   'Na12 In4 P8 O32'
_cell_volume   693.92356098
_cell_formula_units_Z   4
loop_
 _symmetry_equiv_pos_site_id
 _symmetry_equiv_pos_as_xyz
  1  'x, y, z'
loop_
 _atom_site_type_symbol
 _atom_site_label
 _atom_site_symmetry_multiplicity
 _atom_site_fract_x
 _atom_site_fract_y
 _atom_site_fract_z
 _atom_site_occupancy
  O  O0  1  0.36791527  0.89508527  0.56201553  1
  O  O1  1  0.13208473  0.60491473  0.06201553  1
  O  O2  1  0.63208473  0.10491473  0.43798447  1
  O  O3  1  0.86791527  0.39508527  0.93798447  1
  O  O4  1  0.36129042  0.54350571  0.56760669  1
  O  O5  1  0.13870958  0.95649429  0.06760669  1
  O  O6  1  0.63870958  0.45649429  0.43239331  1
  O  O7  1  0.86129042  0.04350571  0.93239331  1
  O  O8  1  0.22450159  0.71271064  0.45140159  1
  O  O9  1  0.27549841  0.78728936  0.95140159  1
  O  O10  1  0.77549841  0.28728936  0.54859841  1
  O  O11  1  0.72450159  0.21271064  0.04859841  1
  O  O12  1  0.94278956  0.71500145  0.56339146  1
  O  O13  1  0.55721044  0.78499855  0.06339146  1
  O  O14  1  0.05721044  0.28499855  0.43660854  1
  O  O15  1  0.44278956  0.21500145  0.93660854  1
  O  O16  1  0.45822644  0.04089859  0.19770205  1
  O  O17  1  0.04177356  0.45910141  0.69770205  1
  O  O18  1  0.54177356  0.95910141  0.80229795  1
  O  O19  1  0.95822644  0.54089859  0.30229795  1
  O  O20  1  0.01274118  0.18316094  0.19448665  1
  O  O21  1  0.48725882  0.31683906  0.69448665  1
  O  O22  1  0.98725882  0.81683906  0.80551335  1
  O  O23  1  0.51274118  0.68316094  0.30551335  1
  O  O24  1  0.82963306  0.74805226  0.20196073  1
  O  O25  1  0.67036694  0.75194774  0.70196073  1
  O  O26  1  0.17036694  0.25194774  0.79803927  1
  O  O27  1  0.32963306  0.24805226  0.29803927  1
  O  O28  1  0.90761110  0.88631545  0.32866121  1
  O  O29  1  0.59238890  0.61368455  0.82866121  1
  O  O30  1  0.09238890  0.11368455  0.67133879  1
  O  O31  1  0.40761110  0.38631545  0.17133879  1
  Na  Na32  1  0.79883012  0.19549946  0.30600237  1
  Na  Na33  1  0.78663387  0.48599189  0.12459924  1
  Na  Na34  1  0.71336613  0.01400811  0.62459924  1
  Na  Na35  1  0.21336613  0.51400811  0.87540076  1
  Na  Na36  1  0.28663387  0.98599189  0.37540076  1
  Na  Na37  1  0.29883012  0.69549946  0.19399763  1
  Na  Na38  1  0.20116988  0.80450054  0.69399763  1
  Na  Na39  1  0.70116988  0.30450054  0.80600237  1
  Na  Na40  1  0.74178948  0.79113662  0.45009083  1
  Na  Na41  1  0.24178948  0.29113662  0.04990917  1
  Na  Na42  1  0.25821052  0.20886338  0.54990917  1
  Na  Na43  1  0.75821052  0.70886338  0.95009083  1
  P  P44  1  0.76974715  0.28348347  0.46330182  1
  P  P45  1  0.80413156  0.71827855  0.28636856  1
  P  P46  1  0.69586844  0.78172145  0.78636856  1
  P  P47  1  0.19586844  0.28172145  0.71363144  1
  P  P48  1  0.30413156  0.21827855  0.21363144  1
  P  P49  1  0.73025285  0.21651653  0.96330182  1
  P  P50  1  0.26974715  0.78348347  0.03669818  1
  P  P51  1  0.23025285  0.71651653  0.53669818  1
  In  In52  1  0.28332388  0.48761137  0.37214920  1
  In  In53  1  0.21667612  0.01238863  0.87214920  1
  In  In54  1  0.71667612  0.51238863  0.62785080  1
  In  In55  1  0.78332388  0.98761137  0.12785080  1
