# generated using pymatgen
data_ZnBi6P2O15
_symmetry_space_group_name_H-M   'P 1'
_cell_length_a   5.52368757
_cell_length_b   8.21370982
_cell_length_c   17.20458473
_cell_angle_alpha   103.62346504
_cell_angle_beta   90.00000000
_cell_angle_gamma   109.64845407
_symmetry_Int_Tables_number   1
_chemical_formula_structural   ZnBi6P2O15
_chemical_formula_sum   'Zn2 Bi12 P4 O30'
_cell_volume   711.75876264
_cell_formula_units_Z   2
loop_
 _symmetry_equiv_pos_site_id
 _symmetry_equiv_pos_as_xyz
  1  'x, y, z'
loop_
 _atom_site_type_symbol
 _atom_site_label
 _atom_site_symmetry_multiplicity
 _atom_site_fract_x
 _atom_site_fract_y
 _atom_site_fract_z
 _atom_site_occupancy
  Zn  Zn0  1  0.37740678  0.37411447  0.76770668  1
  Zn  Zn1  1  0.00329231  0.62588553  0.23229332  1
  Bi  Bi2  1  0.89302465  0.42162368  0.38987565  1
  Bi  Bi3  1  0.26951688  0.13927689  0.92283891  1
  Bi  Bi4  1  0.17752848  0.94899949  0.59504655  1
  Bi  Bi5  1  0.77329615  0.05237244  0.74264780  1
  Bi  Bi6  1  0.07560837  0.71391103  0.75729473  1
  Bi  Bi7  1  0.36169734  0.28608897  0.24270527  1
  Bi  Bi8  1  0.47140097  0.57837632  0.61012435  1
  Bi  Bi9  1  0.22852899  0.05100051  0.40495345  1
  Bi  Bi10  1  0.59942702  0.80735594  0.91218208  1
  Bi  Bi11  1  0.72092371  0.94762756  0.25735220  1
  Bi  Bi12  1  0.79207208  0.19264406  0.08781792  1
  Bi  Bi13  1  0.13023999  0.86072311  0.07716109  1
  P  P14  1  0.89548378  0.42786726  0.89726899  1
  P  P15  1  0.46761651  0.57213274  0.10273101  1
  P  P16  1  0.48709667  0.71858726  0.42102493  1
  P  P17  1  0.76850941  0.28141274  0.57897507  1
  O  O18  1  0.40261246  0.93609959  0.83979803  1
  O  O19  1  0.04979393  0.86621120  0.29160949  1
  O  O20  1  0.75725658  0.43527978  0.65222005  1
  O  O21  1  0.31797015  0.70738629  0.49365559  1
  O  O22  1  0.61058386  0.29261371  0.50634441  1
  O  O23  1  0.94899294  1.00000000  1.00000000  1
  O  O24  1  0.91446132  0.94879886  0.83788966  1
  O  O25  1  0.73048650  0.66383068  0.15786991  1
  O  O26  1  0.51244176  0.19228162  0.33692958  1
  O  O27  1  0.74636753  0.69701614  0.43913337  1
  O  O28  1  0.04935139  0.30298386  0.56086663  1
  O  O29  1  0.83133314  0.81070828  0.66077376  1
  O  O30  1  0.80965870  0.41266114  0.26169210  1
  O  O31  1  0.53563062  0.90060457  0.39797699  1
  O  O32  1  0.39699657  0.58733886  0.73830790  1
  O  O33  1  0.63502606  0.09939543  0.60202301  1
  O  O34  1  0.02062586  0.18929172  0.33922624  1
  O  O35  1  0.46651287  0.06390041  0.16020197  1
  O  O36  1  0.18358174  0.13378880  0.70839051  1
  O  O37  1  0.96566346  0.05120114  0.16211034  1
  O  O38  1  0.50033158  0.64469596  0.02749556  1
  O  O39  1  0.45672439  0.00000000  0.00000000  1
  O  O40  1  0.02012718  0.63383387  0.91200830  1
  O  O41  1  0.26298887  0.63907711  0.15214322  1
  O  O42  1  0.38629331  0.36616613  0.08799170  1
  O  O43  1  0.85563562  0.35530404  0.97250444  1
  O  O44  1  0.32197681  0.56472022  0.34777995  1
  O  O45  1  0.62391276  0.36092289  0.84785678  1
  O  O46  1  0.06665482  0.33616932  0.84213009  1
  O  O47  1  0.32016014  0.80771838  0.66307042  1
