# generated using pymatgen
data_YbMgNiH4
_symmetry_space_group_name_H-M   'P 1'
_cell_length_a   6.62761345
_cell_length_b   6.62761345
_cell_length_c   6.62761345
_cell_angle_alpha   90.00000000
_cell_angle_beta   90.00000000
_cell_angle_gamma   90.00000000
_symmetry_Int_Tables_number   1
_chemical_formula_structural   YbMgNiH4
_chemical_formula_sum   'Yb4 Mg4 Ni4 H16'
_cell_volume   291.11964425
_cell_formula_units_Z   4
loop_
 _symmetry_equiv_pos_site_id
 _symmetry_equiv_pos_as_xyz
  1  'x, y, z'
loop_
 _atom_site_type_symbol
 _atom_site_label
 _atom_site_symmetry_multiplicity
 _atom_site_fract_x
 _atom_site_fract_y
 _atom_site_fract_z
 _atom_site_occupancy
  Yb  Yb0  1  0.16583426  0.66583426  0.83416574  1
  Yb  Yb1  1  0.66583426  0.83416574  0.16583426  1
  Yb  Yb2  1  0.83416574  0.16583426  0.66583426  1
  Yb  Yb3  1  0.33416574  0.33416574  0.33416574  1
  Mg  Mg4  1  0.84139158  0.34139158  0.15860842  1
  Mg  Mg5  1  0.34139158  0.15860842  0.84139158  1
  Mg  Mg6  1  0.15860842  0.84139158  0.34139158  1
  Mg  Mg7  1  0.65860842  0.65860842  0.65860842  1
  Ni  Ni8  1  0.45396336  0.95396336  0.54603664  1
  Ni  Ni9  1  0.95396336  0.54603664  0.45396336  1
  Ni  Ni10  1  0.54603664  0.45396336  0.95396336  1
  Ni  Ni11  1  0.04603664  0.04603664  0.04603664  1
  H  H12  1  0.59128147  0.09128147  0.40871853  1
  H  H13  1  0.09128147  0.40871853  0.59128147  1
  H  H14  1  0.40871853  0.59128147  0.09128147  1
  H  H15  1  0.90871853  0.90871853  0.90871853  1
  H  H16  1  0.26455877  0.94723289  0.06341938  1
  H  H17  1  0.93658062  0.76455877  0.55276711  1
  H  H18  1  0.44723289  0.43658062  0.73544123  1
  H  H19  1  0.76455877  0.55276711  0.93658062  1
  H  H20  1  0.43658062  0.73544123  0.44723289  1
  H  H21  1  0.94723289  0.06341938  0.26455877  1
  H  H22  1  0.73544123  0.44723289  0.43658062  1
  H  H23  1  0.06341938  0.26455877  0.94723289  1
  H  H24  1  0.55276711  0.93658062  0.76455877  1
  H  H25  1  0.23544123  0.05276711  0.56341938  1
  H  H26  1  0.56341938  0.23544123  0.05276711  1
  H  H27  1  0.05276711  0.56341938  0.23544123  1
