# generated using pymatgen
data_Ba(H8O5)2
_symmetry_space_group_name_H-M   'P 1'
_cell_length_a   6.51263303
_cell_length_b   6.51263303
_cell_length_c   11.36485858
_cell_angle_alpha   89.98568059
_cell_angle_beta   89.98568059
_cell_angle_gamma   90.01636067
_symmetry_Int_Tables_number   1
_chemical_formula_structural   Ba(H8O5)2
_chemical_formula_sum   'Ba2 H32 O20'
_cell_volume   482.03348318
_cell_formula_units_Z   2
loop_
 _symmetry_equiv_pos_site_id
 _symmetry_equiv_pos_as_xyz
  1  'x, y, z'
loop_
 _atom_site_type_symbol
 _atom_site_label
 _atom_site_symmetry_multiplicity
 _atom_site_fract_x
 _atom_site_fract_y
 _atom_site_fract_z
 _atom_site_occupancy
  Ba  Ba0  1  0.00186262  0.99813738  0.25000000  1
  Ba  Ba1  1  0.99813738  0.00186262  0.75000000  1
  H  H2  1  0.27475013  0.40205862  0.34812690  1
  H  H3  1  0.14699212  0.33453837  0.46238593  1
  H  H4  1  0.71714559  0.59459020  0.35692966  1
  H  H5  1  0.95551695  0.53951127  0.37193050  1
  H  H6  1  0.59370875  0.27187578  0.34825301  1
  H  H7  1  0.66578877  0.14599935  0.46181856  1
  H  H8  1  0.45949069  0.95399762  0.37230633  1
  H  H9  1  0.40225840  0.71582180  0.35646961  1
  H  H10  1  0.71582180  0.40225840  0.85646961  1
  H  H11  1  0.95399762  0.45949069  0.87230633  1
  H  H12  1  0.27187578  0.59370875  0.84825301  1
  H  H13  1  0.14599935  0.66578877  0.96181856  1
  H  H14  1  0.40205862  0.27475013  0.84812690  1
  H  H15  1  0.33453837  0.14699212  0.96238593  1
  H  H16  1  0.59459020  0.71714559  0.85692966  1
  H  H17  1  0.53951127  0.95551695  0.87193050  1
  H  H18  1  0.72524987  0.59794138  0.65187310  1
  H  H19  1  0.85300788  0.66546163  0.53761407  1
  H  H20  1  0.28285441  0.40540980  0.64307034  1
  H  H21  1  0.04448305  0.46048873  0.62806950  1
  H  H22  1  0.40629125  0.72812422  0.65174699  1
  H  H23  1  0.33421123  0.85400065  0.53818144  1
  H  H24  1  0.54050931  0.04600238  0.62769367  1
  H  H25  1  0.59774160  0.28417820  0.64353039  1
  H  H26  1  0.04600238  0.54050931  0.12769367  1
  H  H27  1  0.28417820  0.59774160  0.14353039  1
  H  H28  1  0.72812422  0.40629125  0.15174699  1
  H  H29  1  0.85400065  0.33421123  0.03818144  1
  H  H30  1  0.59794138  0.72524987  0.15187310  1
  H  H31  1  0.66546163  0.85300788  0.03761407  1
  H  H32  1  0.46048873  0.04448305  0.12806950  1
  H  H33  1  0.40540980  0.28285441  0.14307034  1
  O  O34  1  0.49700408  0.49564462  0.31566484  1
  O  O35  1  0.49564462  0.49700408  0.81566484  1
  O  O36  1  0.50299592  0.50435538  0.68433516  1
  O  O37  1  0.50435538  0.50299592  0.18433516  1
  O  O38  1  0.13711545  0.34352401  0.37498760  1
  O  O39  1  0.85484972  0.65482348  0.38111729  1
  O  O40  1  0.65560159  0.13569244  0.37456926  1
  O  O41  1  0.34389790  0.85384850  0.38192470  1
  O  O42  1  0.85384850  0.34389790  0.88192470  1
  O  O43  1  0.13569244  0.65560159  0.87456926  1
  O  O44  1  0.34352401  0.13711545  0.87498760  1
  O  O45  1  0.65482348  0.85484972  0.88111729  1
  O  O46  1  0.86288455  0.65647599  0.62501240  1
  O  O47  1  0.14515028  0.34517652  0.61888271  1
  O  O48  1  0.34439841  0.86430756  0.62543074  1
  O  O49  1  0.65610210  0.14615150  0.61807530  1
  O  O50  1  0.14615150  0.65610210  0.11807530  1
  O  O51  1  0.86430756  0.34439841  0.12543074  1
  O  O52  1  0.65647599  0.86288455  0.12501240  1
  O  O53  1  0.34517652  0.14515028  0.11888271  1
