# generated using pymatgen
data_Cu17Se10
_symmetry_space_group_name_H-M   'P 1'
_cell_length_a   4.08454379
_cell_length_b   4.07638212
_cell_length_c   40.48693240
_cell_angle_alpha   59.77350992
_cell_angle_beta   59.88914220
_cell_angle_gamma   60.06608349
_symmetry_Int_Tables_number   1
_chemical_formula_structural   Cu17Se10
_chemical_formula_sum   'Cu17 Se10'
_cell_volume   475.68646691
_cell_formula_units_Z   1
loop_
 _symmetry_equiv_pos_site_id
 _symmetry_equiv_pos_as_xyz
  1  'x, y, z'
loop_
 _atom_site_type_symbol
 _atom_site_label
 _atom_site_symmetry_multiplicity
 _atom_site_fract_x
 _atom_site_fract_y
 _atom_site_fract_z
 _atom_site_occupancy
  Cu  Cu0  1  0.22628684  0.20999257  0.03537280  1
  Cu  Cu1  1  0.26501419  0.26415635  0.12066731  1
  Cu  Cu2  1  0.25856263  0.28625919  0.21689190  1
  Cu  Cu3  1  0.25748732  0.22193082  0.32986511  1
  Cu  Cu4  1  0.24113850  0.24024682  0.42783679  1
  Cu  Cu5  1  0.88541952  0.70886914  0.26968422  1
  Cu  Cu6  1  0.23241731  0.26905039  0.52294819  1
  Cu  Cu7  1  0.73958657  0.74003941  0.37803346  1
  Cu  Cu8  1  0.26146211  0.21756167  0.63034146  1
  Cu  Cu9  1  0.28904224  0.29758793  0.71157819  1
  Cu  Cu10  1  0.86454470  0.70407849  0.57272983  1
  Cu  Cu11  1  0.31344282  0.28426744  0.81180223  1
  Cu  Cu12  1  0.57115682  0.54173628  0.83453706  1
  Cu  Cu13  1  0.25916344  0.20880896  0.93232186  1
  Cu  Cu14  1  0.51450495  0.46600719  0.95534807  1
  Cu  Cu15  1  0.79594006  0.76365229  0.86767554  1
  Cu  Cu16  1  0.75040486  0.71086491  0.98278653  1
  Se  Se17  1  0.96740069  0.95244257  0.01277142  1
  Se  Se18  1  0.98213074  0.97641169  0.10650459  1
  Se  Se19  1  0.00131891  0.98988970  0.30189017  1
  Se  Se20  1  0.98700015  0.01183244  0.19893350  1
  Se  Se21  1  0.97243318  0.00861040  0.50103460  1
  Se  Se22  1  0.98052630  0.98758185  0.40443100  1
  Se  Se23  1  0.00453317  0.98673885  0.60219891  1
  Se  Se24  1  0.99211265  0.99531946  0.70172484  1
  Se  Se25  1  0.02138332  0.98355158  0.90115135  1
  Se  Se26  1  0.05558602  0.02251161  0.78993908  1
