# generated using pymatgen
data_Zr(MoO4)2
_symmetry_space_group_name_H-M   'P 1'
_cell_length_a   6.00331579
_cell_length_b   7.43643833
_cell_length_c   9.33398048
_cell_angle_alpha   90.00000000
_cell_angle_beta   90.00000000
_cell_angle_gamma   90.00000000
_symmetry_Int_Tables_number   1
_chemical_formula_structural   Zr(MoO4)2
_chemical_formula_sum   'Zr2 Mo4 O16'
_cell_volume   416.69957547
_cell_formula_units_Z   2
loop_
 _symmetry_equiv_pos_site_id
 _symmetry_equiv_pos_as_xyz
  1  'x, y, z'
loop_
 _atom_site_type_symbol
 _atom_site_label
 _atom_site_symmetry_multiplicity
 _atom_site_fract_x
 _atom_site_fract_y
 _atom_site_fract_z
 _atom_site_occupancy
  Zr  Zr0  1  0.00000000  0.73789642  0.00069727  1
  Zr  Zr1  1  0.50000000  0.26210358  0.50069727  1
  Mo  Mo2  1  0.00000000  0.57635903  0.40032497  1
  Mo  Mo3  1  0.00000000  0.04530106  0.67743808  1
  Mo  Mo4  1  0.50000000  0.95469894  0.17743808  1
  Mo  Mo5  1  0.50000000  0.42364097  0.90032497  1
  O  O6  1  0.00000000  0.84642805  0.79552639  1
  O  O7  1  0.00000000  0.22157633  0.79677187  1
  O  O8  1  0.25585635  0.55492184  0.94868690  1
  O  O9  1  0.50000000  0.22171224  0.99372046  1
  O  O10  1  0.75585635  0.44507816  0.44868690  1
  O  O11  1  0.00000000  0.77828776  0.49372046  1
  O  O12  1  0.24414365  0.44507816  0.44868690  1
  O  O13  1  0.25487718  0.08261507  0.57429542  1
  O  O14  1  0.24512282  0.91738493  0.07429542  1
  O  O15  1  0.74512282  0.08261507  0.57429542  1
  O  O16  1  0.50000000  0.77842367  0.29677187  1
  O  O17  1  0.50000000  0.15357195  0.29552639  1
  O  O18  1  0.50000000  0.38008911  0.70995632  1
  O  O19  1  0.00000000  0.61991089  0.20995632  1
  O  O20  1  0.75487718  0.91738493  0.07429542  1
  O  O21  1  0.74414365  0.55492184  0.94868690  1
