# generated using pymatgen
data_Ba4Er3F17
_symmetry_space_group_name_H-M   'P 1'
_cell_length_a   9.39146322
_cell_length_b   9.39978579
_cell_length_c   9.35810206
_cell_angle_alpha   72.85552735
_cell_angle_beta   72.97161558
_cell_angle_gamma   72.69454219
_symmetry_Int_Tables_number   1
_chemical_formula_structural   Ba4Er3F17
_chemical_formula_sum   'Ba8 Er6 F34'
_cell_volume   734.36534359
_cell_formula_units_Z   2
loop_
 _symmetry_equiv_pos_site_id
 _symmetry_equiv_pos_as_xyz
  1  'x, y, z'
loop_
 _atom_site_type_symbol
 _atom_site_label
 _atom_site_symmetry_multiplicity
 _atom_site_fract_x
 _atom_site_fract_y
 _atom_site_fract_z
 _atom_site_occupancy
  Ba  Ba0  1  0.05388501  0.31371892  0.88640312  1
  Ba  Ba1  1  0.26689157  0.26709249  0.26737043  1
  Ba  Ba2  1  0.31414728  0.88568265  0.05583596  1
  Ba  Ba3  1  0.11337339  0.94557694  0.68609437  1
  Ba  Ba4  1  0.88567641  0.05647889  0.31304737  1
  Ba  Ba5  1  0.68691994  0.11462085  0.94463733  1
  Ba  Ba6  1  0.73282131  0.73206953  0.73361917  1
  Ba  Ba7  1  0.94369386  0.68611828  0.11421128  1
  Er  Er8  1  0.16434495  0.60843703  0.46840707  1
  Er  Er9  1  0.46939266  0.16635755  0.60751317  1
  Er  Er10  1  0.39216479  0.53112508  0.83674386  1
  Er  Er11  1  0.60813297  0.46963604  0.18196192  1
  Er  Er12  1  0.53268141  0.82695862  0.39123854  1
  Er  Er13  1  0.82214983  0.39492042  0.52741433  1
  F  F14  1  0.00037016  0.99972790  0.99992354  1
  F  F15  1  0.01180520  0.18509564  0.45425207  1
  F  F16  1  0.13960723  0.13878182  0.13898605  1
  F  F17  1  0.04083098  0.48966387  0.36387071  1
  F  F18  1  0.18553534  0.45417392  0.01148948  1
  F  F19  1  0.08549906  0.77931023  0.26658573  1
  F  F20  1  0.45378090  0.01175847  0.18565307  1
  F  F21  1  0.36416413  0.03979664  0.48946984  1
  F  F22  1  0.26752688  0.08590560  0.77849500  1
  F  F23  1  0.26252906  0.34982072  0.54666065  1
  F  F24  1  0.20624394  0.58930218  0.69934294  1
  F  F25  1  0.34660896  0.54757474  0.26056401  1
  F  F26  1  0.48841679  0.36385239  0.04071236  1
  F  F27  1  0.29873458  0.79563005  0.41026555  1
  F  F28  1  0.22096033  0.73297664  0.91444957  1
  F  F29  1  0.54650074  0.25624036  0.34810614  1
  F  F30  1  0.41073476  0.30045463  0.79447692  1
  F  F31  1  0.55410667  0.49812911  0.45272518  1
  F  F32  1  0.59136762  0.70915388  0.19397758  1
  F  F33  1  0.45299954  0.73794988  0.65118884  1
  F  F34  1  0.77785655  0.26767916  0.08610883  1
  F  F35  1  0.70189432  0.19978507  0.59140561  1
  F  F36  1  0.51029042  0.63608008  0.95970145  1
  F  F37  1  0.65009004  0.45348182  0.73984321  1
  F  F38  1  0.81442879  0.40391551  0.28799084  1
  F  F39  1  0.74545696  0.65651109  0.45289497  1
  F  F40  1  0.73287167  0.91440235  0.22122585  1
  F  F41  1  0.63607268  0.95924767  0.51095012  1
  F  F42  1  0.54594144  0.98827348  0.81452960  1
  F  F43  1  0.91335293  0.22235978  0.73181406  1
  F  F44  1  0.81469602  0.54628897  0.98819549  1
  F  F45  1  0.95982379  0.51125176  0.63601556  1
  F  F46  1  0.86120564  0.86092418  0.86045302  1
  F  F47  1  0.98832050  0.81460714  0.54607821  1
