# generated using pymatgen
data_K4Eu(PS4)2
_symmetry_space_group_name_H-M   'P 1'
_cell_length_a   8.90850686
_cell_length_b   9.83888911
_cell_length_c   11.36089052
_cell_angle_alpha   115.60468192
_cell_angle_beta   113.14531264
_cell_angle_gamma   90.12889010
_symmetry_Int_Tables_number   1
_chemical_formula_structural   K4Eu(PS4)2
_chemical_formula_sum   'K8 Eu2 P4 S16'
_cell_volume   807.72990062
_cell_formula_units_Z   2
loop_
 _symmetry_equiv_pos_site_id
 _symmetry_equiv_pos_as_xyz
  1  'x, y, z'
loop_
 _atom_site_type_symbol
 _atom_site_label
 _atom_site_symmetry_multiplicity
 _atom_site_fract_x
 _atom_site_fract_y
 _atom_site_fract_z
 _atom_site_occupancy
  Eu  Eu0  1  0.49896232  0.74683076  0.99801809  1
  Eu  Eu1  1  0.50339828  0.25096468  0.00028641  1
  K  K2  1  0.79717644  0.91618340  0.83350578  1
  K  K3  1  0.74200948  0.99152109  0.48663406  1
  K  K4  1  0.21196327  0.08430940  0.16925051  1
  K  K5  1  0.26130011  0.51140565  0.51696716  1
  K  K6  1  0.95744315  0.58034638  0.16143712  1
  K  K7  1  0.25835537  0.01065146  0.51932424  1
  K  K8  1  0.74264456  0.49560203  0.48503267  1
  K  K9  1  0.04007234  0.41329603  0.83035932  1
  P  P10  1  0.83335854  0.12846037  0.25498438  1
  P  P11  1  0.16744206  0.87225511  0.74319850  1
  P  P12  1  0.42301134  0.62765371  0.25805027  1
  P  P13  1  0.57366016  0.36903938  0.74050900  1
  S  S14  1  0.36888962  0.39299805  0.78671396  1
  S  S15  1  0.28143888  0.41082451  0.16041015  1
  S  S16  1  0.87825576  0.24937879  0.15903688  1
  S  S17  1  0.28335418  0.74741863  0.16029256  1
  S  S18  1  0.12588176  0.75212831  0.84103741  1
  S  S19  1  0.62904838  0.60496567  0.21344341  1
  S  S20  1  0.50601769  0.25833576  0.52309689  1
  S  S21  1  0.41920794  0.89637294  0.79235787  1
  S  S22  1  0.71209830  0.24928215  0.83899684  1
  S  S23  1  0.01742854  0.76336523  0.52514702  1
  S  S24  1  0.87654067  0.91074645  0.15876388  1
  S  S25  1  0.58187397  0.10287511  0.20659558  1
  S  S26  1  0.12351900  0.08938922  0.83721777  1
  S  S27  1  0.71402614  0.58617455  0.83561730  1
  S  S28  1  0.49429145  0.73852370  0.47655914  1
  S  S29  1  0.98126029  0.23887149  0.47306484  1
