# generated using pymatgen
data_Na3PO4
_symmetry_space_group_name_H-M   'P 1'
_cell_length_a   5.86405413
_cell_length_b   10.68523503
_cell_length_c   9.09337300
_cell_angle_alpha   31.09687234
_cell_angle_beta   49.78688674
_cell_angle_gamma   56.12175365
_symmetry_Int_Tables_number   1
_chemical_formula_structural   Na3PO4
_chemical_formula_sum   'Na6 P2 O8'
_cell_volume   224.71404990
_cell_formula_units_Z   2
loop_
 _symmetry_equiv_pos_site_id
 _symmetry_equiv_pos_as_xyz
  1  'x, y, z'
loop_
 _atom_site_type_symbol
 _atom_site_label
 _atom_site_symmetry_multiplicity
 _atom_site_fract_x
 _atom_site_fract_y
 _atom_site_fract_z
 _atom_site_occupancy
  Na  Na0  1  0.30969782  0.49110554  0.25672086  1
  Na  Na1  1  0.58334171  0.49973429  0.50023434  1
  Na  Na2  1  0.68119647  0.00063759  0.75371694  1
  Na  Na3  1  0.18717023  0.99900611  0.24959438  1
  Na  Na4  1  0.80228855  0.49285339  0.75966638  1
  Na  Na5  1  0.41086114  0.98478412  0.51595534  1
  P  P6  1  0.92861530  0.99768440  0.00311499  1
  P  P7  1  0.06399131  0.50325218  0.99768317  1
  O  O8  1  0.31183644  0.39681054  0.10521733  1
  O  O9  1  0.92042600  0.27997593  0.72073778  1
  O  O10  1  0.12201133  0.41686507  0.89875828  1
  O  O11  1  0.75005466  0.41708050  0.26837234  1
  O  O12  1  0.67943802  0.89985375  0.10153775  1
  O  O13  1  0.24201203  0.90562097  0.91100595  1
  O  O14  1  0.87221293  0.90639921  0.27965695  1
  O  O15  1  0.07301605  0.78611440  0.71478721  1
