# generated using pymatgen
data_Ce2Si2O7
_symmetry_space_group_name_H-M   'P 1'
_cell_length_a   5.46591407
_cell_length_b   8.82494103
_cell_length_c   13.29219703
_cell_angle_alpha   90.00000000
_cell_angle_beta   90.12571088
_cell_angle_gamma   90.00000000
_symmetry_Int_Tables_number   1
_chemical_formula_structural   Ce2Si2O7
_chemical_formula_sum   'Ce8 Si8 O28'
_cell_volume   641.16578259
_cell_formula_units_Z   4
loop_
 _symmetry_equiv_pos_site_id
 _symmetry_equiv_pos_as_xyz
  1  'x, y, z'
loop_
 _atom_site_type_symbol
 _atom_site_label
 _atom_site_symmetry_multiplicity
 _atom_site_fract_x
 _atom_site_fract_y
 _atom_site_fract_z
 _atom_site_occupancy
  Ce  Ce0  1  0.74188002  0.89266459  0.08914885  1
  Ce  Ce1  1  0.24414055  0.69344740  0.26735261  1
  Ce  Ce2  1  0.24188002  0.60733541  0.58914885  1
  Ce  Ce3  1  0.75585945  0.30655260  0.73264739  1
  Ce  Ce4  1  0.25811998  0.10733541  0.91085115  1
  Ce  Ce5  1  0.75811998  0.39266459  0.41085115  1
  Ce  Ce6  1  0.25585945  0.19344740  0.23264739  1
  Ce  Ce7  1  0.74414055  0.80655260  0.76735261  1
  Si  Si8  1  0.76767685  0.49342781  0.17966260  1
  Si  Si9  1  0.23340800  0.25517420  0.52689961  1
  Si  Si10  1  0.26767685  0.00657219  0.67966260  1
  Si  Si11  1  0.26659200  0.75517420  0.97310039  1
  Si  Si12  1  0.73232315  0.99342781  0.32033740  1
  Si  Si13  1  0.23232315  0.50657219  0.82033740  1
  Si  Si14  1  0.76659200  0.74482580  0.47310039  1
  Si  Si15  1  0.73340800  0.24482580  0.02689961  1
  O  O16  1  0.23602567  0.07803106  0.56552945  1
  O  O17  1  0.00062067  0.58211977  0.75844409  1
  O  O18  1  0.00621197  0.35464199  0.57932652  1
  O  O19  1  0.99378803  0.64535801  0.42067348  1
  O  O20  1  0.32180218  0.76690287  0.09400050  1
  O  O21  1  0.49937933  0.08211977  0.74155591  1
  O  O22  1  0.50621197  0.14535801  0.07932652  1
  O  O23  1  0.98355504  0.96578361  0.25344953  1
  O  O24  1  0.26397433  0.57803106  0.93447055  1
  O  O25  1  -0.00062067  0.41788023  0.24155591  1
  O  O26  1  0.67819782  0.23309713  0.90599950  1
  O  O27  1  0.83883224  0.67349018  0.17306629  1
  O  O28  1  0.51258043  0.65391515  0.44105498  1
  O  O29  1  0.49378803  0.85464199  0.92067348  1
  O  O30  1  0.51644496  0.46578361  0.24655047  1
  O  O31  1  0.48355504  0.53421639  0.75344953  1
  O  O32  1  0.98741957  0.15391515  0.05894502  1
  O  O33  1  0.48741957  0.34608485  0.55894502  1
  O  O34  1  0.76397433  0.92196894  0.43447055  1
  O  O35  1  0.82180218  0.73309713  0.59400050  1
  O  O36  1  0.16116776  0.32650982  0.82693371  1
  O  O37  1  0.66116776  0.17349018  0.32693371  1
  O  O38  1  0.73602567  0.42196894  0.06552945  1
  O  O39  1  0.17819782  0.26690287  0.40599950  1
  O  O40  1  0.33883224  0.82650982  0.67306629  1
  O  O41  1  0.50062067  0.91788023  0.25844409  1
  O  O42  1  0.01258043  0.84608485  0.94105498  1
  O  O43  1  0.01644496  0.03421639  0.74655047  1
