# generated using pymatgen
data_Na2ThF6
_symmetry_space_group_name_H-M   'P 1'
_cell_length_a   7.99412561
_cell_length_b   11.85377419
_cell_length_c   6.82548812
_cell_angle_alpha   30.26418611
_cell_angle_beta   55.53439042
_cell_angle_gamma   60.73932301
_symmetry_Int_Tables_number   1
_chemical_formula_structural   Na2ThF6
_chemical_formula_sum   'Na4 Th2 F12'
_cell_volume   268.75351290
_cell_formula_units_Z   2
loop_
 _symmetry_equiv_pos_site_id
 _symmetry_equiv_pos_as_xyz
  1  'x, y, z'
loop_
 _atom_site_type_symbol
 _atom_site_label
 _atom_site_symmetry_multiplicity
 _atom_site_fract_x
 _atom_site_fract_y
 _atom_site_fract_z
 _atom_site_occupancy
  Na  Na0  1  0.00000000  0.00429739  0.99355391  1
  Na  Na1  1  0.00000000  0.65267852  0.02098272  1
  Na  Na2  1  0.50000000  0.32903561  0.00644609  1
  Na  Na3  1  0.50000000  0.68065548  0.97901728  1
  Th  Th4  1  0.00000000  0.35212743  0.97180836  1
  Th  Th5  1  0.50000000  0.98120557  0.02819164  1
  F  F6  1  0.13419692  0.01228370  0.23972021  1
  F  F7  1  0.12134037  0.32955840  0.23601432  1
  F  F8  1  0.62134037  0.00377460  0.22469051  1
  F  F9  1  0.12406290  0.65631667  0.27529322  1
  F  F10  1  0.37865963  0.00377460  0.76398568  1
  F  F11  1  0.63419692  0.32104930  0.27657131  1
  F  F12  1  0.36580308  0.32104930  0.76027979  1
  F  F13  1  0.62406290  0.67701733  0.24424223  1
  F  F14  1  0.86580308  0.01228370  0.72342869  1
  F  F15  1  0.37593710  0.67701733  0.72470678  1
  F  F16  1  0.87865963  0.32955840  0.77530949  1
  F  F17  1  0.87593710  0.65631667  0.75575777  1
