# generated using pymatgen
data_LiZnPO4
_symmetry_space_group_name_H-M   'P 1'
_cell_length_a   9.87990501
_cell_length_b   10.04042068
_cell_length_c   17.12004012
_cell_angle_alpha   74.25070491
_cell_angle_beta   73.22895774
_cell_angle_gamma   60.52744775
_symmetry_Int_Tables_number   1
_chemical_formula_structural   LiZnPO4
_chemical_formula_sum   'Li16 Zn16 P16 O64'
_cell_volume   1398.44332657
_cell_formula_units_Z   16
loop_
 _symmetry_equiv_pos_site_id
 _symmetry_equiv_pos_as_xyz
  1  'x, y, z'
loop_
 _atom_site_type_symbol
 _atom_site_label
 _atom_site_symmetry_multiplicity
 _atom_site_fract_x
 _atom_site_fract_y
 _atom_site_fract_z
 _atom_site_occupancy
  Li  Li0  1  0.89256126  0.99942357  0.08896979  1
  Li  Li1  1  0.39380301  0.55863752  0.08825535  1
  Li  Li2  1  0.14442541  0.73021469  0.33932907  1
  Li  Li3  1  0.51880404  0.98575447  0.58974757  1
  Li  Li4  1  0.64682615  0.23066694  0.33902844  1
  Li  Li5  1  0.78347846  0.73066694  0.83902844  1
  Li  Li6  1  0.39539303  0.05287536  0.08644748  1
  Li  Li7  1  0.95930411  0.05863752  0.58825535  1
  Li  Li8  1  0.28381533  0.67185777  0.83900912  1
  Li  Li9  1  0.28616594  0.16870599  0.83785246  1
  Li  Li10  1  0.78603083  0.23021469  0.83932907  1
  Li  Li11  1  0.70727560  0.66870599  0.33785246  1
  Li  Li12  1  0.90569392  0.48575447  0.08974757  1
  Li  Li13  1  0.01904537  0.49942357  0.58896979  1
  Li  Li14  1  0.20531778  0.17185777  0.33900912  1
  Li  Li15  1  0.46528412  0.55287536  0.58644748  1
  Zn  Zn16  1  0.65534269  0.54747308  0.71422179  1
  Zn  Zn17  1  0.58221613  0.55332852  0.21487113  1
  Zn  Zn18  1  0.33772870  0.43351572  0.46415291  1
  Zn  Zn19  1  0.40199665  0.87188278  0.46327867  1
  Zn  Zn20  1  0.83771547  0.93256077  0.46430251  1
  Zn  Zn21  1  0.76460266  0.93351572  0.96415291  1
  Zn  Zn22  1  0.26653465  0.86893086  0.96393246  1
  Zn  Zn23  1  0.76542125  0.43256077  0.96430251  1
  Zn  Zn24  1  0.15230761  0.10504625  0.71428842  1
  Zn  Zn25  1  0.08296244  0.04747308  0.21422179  1
  Zn  Zn26  1  0.26284190  0.37188278  0.96327867  1
  Zn  Zn27  1  0.14924787  0.60882129  0.71472466  1
  Zn  Zn28  1  0.64958422  0.05332852  0.71487113  1
  Zn  Zn29  1  0.90060203  0.36893086  0.46393246  1
  Zn  Zn30  1  0.52720619  0.10882129  0.21472466  1
  Zn  Zn31  1  0.02835772  0.60504625  0.21428842  1
  P  P32  1  0.08615926  0.17886926  0.02449762  1
  P  P33  1  0.96311469  0.42023522  0.77759170  1
  P  P34  1  0.46306619  0.86463932  0.77575696  1
  P  P35  1  0.83905839  0.92023522  0.27759170  1
  P  P36  1  0.64947664  0.23499973  0.52680588  1
  P  P37  1  0.15059674  0.73938611  0.52686008  1
  P  P38  1  0.58871775  0.73499973  0.02680588  1
  P  P39  1  0.96023344  0.92459794  0.77742798  1
  P  P40  1  0.89653753  0.36463932  0.27575696  1
  P  P41  1  0.46045979  0.36905750  0.77575731  1
  P  P42  1  0.71047385  0.67886926  0.52449762  1
  P  P43  1  0.39472539  0.86905750  0.27575731  1
  P  P44  1  0.33774064  0.42459794  0.27742798  1
  P  P45  1  0.08441794  0.68149104  0.02565800  1
  P  P46  1  0.58315707  0.23938611  0.02686008  1
  P  P47  1  0.20843302  0.18149104  0.52565800  1
  O  O48  1  0.25284258  0.85556760  0.26290346  1
  O  O49  1  0.69767482  0.15947898  0.44839641  1
  O  O50  1  0.47635150  0.20293974  0.78728779  1
  O  O51  1  0.06736025  0.54537260  0.01001742  1
  O  O52  1  0.60418768  0.12574392  0.60107997  1
  O  O53  1  0.91964507  0.82328674  0.03909095  1
  O  O54  1  0.94165467  0.97208804  0.19952546  1
  O  O55  1  0.19434722  0.66051340  0.45029377  1
  O  O56  1  0.16328859  0.13029008  0.10152454  1
  O  O57  1  0.12434862  0.78283366  0.76125028  1
  O  O58  1  0.00999975  0.90371236  0.51507330  1
  O  O59  1  0.87918930  0.54248843  0.50932516  1
  O  O60  1  0.75155797  0.35707804  0.26238195  1
  O  O61  1  0.65620811  0.13336601  0.10400321  1
  O  O62  1  0.69444979  0.65947898  0.94839641  1
  O  O63  1  0.72071559  0.81914203  0.53952514  1
  O  O64  1  0.66898843  0.62574392  0.10107997  1
  O  O65  1  0.29278762  0.75237766  0.53956021  1
  O  O66  1  0.41914865  0.38092056  0.35210323  1
  O  O67  1  0.57459125  0.89986632  0.01531239  1
  O  O68  1  0.63090961  0.72304100  0.44883987  1
  O  O69  1  0.51023004  0.39986632  0.51531239  1
  O  O70  1  0.16530641  0.55498563  0.29452370  1
  O  O71  1  0.83196780  0.77815314  0.26203249  1
  O  O72  1  0.19972071  0.72104066  0.95053907  1
  O  O73  1  0.19720952  0.22304100  0.94883987  1
  O  O74  1  0.33156743  0.28283366  0.26125028  1
  O  O75  1  0.92061724  0.31914203  0.03952514  1
  O  O76  1  0.12869955  0.22104066  0.45053907  1
  O  O77  1  0.98518426  0.05498563  0.79452370  1
  O  O78  1  0.98495944  0.55252899  0.79377420  1
  O  O79  1  0.57121458  0.40371236  0.01507330  1
  O  O80  1  0.43719459  0.48246875  0.20075921  1
  O  O81  1  0.12784657  0.27815314  0.76203249  1
  O  O82  1  0.87957745  0.98246875  0.70075921  1
  O  O83  1  0.69484561  0.16051340  0.95029377  1
  O  O84  1  0.44158631  0.97549902  0.19998029  1
  O  O85  1  0.10642268  0.63336601  0.60400321  1
  O  O86  1  0.38553249  0.96896314  0.69944260  1
  O  O87  1  0.34919924  0.94704583  0.35275351  1
  O  O88  1  0.85294640  0.44390385  0.35224083  1
  O  O89  1  0.84782756  0.88092056  0.85210323  1
  O  O90  1  0.03206681  0.19788078  0.28769294  1
  O  O91  1  0.21797724  0.32328674  0.53909095  1
  O  O92  1  0.41527451  0.25237766  0.03956021  1
  O  O93  1  0.60489680  0.63029008  0.60152454  1
  O  O94  1  0.15740944  0.63534142  0.10409773  1
  O  O95  1  0.41890820  0.75002862  0.04093831  1
  O  O96  1  0.37724972  0.04537260  0.51001742  1
  O  O97  1  0.79012486  0.25002862  0.54093831  1
  O  O98  1  0.38293437  0.47549902  0.69998029  1
  O  O99  1  0.66873737  0.05252899  0.29377420  1
  O  O100  1  0.53342096  0.70293974  0.28728779  1
  O  O101  1  0.48235946  0.69788078  0.78769294  1
  O  O102  1  0.06899711  0.04248843  0.00932516  1
  O  O103  1  0.88673183  0.47208804  0.69952546  1
  O  O104  1  0.10315142  0.13534142  0.60409773  1
  O  O105  1  0.92014672  0.87818129  0.35226319  1
  O  O106  1  0.35090891  0.94390385  0.85224083  1
  O  O107  1  0.94606177  0.46896314  0.19944260  1
  O  O108  1  0.84940881  0.37818129  0.85226319  1
  O  O109  1  0.62898205  0.85707804  0.76238195  1
  O  O110  1  0.62868636  0.35556760  0.76290346  1
  O  O111  1  0.35100142  0.44704583  0.85275351  1
