# generated using pymatgen
data_Ca4Zn2Cu3P5
_symmetry_space_group_name_H-M   'P 1'
_cell_length_a   4.04387225
_cell_length_b   4.04387255
_cell_length_c   37.25649596
_cell_angle_alpha   90.00000000
_cell_angle_beta   90.00000000
_cell_angle_gamma   119.99999764
_symmetry_Int_Tables_number   1
_chemical_formula_structural   Ca4Zn2Cu3P5
_chemical_formula_sum   'Ca8 Zn4 Cu6 P10'
_cell_volume   527.62763623
_cell_formula_units_Z   2
loop_
 _symmetry_equiv_pos_site_id
 _symmetry_equiv_pos_as_xyz
  1  'x, y, z'
loop_
 _atom_site_type_symbol
 _atom_site_label
 _atom_site_symmetry_multiplicity
 _atom_site_fract_x
 _atom_site_fract_y
 _atom_site_fract_z
 _atom_site_occupancy
  Ca  Ca0  1  0.00000000  0.00000000  0.80289896  1
  Ca  Ca1  1  0.00000000  0.00000000  0.30289896  1
  Ca  Ca2  1  0.00000000  0.00000000  0.90855477  1
  Ca  Ca3  1  0.00000000  0.00000000  0.09144523  1
  Ca  Ca4  1  0.00000000  0.00000000  0.40855477  1
  Ca  Ca5  1  0.00000000  0.00000000  0.59144523  1
  Ca  Ca6  1  0.00000000  0.00000000  0.69710104  1
  Ca  Ca7  1  0.00000000  0.00000000  0.19710104  1
  Zn  Zn8  1  0.66666700  0.33333300  0.47567420  1
  Zn  Zn9  1  0.33333300  0.66666700  0.97567420  1
  Zn  Zn10  1  0.33333300  0.66666700  0.52432580  1
  Zn  Zn11  1  0.66666700  0.33333300  0.02432580  1
  Cu  Cu12  1  0.33333300  0.66666700  0.75000000  1
  Cu  Cu13  1  0.66666700  0.33333300  0.64385566  1
  Cu  Cu14  1  0.33333300  0.66666700  0.35614434  1
  Cu  Cu15  1  0.66666700  0.33333300  0.25000000  1
  Cu  Cu16  1  0.33333300  0.66666700  0.14385566  1
  Cu  Cu17  1  0.66666700  0.33333300  0.85614434  1
  P  P18  1  0.66666700  0.33333300  0.35558959  1
  P  P19  1  0.66666700  0.33333300  0.54381678  1
  P  P20  1  0.33333300  0.66666700  0.85558959  1
  P  P21  1  0.33333300  0.66666700  0.45618322  1
  P  P22  1  0.66666700  0.33333300  0.95618322  1
  P  P23  1  0.66666700  0.33333300  0.14441041  1
  P  P24  1  0.33333300  0.66666700  0.04381678  1
  P  P25  1  0.66666700  0.33333300  0.75000000  1
  P  P26  1  0.33333300  0.66666700  0.64441041  1
  P  P27  1  0.33333300  0.66666700  0.25000000  1
