# generated using pymatgen
data_ZnS
_symmetry_space_group_name_H-M   'P 1'
_cell_length_a   3.85344345
_cell_length_b   3.85344335
_cell_length_c   138.50372581
_cell_angle_alpha   90.00000000
_cell_angle_beta   90.00000000
_cell_angle_gamma   120.00000095
_symmetry_Int_Tables_number   1
_chemical_formula_structural   ZnS
_chemical_formula_sum   'Zn44 S44'
_cell_volume   1781.10717194
_cell_formula_units_Z   44
loop_
 _symmetry_equiv_pos_site_id
 _symmetry_equiv_pos_as_xyz
  1  'x, y, z'
loop_
 _atom_site_type_symbol
 _atom_site_label
 _atom_site_symmetry_multiplicity
 _atom_site_fract_x
 _atom_site_fract_y
 _atom_site_fract_z
 _atom_site_occupancy
  Zn  Zn0  1  0.66666700  0.33333300  0.38636006  1
  Zn  Zn1  1  0.33333300  0.66666700  0.15909291  1
  Zn  Zn2  1  0.66666700  0.33333300  0.25000221  1
  Zn  Zn3  1  0.33333300  0.66666700  0.22727237  1
  Zn  Zn4  1  0.00000000  0.00000000  0.65909271  1
  Zn  Zn5  1  0.00000000  0.00000000  0.27273087  1
  Zn  Zn6  1  0.33333300  0.66666700  0.47727044  1
  Zn  Zn7  1  0.66666700  0.33333300  0.11364000  1
  Zn  Zn8  1  0.00000000  0.00000000  0.06818289  1
  Zn  Zn9  1  0.33333300  0.66666700  0.75000238  1
  Zn  Zn10  1  0.33333300  0.66666700  0.36363974  1
  Zn  Zn11  1  0.33333300  0.66666700  0.68182012  1
  Zn  Zn12  1  0.66666700  0.33333300  0.88636442  1
  Zn  Zn13  1  0.00000000  0.00000000  0.79545222  1
  Zn  Zn14  1  0.33333300  0.66666700  0.40909532  1
  Zn  Zn15  1  0.00000000  0.00000000  0.34091033  1
  Zn  Zn16  1  0.00000000  0.00000000  0.59091016  1
  Zn  Zn17  1  0.33333300  0.66666700  0.09090988  1
  Zn  Zn18  1  0.00000000  0.00000000  0.13636195  1
  Zn  Zn19  1  0.66666700  0.33333300  0.50000473  1
  Zn  Zn20  1  0.66666700  0.33333300  0.04545216  1
  Zn  Zn21  1  0.00000000  0.00000000  0.93182003  1
  Zn  Zn22  1  0.66666700  0.33333300  0.63636193  1
  Zn  Zn23  1  0.33333300  0.66666700  0.97727221  1
  Zn  Zn24  1  0.00000000  0.00000000  0.86363804  1
  Zn  Zn25  1  0.33333300  0.66666700  0.54545200  1
  Zn  Zn26  1  0.66666700  0.33333300  0.31818289  1
  Zn  Zn27  1  0.66666700  0.33333300  0.84090964  1
  Zn  Zn28  1  0.66666700  0.33333300  0.70454940  1
  Zn  Zn29  1  0.00000000  0.00000000  0.72727238  1
  Zn  Zn30  1  0.33333300  0.66666700  0.02273306  1
  Zn  Zn31  1  0.33333300  0.66666700  0.29545214  1
  Zn  Zn32  1  0.00000000  0.00000000  0.20454978  1
  Zn  Zn33  1  0.66666700  0.33333300  0.18182010  1
  Zn  Zn34  1  0.00000000  0.00000000  0.43182016  1
  Zn  Zn35  1  0.33333300  0.66666700  0.81818320  1
  Zn  Zn36  1  0.66666700  0.33333300  0.56818285  1
  Zn  Zn37  1  0.66666700  0.33333300  0.95454968  1
  Zn  Zn38  1  0.66666700  0.33333300  0.77273070  1
  Zn  Zn39  1  0.33333300  0.66666700  0.61363997  1
  Zn  Zn40  1  0.66666700  0.33333300  0.45454243  1
  Zn  Zn41  1  0.00000000  0.00000000  0.00000045  1
  Zn  Zn42  1  0.00000000  0.00000000  0.52273076  1
  Zn  Zn43  1  0.33333300  0.66666700  0.90909253  1
  S  S44  1  0.33333300  0.66666700  0.17613717  1
  S  S45  1  0.00000000  0.00000000  0.44886066  1
  S  S46  1  0.33333300  0.66666700  0.42613574  1
  S  S47  1  0.33333300  0.66666700  0.76704714  1
  S  S48  1  0.66666700  0.33333300  0.65340809  1
  S  S49  1  0.66666700  0.33333300  0.26704713  1
  S  S50  1  0.33333300  0.66666700  0.83522652  1
  S  S51  1  0.00000000  0.00000000  0.88068671  1
  S  S52  1  0.00000000  0.00000000  0.67613648  1
  S  S53  1  0.33333300  0.66666700  0.38067186  1
  S  S54  1  0.66666700  0.33333300  0.90340669  1
  S  S55  1  0.66666700  0.33333300  0.85794322  1
  S  S56  1  0.33333300  0.66666700  0.10795115  1
  S  S57  1  0.00000000  0.00000000  0.35795127  1
  S  S58  1  0.33333300  0.66666700  0.56249786  1
  S  S59  1  0.33333300  0.66666700  0.99430946  1
  S  S60  1  0.00000000  0.00000000  0.28976982  1
  S  S61  1  0.66666700  0.33333300  0.47157975  1
  S  S62  1  0.00000000  0.00000000  0.53976993  1
  S  S63  1  0.33333300  0.66666700  0.31249761  1
  S  S64  1  0.00000000  0.00000000  0.81249764  1
  S  S65  1  0.66666700  0.33333300  0.19886140  1
  S  S66  1  0.00000000  0.00000000  0.94886215  1
  S  S67  1  0.33333300  0.66666700  0.92613726  1
  S  S68  1  0.00000000  0.00000000  0.74431828  1
  S  S69  1  0.00000000  0.00000000  0.60795149  1
  S  S70  1  0.00000000  0.00000000  0.01705441  1
  S  S71  1  0.66666700  0.33333300  0.33522669  1
  S  S72  1  0.33333300  0.66666700  0.63067973  1
  S  S73  1  0.33333300  0.66666700  0.03976928  1
  S  S74  1  0.33333300  0.66666700  0.69886144  1
  S  S75  1  0.00000000  0.00000000  0.15340720  1
  S  S76  1  0.66666700  0.33333300  0.78977051  1
  S  S77  1  0.66666700  0.33333300  0.06249772  1
  S  S78  1  0.66666700  0.33333300  0.40341563  1
  S  S79  1  0.66666700  0.33333300  0.58522663  1
  S  S80  1  0.00000000  0.00000000  0.22159015  1
  S  S81  1  0.66666700  0.33333300  0.51704563  1
  S  S82  1  0.66666700  0.33333300  0.97158886  1
  S  S83  1  0.66666700  0.33333300  0.13067969  1
  S  S84  1  0.33333300  0.66666700  0.49432511  1
  S  S85  1  0.00000000  0.00000000  0.08522770  1
  S  S86  1  0.33333300  0.66666700  0.24431774  1
  S  S87  1  0.66666700  0.33333300  0.72158922  1
