# generated using pymatgen
data_Lu4Hf3O12
_symmetry_space_group_name_H-M   'P 1'
_cell_length_a   6.32518456
_cell_length_b   6.31232200
_cell_length_c   12.62056555
_cell_angle_alpha   99.39850109
_cell_angle_beta   99.05780671
_cell_angle_gamma   99.46333551
_symmetry_Int_Tables_number   1
_chemical_formula_structural   Lu4Hf3O12
_chemical_formula_sum   'Lu8 Hf6 O24'
_cell_volume   481.49446925
_cell_formula_units_Z   2
loop_
 _symmetry_equiv_pos_site_id
 _symmetry_equiv_pos_as_xyz
  1  'x, y, z'
loop_
 _atom_site_type_symbol
 _atom_site_label
 _atom_site_symmetry_multiplicity
 _atom_site_fract_x
 _atom_site_fract_y
 _atom_site_fract_z
 _atom_site_occupancy
  Lu  Lu0  1  0.38976295  0.69681368  0.93030545  1
  Lu  Lu1  1  0.13746110  0.61028498  0.15385243  1
  Lu  Lu2  1  0.31205097  0.14139550  0.80441175  1
  Lu  Lu3  1  0.39017628  0.68471358  0.43037380  1
  Lu  Lu4  1  0.68794903  0.85860450  0.69558825  1
  Lu  Lu5  1  0.61023705  0.30318632  0.56969455  1
  Lu  Lu6  1  0.60982372  0.31528642  0.06962620  1
  Lu  Lu7  1  0.86253890  0.38971502  0.34614757  1
  Hf  Hf8  1  0.99461402  0.99481046  0.49861401  1
  Hf  Hf9  1  0.14047349  0.61133407  0.65513121  1
  Hf  Hf10  1  0.00538598  0.00518954  0.00138599  1
  Hf  Hf11  1  0.31694619  0.14074995  0.30514589  1
  Hf  Hf12  1  0.68305381  0.85925005  0.19485411  1
  Hf  Hf13  1  0.85952651  0.38866593  0.84486879  1
  O  O14  1  0.04146859  0.68192672  0.95317111  1
  O  O15  1  0.08364501  0.93215807  0.65662595  1
  O  O16  1  0.05504536  0.67841763  0.46434004  1
  O  O17  1  0.09296023  0.95800855  0.16177652  1
  O  O18  1  0.16890714  0.42708897  0.78692431  1
  O  O19  1  0.18061151  0.41145446  0.28638867  1
  O  O20  1  0.40512256  0.81436322  0.78081551  1
  O  O21  1  0.31956548  0.08021734  0.97319607  1
  O  O22  1  0.41633582  0.57332296  0.59118701  1
  O  O23  1  0.42533030  0.82872773  0.28576668  1
  O  O24  1  0.30935116  0.07970974  0.46275614  1
  O  O25  1  0.58366418  0.42667704  0.90881299  1
  O  O26  1  0.43459662  0.59514427  0.09243274  1
  O  O27  1  0.68043452  0.91978266  0.52680393  1
  O  O28  1  0.59487744  0.18563678  0.71918449  1
  O  O29  1  0.56540338  0.40485573  0.40756726  1
  O  O30  1  0.69064884  0.92029026  0.03724386  1
  O  O31  1  0.57466970  0.17127227  0.21423332  1
  O  O32  1  0.83109286  0.57291103  0.71307569  1
  O  O33  1  0.81938849  0.58854554  0.21361133  1
  O  O34  1  0.91635499  0.06784193  0.84337405  1
  O  O35  1  0.95853141  0.31807328  0.54682889  1
  O  O36  1  0.90703977  0.04199145  0.33822348  1
  O  O37  1  0.94495464  0.32158237  0.03565996  1
