# generated using pymatgen
data_UP2O7
_symmetry_space_group_name_H-M   'P 1'
_cell_length_a   8.87839203
_cell_length_b   8.87761853
_cell_length_c   8.88885491
_cell_angle_alpha   89.99031671
_cell_angle_beta   89.99742022
_cell_angle_gamma   89.99369813
_symmetry_Int_Tables_number   1
_chemical_formula_structural   UP2O7
_chemical_formula_sum   'U4 P8 O28'
_cell_volume   700.61044069
_cell_formula_units_Z   4
loop_
 _symmetry_equiv_pos_site_id
 _symmetry_equiv_pos_as_xyz
  1  'x, y, z'
loop_
 _atom_site_type_symbol
 _atom_site_label
 _atom_site_symmetry_multiplicity
 _atom_site_fract_x
 _atom_site_fract_y
 _atom_site_fract_z
 _atom_site_occupancy
  U  U0  1  0.00515994  0.00551192  0.00003652  1
  U  U1  1  0.49485166  0.50545667  0.00002869  1
  U  U2  1  0.50512960  0.00546708  0.49996327  1
  U  U3  1  0.99484708  0.50542770  0.49997349  1
  P  P4  1  0.10731967  0.90312663  0.39869948  1
  P  P5  1  0.09655054  0.60703546  0.89829770  1
  P  P6  1  0.39270403  0.40306110  0.39876915  1
  P  P7  1  0.40336942  0.10694694  0.89826748  1
  P  P8  1  0.59658887  0.60700247  0.60167097  1
  P  P9  1  0.60736601  0.90312729  0.10128025  1
  P  P10  1  0.90337098  0.10690878  0.60173369  1
  P  P11  1  0.89272627  0.40305056  0.10126893  1
  O  O12  1  0.02577678  0.02580521  0.50006735  1
  O  O13  1  0.06484991  0.77500113  0.91936489  1
  O  O14  1  0.04645942  0.74695621  0.43969710  1
  O  O15  1  0.07155961  0.94654965  0.23587285  1
  O  O16  1  0.06816327  0.55424554  0.73678657  1
  O  O17  1  0.24665795  0.06377048  0.95506817  1
  O  O18  1  0.22548291  0.42028268  0.43734419  1
  O  O19  1  0.25338683  0.56376860  0.95510999  1
  O  O20  1  0.27453403  0.92035915  0.43734337  1
  O  O21  1  0.43175406  0.05417977  0.73679819  1
  O  O22  1  0.42846466  0.44647803  0.23581383  1
  O  O23  1  0.43511476  0.27498491  0.91937692  1
  O  O24  1  0.45353357  0.24692513  0.43972516  1
  O  O25  1  0.47423783  0.52580774  0.50005751  1
  O  O26  1  0.52577665  0.02582325  0.99993932  1
  O  O27  1  0.56485486  0.77496279  0.58061096  1
  O  O28  1  0.54647860  0.74691591  0.06026494  1
  O  O29  1  0.56819835  0.55420147  0.76328693  1
  O  O30  1  0.57159797  0.94650054  0.26412321  1
  O  O31  1  0.74662966  0.06368920  0.54492442  1
  O  O32  1  0.72543815  0.42026435  0.06261403  1
  O  O33  1  0.75335080  0.56375630  0.54493318  1
  O  O34  1  0.77455989  0.92031152  0.06264167  1
  O  O35  1  0.93178757  0.05418469  0.76326040  1
  O  O36  1  0.92847651  0.44644804  0.26410009  1
  O  O37  1  0.95355971  0.24695344  0.06028739  1
  O  O38  1  0.93512166  0.27491909  0.58064958  1
  O  O39  1  0.97420997  0.52583258  0.99994816  1
