# generated using pymatgen
data_In2Br3
_symmetry_space_group_name_H-M   'P 1'
_cell_length_a   13.22947982
_cell_length_b   13.34453364
_cell_length_c   33.05137009
_cell_angle_alpha   90.11640064
_cell_angle_beta   90.00000000
_cell_angle_gamma   90.00000000
_symmetry_Int_Tables_number   1
_chemical_formula_structural   In2Br3
_chemical_formula_sum   'In64 Br96'
_cell_volume   5834.91776825
_cell_formula_units_Z   32
loop_
 _symmetry_equiv_pos_site_id
 _symmetry_equiv_pos_as_xyz
  1  'x, y, z'
loop_
 _atom_site_type_symbol
 _atom_site_label
 _atom_site_symmetry_multiplicity
 _atom_site_fract_x
 _atom_site_fract_y
 _atom_site_fract_z
 _atom_site_occupancy
  In  In0  1  0.06033582  0.34341662  0.12919280  1
  In  In1  1  0.06001044  0.34377261  0.62882534  1
  In  In2  1  0.06168107  0.50210307  0.48534896  1
  In  In3  1  0.06719217  0.12525543  0.03452318  1
  In  In4  1  0.06619400  0.12224702  0.53523928  1
  In  In5  1  0.09998130  0.46810873  0.27459979  1
  In  In6  1  0.09812071  0.46979316  0.77590157  1
  In  In7  1  0.13693002  0.80609653  0.33562570  1
  In  In8  1  0.13630343  0.80528838  0.83449533  1
  In  In9  1  0.13820468  0.80476645  0.41942183  1
  In  In10  1  0.13987092  0.80461433  0.91815645  1
  In  In11  1  0.21178208  0.48587844  0.12822439  1
  In  In12  1  0.21197338  0.48622282  0.62857019  1
  In  In13  1  0.22962893  0.17103370  0.37548827  1
  In  In14  1  0.22748960  0.17487168  0.87616551  1
  In  In15  1  0.27054787  0.83041538  0.12659803  1
  In  In16  1  0.27014853  0.82887454  0.62538645  1
  In  In17  1  0.28812225  0.51403018  0.37857024  1
  In  In18  1  0.28477879  0.51103876  0.87941661  1
  In  In19  1  0.36192698  0.19483720  0.16849615  1
  In  In20  1  0.36174296  0.19542459  0.66928539  1
  In  In21  1  0.36735711  0.19436557  0.08451154  1
  In  In22  1  0.36390945  0.19418453  0.58549263  1
  In  In23  1  0.39640951  0.52370712  0.02435731  1
  In  In24  1  0.40100265  0.53079994  0.52468872  1
  In  In25  1  0.43385953  0.87944488  0.78146976  1
  In  In26  1  0.43443482  0.87875394  0.28518648  1
  In  In27  1  0.43805268  0.49714487  0.23515533  1
  In  In28  1  0.43798841  0.49722593  0.73511408  1
  In  In29  1  0.44003151  0.65654189  0.37874160  1
  In  In30  1  0.43895104  0.65101294  0.87746736  1
  In  In31  1  0.45009261  0.90528598  0.97490212  1
  In  In32  1  0.56001044  0.15622739  0.37117466  1
  In  In33  1  0.56033582  0.15658338  0.87080720  1
  In  In34  1  0.56168107  0.99789693  0.51465104  1
  In  In35  1  0.56619400  0.37775298  0.46476072  1
  In  In36  1  0.56719217  0.37474457  0.96547682  1
  In  In37  1  0.59812071  0.03020684  0.22409843  1
  In  In38  1  0.59998130  0.03189127  0.72540021  1
  In  In39  1  0.63630343  0.69471162  0.16550467  1
  In  In40  1  0.63693002  0.69390347  0.66437430  1
  In  In41  1  0.63987092  0.69538567  0.08184355  1
  In  In42  1  0.63820468  0.69523355  0.58057817  1
  In  In43  1  0.71197338  0.01377718  0.37142981  1
  In  In44  1  0.71178208  0.01412156  0.87177561  1
  In  In45  1  0.72748960  0.32512832  0.12383449  1
  In  In46  1  0.72962893  0.32896630  0.62451173  1
  In  In47  1  0.77014853  0.67112546  0.37461355  1
  In  In48  1  0.77054787  0.66958462  0.87340197  1
  In  In49  1  0.78477879  0.98896124  0.12058339  1
  In  In50  1  0.78812225  0.98596982  0.62142976  1
  In  In51  1  0.86174296  0.30457541  0.33071461  1
  In  In52  1  0.86192698  0.30516280  0.83150385  1
  In  In53  1  0.86390945  0.30581547  0.41450737  1
  In  In54  1  0.86735711  0.30563443  0.91548846  1
  In  In55  1  0.90100265  0.96920006  0.47531128  1
  In  In56  1  0.89640951  0.97629288  0.97564269  1
  In  In57  1  0.93385953  0.62055512  0.21853024  1
  In  In58  1  0.93443482  0.62124606  0.71481352  1
  In  In59  1  0.93798841  0.00277407  0.26488592  1
  In  In60  1  0.93805268  0.00285513  0.76484467  1
  In  In61  1  0.93895104  0.84898706  0.12253264  1
  In  In62  1  0.94003151  0.84345811  0.62125840  1
  In  In63  1  0.95009261  0.59471402  0.02509788  1
  Br  Br64  1  0.03718081  0.25011889  0.29961740  1
  Br  Br65  1  0.03680673  0.25010011  0.79953444  1
  Br  Br66  1  0.03912562  0.26533142  0.44730462  1
  Br  Br67  1  0.04026193  0.26065641  0.94720500  1
  Br  Br68  1  0.05649096  0.86375052  0.18601326  1
  Br  Br69  1  0.05519089  0.86306066  0.68547305  1
  Br  Br70  1  0.06371899  0.87056667  0.06156078  1
  Br  Br71  1  0.06644106  0.87595853  0.56174543  1
  Br  Br72  1  0.09182763  0.53754027  0.37570388  1
  Br  Br73  1  0.09124653  0.53917775  0.87499159  1
  Br  Br74  1  0.08914018  0.15098904  0.13161413  1
  Br  Br75  1  0.08990973  0.15092718  0.63149951  1
  Br  Br76  1  0.16039771  0.98502816  0.44873826  1
  Br  Br77  1  0.16525129  0.98355210  0.94893736  1
  Br  Br78  1  0.17460706  0.97869689  0.30105486  1
  Br  Br79  1  0.17458646  0.97878915  0.80089547  1
  Br  Br80  1  0.19563231  0.60938432  0.06596509  1
  Br  Br81  1  0.19862228  0.60988780  0.56641225  1
  Br  Br82  1  0.19736674  0.61103188  0.68900305  1
  Br  Br83  1  0.19693114  0.61035347  0.18894532  1
  Br  Br84  1  0.24047394  0.30461842  0.04325605  1
  Br  Br85  1  0.24028799  0.30507299  0.54313737  1
  Br  Br86  1  0.24367464  0.30832609  0.21164895  1
  Br  Br87  1  0.24348416  0.30837479  0.71184797  1
  Br  Br88  1  0.25673501  0.69169791  0.46186223  1
  Br  Br89  1  0.26125174  0.69880802  0.96223788  1
  Br  Br90  1  0.25976977  0.69471744  0.29305901  1
  Br  Br91  1  0.26072610  0.69452043  0.79250441  1
  Br  Br92  1  0.30283304  0.38952436  0.43903273  1
  Br  Br93  1  0.30721817  0.38703874  0.93893885  1
  Br  Br94  1  0.30132459  0.38986540  0.31631447  1
  Br  Br95  1  0.30166847  0.39006491  0.81619345  1
  Br  Br96  1  0.31972779  0.02024913  0.05243490  1
  Br  Br97  1  0.32525217  0.02117828  0.55103732  1
  Br  Br98  1  0.33960725  0.01502375  0.19872314  1
  Br  Br99  1  0.33911210  0.01504361  0.69854801  1
  Br  Br100  1  0.41001937  0.84924260  0.38162717  1
  Br  Br101  1  0.40760335  0.84698373  0.87820883  1
  Br  Br102  1  0.40770835  0.46331252  0.12559322  1
  Br  Br103  1  0.40829514  0.46246432  0.62573533  1
  Br  Br104  1  0.43310492  0.12409663  0.31182392  1
  Br  Br105  1  0.43408237  0.12348056  0.81143499  1
  Br  Br106  1  0.44500907  0.13705889  0.43551410  1
  Br  Br107  1  0.44272184  0.13583123  0.93492203  1
  Br  Br108  1  0.46012729  0.73483039  0.19737995  1
  Br  Br109  1  0.46085724  0.73430127  0.69701422  1
  Br  Br110  1  0.45913406  0.74265717  0.05352635  1
  Br  Br111  1  0.46289875  0.75002507  0.54966086  1
  Br  Br112  1  0.53718081  0.24988111  0.70038260  1
  Br  Br113  1  0.53680673  0.24989989  0.20046556  1
  Br  Br114  1  0.53912562  0.23466858  0.55269538  1
  Br  Br115  1  0.54026193  0.23934359  0.05279500  1
  Br  Br116  1  0.55649096  0.63624948  0.81398674  1
  Br  Br117  1  0.55519089  0.63693934  0.31452695  1
  Br  Br118  1  0.56644106  0.62404147  0.43825457  1
  Br  Br119  1  0.56371899  0.62943333  0.93843922  1
  Br  Br120  1  0.59124653  0.96082225  0.12500841  1
  Br  Br121  1  0.59182763  0.96245973  0.62429612  1
  Br  Br122  1  0.58990973  0.34907282  0.36850049  1
  Br  Br123  1  0.58914018  0.34901096  0.86838587  1
  Br  Br124  1  0.66039771  0.51497184  0.55126174  1
  Br  Br125  1  0.66525129  0.51644790  0.05106264  1
  Br  Br126  1  0.67458646  0.52121085  0.19910453  1
  Br  Br127  1  0.67460706  0.52130311  0.69894514  1
  Br  Br128  1  0.69862228  0.89011220  0.43358775  1
  Br  Br129  1  0.69563231  0.89061568  0.93403491  1
  Br  Br130  1  0.69736674  0.88896812  0.31099695  1
  Br  Br131  1  0.69693114  0.88964653  0.81105468  1
  Br  Br132  1  0.74028799  0.19492701  0.45686263  1
  Br  Br133  1  0.74047394  0.19538158  0.95674395  1
  Br  Br134  1  0.74348416  0.19162521  0.28815203  1
  Br  Br135  1  0.74367464  0.19167391  0.78835105  1
  Br  Br136  1  0.75673501  0.80830209  0.53813777  1
  Br  Br137  1  0.76125174  0.80119198  0.03776212  1
  Br  Br138  1  0.76072610  0.80547957  0.20749559  1
  Br  Br139  1  0.75976977  0.80528256  0.70694099  1
  Br  Br140  1  0.80721817  0.11296126  0.06106115  1
  Br  Br141  1  0.80283304  0.11047564  0.56096727  1
  Br  Br142  1  0.80166847  0.10993509  0.18380655  1
  Br  Br143  1  0.80132459  0.11013460  0.68368553  1
  Br  Br144  1  0.82525217  0.47882172  0.44896268  1
  Br  Br145  1  0.81972779  0.47975087  0.94756510  1
  Br  Br146  1  0.83911210  0.48495639  0.30145199  1
  Br  Br147  1  0.83960725  0.48497625  0.80127686  1
  Br  Br148  1  0.90760335  0.65301627  0.12179117  1
  Br  Br149  1  0.91001937  0.65075740  0.61837283  1
  Br  Br150  1  0.90829514  0.03753568  0.37426467  1
  Br  Br151  1  0.90770835  0.03668748  0.87440678  1
  Br  Br152  1  0.93408237  0.37651944  0.18856501  1
  Br  Br153  1  0.93310492  0.37590337  0.68817608  1
  Br  Br154  1  0.94272184  0.36416877  0.06507797  1
  Br  Br155  1  0.94500907  0.36294111  0.56448590  1
  Br  Br156  1  0.96085724  0.76569873  0.30298578  1
  Br  Br157  1  0.96012729  0.76516961  0.80262005  1
  Br  Br158  1  0.96289875  0.74997493  0.45033914  1
  Br  Br159  1  0.95913406  0.75734283  0.94647365  1
