# generated using pymatgen
data_U5O11
_symmetry_space_group_name_H-M   'P 1'
_cell_length_a   3.83098479
_cell_length_b   3.85523767
_cell_length_c   19.12243113
_cell_angle_alpha   59.78896169
_cell_angle_beta   59.80869716
_cell_angle_gamma   59.87971009
_symmetry_Int_Tables_number   1
_chemical_formula_structural   U5O11
_chemical_formula_sum   'U5 O11'
_cell_volume   198.91541598
_cell_formula_units_Z   1
loop_
 _symmetry_equiv_pos_site_id
 _symmetry_equiv_pos_as_xyz
  1  'x, y, z'
loop_
 _atom_site_type_symbol
 _atom_site_label
 _atom_site_symmetry_multiplicity
 _atom_site_fract_x
 _atom_site_fract_y
 _atom_site_fract_z
 _atom_site_occupancy
  U  U0  1  0.97833214  0.02579308  0.99568153  1
  U  U1  1  0.96563178  0.00772879  0.20474216  1
  U  U2  1  0.97329762  0.99892344  0.40604830  1
  U  U3  1  0.97876776  0.99189696  0.60748018  1
  U  U4  1  0.96187796  0.97935499  0.81630388  1
  O  O5  1  0.18570065  0.23657277  0.06956935  1
  O  O6  1  0.70228719  0.74748389  0.16167646  1
  O  O7  1  0.21184520  0.25193642  0.25772751  1
  O  O8  1  0.71996275  0.74874467  0.35692257  1
  O  O9  1  0.24108600  0.25322658  0.65055304  1
  O  O10  1  0.22625134  0.24881632  0.45537292  1
  O  O11  1  0.73317366  0.74694134  0.55452668  1
  O  O12  1  0.25490997  0.27724376  0.83886078  1
  O  O13  1  0.75575420  0.76620685  0.74262932  1
  O  O14  1  0.46859520  0.50402697  0.90607318  1
  O  O15  1  0.68452757  0.72910218  0.97303313  1
