# generated using pymatgen
data_AlP3(NCl3)3
_symmetry_space_group_name_H-M   'P 1'
_cell_length_a   11.02806021
_cell_length_b   12.03436518
_cell_length_c   12.32055722
_cell_angle_alpha   90.00000000
_cell_angle_beta   90.00000000
_cell_angle_gamma   90.00000000
_symmetry_Int_Tables_number   1
_chemical_formula_structural   AlP3(NCl3)3
_chemical_formula_sum   'Al4 P12 N12 Cl36'
_cell_volume   1635.13142259
_cell_formula_units_Z   4
loop_
 _symmetry_equiv_pos_site_id
 _symmetry_equiv_pos_as_xyz
  1  'x, y, z'
loop_
 _atom_site_type_symbol
 _atom_site_label
 _atom_site_symmetry_multiplicity
 _atom_site_fract_x
 _atom_site_fract_y
 _atom_site_fract_z
 _atom_site_occupancy
  Al  Al0  1  0.10213968  0.84538518  0.00000000  1
  Al  Al1  1  0.60213968  0.15461482  0.50000000  1
  Al  Al2  1  0.56996858  0.59601537  0.00000000  1
  Al  Al3  1  0.06996858  0.40398463  0.50000000  1
  P  P4  1  0.95941592  0.34182503  0.00000000  1
  P  P5  1  0.03324639  0.96785118  0.50000000  1
  P  P6  1  0.82336729  0.02630561  0.61598409  1
  P  P7  1  0.82336729  0.02630561  0.38401591  1
  P  P8  1  0.80075935  0.48172757  0.88371677  1
  P  P9  1  0.32336729  0.97369439  0.11598409  1
  P  P10  1  0.45941592  0.65817497  0.50000000  1
  P  P11  1  0.32336729  0.97369439  0.88401591  1
  P  P12  1  0.30075935  0.51827243  0.38371677  1
  P  P13  1  0.80075935  0.48172757  0.11628323  1
  P  P14  1  0.30075935  0.51827243  0.61628323  1
  P  P15  1  0.53324639  0.03214882  0.00000000  1
  N  N16  1  0.96265143  0.99700943  0.39068261  1
  N  N17  1  0.46265143  0.00299057  0.89068261  1
  N  N18  1  0.23168687  0.48535573  0.50000000  1
  N  N19  1  0.46265143  0.00299057  0.10931739  1
  N  N20  1  0.96265143  0.99700943  0.60931739  1
  N  N21  1  0.75716786  0.06524953  0.50000000  1
  N  N22  1  0.90153720  0.38866446  0.89061975  1
  N  N23  1  0.73168687  0.51464427  0.00000000  1
  N  N24  1  0.25716786  0.93475047  0.00000000  1
  N  N25  1  0.40153720  0.61133554  0.39061975  1
  N  N26  1  0.40153720  0.61133554  0.60938025  1
  N  N27  1  0.90153720  0.38866446  0.10938025  1
  Cl  Cl28  1  0.99957892  0.89051769  0.14023389  1
  Cl  Cl29  1  0.06354817  0.30273827  0.64185221  1
  Cl  Cl30  1  0.49957892  0.10948231  0.64023389  1
  Cl  Cl31  1  0.23046926  0.10252897  0.17753301  1
  Cl  Cl32  1  0.17476666  0.56649203  0.27858145  1
  Cl  Cl33  1  0.86899105  0.62025925  0.18142179  1
  Cl  Cl34  1  0.19502172  0.04070778  0.50000000  1
  Cl  Cl35  1  0.56354817  0.69726173  0.14185221  1
  Cl  Cl36  1  0.79929210  0.14675709  0.27662101  1
  Cl  Cl37  1  0.56354817  0.69726173  0.85814779  1
  Cl  Cl38  1  0.43741039  0.46614268  0.00000000  1
  Cl  Cl39  1  0.99957892  0.89051769  0.85976611  1
  Cl  Cl40  1  0.73046926  0.89747103  0.67753301  1
  Cl  Cl41  1  0.69502172  0.95929222  0.00000000  1
  Cl  Cl42  1  0.36899105  0.37974075  0.31857821  1
  Cl  Cl43  1  0.67476666  0.43350797  0.77858145  1
  Cl  Cl44  1  0.49957892  0.10948231  0.35976611  1
  Cl  Cl45  1  0.36899105  0.37974075  0.68142179  1
  Cl  Cl46  1  0.67476666  0.43350797  0.22141855  1
  Cl  Cl47  1  0.29929210  0.85324291  0.77662101  1
  Cl  Cl48  1  0.23046926  0.10252897  0.82246699  1
  Cl  Cl49  1  0.86899105  0.62025925  0.81857821  1
  Cl  Cl50  1  0.79929210  0.14675709  0.72337899  1
  Cl  Cl51  1  0.17476666  0.56649203  0.72141855  1
  Cl  Cl52  1  0.63904395  0.63229573  0.50000000  1
  Cl  Cl53  1  0.44896293  0.82476967  0.50000000  1
  Cl  Cl54  1  0.93741039  0.53385732  0.50000000  1
  Cl  Cl55  1  0.07563820  0.80431508  0.50000000  1
  Cl  Cl56  1  0.57563820  0.19568492  0.00000000  1
  Cl  Cl57  1  0.06354817  0.30273827  0.35814779  1
  Cl  Cl58  1  0.29929210  0.85324291  0.22337899  1
  Cl  Cl59  1  0.94896293  0.17523033  0.00000000  1
  Cl  Cl60  1  0.73046926  0.89747103  0.32246699  1
  Cl  Cl61  1  0.15635464  0.67524071  0.00000000  1
  Cl  Cl62  1  0.65635464  0.32475929  0.50000000  1
  Cl  Cl63  1  0.13904395  0.36770427  0.00000000  1
