# generated using pymatgen
data_Nb3Se10Br3
_symmetry_space_group_name_H-M   'P 1'
_cell_length_a   13.96297109
_cell_length_b   14.25593838
_cell_length_c   19.66643823
_cell_angle_alpha   90.09330600
_cell_angle_beta   90.00000000
_cell_angle_gamma   90.00000000
_symmetry_Int_Tables_number   1
_chemical_formula_structural   Nb3Se10Br3
_chemical_formula_sum   'Nb24 Se80 Br24'
_cell_volume   3914.70269537
_cell_formula_units_Z   8
loop_
 _symmetry_equiv_pos_site_id
 _symmetry_equiv_pos_as_xyz
  1  'x, y, z'
loop_
 _atom_site_type_symbol
 _atom_site_label
 _atom_site_symmetry_multiplicity
 _atom_site_fract_x
 _atom_site_fract_y
 _atom_site_fract_z
 _atom_site_occupancy
  Nb  Nb0  1  0.75115974  0.63407354  0.60423879  1
  Nb  Nb1  1  0.76148057  0.71256450  0.75257611  1
  Nb  Nb2  1  0.23963997  0.45640178  0.74716162  1
  Nb  Nb3  1  0.25469955  0.94780154  0.54344138  1
  Nb  Nb4  1  0.76174343  0.62054889  0.10365189  1
  Nb  Nb5  1  0.23192157  0.29606155  0.04401332  1
  Nb  Nb6  1  0.76036003  0.54359822  0.25283838  1
  Nb  Nb7  1  0.24884026  0.36592646  0.39576121  1
  Nb  Nb8  1  0.76807843  0.70393845  0.95598668  1
  Nb  Nb9  1  0.74530045  0.05219846  0.45655862  1
  Nb  Nb10  1  0.73192157  0.20393845  0.95598668  1
  Nb  Nb11  1  0.26036003  0.95640178  0.74716162  1
  Nb  Nb12  1  0.26148057  0.78743550  0.24742389  1
  Nb  Nb13  1  0.26174343  0.87945111  0.89634811  1
  Nb  Nb14  1  0.24530045  0.44780154  0.54344138  1
  Nb  Nb15  1  0.73963997  0.04359822  0.25283838  1
  Nb  Nb16  1  0.26807843  0.79606155  0.04401332  1
  Nb  Nb17  1  0.75469955  0.55219846  0.45655862  1
  Nb  Nb18  1  0.73825657  0.12054889  0.10365189  1
  Nb  Nb19  1  0.23851943  0.28743550  0.24742389  1
  Nb  Nb20  1  0.73851943  0.21256450  0.75257611  1
  Nb  Nb21  1  0.23825657  0.37945111  0.89634811  1
  Nb  Nb22  1  0.25115974  0.86592646  0.39576121  1
  Nb  Nb23  1  0.74884026  0.13407354  0.60423879  1
  Se  Se24  1  0.65755610  0.48137515  0.56040730  1
  Se  Se25  1  0.59601467  0.07220326  0.53210135  1
  Se  Se26  1  0.65304422  0.77878831  0.85774346  1
  Se  Se27  1  0.85848830  0.98329762  0.35436130  1
  Se  Se28  1  0.83175140  0.14521522  0.35179313  1
  Se  Se29  1  0.09601467  0.42779674  0.46789865  1
  Se  Se30  1  0.41797663  0.82596376  0.96936369  1
  Se  Se31  1  0.39871367  0.37662256  0.48343686  1
  Se  Se32  1  0.11276241  0.85955318  0.98333841  1
  Se  Se33  1  0.91273584  0.55677888  0.17802996  1
  Se  Se34  1  0.16902438  0.45160262  0.28962431  1
  Se  Se35  1  0.90398533  0.57220326  0.53210135  1
  Se  Se36  1  0.41273584  0.94322112  0.82197004  1
  Se  Se37  1  0.33155994  0.20866844  0.35023865  1
  Se  Se38  1  0.83259656  0.96907414  0.14815435  1
  Se  Se39  1  0.39665898  0.34723745  0.30704079  1
  Se  Se40  1  0.38723759  0.35955318  0.98333841  1
  Se  Se41  1  0.58726416  0.05677888  0.17802996  1
  Se  Se42  1  0.83113402  0.71550752  0.49628195  1
  Se  Se43  1  0.16740344  0.03092586  0.85184565  1
  Se  Se44  1  0.90890544  0.68849575  0.67558251  1
  Se  Se45  1  0.33113402  0.78449248  0.50371805  1
  Se  Se46  1  0.84695578  0.27878831  0.85774346  1
  Se  Se47  1  0.33623831  0.96365075  0.00558290  1
  Se  Se48  1  0.61276241  0.64044682  0.01666159  1
  Se  Se49  1  0.38991922  0.38794228  0.81043000  1
  Se  Se50  1  0.66824860  0.64521522  0.35179313  1
  Se  Se51  1  0.16844006  0.70866844  0.35023865  1
  Se  Se52  1  0.58202337  0.17403624  0.03063631  1
  Se  Se53  1  0.40398533  0.92779674  0.46789865  1
  Se  Se54  1  0.34298111  0.79790143  0.78896700  1
  Se  Se55  1  0.14151170  0.01670238  0.64563870  1
  Se  Se56  1  0.35848830  0.51670238  0.64563870  1
  Se  Se57  1  0.16886598  0.28449248  0.50371805  1
  Se  Se58  1  0.09109456  0.31150425  0.32441749  1
  Se  Se59  1  0.15304422  0.72121169  0.14225654  1
  Se  Se60  1  0.10334102  0.84723745  0.30704079  1
  Se  Se61  1  0.08726416  0.44322112  0.82197004  1
  Se  Se62  1  0.15701889  0.29790143  0.78896700  1
  Se  Se63  1  0.11008078  0.88794228  0.81043000  1
  Se  Se64  1  0.59109456  0.18849575  0.67558251  1
  Se  Se65  1  0.91797663  0.67403624  0.03063631  1
  Se  Se66  1  0.66376169  0.03634925  0.99441710  1
  Se  Se67  1  0.08202337  0.32596376  0.96936369  1
  Se  Se68  1  0.82901158  0.11569198  0.85344350  1
  Se  Se69  1  0.89665898  0.15276255  0.69295921  1
  Se  Se70  1  0.66844006  0.79133156  0.64976135  1
  Se  Se71  1  0.40890544  0.81150425  0.32441749  1
  Se  Se72  1  0.67098842  0.61569198  0.85344350  1
  Se  Se73  1  0.88991922  0.11205772  0.18957000  1
  Se  Se74  1  0.33175140  0.35478478  0.64820687  1
  Se  Se75  1  0.67808878  0.77846072  0.06097402  1
  Se  Se76  1  0.83155994  0.29133156  0.64976135  1
  Se  Se77  1  0.82191122  0.27846072  0.06097402  1
  Se  Se78  1  0.65701889  0.20209857  0.21103300  1
  Se  Se79  1  0.61008078  0.61205772  0.18957000  1
  Se  Se80  1  0.17098842  0.88430802  0.14655650  1
  Se  Se81  1  0.34695578  0.22121169  0.14225654  1
  Se  Se82  1  0.17808878  0.72153928  0.93902598  1
  Se  Se83  1  0.32191122  0.22153928  0.93902598  1
  Se  Se84  1  0.89871367  0.12337744  0.51656314  1
  Se  Se85  1  0.10128633  0.87662256  0.48343686  1
  Se  Se86  1  0.84298111  0.70209857  0.21103300  1
  Se  Se87  1  0.88723759  0.14044682  0.01666159  1
  Se  Se88  1  0.15755610  0.01862485  0.43959270  1
  Se  Se89  1  0.16376169  0.46365075  0.00558290  1
  Se  Se90  1  0.66886598  0.21550752  0.49628195  1
  Se  Se91  1  0.60334102  0.65276255  0.69295921  1
  Se  Se92  1  0.32901158  0.38430802  0.14655650  1
  Se  Se93  1  0.16824860  0.85478478  0.64820687  1
  Se  Se94  1  0.60128633  0.62337744  0.51656314  1
  Se  Se95  1  0.64151170  0.48329762  0.35436130  1
  Se  Se96  1  0.33097562  0.95160262  0.28962431  1
  Se  Se97  1  0.33259656  0.53092586  0.85184565  1
  Se  Se98  1  0.66740344  0.46907414  0.14815435  1
  Se  Se99  1  0.84244390  0.98137515  0.56040730  1
  Se  Se100  1  0.83097562  0.54839738  0.71037569  1
  Se  Se101  1  0.66902438  0.04839738  0.71037569  1
  Se  Se102  1  0.34244390  0.51862485  0.43959270  1
  Se  Se103  1  0.83623831  0.53634925  0.99441710  1
  Br  Br104  1  0.18352870  0.63926056  0.74521760  1
  Br  Br105  1  0.59998703  0.19534438  0.85264885  1
  Br  Br106  1  0.68429080  0.87033597  0.45934371  1
  Br  Br107  1  0.68352870  0.86073944  0.25478240  1
  Br  Br108  1  0.90001297  0.69534438  0.85264885  1
  Br  Br109  1  0.16651076  0.11545116  0.04111218  1
  Br  Br110  1  0.60742273  0.05535069  0.35625638  1
  Br  Br111  1  0.83348924  0.88454884  0.95888782  1
  Br  Br112  1  0.89257727  0.55535069  0.35625638  1
  Br  Br113  1  0.31570920  0.12966403  0.54065629  1
  Br  Br114  1  0.39257727  0.94464931  0.64374362  1
  Br  Br115  1  0.33348924  0.61545116  0.04111218  1
  Br  Br116  1  0.81570920  0.37033597  0.45934371  1
  Br  Br117  1  0.17029825  0.10839784  0.24776731  1
  Br  Br118  1  0.66651076  0.38454884  0.95888782  1
  Br  Br119  1  0.31647130  0.13926056  0.74521760  1
  Br  Br120  1  0.09998703  0.30465562  0.14735115  1
  Br  Br121  1  0.32970175  0.60839784  0.24776731  1
  Br  Br122  1  0.82970175  0.89160216  0.75223269  1
  Br  Br123  1  0.40001297  0.80465562  0.14735115  1
  Br  Br124  1  0.18429080  0.62966403  0.54065629  1
  Br  Br125  1  0.10742273  0.44464931  0.64374362  1
  Br  Br126  1  0.81647130  0.36073944  0.25478240  1
  Br  Br127  1  0.67029825  0.39160216  0.75223269  1
