# generated using pymatgen
data_Mn4Si7
_symmetry_space_group_name_H-M   'P 1'
_cell_length_a   5.50555739
_cell_length_b   5.50555739
_cell_length_c   17.37404153
_cell_angle_alpha   90.00000000
_cell_angle_beta   90.00000000
_cell_angle_gamma   90.00000000
_symmetry_Int_Tables_number   1
_chemical_formula_structural   Mn4Si7
_chemical_formula_sum   'Mn16 Si28'
_cell_volume   526.62739044
_cell_formula_units_Z   4
loop_
 _symmetry_equiv_pos_site_id
 _symmetry_equiv_pos_as_xyz
  1  'x, y, z'
loop_
 _atom_site_type_symbol
 _atom_site_label
 _atom_site_symmetry_multiplicity
 _atom_site_fract_x
 _atom_site_fract_y
 _atom_site_fract_z
 _atom_site_occupancy
  Mn  Mn0  1  0.00000000  -0.00000000  0.50000000  1
  Mn  Mn1  1  0.00000000  -0.00000000  0.00000000  1
  Mn  Mn2  1  0.00000000  0.50000000  0.43482369  1
  Mn  Mn3  1  0.00000000  0.50000000  0.93482369  1
  Mn  Mn4  1  0.50000000  -0.00000000  0.56517631  1
  Mn  Mn5  1  0.50000000  -0.00000000  0.06517631  1
  Mn  Mn6  1  0.50000000  0.50000000  0.37040229  1
  Mn  Mn7  1  0.50000000  0.50000000  0.87040229  1
  Mn  Mn8  1  0.50000000  0.50000000  0.62959771  1
  Mn  Mn9  1  0.50000000  0.50000000  0.12959771  1
  Mn  Mn10  1  0.00000000  0.50000000  0.19176567  1
  Mn  Mn11  1  0.00000000  0.50000000  0.69176567  1
  Mn  Mn12  1  0.50000000  -0.00000000  0.80823433  1
  Mn  Mn13  1  0.50000000  -0.00000000  0.30823433  1
  Mn  Mn14  1  0.00000000  -0.00000000  0.25000000  1
  Mn  Mn15  1  0.00000000  -0.00000000  0.75000000  1
  Si  Si16  1  0.19966744  0.15460963  0.38701019  1
  Si  Si17  1  0.80033256  0.84539037  0.38701019  1
  Si  Si18  1  0.19966744  0.84539037  0.88701019  1
  Si  Si19  1  0.80033256  0.15460963  0.88701019  1
  Si  Si20  1  0.15460963  0.80033256  0.61298981  1
  Si  Si21  1  0.84539037  0.19966744  0.61298981  1
  Si  Si22  1  0.84539037  0.80033256  0.11298981  1
  Si  Si23  1  0.15460963  0.19966744  0.11298981  1
  Si  Si24  1  0.84043246  0.32033652  0.31766987  1
  Si  Si25  1  0.15956754  0.67966348  0.31766987  1
  Si  Si26  1  0.84043246  0.67966348  0.81766987  1
  Si  Si27  1  0.15956754  0.32033652  0.81766987  1
  Si  Si28  1  0.32033652  0.15956754  0.68233013  1
  Si  Si29  1  0.67966348  0.84043246  0.68233013  1
  Si  Si30  1  0.67966348  0.15956754  0.18233013  1
  Si  Si31  1  0.32033652  0.84043246  0.18233013  1
  Si  Si32  1  0.33393158  0.33393158  0.25000000  1
  Si  Si33  1  0.66606842  0.66606842  0.25000000  1
  Si  Si34  1  0.33393158  0.66606842  0.75000000  1
  Si  Si35  1  0.66606842  0.33393158  0.75000000  1
  Si  Si36  1  0.23203164  0.34569533  0.53811598  1
  Si  Si37  1  0.76796836  0.65430467  0.53811598  1
  Si  Si38  1  0.23203164  0.65430467  0.03811598  1
  Si  Si39  1  0.76796836  0.34569533  0.03811598  1
  Si  Si40  1  0.34569533  0.76796836  0.46188402  1
  Si  Si41  1  0.65430467  0.23203164  0.46188402  1
  Si  Si42  1  0.65430467  0.76796836  0.96188402  1
  Si  Si43  1  0.34569533  0.23203164  0.96188402  1
