# generated using pymatgen
data_Ti13S24
_symmetry_space_group_name_H-M   'P 1'
_cell_length_a   10.23329293
_cell_length_b   11.82342680
_cell_length_c   9.03085587
_cell_angle_alpha   49.14656072
_cell_angle_beta   112.31045968
_cell_angle_gamma   90.00976277
_symmetry_Int_Tables_number   1
_chemical_formula_structural   Ti13S24
_chemical_formula_sum   'Ti13 S24'
_cell_volume   714.91476946
_cell_formula_units_Z   1
loop_
 _symmetry_equiv_pos_site_id
 _symmetry_equiv_pos_as_xyz
  1  'x, y, z'
loop_
 _atom_site_type_symbol
 _atom_site_label
 _atom_site_symmetry_multiplicity
 _atom_site_fract_x
 _atom_site_fract_y
 _atom_site_fract_z
 _atom_site_occupancy
  Ti  Ti0  1  0.99823369  0.49514987  0.99346630  1
  Ti  Ti1  1  0.99196587  0.00527410  0.99011039  1
  Ti  Ti2  1  0.15982331  0.75924426  0.98013604  1
  Ti  Ti3  1  0.33333300  0.50000000  0.50000000  1
  Ti  Ti4  1  0.16557587  0.24002736  0.00826790  1
  Ti  Ti5  1  0.33333300  0.50000000  0.00000000  1
  Ti  Ti6  1  0.33333300  0.00000000  0.00000000  1
  Ti  Ti7  1  0.50109113  0.75997264  0.99173210  1
  Ti  Ti8  1  0.50684369  0.24075574  0.01986396  1
  Ti  Ti9  1  0.66843331  0.50485013  0.00653370  1
  Ti  Ti10  1  0.67470113  0.99472590  0.00988961  1
  Ti  Ti11  1  0.82848874  0.75777119  0.99067639  1
  Ti  Ti12  1  0.83817726  0.24222881  0.00932361  1
  S  S13  1  0.08475432  0.70466265  0.75425277  1
  S  S14  1  0.08664384  0.20270413  0.76021222  1
  S  S15  1  0.25126914  0.95891105  0.75208186  1
  S  S16  1  0.25164043  0.45462125  0.75410591  1
  S  S17  1  0.08304984  0.54544116  0.24432917  1
  S  S18  1  0.08144813  0.04030834  0.24585592  1
  S  S19  1  0.42041226  0.70267053  0.76265697  1
  S  S20  1  0.41894470  0.20771071  0.75395750  1
  S  S21  1  0.24772230  0.79228929  0.24604250  1
  S  S22  1  0.24625474  0.29732947  0.23734303  1
  S  S23  1  0.58361716  0.45455884  0.75567083  1
  S  S24  1  0.58521887  0.95969166  0.75414408  1
  S  S25  1  0.41502557  0.54537875  0.24589409  1
  S  S26  1  0.41539686  0.04108895  0.24791814  1
  S  S27  1  0.75390676  0.70237737  0.76192736  1
  S  S28  1  0.75045384  0.20502156  0.75802482  1
  S  S29  1  0.58002316  0.79729587  0.23978778  1
  S  S30  1  0.58191268  0.29533735  0.24574723  1
  S  S31  1  0.91907493  0.44974766  0.75936198  1
  S  S32  1  0.91542111  0.95933254  0.74864714  1
  S  S33  1  0.74759207  0.55025234  0.24063802  1
  S  S34  1  0.75124589  0.04066746  0.25135286  1
  S  S35  1  0.91621216  0.79497844  0.24197518  1
  S  S36  1  0.91275924  0.29762263  0.23807264  1
