# generated using pymatgen
data_NaAlH2CO5
_symmetry_space_group_name_H-M   'P 1'
_cell_length_a   6.86333073
_cell_length_b   6.86333073
_cell_length_c   6.86333073
_cell_angle_alpha   120.77003683
_cell_angle_beta   79.99030543
_cell_angle_gamma   131.46949571
_symmetry_Int_Tables_number   1
_chemical_formula_structural   NaAlH2CO5
_chemical_formula_sum   'Na2 Al2 H4 C2 O10'
_cell_volume   201.19928521
_cell_formula_units_Z   2
loop_
 _symmetry_equiv_pos_site_id
 _symmetry_equiv_pos_as_xyz
  1  'x, y, z'
loop_
 _atom_site_type_symbol
 _atom_site_label
 _atom_site_symmetry_multiplicity
 _atom_site_fract_x
 _atom_site_fract_y
 _atom_site_fract_z
 _atom_site_occupancy
  Na  Na0  1  0.99586126  0.99740482  0.49326608  1
  Na  Na1  1  0.00413874  0.49740482  0.00154356  1
  Al  Al2  1  0.50000000  0.49036361  0.99036361  1
  Al  Al3  1  0.00000000  0.99036361  0.99036361  1
  H  H4  1  0.28351534  0.94024058  0.72375593  1
  H  H5  1  0.71648466  0.44024058  0.65672524  1
  H  H6  1  0.71552033  0.03976656  0.25528689  1
  H  H7  1  0.28447967  0.53976656  0.32424624  1
  C  C8  1  0.50352404  0.74045762  0.74398165  1
  C  C9  1  0.49647596  0.24045762  0.23693358  1
  O  O10  1  0.61736661  0.23805160  0.35541821  1
  O  O11  1  0.38263339  0.73805160  0.62068498  1
  O  O12  1  0.76786084  0.94351380  0.80762610  1
  O  O13  1  0.23213916  0.03976526  0.17565296  1
  O  O14  1  0.63588770  0.44351380  0.17565296  1
  O  O15  1  0.36411230  0.53976526  0.80762610  1
  O  O16  1  0.22643584  0.42357533  0.15001117  1
  O  O17  1  0.77356416  0.92357533  0.19713949  1
  O  O18  1  0.77363272  0.55686082  0.83049354  1
  O  O19  1  0.22636728  0.05686082  0.78322810  1
