# generated using pymatgen
data_Sr7Al12O25
_symmetry_space_group_name_H-M   'P 1'
_cell_length_a   18.32150189
_cell_length_b   18.32150187
_cell_length_c   6.93147864
_cell_angle_alpha   90.00000000
_cell_angle_beta   90.00000000
_cell_angle_gamma   120.00000002
_symmetry_Int_Tables_number   1
_chemical_formula_structural   Sr7Al12O25
_chemical_formula_sum   'Sr21 Al36 O75'
_cell_volume   2015.01676479
_cell_formula_units_Z   3
loop_
 _symmetry_equiv_pos_site_id
 _symmetry_equiv_pos_as_xyz
  1  'x, y, z'
loop_
 _atom_site_type_symbol
 _atom_site_label
 _atom_site_symmetry_multiplicity
 _atom_site_fract_x
 _atom_site_fract_y
 _atom_site_fract_z
 _atom_site_occupancy
  Sr  Sr0  1  0.11006786  0.84201149  0.13879552  1
  Sr  Sr1  1  0.06550158  0.55691338  0.47217878  1
  Sr  Sr2  1  0.22803418  0.81916332  0.67718826  1
  Sr  Sr3  1  0.18083668  0.40887087  0.67718826  1
  Sr  Sr4  1  0.33333300  0.66666700  0.86320707  1
  Sr  Sr5  1  -0.00000000  -0.00000000  0.53399813  1
  Sr  Sr6  1  0.15798851  0.26805637  0.13879552  1
  Sr  Sr7  1  0.49141280  0.93449842  0.47217878  1
  Sr  Sr8  1  0.44308662  0.50858720  0.47217878  1
  Sr  Sr9  1  0.59112913  0.77196582  0.67718826  1
  Sr  Sr10  1  0.25756531  0.10531594  0.34411673  1
  Sr  Sr11  1  0.73194363  0.88993214  0.13879552  1
  Sr  Sr12  1  0.39875215  0.22372621  0.80530469  1
  Sr  Sr13  1  0.56190696  0.48616322  0.01167458  1
  Sr  Sr14  1  0.84775063  0.74243469  0.34411673  1
  Sr  Sr15  1  0.51383678  0.07574374  0.01167458  1
  Sr  Sr16  1  0.66666700  0.33333300  0.20249580  1
  Sr  Sr17  1  0.82497406  0.60124785  0.80530469  1
  Sr  Sr18  1  0.77627379  0.17502594  0.80530469  1
  Sr  Sr19  1  0.92425626  0.43809304  0.01167458  1
  Sr  Sr20  1  0.89468406  0.15224937  0.34411673  1
  Al  Al21  1  0.01388510  0.74334667  0.53192858  1
  Al  Al22  1  0.11638496  0.92185676  0.69894141  1
  Al  Al23  1  0.06320748  0.65306988  0.86533040  1
  Al  Al24  1  0.22414060  0.73788929  0.12910840  1
  Al  Al25  1  0.31706404  0.92526542  0.28775463  1
  Al  Al26  1  0.13934714  0.55069671  0.03228349  1
  Al  Al27  1  0.07473458  0.39179962  0.28775463  1
  Al  Al28  1  0.07814324  0.19452920  0.69894141  1
  Al  Al29  1  0.41134957  0.86065286  0.03228349  1
  Al  Al30  1  0.26211071  0.48625031  0.12910840  1
  Al  Al31  1  0.58986240  0.93679252  0.86533040  1
  Al  Al32  1  0.25665333  0.27053843  0.53192858  1
  Al  Al33  1  0.51374969  0.77585940  0.12910840  1
  Al  Al34  1  0.18036736  0.10943002  0.79624940  1
  Al  Al35  1  0.34693012  0.41013760  0.86533040  1
  Al  Al36  1  0.44930329  0.58865043  0.03228349  1
  Al  Al37  1  0.72946157  0.98611490  0.53192858  1
  Al  Al38  1  0.39626673  0.31997540  0.19864807  1
  Al  Al39  1  0.60820038  0.68293596  0.28775463  1
  Al  Al40  1  0.27489237  0.01639246  0.95485924  1
  Al  Al41  1  0.55752021  0.40469847  0.46346428  1
  Al  Al42  1  0.65045378  0.59214059  0.62141049  1
  Al  Al43  1  0.47179862  0.21706890  0.36570918  1
  Al  Al44  1  0.80547080  0.88361504  0.69894141  1
  Al  Al45  1  0.74150008  0.72510763  0.95485924  1
  Al  Al46  1  0.40785941  0.05831318  0.62141049  1
  Al  Al47  1  0.74527028  0.52820138  0.36570918  1
  Al  Al48  1  0.92906366  0.81963264  0.79624940  1
  Al  Al49  1  0.59530153  0.15282074  0.46346428  1
  Al  Al50  1  0.92370866  0.60373327  0.19864807  1
  Al  Al51  1  0.84717926  0.44247979  0.46346428  1
  Al  Al52  1  0.68002460  0.07629134  0.19864807  1
  Al  Al53  1  0.78293110  0.25472972  0.36570918  1
  Al  Al54  1  0.94168682  0.34954622  0.62141049  1
  Al  Al55  1  0.89056998  0.07093634  0.79624940  1
  Al  Al56  1  0.98360754  0.25849992  0.95485924  1
  O  O57  1  0.03537253  0.86397384  0.86942472  1
  O  O58  1  0.08909762  0.85289215  0.49611951  1
  O  O59  1  0.06521488  0.69104467  0.62736519  1
  O  O60  1  0.20572760  0.92824072  0.81660996  1
  O  O61  1  0.14301849  0.74350110  0.98274607  1
  O  O62  1  0.26489119  0.97697038  0.19369702  1
  O  O63  1  0.09845456  0.57857410  0.82876560  1
  O  O64  1  0.24518858  0.81504181  0.31068625  1
  O  O65  1  0.05617867  0.46143951  0.14913755  1
  O  O66  1  0.04509576  0.40176883  0.52707260  1
  O  O67  1  0.16200819  0.63144344  0.20313495  1
  O  O68  1  0.35667306  0.95490424  0.52707260  1
  O  O69  1  0.02302962  0.28792081  0.19369702  1
  O  O70  1  0.30757032  0.78708538  0.94449478  1
  O  O71  1  0.07175928  0.27748688  0.81660996  1
  O  O72  1  0.40526084  0.94382133  0.14913755  1
  O  O73  1  0.21291462  0.52048493  0.94449478  1
  O  O74  1  0.18495819  0.43014677  0.31068625  1
  O  O75  1  0.33333300  0.66666700  0.16896893  1
  O  O76  1  -0.00000000  -0.00000000  0.83967366  1
  O  O77  1  0.48011955  0.90154544  0.82876560  1
  O  O78  1  0.14710785  0.23620547  0.49611951  1
  O  O79  1  0.46943425  0.83799181  0.20313495  1
  O  O80  1  0.13602616  0.17139869  0.86942472  1
  O  O81  1  0.25649890  0.39951739  0.98274607  1
  O  O82  1  0.36855656  0.53056575  0.20313495  1
  O  O83  1  0.14620806  0.02569804  0.61216187  1
  O  O84  1  0.30895533  0.37417120  0.62736519  1
  O  O85  1  0.47951507  0.69242968  0.94449478  1
  O  O86  1  0.62582880  0.93478512  0.62736519  1
  O  O87  1  0.29266654  0.26859152  0.29372681  1
  O  O88  1  0.60048261  0.85698151  0.98274607  1
  O  O89  1  0.26701498  0.19046196  0.64944685  1
  O  O90  1  0.42142590  0.51988045  0.82876560  1
  O  O91  1  0.23669181  0.08836261  0.97795352  1
  O  O92  1  0.56985323  0.75481142  0.31068625  1
  O  O93  1  0.39886224  0.35835588  0.96064986  1
  O  O94  1  0.53856049  0.59473916  0.14913755  1
  O  O95  1  0.47658748  0.41026029  0.31629067  1
  O  O96  1  0.59823117  0.64332694  0.52707260  1
  O  O97  1  0.43027837  0.24438177  0.16272083  1
  O  O98  1  0.76379453  0.91090238  0.49611951  1
  O  O99  1  0.57857942  0.48190675  0.64503892  1
  O  O100  1  0.72251312  0.79427240  0.81660996  1
  O  O101  1  0.38899545  0.12802916  0.48350170  1
  O  O102  1  0.71207919  0.73510881  0.19369702  1
  O  O103  1  0.37875169  0.06888518  0.86068268  1
  O  O104  1  0.49523502  0.29818926  0.53585165  1
  O  O105  1  0.82860131  0.96462747  0.86942472  1
  O  O106  1  0.69013348  0.62124831  0.86068268  1
  O  O107  1  0.64135666  0.45412130  0.27945834  1
  O  O108  1  0.73903271  0.61100455  0.48350170  1
  O  O109  1  0.87948998  0.85379194  0.61216187  1
  O  O110  1  0.54587870  0.18723535  0.27945834  1
  O  O111  1  0.85167080  0.76330819  0.97795352  1
  O  O112  1  0.51809325  0.09667267  0.64503892  1
  O  O113  1  0.66666700  0.33333300  0.50830424  1
  O  O114  1  0.81410340  0.56972163  0.16272083  1
  O  O115  1  0.80295425  0.50476498  0.53585165  1
  O  O116  1  0.92344698  0.73298502  0.64944685  1
  O  O117  1  0.58973971  0.06632719  0.31629067  1
  O  O118  1  0.70181074  0.19704575  0.53585165  1
  O  O119  1  0.81276465  0.35864334  0.27945834  1
  O  O120  1  0.97592499  0.70733346  0.29372681  1
  O  O121  1  0.64164412  0.04050536  0.96064986  1
  O  O122  1  0.95949464  0.60113776  0.96064986  1
  O  O123  1  0.93367281  0.52341252  0.31629067  1
  O  O124  1  0.75561823  0.18589660  0.16272083  1
  O  O125  1  0.90332733  0.42142058  0.64503892  1
  O  O126  1  0.73140848  0.02407501  0.29372681  1
  O  O127  1  0.87197084  0.26096729  0.48350170  1
  O  O128  1  0.80953804  0.07655302  0.64944685  1
  O  O129  1  0.93111482  0.30986652  0.86068268  1
  O  O130  1  0.91163739  0.14832920  0.97795352  1
  O  O131  1  0.97430196  0.12051002  0.61216187  1
