# generated using pymatgen
data_RbHSeO4
_symmetry_space_group_name_H-M   'P 1'
_cell_length_a   10.75113746
_cell_length_b   4.67763374
_cell_length_c   10.75494729
_cell_angle_alpha   78.31919104
_cell_angle_beta   138.23833015
_cell_angle_gamma   102.13852834
_symmetry_Int_Tables_number   1
_chemical_formula_structural   RbHSeO4
_chemical_formula_sum   'Rb3 H3 Se3 O12'
_cell_volume   351.31516409
_cell_formula_units_Z   3
loop_
 _symmetry_equiv_pos_site_id
 _symmetry_equiv_pos_as_xyz
  1  'x, y, z'
loop_
 _atom_site_type_symbol
 _atom_site_label
 _atom_site_symmetry_multiplicity
 _atom_site_fract_x
 _atom_site_fract_y
 _atom_site_fract_z
 _atom_site_occupancy
  Rb  Rb0  1  0.48799902  0.00264698  0.48841502  1
  Rb  Rb1  1  0.25055107  0.57881046  0.91990401  1
  Rb  Rb2  1  0.92252886  0.41960669  0.25320862  1
  H  H3  1  0.86847956  0.54656171  0.87536163  1
  H  H4  1  0.86603622  0.13826226  0.55030495  1
  H  H5  1  0.54980625  0.86175379  0.86681535  1
  Se  Se6  1  0.00195121  0.01126513  0.99900489  1
  Se  Se7  1  0.74385436  0.69674667  0.40895957  1
  Se  Se8  1  0.40988727  0.30050838  0.74477843  1
  O  O9  1  0.89843637  0.29264377  0.83721662  1
  O  O10  1  0.82795269  0.71301377  0.88861237  1
  O  O11  1  0.18451667  0.93700525  0.05719489  1
  O  O12  1  0.05282659  0.05013638  0.18300464  1
  O  O13  1  0.90583771  0.46757686  0.51649609  1
  O  O14  1  0.51799393  0.53203414  0.90780468  1
  O  O15  1  0.70017024  0.90401461  0.23769183  1
  O  O16  1  0.23625932  0.09148571  0.69828092  1
  O  O17  1  0.84792853  0.92277795  0.58574137  1
  O  O18  1  0.58550710  0.07693780  0.84806947  1
  O  O19  1  0.55394909  0.52943733  0.34659303  1
  O  O20  1  0.35071792  0.46467438  0.55695164  1
