# generated using pymatgen
data_HPb3ClO3
_symmetry_space_group_name_H-M   'P 1'
_cell_length_a   5.94097571
_cell_length_b   6.99672261
_cell_length_c   15.58106032
_cell_angle_alpha   90.00000000
_cell_angle_beta   90.00000000
_cell_angle_gamma   90.00000000
_symmetry_Int_Tables_number   1
_chemical_formula_structural   HPb3ClO3
_chemical_formula_sum   'H4 Pb12 Cl4 O12'
_cell_volume   647.66352910
_cell_formula_units_Z   4
loop_
 _symmetry_equiv_pos_site_id
 _symmetry_equiv_pos_as_xyz
  1  'x, y, z'
loop_
 _atom_site_type_symbol
 _atom_site_label
 _atom_site_symmetry_multiplicity
 _atom_site_fract_x
 _atom_site_fract_y
 _atom_site_fract_z
 _atom_site_occupancy
  H  H0  1  0.50000000  0.78529841  0.22854127  1
  H  H1  1  0.50000000  0.21470159  0.72854127  1
  H  H2  1  0.00000000  0.79610690  0.94203708  1
  H  H3  1  0.00000000  0.20389310  0.44203708  1
  Pb  Pb4  1  0.50000000  0.58522249  0.80113824  1
  Pb  Pb5  1  0.50000000  0.41477751  0.30113824  1
  Pb  Pb6  1  0.50000000  0.79287228  0.59250057  1
  Pb  Pb7  1  0.50000000  0.20712772  0.09250057  1
  Pb  Pb8  1  0.50000000  0.70914441  0.03971686  1
  Pb  Pb9  1  0.50000000  0.29085559  0.53971686  1
  Pb  Pb10  1  0.00000000  0.53277931  0.16166051  1
  Pb  Pb11  1  0.00000000  0.46722069  0.66166051  1
  Pb  Pb12  1  0.00000000  0.61111199  0.43847277  1
  Pb  Pb13  1  0.00000000  0.38888801  0.93847277  1
  Pb  Pb14  1  0.00000000  0.92673530  0.77331401  1
  Pb  Pb15  1  0.00000000  0.07326470  0.27331401  1
  Cl  Cl16  1  0.00000000  0.97130718  0.06035884  1
  Cl  Cl17  1  0.00000000  0.02869282  0.56035884  1
  Cl  Cl18  1  0.50000000  0.94677953  0.36346843  1
  Cl  Cl19  1  0.50000000  0.05322047  0.86346843  1
  O  O20  1  0.24960803  0.54099259  0.54243122  1
  O  O21  1  0.75039197  0.54099259  0.54243122  1
  O  O22  1  0.75039197  0.45900741  0.04243122  1
  O  O23  1  0.24960803  0.45900741  0.04243122  1
  O  O24  1  0.24978226  0.71537277  0.71266409  1
  O  O25  1  0.75021774  0.71537277  0.71266409  1
  O  O26  1  0.75021774  0.28462723  0.21266409  1
  O  O27  1  0.24978226  0.28462723  0.21266409  1
  O  O28  1  0.50000000  0.66866312  0.19302356  1
  O  O29  1  0.50000000  0.33133688  0.69302356  1
  O  O30  1  0.00000000  0.71282484  0.89102723  1
  O  O31  1  0.00000000  0.28717516  0.39102723  1
