# generated using pymatgen
data_CsGaP3HO10
_symmetry_space_group_name_H-M   'P 1'
_cell_length_a   11.91602385
_cell_length_b   5.03507264
_cell_length_c   15.87450342
_cell_angle_alpha   90.00000000
_cell_angle_beta   90.00000000
_cell_angle_gamma   90.00000000
_symmetry_Int_Tables_number   1
_chemical_formula_structural   CsGaP3HO10
_chemical_formula_sum   'Cs4 Ga4 P12 H4 O40'
_cell_volume   952.43918110
_cell_formula_units_Z   4
loop_
 _symmetry_equiv_pos_site_id
 _symmetry_equiv_pos_as_xyz
  1  'x, y, z'
loop_
 _atom_site_type_symbol
 _atom_site_label
 _atom_site_symmetry_multiplicity
 _atom_site_fract_x
 _atom_site_fract_y
 _atom_site_fract_z
 _atom_site_occupancy
  Cs  Cs0  1  0.11318829  0.97241474  0.99972909  1
  Cs  Cs1  1  0.88681171  0.02758526  0.49972909  1
  Cs  Cs2  1  0.38681171  0.97241474  0.49972909  1
  Cs  Cs3  1  0.61318829  0.02758526  0.99972909  1
  Ga  Ga4  1  0.68100457  0.00089558  0.73422816  1
  Ga  Ga5  1  0.31899543  0.99910442  0.23422816  1
  Ga  Ga6  1  0.81899543  0.00089558  0.23422816  1
  Ga  Ga7  1  0.18100457  0.99910442  0.73422816  1
  P  P8  1  0.74044793  0.50084134  0.34794470  1
  P  P9  1  0.25955207  0.49915866  0.84794470  1
  P  P10  1  0.75955207  0.50084134  0.84794470  1
  P  P11  1  0.24044793  0.49915866  0.34794470  1
  P  P12  1  0.56933073  0.75859509  0.23815814  1
  P  P13  1  0.43066927  0.24140491  0.73815814  1
  P  P14  1  0.93066927  0.75859509  0.73815814  1
  P  P15  1  0.06933073  0.24140491  0.23815814  1
  P  P16  1  0.40381661  0.49515395  0.12430923  1
  P  P17  1  0.59618339  0.50484605  0.62430923  1
  P  P18  1  0.09618339  0.49515395  0.62430923  1
  P  P19  1  0.90381661  0.50484605  0.12430923  1
  H  H20  1  0.86047304  0.49532120  0.98677419  1
  H  H21  1  0.13952696  0.50467880  0.48677419  1
  H  H22  1  0.63952696  0.49532120  0.48677419  1
  H  H23  1  0.36047304  0.50467880  0.98677419  1
  O  O24  1  0.81549989  0.31652067  0.15871116  1
  O  O25  1  0.18450011  0.68347933  0.65871116  1
  O  O26  1  0.68450011  0.31652067  0.65871116  1
  O  O27  1  0.31549989  0.68347933  0.15871116  1
  O  O28  1  0.87967979  0.79941697  0.13604032  1
  O  O29  1  0.12032021  0.20058303  0.63604032  1
  O  O30  1  0.62032021  0.79941697  0.63604032  1
  O  O31  1  0.37967979  0.20058303  0.13604032  1
  O  O32  1  0.66360783  0.91132964  0.19647698  1
  O  O33  1  0.33639217  0.08867036  0.69647698  1
  O  O34  1  0.83639217  0.91132964  0.69647698  1
  O  O35  1  0.16360783  0.08867036  0.19647698  1
  O  O36  1  0.76858348  0.55006380  0.94273689  1
  O  O37  1  0.23141652  0.44993620  0.44273689  1
  O  O38  1  0.73141652  0.55006380  0.44273689  1
  O  O39  1  0.26858348  0.44993620  0.94273689  1
  O  O40  1  0.93227046  0.45237947  0.02973148  1
  O  O41  1  0.06772954  0.54762053  0.52973148  1
  O  O42  1  0.56772954  0.45237947  0.52973148  1
  O  O43  1  0.43227046  0.54762053  0.02973148  1
  O  O44  1  0.61483645  0.57247612  0.31110198  1
  O  O45  1  0.38516355  0.42752388  0.81110198  1
  O  O46  1  0.88516355  0.57247612  0.81110198  1
  O  O47  1  0.11483645  0.42752388  0.31110198  1
  O  O48  1  0.47352848  0.91631219  0.27411671  1
  O  O49  1  0.52647152  0.08368781  0.77411671  1
  O  O50  1  0.02647152  0.91631219  0.77411671  1
  O  O51  1  0.97352848  0.08368781  0.27411671  1
  O  O52  1  0.82638065  0.68286795  0.30668761  1
  O  O53  1  0.17361935  0.31713205  0.80668761  1
  O  O54  1  0.67361935  0.68286795  0.80668761  1
  O  O55  1  0.32638065  0.31713205  0.30668761  1
  O  O56  1  0.74205061  0.20539691  0.83013788  1
  O  O57  1  0.25794939  0.79460309  0.33013788  1
  O  O58  1  0.75794939  0.20539691  0.33013788  1
  O  O59  1  0.24205061  0.79460309  0.83013788  1
  O  O60  1  0.02493722  0.44621030  0.16805549  1
  O  O61  1  0.97506278  0.55378970  0.66805549  1
  O  O62  1  0.47506278  0.44621030  0.66805549  1
  O  O63  1  0.52493722  0.55378970  0.16805549  1
