# generated using pymatgen
data_CePaO4
_symmetry_space_group_name_H-M   'P 1'
_cell_length_a   7.78107305
_cell_length_b   10.26764329
_cell_length_c   6.69777648
_cell_angle_alpha   29.24694467
_cell_angle_beta   54.48949886
_cell_angle_gamma   40.72153650
_symmetry_Int_Tables_number   1
_chemical_formula_structural   CePaO4
_chemical_formula_sum   'Ce2 Pa2 O8'
_cell_volume   165.04056497
_cell_formula_units_Z   2
loop_
 _symmetry_equiv_pos_site_id
 _symmetry_equiv_pos_as_xyz
  1  'x, y, z'
loop_
 _atom_site_type_symbol
 _atom_site_label
 _atom_site_symmetry_multiplicity
 _atom_site_fract_x
 _atom_site_fract_y
 _atom_site_fract_z
 _atom_site_occupancy
  Ce  Ce0  1  0.50011564  0.99997643  -0.00023168  1
  Ce  Ce1  1  0.25000377  0.49998892  0.00007052  1
  Pa  Pa2  1  -0.00008662  0.00001652  0.00013264  1
  Pa  Pa3  1  0.74994591  0.50006809  -0.00001704  1
  O  O4  1  0.11143925  0.01366859  0.23654428  1
  O  O5  1  0.63825955  0.98643886  0.26382216  1
  O  O6  1  0.11148009  0.51319509  0.73704915  1
  O  O7  1  0.37503891  0.51385501  0.23585527  1
  O  O8  1  0.63834457  0.48667888  0.76359474  1
  O  O9  1  0.87511123  0.48631125  0.26347165  1
  O  O10  1  0.37511615  0.98624801  0.76351518  1
  O  O11  1  0.87523156  0.01355436  0.73619313  1
