# generated using pymatgen
data_KMoCl4O
_symmetry_space_group_name_H-M   'P 1'
_cell_length_a   6.88229476
_cell_length_b   9.29994509
_cell_length_c   23.90064354
_cell_angle_alpha   90.00000000
_cell_angle_beta   93.30006284
_cell_angle_gamma   90.00000000
_symmetry_Int_Tables_number   1
_chemical_formula_structural   KMoCl4O
_chemical_formula_sum   'K8 Mo8 Cl32 O8'
_cell_volume   1527.22309545
_cell_formula_units_Z   8
loop_
 _symmetry_equiv_pos_site_id
 _symmetry_equiv_pos_as_xyz
  1  'x, y, z'
loop_
 _atom_site_type_symbol
 _atom_site_label
 _atom_site_symmetry_multiplicity
 _atom_site_fract_x
 _atom_site_fract_y
 _atom_site_fract_z
 _atom_site_occupancy
  K  K0  1  0.75310735  0.51510842  0.23679116  1
  K  K1  1  0.24689265  0.01510842  0.26320884  1
  K  K2  1  0.80923401  0.71706268  0.46591450  1
  K  K3  1  0.75310735  0.98489158  0.73679116  1
  K  K4  1  0.19076599  0.21706268  0.03408550  1
  K  K5  1  0.19076599  0.28293732  0.53408550  1
  K  K6  1  0.24689265  0.48489158  0.76320884  1
  K  K7  1  0.80923401  0.78293732  0.96591450  1
  Mo  Mo8  1  0.27544745  0.01818598  0.86406358  1
  Mo  Mo9  1  0.22570862  0.61260065  0.12129548  1
  Mo  Mo10  1  0.77429138  0.11260065  0.37870452  1
  Mo  Mo11  1  0.72455255  0.51818598  0.63593642  1
  Mo  Mo12  1  0.72455255  0.98181402  0.13593642  1
  Mo  Mo13  1  0.22570862  0.88739935  0.62129548  1
  Mo  Mo14  1  0.77429138  0.38739935  0.87870452  1
  Mo  Mo15  1  0.27544745  0.48181402  0.36406358  1
  Cl  Cl16  1  0.76168572  0.42986315  0.97648841  1
  Cl  Cl17  1  0.12667224  0.64429068  0.59740459  1
  Cl  Cl18  1  0.65080195  0.19814037  0.28934500  1
  Cl  Cl19  1  0.43975758  0.41060215  0.13414991  1
  Cl  Cl20  1  0.23831428  0.57013685  0.02351159  1
  Cl  Cl21  1  0.43975758  0.08939785  0.63414991  1
  Cl  Cl22  1  0.72955590  0.07057704  0.04199210  1
  Cl  Cl23  1  0.34919805  0.69814037  0.21065500  1
  Cl  Cl24  1  0.84424820  0.64154832  0.71840345  1
  Cl  Cl25  1  0.72955590  0.42942296  0.54199210  1
  Cl  Cl26  1  0.87332776  0.14429068  0.90259541  1
  Cl  Cl27  1  0.12667224  0.85570932  0.09740459  1
  Cl  Cl28  1  0.87332776  0.35570932  0.40259541  1
  Cl  Cl29  1  0.65080195  0.30185963  0.78934500  1
  Cl  Cl30  1  0.76168572  0.07013685  0.47648841  1
  Cl  Cl31  1  0.56024242  0.58939785  0.86585009  1
  Cl  Cl32  1  0.63259516  0.75343488  0.09461821  1
  Cl  Cl33  1  0.04711943  0.83049777  0.84054121  1
  Cl  Cl34  1  0.36740484  0.25343488  0.40538179  1
  Cl  Cl35  1  0.63259516  0.74656512  0.59461821  1
  Cl  Cl36  1  0.95288057  0.33049777  0.65945879  1
  Cl  Cl37  1  0.34919805  0.80185963  0.71065500  1
  Cl  Cl38  1  0.56024242  0.91060215  0.36585009  1
  Cl  Cl39  1  0.15575180  0.35845168  0.28159655  1
  Cl  Cl40  1  0.27044410  0.92942296  0.95800790  1
  Cl  Cl41  1  0.84424820  0.85845168  0.21840345  1
  Cl  Cl42  1  0.04711943  0.66950223  0.34054121  1
  Cl  Cl43  1  0.95288057  0.16950223  0.15945879  1
  Cl  Cl44  1  0.36740484  0.24656512  0.90538179  1
  Cl  Cl45  1  0.15575180  0.14154832  0.78159655  1
  Cl  Cl46  1  0.27044410  0.57057704  0.45800790  1
  Cl  Cl47  1  0.23831428  0.92986315  0.52351159  1
  O  O48  1  0.50877385  0.04643076  0.15676664  1
  O  O49  1  0.99053221  0.45997322  0.86281004  1
  O  O50  1  0.99053221  0.04002678  0.36281004  1
  O  O51  1  0.50877385  0.45356924  0.65676664  1
  O  O52  1  0.00946779  0.95997322  0.63718996  1
  O  O53  1  0.00946779  0.54002678  0.13718996  1
  O  O54  1  0.49122615  0.54643076  0.34323336  1
  O  O55  1  0.49122615  0.95356924  0.84323336  1
