# generated using pymatgen
data_CsKMo4(P3O13)2
_symmetry_space_group_name_H-M   'P 1'
_cell_length_a   6.49297218
_cell_length_b   19.13622456
_cell_length_c   19.19060687
_cell_angle_alpha   90.00000000
_cell_angle_beta   90.00000000
_cell_angle_gamma   91.99034449
_symmetry_Int_Tables_number   1
_chemical_formula_structural   CsKMo4(P3O13)2
_chemical_formula_sum   'Cs4 K4 Mo16 P24 O104'
_cell_volume   2383.01303675
_cell_formula_units_Z   4
loop_
 _symmetry_equiv_pos_site_id
 _symmetry_equiv_pos_as_xyz
  1  'x, y, z'
loop_
 _atom_site_type_symbol
 _atom_site_label
 _atom_site_symmetry_multiplicity
 _atom_site_fract_x
 _atom_site_fract_y
 _atom_site_fract_z
 _atom_site_occupancy
  Cs  Cs0  1  0.38746417  0.42583489  0.15577890  1
  Cs  Cs1  1  0.38746417  0.92583489  0.34422110  1
  Cs  Cs2  1  0.61253583  0.07416511  0.65577890  1
  Cs  Cs3  1  0.61253583  0.57416511  0.84422110  1
  K  K4  1  0.19866576  0.72131358  0.50064128  1
  K  K5  1  0.19866576  0.22131358  0.99935872  1
  K  K6  1  0.80133424  0.27868642  0.49935872  1
  K  K7  1  0.80133424  0.77868642  0.00064128  1
  Mo  Mo8  1  0.10460987  0.72161596  0.83364271  1
  Mo  Mo9  1  0.60398300  0.21800918  0.84223623  1
  Mo  Mo10  1  0.87226873  0.06217963  0.37696186  1
  Mo  Mo11  1  0.39601700  0.28199082  0.34223623  1
  Mo  Mo12  1  0.89539013  0.77838404  0.33364271  1
  Mo  Mo13  1  0.62818423  0.94522520  0.87108566  1
  Mo  Mo14  1  0.10460987  0.22161596  0.66635729  1
  Mo  Mo15  1  0.12773127  0.93782037  0.62303814  1
  Mo  Mo16  1  0.12773127  0.43782037  0.87696186  1
  Mo  Mo17  1  0.37181577  0.55477480  0.37108566  1
  Mo  Mo18  1  0.60398300  0.71800918  0.65776377  1
  Mo  Mo19  1  0.89539013  0.27838404  0.16635729  1
  Mo  Mo20  1  0.39601700  0.78199082  0.15776377  1
  Mo  Mo21  1  0.62818423  0.44522520  0.62891434  1
  Mo  Mo22  1  0.37181577  0.05477480  0.12891434  1
  Mo  Mo23  1  0.87226873  0.56217963  0.12303814  1
  P  P24  1  0.37165281  0.10522501  0.41527979  1
  P  P25  1  0.89562434  0.90239634  0.46079791  1
  P  P26  1  0.10437566  0.59760366  0.96079791  1
  P  P27  1  0.60763203  0.59694118  0.53194923  1
  P  P28  1  0.86966816  0.09968898  0.09382161  1
  P  P29  1  0.39031610  0.72848002  0.32070606  1
  P  P30  1  0.62834719  0.89477499  0.58472021  1
  P  P31  1  0.37165281  0.60522501  0.08472021  1
  P  P32  1  0.10934642  0.26639767  0.83076896  1
  P  P33  1  0.86966816  0.59968898  0.40617839  1
  P  P34  1  0.13033184  0.90031102  0.90617839  1
  P  P35  1  0.39236797  0.40305882  0.46805077  1
  P  P36  1  0.10934642  0.76639767  0.66923104  1
  P  P37  1  0.60968390  0.27151998  0.67929394  1
  P  P38  1  0.89562434  0.40239634  0.03920209  1
  P  P39  1  0.10437566  0.09760366  0.53920209  1
  P  P40  1  0.39031610  0.22848002  0.17929394  1
  P  P41  1  0.39236797  0.90305882  0.03194923  1
  P  P42  1  0.62834719  0.39477499  0.91527979  1
  P  P43  1  0.89065358  0.73360233  0.16923104  1
  P  P44  1  0.60968390  0.77151998  0.82070606  1
  P  P45  1  0.60763203  0.09694118  0.96805077  1
  P  P46  1  0.89065358  0.23360233  0.33076896  1
  P  P47  1  0.13033184  0.40031102  0.59382161  1
  O  O48  1  0.07146679  0.42158971  0.98992593  1
  O  O49  1  0.34600096  0.53166849  0.28545236  1
  O  O50  1  0.79059192  0.72567567  0.84397023  1
  O  O51  1  0.57021590  0.91910960  0.98229419  1
  O  O52  1  0.90342231  0.85470601  0.28728479  1
  O  O53  1  0.12957918  0.04545190  0.59894157  1
  O  O54  1  0.69168310  0.56124023  0.36870828  1
  O  O55  1  0.93350818  0.94124758  0.89849146  1
  O  O56  1  0.59996467  0.31751023  0.90060907  1
  O  O57  1  0.91535561  0.72363262  0.64615048  1
  O  O58  1  0.43546841  0.93835717  0.59439255  1
  O  O59  1  0.40702759  0.82745972  0.05973317  1
  O  O60  1  0.17611047  0.40485078  0.51026591  1
  O  O61  1  0.38912759  0.21313498  0.25809790  1
  O  O62  1  0.09657769  0.64529399  0.78728479  1
  O  O63  1  0.42978410  0.58089040  0.48229419  1
  O  O64  1  0.17611047  0.90485078  0.98973409  1
  O  O65  1  0.91535561  0.22363262  0.85384952  1
  O  O66  1  0.08536704  0.17248302  0.56772545  1
  O  O67  1  0.70980566  0.27940647  0.35225517  1
  O  O68  1  0.30831690  0.43875977  0.63129172  1
  O  O69  1  0.58293542  0.77258785  0.34438371  1
  O  O70  1  0.69168310  0.06124023  0.13129172  1
  O  O71  1  0.84401165  0.04619641  0.29013109  1
  O  O72  1  0.15598835  0.95380359  0.70986891  1
  O  O73  1  0.82388953  0.09514922  0.01026591  1
  O  O74  1  0.59297241  0.67254028  0.55973317  1
  O  O75  1  0.19322277  0.56680482  0.12338495  1
  O  O76  1  0.40702759  0.32745972  0.44026683  1
  O  O77  1  0.87042082  0.45454810  0.09894157  1
  O  O78  1  0.56453159  0.06164283  0.40560745  1
  O  O79  1  0.58293542  0.27258785  0.15561629  1
  O  O80  1  0.12443912  0.83275920  0.62342176  1
  O  O81  1  0.08464439  0.27636738  0.35384952  1
  O  O82  1  0.59297241  0.17254028  0.94026683  1
  O  O83  1  0.65399904  0.96833151  0.78545236  1
  O  O84  1  0.82388953  0.59514922  0.48973409  1
  O  O85  1  0.37501559  0.16087562  0.13665094  1
  O  O86  1  0.20940808  0.27432433  0.15602977  1
  O  O87  1  0.87556088  0.66724080  0.12342176  1
  O  O88  1  0.61087241  0.78686502  0.74190210  1
  O  O89  1  0.34600096  0.03166849  0.21454764  1
  O  O90  1  0.08536704  0.67248302  0.93227455  1
  O  O91  1  0.90342231  0.35470601  0.21271521  1
  O  O92  1  0.40249831  0.85560691  0.20822149  1
  O  O93  1  0.80677723  0.43319518  0.87661505  1
  O  O94  1  0.06649182  0.55875242  0.39849146  1
  O  O95  1  0.59750169  0.14439309  0.79177851  1
  O  O96  1  0.62498441  0.33912438  0.63665094  1
  O  O97  1  0.29019434  0.22059353  0.85225517  1
  O  O98  1  0.41706458  0.72741215  0.84438371  1
  O  O99  1  0.12957918  0.54545190  0.90105843  1
  O  O100  1  0.41706458  0.22741215  0.65561629  1
  O  O101  1  0.06649182  0.05875242  0.10150854  1
  O  O102  1  0.32326396  0.59654697  0.00186578  1
  O  O103  1  0.11036191  0.28613040  0.75282141  1
  O  O104  1  0.11036191  0.78613040  0.74717859  1
  O  O105  1  0.37191916  0.45350356  0.40750500  1
  O  O106  1  0.37501559  0.66087562  0.36334906  1
  O  O107  1  0.88963809  0.71386960  0.24717859  1
  O  O108  1  0.42978410  0.08089040  0.01770581  1
  O  O109  1  0.10282483  0.32212725  0.60971575  1
  O  O110  1  0.79059192  0.22567567  0.65602977  1
  O  O111  1  0.38912759  0.71313498  0.24190210  1
  O  O112  1  0.89717517  0.17787275  0.10971575  1
  O  O113  1  0.08464439  0.77636738  0.14615048  1
  O  O114  1  0.91463296  0.82751698  0.43227455  1
  O  O115  1  0.92853321  0.07841029  0.48992593  1
  O  O116  1  0.87042082  0.95454810  0.40105843  1
  O  O117  1  0.57021590  0.41910960  0.51770581  1
  O  O118  1  0.89717517  0.67787275  0.39028425  1
  O  O119  1  0.40003533  0.18248977  0.40060907  1
  O  O120  1  0.62498441  0.83912438  0.86334906  1
  O  O121  1  0.40003533  0.68248977  0.09939093  1
  O  O122  1  0.43546841  0.43835717  0.90560745  1
  O  O123  1  0.62808084  0.04649644  0.90750500  1
  O  O124  1  0.80677723  0.93319518  0.62338495  1
  O  O125  1  0.15598835  0.45380359  0.79013109  1
  O  O126  1  0.09657769  0.14529399  0.71271521  1
  O  O127  1  0.37191916  0.95350356  0.09249500  1
  O  O128  1  0.67673604  0.40345303  0.99813422  1
  O  O129  1  0.40249831  0.35560691  0.29177851  1
  O  O130  1  0.32326396  0.09654697  0.49813422  1
  O  O131  1  0.88963809  0.21386960  0.25282141  1
  O  O132  1  0.61087241  0.28686502  0.75809790  1
  O  O133  1  0.59996467  0.81751023  0.59939093  1
  O  O134  1  0.56453159  0.56164283  0.09439255  1
  O  O135  1  0.29019434  0.72059353  0.64774483  1
  O  O136  1  0.70980566  0.77940647  0.14774483  1
  O  O137  1  0.65399904  0.46833151  0.71454764  1
  O  O138  1  0.19322277  0.06680482  0.37661505  1
  O  O139  1  0.67673604  0.90345303  0.50186578  1
  O  O140  1  0.20940808  0.77432433  0.34397023  1
  O  O141  1  0.10282483  0.82212725  0.89028425  1
  O  O142  1  0.84401165  0.54619641  0.20986891  1
  O  O143  1  0.59750169  0.64439309  0.70822149  1
  O  O144  1  0.93350818  0.44124758  0.60150854  1
  O  O145  1  0.07146679  0.92158971  0.51007407  1
  O  O146  1  0.92853321  0.57841029  0.01007407  1
  O  O147  1  0.91463296  0.32751698  0.06772545  1
  O  O148  1  0.62808084  0.54649644  0.59249500  1
  O  O149  1  0.30831690  0.93875977  0.86870828  1
  O  O150  1  0.87556088  0.16724080  0.37657824  1
  O  O151  1  0.12443912  0.33275920  0.87657824  1
