# generated using pymatgen
data_PH4SNO2
_symmetry_space_group_name_H-M   'P 1'
_cell_length_a   12.45825581
_cell_length_b   12.86949791
_cell_length_c   8.29760222
_cell_angle_alpha   90.00000000
_cell_angle_beta   90.00000000
_cell_angle_gamma   90.00000000
_symmetry_Int_Tables_number   1
_chemical_formula_structural   PH4SNO2
_chemical_formula_sum   'P12 H48 S12 N12 O24'
_cell_volume   1330.36698635
_cell_formula_units_Z   12
loop_
 _symmetry_equiv_pos_site_id
 _symmetry_equiv_pos_as_xyz
  1  'x, y, z'
loop_
 _atom_site_type_symbol
 _atom_site_label
 _atom_site_symmetry_multiplicity
 _atom_site_fract_x
 _atom_site_fract_y
 _atom_site_fract_z
 _atom_site_occupancy
  P  P0  1  0.37975751  0.13472756  0.33961482  1
  P  P1  1  0.87975751  0.36527244  0.16038518  1
  P  P2  1  0.62024249  0.63472756  0.66038518  1
  P  P3  1  0.12024249  0.86527244  0.83961482  1
  P  P4  1  0.62024249  0.86527244  0.66038518  1
  P  P5  1  0.12024249  0.63472756  0.83961482  1
  P  P6  1  0.37975751  0.36527244  0.33961482  1
  P  P7  1  0.87975751  0.13472756  0.16038518  1
  P  P8  1  0.52784729  0.25000000  0.56572516  1
  P  P9  1  0.02784729  0.25000000  0.93427484  1
  P  P10  1  0.47215271  0.75000000  0.43427484  1
  P  P11  1  0.97215271  0.75000000  0.06572516  1
  H  H12  1  0.93896771  0.75000000  0.41183751  1
  H  H13  1  0.43896771  0.75000000  0.08816249  1
  H  H14  1  0.06103229  0.25000000  0.58816249  1
  H  H15  1  0.56103229  0.25000000  0.91183751  1
  H  H16  1  0.67442800  0.25000000  0.03360941  1
  H  H17  1  0.17442800  0.25000000  0.46639059  1
  H  H18  1  0.32557200  0.75000000  0.96639059  1
  H  H19  1  0.82557200  0.75000000  0.53360941  1
  H  H20  1  0.56309762  0.18433634  0.08886986  1
  H  H21  1  0.06309762  0.31566366  0.41113014  1
  H  H22  1  0.43690238  0.68433634  0.91113014  1
  H  H23  1  0.93690238  0.81566366  0.58886986  1
  H  H24  1  0.43690238  0.81566366  0.91113014  1
  H  H25  1  0.93690238  0.68433634  0.58886986  1
  H  H26  1  0.56309762  0.31566366  0.08886986  1
  H  H27  1  0.06309762  0.18433634  0.41113014  1
  H  H28  1  0.78928207  0.43022356  0.83882340  1
  H  H29  1  0.28928207  0.06977644  0.66117660  1
  H  H30  1  0.21071793  0.93022356  0.16117660  1
  H  H31  1  0.71071793  0.56977644  0.33882340  1
  H  H32  1  0.21071793  0.56977644  0.16117660  1
  H  H33  1  0.71071793  0.93022356  0.33882340  1
  H  H34  1  0.78928207  0.06977644  0.83882340  1
  H  H35  1  0.28928207  0.43022356  0.66117660  1
  H  H36  1  0.73090982  0.62351621  0.15510246  1
  H  H37  1  0.23090982  0.87648379  0.34489754  1
  H  H38  1  0.26909018  0.12351621  0.84489754  1
  H  H39  1  0.76909018  0.37648379  0.65510246  1
  H  H40  1  0.26909018  0.37648379  0.84489754  1
  H  H41  1  0.76909018  0.12351621  0.65510246  1
  H  H42  1  0.73090982  0.87648379  0.15510246  1
  H  H43  1  0.23090982  0.62351621  0.34489754  1
  H  H44  1  0.60606741  0.91441182  0.21301430  1
  H  H45  1  0.10606741  0.58558818  0.28698570  1
  H  H46  1  0.39393259  0.41441182  0.78698570  1
  H  H47  1  0.89393259  0.08558818  0.71301430  1
  H  H48  1  0.39393259  0.08558818  0.78698570  1
  H  H49  1  0.89393259  0.41441182  0.71301430  1
  H  H50  1  0.60606741  0.58558818  0.21301430  1
  H  H51  1  0.10606741  0.91441182  0.28698570  1
  H  H52  1  0.79688584  0.50443766  0.66860185  1
  H  H53  1  0.29688584  0.99556234  0.83139815  1
  H  H54  1  0.20311416  0.00443766  0.33139815  1
  H  H55  1  0.70311416  0.49556234  0.16860185  1
  H  H56  1  0.20311416  0.49556234  0.33139815  1
  H  H57  1  0.70311416  0.00443766  0.16860185  1
  H  H58  1  0.79688584  0.99556234  0.66860185  1
  H  H59  1  0.29688584  0.50443766  0.83139815  1
  S  S60  1  0.42981082  0.03767960  0.17428984  1
  S  S61  1  0.92981082  0.46232040  0.32571016  1
  S  S62  1  0.57018918  0.53767960  0.82571016  1
  S  S63  1  0.07018918  0.96232040  0.67428984  1
  S  S64  1  0.57018918  0.96232040  0.82571016  1
  S  S65  1  0.07018918  0.53767960  0.67428984  1
  S  S66  1  0.42981082  0.46232040  0.17428984  1
  S  S67  1  0.92981082  0.03767960  0.32571016  1
  S  S68  1  0.68211336  0.25000000  0.51181432  1
  S  S69  1  0.18211336  0.25000000  0.98818568  1
  S  S70  1  0.31788664  0.75000000  0.48818568  1
  S  S71  1  0.81788664  0.75000000  0.01181432  1
  N  N72  1  0.90840630  0.75000000  0.53093299  1
  N  N73  1  0.40840630  0.75000000  0.96906701  1
  N  N74  1  0.09159370  0.25000000  0.46906701  1
  N  N75  1  0.59159370  0.25000000  0.03093299  1
  N  N76  1  0.81331502  0.43176501  0.71906592  1
  N  N77  1  0.31331502  0.06823499  0.78093408  1
  N  N78  1  0.18668498  0.93176501  0.28093408  1
  N  N79  1  0.68668498  0.56823499  0.21906592  1
  N  N80  1  0.18668498  0.56823499  0.28093408  1
  N  N81  1  0.68668498  0.93176501  0.21906592  1
  N  N82  1  0.81331502  0.06823499  0.71906592  1
  N  N83  1  0.31331502  0.43176501  0.78093408  1
  O  O84  1  0.37737284  0.25000000  0.25674103  1
  O  O85  1  0.87737284  0.25000000  0.24325897  1
  O  O86  1  0.62262716  0.75000000  0.74325897  1
  O  O87  1  0.12262716  0.75000000  0.75674103  1
  O  O88  1  0.27499217  0.11394237  0.42651454  1
  O  O89  1  0.77499217  0.38605763  0.07348546  1
  O  O90  1  0.72500783  0.61394237  0.57348546  1
  O  O91  1  0.22500783  0.88605763  0.92651454  1
  O  O92  1  0.72500783  0.88605763  0.57348546  1
  O  O93  1  0.22500783  0.61394237  0.92651454  1
  O  O94  1  0.27499217  0.38605763  0.42651454  1
  O  O95  1  0.77499217  0.11394237  0.07348546  1
  O  O96  1  0.47267892  0.15052039  0.47598968  1
  O  O97  1  0.97267892  0.34947961  0.02401032  1
  O  O98  1  0.52732108  0.65052039  0.52401032  1
  O  O99  1  0.02732108  0.84947961  0.97598968  1
  O  O100  1  0.52732108  0.84947961  0.52401032  1
  O  O101  1  0.02732108  0.65052039  0.97598968  1
  O  O102  1  0.47267892  0.34947961  0.47598968  1
  O  O103  1  0.97267892  0.15052039  0.02401032  1
  O  O104  1  0.48966482  0.25000000  0.73794494  1
  O  O105  1  0.98966482  0.25000000  0.76205506  1
  O  O106  1  0.51033518  0.75000000  0.26205506  1
  O  O107  1  0.01033518  0.75000000  0.23794494  1
