# generated using pymatgen
data_Li2TiFe(PO4)3
_symmetry_space_group_name_H-M   'P 1'
_cell_length_a   8.64975327
_cell_length_b   8.79580532
_cell_length_c   12.00781909
_cell_angle_alpha   90.00000000
_cell_angle_beta   90.33063681
_cell_angle_gamma   90.00000000
_symmetry_Int_Tables_number   1
_chemical_formula_structural   Li2TiFe(PO4)3
_chemical_formula_sum   'Li8 Ti4 Fe4 P12 O48'
_cell_volume   913.55822725
_cell_formula_units_Z   4
loop_
 _symmetry_equiv_pos_site_id
 _symmetry_equiv_pos_as_xyz
  1  'x, y, z'
loop_
 _atom_site_type_symbol
 _atom_site_label
 _atom_site_symmetry_multiplicity
 _atom_site_fract_x
 _atom_site_fract_y
 _atom_site_fract_z
 _atom_site_occupancy
  Li  Li0  1  0.21530209  0.77801935  0.17114226  1
  Li  Li1  1  0.22215524  0.72680423  0.82085481  1
  Li  Li2  1  0.28469791  0.27801935  0.32885774  1
  Li  Li3  1  0.27784476  0.22680423  0.67914519  1
  Li  Li4  1  0.71530209  0.72198065  0.67114226  1
  Li  Li5  1  0.72215524  0.77319577  0.32085481  1
  Li  Li6  1  0.78469791  0.22198065  0.82885774  1
  Li  Li7  1  0.77784476  0.27319577  0.17914519  1
  Ti  Ti8  1  0.24623691  0.95394104  0.38493800  1
  Ti  Ti9  1  0.25376309  0.45394104  0.11506200  1
  Ti  Ti10  1  0.74623691  0.54605896  0.88493800  1
  Ti  Ti11  1  0.75376309  0.04605896  0.61506200  1
  Fe  Fe12  1  0.24980217  0.54378516  0.61566361  1
  Fe  Fe13  1  0.25019783  0.04378516  0.88433639  1
  Fe  Fe14  1  0.74980217  0.95621484  0.11566361  1
  Fe  Fe15  1  0.75019783  0.45621484  0.38433639  1
  P  P16  1  0.03877650  0.25067315  0.49732919  1
  P  P17  1  0.10314287  0.39360984  0.85388968  1
  P  P18  1  0.10287575  0.10875220  0.14665454  1
  P  P19  1  0.39712425  0.60875220  0.35334546  1
  P  P20  1  0.39685713  0.89360984  0.64611032  1
  P  P21  1  0.46122350  0.75067315  0.00267081  1
  P  P22  1  0.53877650  0.24932685  0.99732919  1
  P  P23  1  0.60314287  0.10639016  0.35388968  1
  P  P24  1  0.60287575  0.39124780  0.64665454  1
  P  P25  1  0.89685713  0.60639016  0.14611032  1
  P  P26  1  0.89712425  0.89124780  0.85334546  1
  P  P27  1  0.96122350  0.74932685  0.50267081  1
  O  O28  1  0.05722055  0.65414666  0.58326488  1
  O  O29  1  0.06355262  0.85055176  0.42675951  1
  O  O30  1  0.07596395  0.59685828  0.15321995  1
  O  O31  1  0.07376027  0.89246693  0.84113245  1
  O  O32  1  0.14710147  0.14737821  0.42569062  1
  O  O33  1  0.14549869  0.34372165  0.57404697  1
  O  O34  1  0.15385740  0.07550754  0.02773287  1
  O  O35  1  0.15453875  0.41872993  0.97736281  1
  O  O36  1  0.16483218  0.26863672  0.18416575  1
  O  O37  1  0.15203036  0.23291459  0.81575776  1
  O  O38  1  0.17875683  0.51768707  0.78250186  1
  O  O39  1  0.17615509  0.98594100  0.22500536  1
  O  O40  1  0.32124317  0.01768707  0.71749814  1
  O  O41  1  0.32384491  0.48594100  0.27499464  1
  O  O42  1  0.33516782  0.76863672  0.31583425  1
  O  O43  1  0.34796964  0.73291459  0.68424224  1
  O  O44  1  0.34614260  0.57550754  0.47226713  1
  O  O45  1  0.34546125  0.91872993  0.52263719  1
  O  O46  1  0.35289853  0.64737821  0.07430938  1
  O  O47  1  0.35450131  0.84372165  0.92595303  1
  O  O48  1  0.42403605  0.09685828  0.34678005  1
  O  O49  1  0.42623973  0.39246693  0.65886755  1
  O  O50  1  0.43644738  0.35055176  0.07324049  1
  O  O51  1  0.44277945  0.15414666  0.91673512  1
  O  O52  1  0.56355262  0.64944824  0.92675951  1
  O  O53  1  0.55722055  0.84585334  0.08326488  1
  O  O54  1  0.57376027  0.60753307  0.34113245  1
  O  O55  1  0.57596395  0.90314172  0.65321995  1
  O  O56  1  0.64549869  0.15627835  0.07404697  1
  O  O57  1  0.64710147  0.35262179  0.92569062  1
  O  O58  1  0.65453875  0.08127007  0.47736281  1
  O  O59  1  0.65385740  0.42449246  0.52773287  1
  O  O60  1  0.66483218  0.23136328  0.68416575  1
  O  O61  1  0.65203036  0.26708541  0.31575776  1
  O  O62  1  0.67615509  0.51405900  0.72500536  1
  O  O63  1  0.67875683  0.98231293  0.28250186  1
  O  O64  1  0.82384491  0.01405900  0.77499464  1
  O  O65  1  0.82124317  0.48231293  0.21749814  1
  O  O66  1  0.83516782  0.73136328  0.81583425  1
  O  O67  1  0.84796964  0.76708541  0.18424224  1
  O  O68  1  0.84546125  0.58127007  0.02263719  1
  O  O69  1  0.84614260  0.92449246  0.97226713  1
  O  O70  1  0.85450131  0.65627835  0.42595303  1
  O  O71  1  0.85289853  0.85262179  0.57430938  1
  O  O72  1  0.92623973  0.10753307  0.15886755  1
  O  O73  1  0.92403605  0.40314172  0.84678005  1
  O  O74  1  0.93644738  0.14944824  0.57324049  1
  O  O75  1  0.94277945  0.34585334  0.41673512  1
