# generated using pymatgen
data_ZnH20S2(NO7)2
_symmetry_space_group_name_H-M   'P 1'
_cell_length_a   9.26680154
_cell_length_b   12.59622513
_cell_length_c   6.28291922
_cell_angle_alpha   90.00000000
_cell_angle_beta   106.64080360
_cell_angle_gamma   90.00000000
_symmetry_Int_Tables_number   1
_chemical_formula_structural   ZnH20S2(NO7)2
_chemical_formula_sum   'Zn2 H40 S4 N4 O28'
_cell_volume   702.66957395
_cell_formula_units_Z   2
loop_
 _symmetry_equiv_pos_site_id
 _symmetry_equiv_pos_as_xyz
  1  'x, y, z'
loop_
 _atom_site_type_symbol
 _atom_site_label
 _atom_site_symmetry_multiplicity
 _atom_site_fract_x
 _atom_site_fract_y
 _atom_site_fract_z
 _atom_site_occupancy
  Zn  Zn0  1  0.50000000  0.50000000  0.00000000  1
  Zn  Zn1  1  0.00000000  0.00000000  0.00000000  1
  H  H2  1  0.56040053  0.16608766  0.19671066  1
  H  H3  1  0.93959947  0.66608766  0.80328934  1
  H  H4  1  0.43959947  0.83391234  0.80328934  1
  H  H5  1  0.06040053  0.33391234  0.19671066  1
  H  H6  1  0.72606029  0.19671507  0.39314501  1
  H  H7  1  0.77393971  0.69671507  0.60685499  1
  H  H8  1  0.27393971  0.80328493  0.60685499  1
  H  H9  1  0.22606029  0.30328493  0.39314501  1
  H  H10  1  0.57094966  0.16375597  0.46593395  1
  H  H11  1  0.92905034  0.66375597  0.53406605  1
  H  H12  1  0.42905034  0.83624403  0.53406605  1
  H  H13  1  0.07094966  0.33624403  0.46593395  1
  H  H14  1  0.66413818  0.06969772  0.36123130  1
  H  H15  1  0.83586182  0.56969772  0.63876870  1
  H  H16  1  0.33586182  0.93030228  0.63876870  1
  H  H17  1  0.16413818  0.43030228  0.36123130  1
  H  H18  1  0.71547313  0.40821962  0.31992503  1
  H  H19  1  0.78452687  0.90821962  0.68007497  1
  H  H20  1  0.28452687  0.59178038  0.68007497  1
  H  H21  1  0.21547313  0.09178038  0.31992503  1
  H  H22  1  0.74581843  0.37477478  0.08989023  1
  H  H23  1  0.75418157  0.87477478  0.91010977  1
  H  H24  1  0.25418157  0.62522522  0.91010977  1
  H  H25  1  0.24581843  0.12522522  0.08989023  1
  H  H26  1  0.22988061  0.40277713  0.94468926  1
  H  H27  1  0.27011939  0.90277713  0.05531074  1
  H  H28  1  0.77011939  0.59722287  0.05531074  1
  H  H29  1  0.72988061  0.09722287  0.94468926  1
  H  H30  1  0.35873796  0.31658958  0.01099067  1
  H  H31  1  0.14126204  0.81658958  0.98900933  1
  H  H32  1  0.64126204  0.68341042  0.98900933  1
  H  H33  1  0.85873796  0.18341042  0.01099067  1
  H  H34  1  0.41058045  0.56012686  0.34341540  1
  H  H35  1  0.08941955  0.06012686  0.65658460  1
  H  H36  1  0.58941955  0.43987314  0.65658460  1
  H  H37  1  0.91058045  0.93987314  0.34341540  1
  H  H38  1  0.53222623  0.64525031  0.32873902  1
  H  H39  1  0.96777377  0.14525031  0.67126098  1
  H  H40  1  0.46777377  0.35474969  0.67126098  1
  H  H41  1  0.03222623  0.85474969  0.32873902  1
  S  S42  1  0.90712897  0.36215628  0.73964172  1
  S  S43  1  0.59287103  0.86215628  0.26035828  1
  S  S44  1  0.09287103  0.63784372  0.26035828  1
  S  S45  1  0.40712897  0.13784372  0.73964172  1
  N  N46  1  0.63118984  0.14939219  0.35366494  1
  N  N47  1  0.86881016  0.64939219  0.64633506  1
  N  N48  1  0.36881016  0.85060781  0.64633506  1
  N  N49  1  0.13118984  0.35060781  0.35366494  1
  O  O50  1  0.91111153  0.26998066  0.58942647  1
  O  O51  1  0.58888847  0.76998066  0.41057353  1
  O  O52  1  0.08888847  0.73001934  0.41057353  1
  O  O53  1  0.41111153  0.23001934  0.58942647  1
  O  O54  1  0.04935074  0.42255009  0.78540082  1
  O  O55  1  0.45064926  0.92255009  0.21459918  1
  O  O56  1  0.95064926  0.57744991  0.21459918  1
  O  O57  1  0.54935074  0.07744991  0.78540082  1
  O  O58  1  0.77859754  0.43287633  0.62134847  1
  O  O59  1  0.72140246  0.93287633  0.37865153  1
  O  O60  1  0.22140246  0.56712367  0.37865153  1
  O  O61  1  0.27859754  0.06712367  0.62134847  1
  O  O62  1  0.88262428  0.32183059  0.95201564  1
  O  O63  1  0.61737572  0.82183059  0.04798436  1
  O  O64  1  0.11737572  0.67816941  0.04798436  1
  O  O65  1  0.38262428  0.17816941  0.95201564  1
  O  O66  1  0.66652663  0.38826415  0.16327111  1
  O  O67  1  0.83347337  0.88826415  0.83672889  1
  O  O68  1  0.33347337  0.61173585  0.83672889  1
  O  O69  1  0.16652663  0.11173585  0.16327111  1
  O  O70  1  0.33431330  0.39047470  0.04141272  1
  O  O71  1  0.16568670  0.89047470  0.95858728  1
  O  O72  1  0.66568670  0.60952530  0.95858728  1
  O  O73  1  0.83431330  0.10952530  0.04141272  1
  O  O74  1  0.50757098  0.56822649  0.30903538  1
  O  O75  1  0.99242902  0.06822649  0.69096462  1
  O  O76  1  0.49242902  0.43177351  0.69096462  1
  O  O77  1  0.00757098  0.93177351  0.30903538  1
