# generated using pymatgen
data_Li3Nd2H6(N3O10)3
_symmetry_space_group_name_H-M   'P 1'
_cell_length_a   13.47832955
_cell_length_b   13.47832955
_cell_length_c   13.47832955
_cell_angle_alpha   90.00000000
_cell_angle_beta   90.00000000
_cell_angle_gamma   90.00000000
_symmetry_Int_Tables_number   1
_chemical_formula_structural   Li3Nd2H6(N3O10)3
_chemical_formula_sum   'Li12 Nd8 H24 N36 O120'
_cell_volume   2448.54569043
_cell_formula_units_Z   4
loop_
 _symmetry_equiv_pos_site_id
 _symmetry_equiv_pos_as_xyz
  1  'x, y, z'
loop_
 _atom_site_type_symbol
 _atom_site_label
 _atom_site_symmetry_multiplicity
 _atom_site_fract_x
 _atom_site_fract_y
 _atom_site_fract_z
 _atom_site_occupancy
  Li  Li0  1  0.20128736  0.94946257  0.77755435  1
  Li  Li1  1  0.22244565  0.70128736  0.55053743  1
  Li  Li2  1  0.44946257  0.72244565  0.79871264  1
  Li  Li3  1  0.70128736  0.55053743  0.22244565  1
  Li  Li4  1  0.72244565  0.79871264  0.44946257  1
  Li  Li5  1  0.94946257  0.77755435  0.20128736  1
  Li  Li6  1  0.79871264  0.44946257  0.72244565  1
  Li  Li7  1  0.77755435  0.20128736  0.94946257  1
  Li  Li8  1  0.55053743  0.22244565  0.70128736  1
  Li  Li9  1  0.29871264  0.05053743  0.27755435  1
  Li  Li10  1  0.27755435  0.29871264  0.05053743  1
  Li  Li11  1  0.05053743  0.27755435  0.29871264  1
  Nd  Nd12  1  0.03423290  0.53423290  0.96576710  1
  Nd  Nd13  1  0.53423290  0.96576710  0.03423290  1
  Nd  Nd14  1  0.96576710  0.03423290  0.53423290  1
  Nd  Nd15  1  0.46576710  0.46576710  0.46576710  1
  Nd  Nd16  1  0.77855448  0.77855448  0.77855448  1
  Nd  Nd17  1  0.22144552  0.27855448  0.72144552  1
  Nd  Nd18  1  0.27855448  0.72144552  0.22144552  1
  Nd  Nd19  1  0.72144552  0.22144552  0.27855448  1
  H  H20  1  0.86302498  0.48708055  0.53307491  1
  H  H21  1  0.46692509  0.36302498  0.01291945  1
  H  H22  1  0.98708055  0.96692509  0.13697502  1
  H  H23  1  0.36302498  0.01291945  0.46692509  1
  H  H24  1  0.96692509  0.13697502  0.98708055  1
  H  H25  1  0.48708055  0.53307491  0.86302498  1
  H  H26  1  0.13697502  0.98708055  0.96692509  1
  H  H27  1  0.53307491  0.86302498  0.48708055  1
  H  H28  1  0.01291945  0.46692509  0.36302498  1
  H  H29  1  0.63697502  0.51291945  0.03307491  1
  H  H30  1  0.03307491  0.63697502  0.51291945  1
  H  H31  1  0.51291945  0.03307491  0.63697502  1
  H  H32  1  0.05735405  0.94908125  0.89167459  1
  H  H33  1  0.10832541  0.55735405  0.55091875  1
  H  H34  1  0.44908125  0.60832541  0.94264595  1
  H  H35  1  0.55735405  0.55091875  0.10832541  1
  H  H36  1  0.60832541  0.94264595  0.44908125  1
  H  H37  1  0.94908125  0.89167459  0.05735405  1
  H  H38  1  0.94264595  0.44908125  0.60832541  1
  H  H39  1  0.89167459  0.05735405  0.94908125  1
  H  H40  1  0.55091875  0.10832541  0.55735405  1
  H  H41  1  0.44264595  0.05091875  0.39167459  1
  H  H42  1  0.39167459  0.44264595  0.05091875  1
  H  H43  1  0.05091875  0.39167459  0.44264595  1
  N  N44  1  0.23612433  0.62644008  0.01291913  1
  N  N45  1  0.98708087  0.73612433  0.87355992  1
  N  N46  1  0.12644008  0.48708087  0.76387567  1
  N  N47  1  0.73612433  0.87355992  0.98708087  1
  N  N48  1  0.48708087  0.76387567  0.12644008  1
  N  N49  1  0.62644008  0.01291913  0.23612433  1
  N  N50  1  0.76387567  0.12644008  0.48708087  1
  N  N51  1  0.01291913  0.23612433  0.62644008  1
  N  N52  1  0.87355992  0.98708087  0.73612433  1
  N  N53  1  0.26387567  0.37355992  0.51291913  1
  N  N54  1  0.51291913  0.26387567  0.37355992  1
  N  N55  1  0.37355992  0.51291913  0.26387567  1
  N  N56  1  0.38930415  0.60464261  0.62684724  1
  N  N57  1  0.37315276  0.88930415  0.89535739  1
  N  N58  1  0.10464261  0.87315276  0.61069585  1
  N  N59  1  0.88930415  0.89535739  0.37315276  1
  N  N60  1  0.87315276  0.61069585  0.10464261  1
  N  N61  1  0.60464261  0.62684724  0.38930415  1
  N  N62  1  0.61069585  0.10464261  0.87315276  1
  N  N63  1  0.62684724  0.38930415  0.60464261  1
  N  N64  1  0.89535739  0.37315276  0.88930415  1
  N  N65  1  0.11069585  0.39535739  0.12684724  1
  N  N66  1  0.12684724  0.11069585  0.39535739  1
  N  N67  1  0.39535739  0.12684724  0.11069585  1
  N  N68  1  0.70988154  0.58157142  0.85171439  1
  N  N69  1  0.14828561  0.20988154  0.91842858  1
  N  N70  1  0.08157142  0.64828561  0.29011846  1
  N  N71  1  0.20988154  0.91842858  0.14828561  1
  N  N72  1  0.64828561  0.29011846  0.08157142  1
  N  N73  1  0.58157142  0.85171439  0.70988154  1
  N  N74  1  0.29011846  0.08157142  0.64828561  1
  N  N75  1  0.85171439  0.70988154  0.58157142  1
  N  N76  1  0.91842858  0.14828561  0.20988154  1
  N  N77  1  0.79011846  0.41842858  0.35171439  1
  N  N78  1  0.35171439  0.79011846  0.41842858  1
  N  N79  1  0.41842858  0.35171439  0.79011846  1
  O  O80  1  0.87260852  0.92110983  0.66700319  1
  O  O81  1  0.33299681  0.37260852  0.57889017  1
  O  O82  1  0.42110983  0.83299681  0.12739148  1
  O  O83  1  0.37260852  0.57889017  0.33299681  1
  O  O84  1  0.83299681  0.12739148  0.42110983  1
  O  O85  1  0.92110983  0.66700319  0.87260852  1
  O  O86  1  0.12739148  0.42110983  0.83299681  1
  O  O87  1  0.66700319  0.87260852  0.92110983  1
  O  O88  1  0.57889017  0.33299681  0.37260852  1
  O  O89  1  0.62739148  0.07889017  0.16700319  1
  O  O90  1  0.16700319  0.62739148  0.07889017  1
  O  O91  1  0.07889017  0.16700319  0.62739148  1
  O  O92  1  0.22054724  0.58319094  0.93212674  1
  O  O93  1  0.06787326  0.72054724  0.91680906  1
  O  O94  1  0.08319094  0.56787326  0.77945276  1
  O  O95  1  0.72054724  0.91680906  0.06787326  1
  O  O96  1  0.56787326  0.77945276  0.08319094  1
  O  O97  1  0.58319094  0.93212674  0.22054724  1
  O  O98  1  0.77945276  0.08319094  0.56787326  1
  O  O99  1  0.93212674  0.22054724  0.58319094  1
  O  O100  1  0.91680906  0.06787326  0.72054724  1
  O  O101  1  0.27945276  0.41680906  0.43212674  1
  O  O102  1  0.43212674  0.27945276  0.41680906  1
  O  O103  1  0.41680906  0.43212674  0.27945276  1
  O  O104  1  0.83152651  0.96739400  0.81727945  1
  O  O105  1  0.18272055  0.33152651  0.53260600  1
  O  O106  1  0.46739400  0.68272055  0.16847349  1
  O  O107  1  0.33152651  0.53260600  0.18272055  1
  O  O108  1  0.68272055  0.16847349  0.46739400  1
  O  O109  1  0.96739400  0.81727945  0.83152651  1
  O  O110  1  0.16847349  0.46739400  0.68272055  1
  O  O111  1  0.81727945  0.83152651  0.96739400  1
  O  O112  1  0.53260600  0.18272055  0.33152651  1
  O  O113  1  0.66847349  0.03260600  0.31727945  1
  O  O114  1  0.31727945  0.66847349  0.03260600  1
  O  O115  1  0.03260600  0.31727945  0.66847349  1
  O  O116  1  0.34047906  0.59252011  0.54530414  1
  O  O117  1  0.45469586  0.84047906  0.90747989  1
  O  O118  1  0.09252011  0.95469586  0.65952094  1
  O  O119  1  0.84047906  0.90747989  0.45469586  1
  O  O120  1  0.95469586  0.65952094  0.09252011  1
  O  O121  1  0.59252011  0.54530414  0.34047906  1
  O  O122  1  0.65952094  0.09252011  0.95469586  1
  O  O123  1  0.54530414  0.34047906  0.59252011  1
  O  O124  1  0.90747989  0.45469586  0.84047906  1
  O  O125  1  0.15952094  0.40747989  0.04530414  1
  O  O126  1  0.04530414  0.15952094  0.40747989  1
  O  O127  1  0.40747989  0.04530414  0.15952094  1
  O  O128  1  0.05096656  0.85977852  0.53482379  1
  O  O129  1  0.46517621  0.55096656  0.64022148  1
  O  O130  1  0.35977852  0.96517621  0.94903344  1
  O  O131  1  0.55096656  0.64022148  0.46517621  1
  O  O132  1  0.96517621  0.94903344  0.35977852  1
  O  O133  1  0.85977852  0.53482379  0.05096656  1
  O  O134  1  0.94903344  0.35977852  0.96517621  1
  O  O135  1  0.53482379  0.05096656  0.85977852  1
  O  O136  1  0.64022148  0.46517621  0.55096656  1
  O  O137  1  0.44903344  0.14022148  0.03482379  1
  O  O138  1  0.03482379  0.44903344  0.14022148  1
  O  O139  1  0.14022148  0.03482379  0.44903344  1
  O  O140  1  0.36035743  0.66814645  0.68787221  1
  O  O141  1  0.31212779  0.86035743  0.83185355  1
  O  O142  1  0.16814645  0.81212779  0.63964257  1
  O  O143  1  0.86035743  0.83185355  0.31212779  1
  O  O144  1  0.81212779  0.63964257  0.16814645  1
  O  O145  1  0.66814645  0.68787221  0.36035743  1
  O  O146  1  0.63964257  0.16814645  0.81212779  1
  O  O147  1  0.68787221  0.36035743  0.66814645  1
  O  O148  1  0.83185355  0.31212779  0.86035743  1
  O  O149  1  0.13964257  0.33185355  0.18787221  1
  O  O150  1  0.18787221  0.13964257  0.33185355  1
  O  O151  1  0.33185355  0.18787221  0.13964257  1
  O  O152  1  0.70438010  0.66158030  0.90167576  1
  O  O153  1  0.09832424  0.20438010  0.83841970  1
  O  O154  1  0.16158030  0.59832424  0.29561990  1
  O  O155  1  0.20438010  0.83841970  0.09832424  1
  O  O156  1  0.59832424  0.29561990  0.16158030  1
  O  O157  1  0.66158030  0.90167576  0.70438010  1
  O  O158  1  0.29561990  0.16158030  0.59832424  1
  O  O159  1  0.90167576  0.70438010  0.66158030  1
  O  O160  1  0.83841970  0.09832424  0.20438010  1
  O  O161  1  0.79561990  0.33841970  0.40167576  1
  O  O162  1  0.40167576  0.79561990  0.33841970  1
  O  O163  1  0.33841970  0.40167576  0.79561990  1
  O  O164  1  0.74598587  0.58905022  0.76269339  1
  O  O165  1  0.23730661  0.24598587  0.91094978  1
  O  O166  1  0.08905022  0.73730661  0.25401413  1
  O  O167  1  0.24598587  0.91094978  0.23730661  1
  O  O168  1  0.73730661  0.25401413  0.08905022  1
  O  O169  1  0.58905022  0.76269339  0.74598587  1
  O  O170  1  0.25401413  0.08905022  0.73730661  1
  O  O171  1  0.76269339  0.74598587  0.58905022  1
  O  O172  1  0.91094978  0.23730661  0.24598587  1
  O  O173  1  0.75401413  0.41094978  0.26269339  1
  O  O174  1  0.26269339  0.75401413  0.41094978  1
  O  O175  1  0.41094978  0.26269339  0.75401413  1
  O  O176  1  0.50029093  0.88517838  0.68359845  1
  O  O177  1  0.31640155  0.00029093  0.61482162  1
  O  O178  1  0.38517838  0.81640155  0.49970907  1
  O  O179  1  0.00029093  0.61482162  0.31640155  1
  O  O180  1  0.81640155  0.49970907  0.38517838  1
  O  O181  1  0.88517838  0.68359845  0.50029093  1
  O  O182  1  0.49970907  0.38517838  0.81640155  1
  O  O183  1  0.68359845  0.50029093  0.88517838  1
  O  O184  1  0.61482162  0.31640155  0.00029093  1
  O  O185  1  0.99970907  0.11482162  0.18359845  1
  O  O186  1  0.18359845  0.99970907  0.11482162  1
  O  O187  1  0.11482162  0.18359845  0.99970907  1
  O  O188  1  0.10403697  0.62117355  0.51701773  1
  O  O189  1  0.48298227  0.60403697  0.87882645  1
  O  O190  1  0.12117355  0.98298227  0.89596303  1
  O  O191  1  0.60403697  0.87882645  0.48298227  1
  O  O192  1  0.98298227  0.89596303  0.12117355  1
  O  O193  1  0.62117355  0.51701773  0.10403697  1
  O  O194  1  0.89596303  0.12117355  0.98298227  1
  O  O195  1  0.51701773  0.10403697  0.62117355  1
  O  O196  1  0.87882645  0.48298227  0.60403697  1
  O  O197  1  0.39596303  0.37882645  0.01701773  1
  O  O198  1  0.01701773  0.39596303  0.37882645  1
  O  O199  1  0.37882645  0.01701773  0.39596303  1
