# generated using pymatgen
data_Na2CuH4(SO5)2
_symmetry_space_group_name_H-M   'P 1'
_cell_length_a   5.90153962
_cell_length_b   5.67085962
_cell_length_c   12.77750782
_cell_angle_alpha   90.00000000
_cell_angle_beta   90.00000000
_cell_angle_gamma   109.59397566
_symmetry_Int_Tables_number   1
_chemical_formula_structural   Na2CuH4(SO5)2
_chemical_formula_sum   'Na4 Cu2 H8 S4 O20'
_cell_volume   402.85988677
_cell_formula_units_Z   2
loop_
 _symmetry_equiv_pos_site_id
 _symmetry_equiv_pos_as_xyz
  1  'x, y, z'
loop_
 _atom_site_type_symbol
 _atom_site_label
 _atom_site_symmetry_multiplicity
 _atom_site_fract_x
 _atom_site_fract_y
 _atom_site_fract_z
 _atom_site_occupancy
  Na  Na0  1  0.42545778  0.28676446  0.62383427  1
  Na  Na1  1  0.57454222  0.21323554  0.12383427  1
  Na  Na2  1  0.57454222  0.71323554  0.37616573  1
  Na  Na3  1  0.42545778  0.78676446  0.87616573  1
  Cu  Cu4  1  0.00000000  0.50000000  0.50000000  1
  Cu  Cu5  1  0.00000000  0.00000000  -0.00000000  1
  H  H6  1  0.07124495  0.51896164  0.69828929  1
  H  H7  1  0.92875505  0.98103836  0.19828929  1
  H  H8  1  0.92875505  0.48103836  0.30171071  1
  H  H9  1  0.07124495  0.01896164  0.80171071  1
  H  H10  1  0.30328565  0.71540795  0.64494546  1
  H  H11  1  0.69671435  0.78459205  0.14494546  1
  H  H12  1  0.69671435  0.28459205  0.35505454  1
  H  H13  1  0.30328565  0.21540795  0.85505454  1
  S  S14  1  0.75787163  0.96011456  0.61902155  1
  S  S15  1  0.24212837  0.53988544  0.11902155  1
  S  S16  1  0.24212837  0.03988544  0.38097845  1
  S  S17  1  0.75787163  0.46011456  0.88097845  1
  O  O18  1  0.98665775  0.01891344  0.67680673  1
  O  O19  1  0.01334225  0.48108656  0.17680673  1
  O  O20  1  0.01334225  0.98108656  0.32319327  1
  O  O21  1  0.98665775  0.51891344  0.82319327  1
  O  O22  1  0.70858630  0.72836202  0.55591682  1
  O  O23  1  0.29141370  0.77163798  0.05591682  1
  O  O24  1  0.29141370  0.27163798  0.44408318  1
  O  O25  1  0.70858630  0.22836202  0.94408318  1
  O  O26  1  0.76446369  0.17533199  0.54617582  1
  O  O27  1  0.23553631  0.32466801  0.04617582  1
  O  O28  1  0.23553631  0.82466801  0.45382418  1
  O  O29  1  0.76446369  0.67533199  0.95382418  1
  O  O30  1  0.54987638  0.93398098  0.69119106  1
  O  O31  1  0.45012362  0.56601902  0.19119106  1
  O  O32  1  0.45012362  0.06601902  0.30880894  1
  O  O33  1  0.54987638  0.43398098  0.80880894  1
  O  O34  1  0.17348561  0.54874667  0.63381549  1
  O  O35  1  0.82651439  0.95125333  0.13381549  1
  O  O36  1  0.82651439  0.45125333  0.36618451  1
  O  O37  1  0.17348561  0.04874667  0.86618451  1
