# generated using pymatgen
data_CdH24C4(BrN2)6
_symmetry_space_group_name_H-M   'P 1'
_cell_length_a   8.36205969
_cell_length_b   19.70182678
_cell_length_c   15.56711233
_cell_angle_alpha   90.00000000
_cell_angle_beta   108.36656637
_cell_angle_gamma   90.00000000
_symmetry_Int_Tables_number   1
_chemical_formula_structural   CdH24C4(BrN2)6
_chemical_formula_sum   'Cd4 H96 C16 Br24 N48'
_cell_volume   2434.00522802
_cell_formula_units_Z   4
loop_
 _symmetry_equiv_pos_site_id
 _symmetry_equiv_pos_as_xyz
  1  'x, y, z'
loop_
 _atom_site_type_symbol
 _atom_site_label
 _atom_site_symmetry_multiplicity
 _atom_site_fract_x
 _atom_site_fract_y
 _atom_site_fract_z
 _atom_site_occupancy
  Cd  Cd0  1  0.21148536  0.88468874  0.26607904  1
  Cd  Cd1  1  0.78851464  0.38468874  0.23392096  1
  Cd  Cd2  1  0.78851464  0.11531126  0.73392096  1
  Cd  Cd3  1  0.21148536  0.61531126  0.76607904  1
  H  H4  1  0.29603653  0.18850611  0.46184055  1
  H  H5  1  0.70396347  0.68850611  0.03815945  1
  H  H6  1  0.70396347  0.81149389  0.53815945  1
  H  H7  1  0.29603653  0.31149389  0.96184055  1
  H  H8  1  0.13261463  0.23147968  0.37951709  1
  H  H9  1  0.86738537  0.73147968  0.12048291  1
  H  H10  1  0.86738537  0.76852032  0.62048291  1
  H  H11  1  0.13261463  0.26852032  0.87951709  1
  H  H12  1  0.20393425  0.28613904  0.25823579  1
  H  H13  1  0.79606575  0.78613904  0.24176421  1
  H  H14  1  0.79606575  0.71386096  0.74176421  1
  H  H15  1  0.20393425  0.21386096  0.75823579  1
  H  H16  1  0.41405196  0.30626419  0.27727502  1
  H  H17  1  0.58594804  0.80626419  0.22272498  1
  H  H18  1  0.58594804  0.69373581  0.72272498  1
  H  H19  1  0.41405196  0.19373581  0.77727502  1
  H  H20  1  0.62543789  0.23681970  0.38063875  1
  H  H21  1  0.37456211  0.73681970  0.11936125  1
  H  H22  1  0.37456211  0.76318030  0.61936125  1
  H  H23  1  0.62543789  0.26318030  0.88063875  1
  H  H24  1  0.56690769  0.19762102  0.46742706  1
  H  H25  1  0.43309231  0.69762102  0.03257294  1
  H  H26  1  0.43309231  0.80237898  0.53257294  1
  H  H27  1  0.56690769  0.30237898  0.96742706  1
  H  H28  1  0.34767169  0.04817587  0.68853652  1
  H  H29  1  0.65232831  0.54817587  0.81146348  1
  H  H30  1  0.65232831  0.95182413  0.31146348  1
  H  H31  1  0.34767169  0.45182413  0.18853652  1
  H  H32  1  0.18366007  0.02298607  0.72716982  1
  H  H33  1  0.81633993  0.52298607  0.77283018  1
  H  H34  1  0.81633993  0.97701393  0.27283018  1
  H  H35  1  0.18366007  0.47701393  0.22716982  1
  H  H36  1  0.96809485  0.94962667  0.62855521  1
  H  H37  1  0.03190515  0.44962667  0.87144479  1
  H  H38  1  0.03190515  0.05037333  0.37144479  1
  H  H39  1  0.96809485  0.55037333  0.12855521  1
  H  H40  1  0.01715493  0.91065591  0.53904462  1
  H  H41  1  0.98284507  0.41065591  0.96095538  1
  H  H42  1  0.98284507  0.08934409  0.46095538  1
  H  H43  1  0.01715493  0.58934409  0.03904462  1
  H  H44  1  0.39793750  0.99385717  0.56561637  1
  H  H45  1  0.60206250  0.49385717  0.93438363  1
  H  H46  1  0.60206250  0.00614283  0.43438363  1
  H  H47  1  0.39793750  0.50614283  0.06561637  1
  H  H48  1  0.23897490  0.94107844  0.49702115  1
  H  H49  1  0.76102510  0.44107844  0.00297885  1
  H  H50  1  0.76102510  0.05892156  0.50297885  1
  H  H51  1  0.23897490  0.55892156  0.99702115  1
  H  H52  1  0.10183404  0.06054587  0.00968198  1
  H  H53  1  0.89816596  0.56054587  0.49031802  1
  H  H54  1  0.89816596  0.93945413  0.99031802  1
  H  H55  1  0.10183404  0.43945413  0.50968198  1
  H  H56  1  0.08520633  0.02787621  0.11177545  1
  H  H57  1  0.91479367  0.52787621  0.38822455  1
  H  H58  1  0.91479367  0.97212379  0.88822455  1
  H  H59  1  0.08520633  0.47212379  0.61177545  1
  H  H60  1  0.97902822  0.18281797  0.19167476  1
  H  H61  1  0.02097178  0.68281797  0.30832524  1
  H  H62  1  0.02097178  0.81718203  0.80832524  1
  H  H63  1  0.97902822  0.31718203  0.69167476  1
  H  H64  1  0.09751425  0.10876277  0.22648459  1
  H  H65  1  0.90248575  0.60876277  0.27351541  1
  H  H66  1  0.90248575  0.89123723  0.77351541  1
  H  H67  1  0.09751425  0.39123723  0.72648459  1
  H  H68  1  0.97514999  0.16852681  0.96236625  1
  H  H69  1  0.02485001  0.66852681  0.53763375  1
  H  H70  1  0.02485001  0.83147319  0.03763375  1
  H  H71  1  0.97514999  0.33147319  0.46236625  1
  H  H72  1  0.98909830  0.22828158  0.04863050  1
  H  H73  1  0.01090170  0.72828158  0.45136950  1
  H  H74  1  0.01090170  0.77171842  0.95136950  1
  H  H75  1  0.98909830  0.27171842  0.54863050  1
  H  H76  1  0.39773888  0.83325194  0.98655730  1
  H  H77  1  0.60226112  0.33325194  0.51344270  1
  H  H78  1  0.60226112  0.16674806  0.01344270  1
  H  H79  1  0.39773888  0.66674806  0.48655730  1
  H  H80  1  0.39882455  0.78259232  0.89431329  1
  H  H81  1  0.60117545  0.28259232  0.60568671  1
  H  H82  1  0.60117545  0.21740768  0.10568671  1
  H  H83  1  0.39882455  0.71740768  0.39431329  1
  H  H84  1  0.47791847  0.83047820  0.77840872  1
  H  H85  1  0.52208153  0.33047820  0.72159128  1
  H  H86  1  0.52208153  0.16952180  0.22159128  1
  H  H87  1  0.47791847  0.66952180  0.27840872  1
  H  H88  1  0.50075134  0.91762881  0.76867637  1
  H  H89  1  0.49924866  0.41762881  0.73132363  1
  H  H90  1  0.49924866  0.08237119  0.23132363  1
  H  H91  1  0.50075134  0.58237119  0.26867637  1
  H  H92  1  0.41169884  0.94800752  0.97753696  1
  H  H93  1  0.58830116  0.44800752  0.52246304  1
  H  H94  1  0.58830116  0.05199248  0.02246304  1
  H  H95  1  0.41169884  0.55199248  0.47753696  1
  H  H96  1  0.49002092  0.98733438  0.89645184  1
  H  H97  1  0.50997908  0.48733438  0.60354816  1
  H  H98  1  0.50997908  0.01266562  0.10354816  1
  H  H99  1  0.49002092  0.51266562  0.39645184  1
  C  C100  1  0.37163030  0.24004739  0.36815870  1
  C  C101  1  0.62836970  0.74004739  0.13184130  1
  C  C102  1  0.62836970  0.75995261  0.63184130  1
  C  C103  1  0.37163030  0.25995261  0.86815870  1
  C  C104  1  0.19717040  0.97522059  0.61189588  1
  C  C105  1  0.80282960  0.47522059  0.88810412  1
  C  C106  1  0.80282960  0.02477941  0.38810412  1
  C  C107  1  0.19717040  0.52477941  0.11189588  1
  C  C108  1  0.04321991  0.13040317  0.09187724  1
  C  C109  1  0.95678009  0.63040317  0.40812276  1
  C  C110  1  0.95678009  0.86959683  0.90812276  1
  C  C111  1  0.04321991  0.36959683  0.59187724  1
  C  C112  1  0.44994992  0.88396643  0.88388819  1
  C  C113  1  0.55005008  0.38396643  0.61611181  1
  C  C114  1  0.55005008  0.11603357  0.11611181  1
  C  C115  1  0.44994992  0.61603357  0.38388819  1
  Br  Br116  1  0.16425386  0.74788093  0.20115091  1
  Br  Br117  1  0.83574614  0.24788093  0.29884909  1
  Br  Br118  1  0.83574614  0.25211907  0.79884909  1
  Br  Br119  1  0.16425386  0.75211907  0.70115091  1
  Br  Br120  1  0.27507494  0.02235909  0.32512570  1
  Br  Br121  1  0.72492506  0.52235909  0.17487430  1
  Br  Br122  1  0.72492506  0.97764091  0.67487430  1
  Br  Br123  1  0.27507494  0.47764091  0.82512570  1
  Br  Br124  1  0.37253115  0.90893949  0.12755421  1
  Br  Br125  1  0.62746885  0.40893949  0.37244579  1
  Br  Br126  1  0.62746885  0.09106051  0.87244579  1
  Br  Br127  1  0.37253115  0.59106051  0.62755421  1
  Br  Br128  1  0.06383854  0.84421146  0.40181709  1
  Br  Br129  1  0.93616146  0.34421146  0.09818291  1
  Br  Br130  1  0.93616146  0.15578854  0.59818291  1
  Br  Br131  1  0.06383854  0.65578854  0.90181709  1
  Br  Br132  1  0.90569923  0.92354536  0.14864603  1
  Br  Br133  1  0.09430077  0.42354536  0.35135397  1
  Br  Br134  1  0.09430077  0.07645464  0.85135397  1
  Br  Br135  1  0.90569923  0.57645464  0.64864603  1
  Br  Br136  1  0.52808886  0.85198066  0.38571310  1
  Br  Br137  1  0.47191114  0.35198066  0.11428690  1
  Br  Br138  1  0.47191114  0.14801934  0.61428690  1
  Br  Br139  1  0.52808886  0.64801934  0.88571310  1
  N  N140  1  0.25576905  0.21583392  0.40290298  1
  N  N141  1  0.74423095  0.71583392  0.09709702  1
  N  N142  1  0.74423095  0.78416608  0.59709702  1
  N  N143  1  0.25576905  0.28416608  0.90290298  1
  N  N144  1  0.32713812  0.27473228  0.29004925  1
  N  N145  1  0.67286188  0.77473228  0.20995075  1
  N  N146  1  0.67286188  0.72526772  0.70995075  1
  N  N147  1  0.32713812  0.22526772  0.79004925  1
  N  N148  1  0.53512209  0.22731692  0.41099786  1
  N  N149  1  0.46487791  0.72731692  0.08900214  1
  N  N150  1  0.46487791  0.77268308  0.58900214  1
  N  N151  1  0.53512209  0.27268308  0.91099786  1
  N  N152  1  0.25659291  0.01321056  0.68681674  1
  N  N153  1  0.74340709  0.51321056  0.81318326  1
  N  N154  1  0.74340709  0.98678944  0.31318326  1
  N  N155  1  0.25659291  0.48678944  0.18681674  1
  N  N156  1  0.05586572  0.93849983  0.59722830  1
  N  N157  1  0.94413428  0.43849983  0.90277170  1
  N  N158  1  0.94413428  0.06150017  0.40277170  1
  N  N159  1  0.05586572  0.56150017  0.09722830  1
  N  N160  1  0.28338383  0.97121952  0.55282051  1
  N  N161  1  0.71661617  0.47121952  0.94717949  1
  N  N162  1  0.71661617  0.02878048  0.44717949  1
  N  N163  1  0.28338383  0.52878048  0.05282051  1
  N  N164  1  0.08739378  0.06863913  0.07161435  1
  N  N165  1  0.91260622  0.56863913  0.42838565  1
  N  N166  1  0.91260622  0.93136087  0.92838565  1
  N  N167  1  0.08739378  0.43136087  0.57161435  1
  N  N168  1  0.04273729  0.14294887  0.17641791  1
  N  N169  1  0.95726271  0.64294887  0.32358209  1
  N  N170  1  0.95726271  0.85705113  0.82358209  1
  N  N171  1  0.04273729  0.35705113  0.67641791  1
  N  N172  1  0.00450547  0.17965721  0.02951617  1
  N  N173  1  0.99549453  0.67965721  0.47048383  1
  N  N174  1  0.99549453  0.82034279  0.97048383  1
  N  N175  1  0.00450547  0.32034279  0.52951617  1
  N  N176  1  0.41728933  0.82867506  0.92540533  1
  N  N177  1  0.58271067  0.32867506  0.57459467  1
  N  N178  1  0.58271067  0.17132494  0.07459467  1
  N  N179  1  0.41728933  0.67132494  0.42540533  1
  N  N180  1  0.48193258  0.87737472  0.80532618  1
  N  N181  1  0.51806742  0.37737472  0.69467382  1
  N  N182  1  0.51806742  0.12262528  0.19467382  1
  N  N183  1  0.48193258  0.62262528  0.30532618  1
  N  N184  1  0.45151070  0.94466299  0.92207895  1
  N  N185  1  0.54848930  0.44466299  0.57792105  1
  N  N186  1  0.54848930  0.05533701  0.07792105  1
  N  N187  1  0.45151070  0.55533701  0.42207895  1
