# generated using pymatgen
data_KH(IO3)2
_symmetry_space_group_name_H-M   'P 1'
_cell_length_a   8.69030695
_cell_length_b   7.59578078
_cell_length_c   19.73455891
_cell_angle_alpha   90.00000000
_cell_angle_beta   90.00000000
_cell_angle_gamma   90.00000000
_symmetry_Int_Tables_number   1
_chemical_formula_structural   KH(IO3)2
_chemical_formula_sum   'K8 H8 I16 O48'
_cell_volume   1302.67165224
_cell_formula_units_Z   8
loop_
 _symmetry_equiv_pos_site_id
 _symmetry_equiv_pos_as_xyz
  1  'x, y, z'
loop_
 _atom_site_type_symbol
 _atom_site_label
 _atom_site_symmetry_multiplicity
 _atom_site_fract_x
 _atom_site_fract_y
 _atom_site_fract_z
 _atom_site_occupancy
  K  K0  1  0.51541093  0.52041385  0.35293102  1
  K  K1  1  0.48458907  0.47958615  0.85293102  1
  K  K2  1  0.98458907  0.52041385  0.85293102  1
  K  K3  1  0.01541093  0.47958615  0.35293102  1
  K  K4  1  0.53495773  0.99411483  0.15711830  1
  K  K5  1  0.46504227  0.00588517  0.65711830  1
  K  K6  1  0.96504227  0.99411483  0.65711830  1
  K  K7  1  0.03495773  0.00588517  0.15711830  1
  H  H8  1  0.50839905  0.75613905  0.00388526  1
  H  H9  1  0.49160095  0.24386095  0.50388526  1
  H  H10  1  0.99160095  0.75613905  0.50388526  1
  H  H11  1  0.00839905  0.24386095  0.00388526  1
  H  H12  1  0.26005213  0.73099075  0.26311766  1
  H  H13  1  0.73994787  0.26900925  0.76311766  1
  H  H14  1  0.23994787  0.73099075  0.76311766  1
  H  H15  1  0.76005213  0.26900925  0.26311766  1
  I  I16  1  0.82814050  0.80957744  0.00073782  1
  I  I17  1  0.17185950  0.19042256  0.50073782  1
  I  I18  1  0.67185950  0.80957744  0.50073782  1
  I  I19  1  0.32814050  0.19042256  0.00073782  1
  I  I20  1  0.72554478  0.30995328  0.00451899  1
  I  I21  1  0.27445522  0.69004672  0.50451899  1
  I  I22  1  0.77445522  0.30995328  0.50451899  1
  I  I23  1  0.22554478  0.69004672  0.00451899  1
  I  I24  1  0.81693256  0.94799493  0.33078068  1
  I  I25  1  0.18306744  0.05200507  0.83078068  1
  I  I26  1  0.68306744  0.94799493  0.83078068  1
  I  I27  1  0.31693256  0.05200507  0.33078068  1
  I  I28  1  0.75369551  0.53776083  0.18882597  1
  I  I29  1  0.24630449  0.46223917  0.68882597  1
  I  I30  1  0.74630449  0.53776083  0.68882597  1
  I  I31  1  0.25369551  0.46223917  0.18882597  1
  O  O32  1  0.64978960  0.72361944  0.96085324  1
  O  O33  1  0.35021040  0.27638056  0.46085324  1
  O  O34  1  0.85021040  0.72361944  0.46085324  1
  O  O35  1  0.14978960  0.27638056  0.96085324  1
  O  O36  1  0.94149920  0.60531974  0.98648631  1
  O  O37  1  0.05850080  0.39468026  0.48648631  1
  O  O38  1  0.55850080  0.60531974  0.48648631  1
  O  O39  1  0.44149920  0.39468026  0.98648631  1
  O  O40  1  0.78718188  0.78158177  0.09101901  1
  O  O41  1  0.21281812  0.21841823  0.59101901  1
  O  O42  1  0.71281812  0.78158177  0.59101901  1
  O  O43  1  0.28718188  0.21841823  0.09101901  1
  O  O44  1  0.62464010  0.10320075  0.02467638  1
  O  O45  1  0.37535990  0.89679925  0.52467638  1
  O  O46  1  0.87535990  0.10320075  0.52467638  1
  O  O47  1  0.12464010  0.89679925  0.02467638  1
  O  O48  1  0.91716319  0.21021585  0.03546954  1
  O  O49  1  0.08283681  0.78978415  0.53546954  1
  O  O50  1  0.58283681  0.21021585  0.53546954  1
  O  O51  1  0.41716319  0.78978415  0.03546954  1
  O  O52  1  0.75351903  0.27976773  0.91418148  1
  O  O53  1  0.24648097  0.72023227  0.41418148  1
  O  O54  1  0.74648097  0.27976773  0.41418148  1
  O  O55  1  0.25351903  0.72023227  0.91418148  1
  O  O56  1  0.77191139  0.08042654  0.25506175  1
  O  O57  1  0.22808861  0.91957346  0.75506175  1
  O  O58  1  0.72808861  0.08042654  0.75506175  1
  O  O59  1  0.27191139  0.91957346  0.25506175  1
  O  O60  1  0.62304238  0.87606013  0.35634239  1
  O  O61  1  0.37695762  0.12393987  0.85634239  1
  O  O62  1  0.87695762  0.87606013  0.85634239  1
  O  O63  1  0.12304238  0.12393987  0.35634239  1
  O  O64  1  0.89152831  0.75756009  0.28531191  1
  O  O65  1  0.10847169  0.24243991  0.78531191  1
  O  O66  1  0.60847169  0.75756009  0.78531191  1
  O  O67  1  0.39152831  0.24243991  0.28531191  1
  O  O68  1  0.69091737  0.35402128  0.13528185  1
  O  O69  1  0.30908263  0.64597872  0.63528185  1
  O  O70  1  0.80908263  0.35402128  0.63528185  1
  O  O71  1  0.19091737  0.64597872  0.13528185  1
  O  O72  1  0.75542407  0.40726992  0.27173808  1
  O  O73  1  0.24457593  0.59273008  0.77173808  1
  O  O74  1  0.74457593  0.40726992  0.77173808  1
  O  O75  1  0.25542407  0.59273008  0.27173808  1
  O  O76  1  0.57327301  0.64798336  0.20436236  1
  O  O77  1  0.42672699  0.35201664  0.70436236  1
  O  O78  1  0.92672699  0.64798336  0.70436236  1
  O  O79  1  0.07327301  0.35201664  0.20436236  1
