# generated using pymatgen
data_Li2TiCr(PO4)3
_symmetry_space_group_name_H-M   'P 1'
_cell_length_a   8.63123063
_cell_length_b   8.76676808
_cell_length_c   11.96850938
_cell_angle_alpha   90.00000000
_cell_angle_beta   90.38685744
_cell_angle_gamma   90.00000000
_symmetry_Int_Tables_number   1
_chemical_formula_structural   Li2TiCr(PO4)3
_chemical_formula_sum   'Li8 Ti4 Cr4 P12 O48'
_cell_volume   905.61249117
_cell_formula_units_Z   4
loop_
 _symmetry_equiv_pos_site_id
 _symmetry_equiv_pos_as_xyz
  1  'x, y, z'
loop_
 _atom_site_type_symbol
 _atom_site_label
 _atom_site_symmetry_multiplicity
 _atom_site_fract_x
 _atom_site_fract_y
 _atom_site_fract_z
 _atom_site_occupancy
  Li  Li0  1  0.21961126  0.78323631  0.17096298  1
  Li  Li1  1  0.22291839  0.71998859  0.82281670  1
  Li  Li2  1  0.28038874  0.28323631  0.32903702  1
  Li  Li3  1  0.27708161  0.21998859  0.67718330  1
  Li  Li4  1  0.71961126  0.71676369  0.67096298  1
  Li  Li5  1  0.72291839  0.78001141  0.32281670  1
  Li  Li6  1  0.78038874  0.21676369  0.82903702  1
  Li  Li7  1  0.77708161  0.28001141  0.17718330  1
  Ti  Ti8  1  0.24774036  0.95720552  0.38507419  1
  Ti  Ti9  1  0.25225964  0.45720552  0.11492581  1
  Ti  Ti10  1  0.74774036  0.54279448  0.88507419  1
  Ti  Ti11  1  0.75225964  0.04279448  0.61492581  1
  Cr  Cr12  1  0.24878454  0.53727125  0.61823335  1
  Cr  Cr13  1  0.25121546  0.03727125  0.88176665  1
  Cr  Cr14  1  0.74878454  0.96272875  0.11823335  1
  Cr  Cr15  1  0.75121546  0.46272875  0.38176665  1
  P  P16  1  0.03535747  0.25268654  0.49700312  1
  P  P17  1  0.10214348  0.11009336  0.14441456  1
  P  P18  1  0.10238536  0.38695316  0.85334859  1
  P  P19  1  0.39785652  0.61009336  0.35558544  1
  P  P20  1  0.39761464  0.88695316  0.64665141  1
  P  P21  1  0.46464253  0.75268654  0.00299688  1
  P  P22  1  0.53535747  0.24731346  0.99700312  1
  P  P23  1  0.60238536  0.11304684  0.35334859  1
  P  P24  1  0.60214348  0.38990664  0.64441456  1
  P  P25  1  0.89761464  0.61304684  0.14665141  1
  P  P26  1  0.89785652  0.88990664  0.85558544  1
  P  P27  1  0.96464253  0.74731346  0.50299688  1
  O  O28  1  0.06709623  0.85080620  0.42850919  1
  O  O29  1  0.05679877  0.65263833  0.58564102  1
  O  O30  1  0.07701664  0.60401889  0.15486346  1
  O  O31  1  0.07549332  0.88948514  0.84438202  1
  O  O32  1  0.14819734  0.15062133  0.42738133  1
  O  O33  1  0.14013758  0.34356066  0.57703321  1
  O  O34  1  0.15526800  0.07503368  0.02720009  1
  O  O35  1  0.15165404  0.41977073  0.97645298  1
  O  O36  1  0.16025721  0.27164238  0.18328009  1
  O  O37  1  0.15249453  0.22670922  0.81625467  1
  O  O38  1  0.17799021  0.51087968  0.78076594  1
  O  O39  1  0.17368437  0.98845550  0.22547216  1
  O  O40  1  0.32200979  0.01087968  0.71923406  1
  O  O41  1  0.32631563  0.48845550  0.27452784  1
  O  O42  1  0.33974279  0.77164238  0.31671991  1
  O  O43  1  0.34750547  0.72670922  0.68374533  1
  O  O44  1  0.34473200  0.57503368  0.47279991  1
  O  O45  1  0.34834596  0.91977073  0.52354702  1
  O  O46  1  0.35180266  0.65062133  0.07261867  1
  O  O47  1  0.35986242  0.84356066  0.92296679  1
  O  O48  1  0.42298336  0.10401889  0.34513654  1
  O  O49  1  0.42450668  0.38948514  0.65561798  1
  O  O50  1  0.43290377  0.35080620  0.07149081  1
  O  O51  1  0.44320123  0.15263833  0.91435898  1
  O  O52  1  0.56709623  0.64919380  0.92850919  1
  O  O53  1  0.55679877  0.84736167  0.08564102  1
  O  O54  1  0.57549332  0.61051486  0.34438202  1
  O  O55  1  0.57701664  0.89598111  0.65486346  1
  O  O56  1  0.64013758  0.15643934  0.07703321  1
  O  O57  1  0.64819734  0.34937867  0.92738133  1
  O  O58  1  0.65165404  0.08022927  0.47645298  1
  O  O59  1  0.65526800  0.42496632  0.52720009  1
  O  O60  1  0.66025721  0.22835762  0.68328009  1
  O  O61  1  0.65249453  0.27329078  0.31625467  1
  O  O62  1  0.67368437  0.51154450  0.72547216  1
  O  O63  1  0.67799021  0.98912032  0.28076594  1
  O  O64  1  0.82631563  0.01154450  0.77452784  1
  O  O65  1  0.82200979  0.48912032  0.21923406  1
  O  O66  1  0.84750547  0.77329078  0.18374533  1
  O  O67  1  0.83974279  0.72835762  0.81671991  1
  O  O68  1  0.84834596  0.58022927  0.02354702  1
  O  O69  1  0.84473200  0.92496632  0.97279991  1
  O  O70  1  0.85986242  0.65643934  0.42296679  1
  O  O71  1  0.85180266  0.84937867  0.57261867  1
  O  O72  1  0.92450668  0.11051486  0.15561798  1
  O  O73  1  0.92298336  0.39598111  0.84513654  1
  O  O74  1  0.93290377  0.14919380  0.57149081  1
  O  O75  1  0.94320123  0.34736167  0.41435898  1
