# generated using pymatgen
data_K5NaFe2(CO2)12
_symmetry_space_group_name_H-M   'P 1'
_cell_length_a   13.81398905
_cell_length_b   13.81398905
_cell_length_c   13.81398905
_cell_angle_alpha   90.00000000
_cell_angle_beta   90.00000000
_cell_angle_gamma   90.00000000
_symmetry_Int_Tables_number   1
_chemical_formula_structural   K5NaFe2(CO2)12
_chemical_formula_sum   'K20 Na4 Fe8 C48 O96'
_cell_volume   2636.07232850
_cell_formula_units_Z   4
loop_
 _symmetry_equiv_pos_site_id
 _symmetry_equiv_pos_as_xyz
  1  'x, y, z'
loop_
 _atom_site_type_symbol
 _atom_site_label
 _atom_site_symmetry_multiplicity
 _atom_site_fract_x
 _atom_site_fract_y
 _atom_site_fract_z
 _atom_site_occupancy
  K  K0  1  0.87500000  0.74104428  0.00895572  1
  K  K1  1  0.49104428  0.12500000  0.24104428  1
  K  K2  1  0.33018159  0.83018159  0.66981841  1
  K  K3  1  0.58018159  0.58018159  0.58018159  1
  K  K4  1  0.16981841  0.16981841  0.16981841  1
  K  K5  1  0.25895572  0.50895572  0.62500000  1
  K  K6  1  0.37500000  0.75895572  0.99104428  1
  K  K7  1  0.83018159  0.66981841  0.33018159  1
  K  K8  1  0.12500000  0.24104428  0.49104428  1
  K  K9  1  0.91981841  0.41981841  0.08018159  1
  K  K10  1  0.00895572  0.87500000  0.74104428  1
  K  K11  1  0.74104428  0.00895572  0.87500000  1
  K  K12  1  0.08018159  0.91981841  0.41981841  1
  K  K13  1  0.24104428  0.49104428  0.12500000  1
  K  K14  1  0.62500000  0.25895572  0.50895572  1
  K  K15  1  0.66981841  0.33018159  0.83018159  1
  K  K16  1  0.41981841  0.08018159  0.91981841  1
  K  K17  1  0.75895572  0.99104428  0.37500000  1
  K  K18  1  0.50895572  0.62500000  0.25895572  1
  K  K19  1  0.99104428  0.37500000  0.75895572  1
  Na  Na20  1  0.12500000  0.62500000  0.87500000  1
  Na  Na21  1  0.37500000  0.37500000  0.37500000  1
  Na  Na22  1  0.62500000  0.87500000  0.12500000  1
  Na  Na23  1  0.87500000  0.12500000  0.62500000  1
  Fe  Fe24  1  0.48939891  0.98939891  0.51060109  1
  Fe  Fe25  1  0.73939891  0.73939891  0.73939891  1
  Fe  Fe26  1  0.51060109  0.48939891  0.98939891  1
  Fe  Fe27  1  0.76060109  0.26060109  0.23939891  1
  Fe  Fe28  1  0.98939891  0.51060109  0.48939891  1
  Fe  Fe29  1  0.23939891  0.76060109  0.26060109  1
  Fe  Fe30  1  0.01060109  0.01060109  0.01060109  1
  Fe  Fe31  1  0.26060109  0.23939891  0.76060109  1
  C  C32  1  0.05592828  0.64033934  0.63618961  1
  C  C33  1  0.19963661  0.04571820  0.72962995  1
  C  C34  1  0.97962995  0.20428180  0.94963661  1
  C  C35  1  0.95428180  0.22962995  0.30036339  1
  C  C36  1  0.86381039  0.94407172  0.14033934  1
  C  C37  1  0.69407172  0.11381039  0.10966066  1
  C  C38  1  0.85966066  0.36381039  0.55592828  1
  C  C39  1  0.80036339  0.54571820  0.77037005  1
  C  C40  1  0.61381039  0.39033934  0.30592828  1
  C  C41  1  0.10966066  0.69407172  0.11381039  1
  C  C42  1  0.77037005  0.80036339  0.54571820  1
  C  C43  1  0.44407172  0.35966066  0.13618961  1
  C  C44  1  0.72962995  0.19963661  0.04571820  1
  C  C45  1  0.02037005  0.70428180  0.55036339  1
  C  C46  1  0.45428180  0.27037005  0.69963661  1
  C  C47  1  0.89033934  0.19407172  0.38618961  1
  C  C48  1  0.94963661  0.97962995  0.20428180  1
  C  C49  1  0.69963661  0.45428180  0.27037005  1
  C  C50  1  0.63618961  0.05592828  0.64033934  1
  C  C51  1  0.44963661  0.52037005  0.79571820  1
  C  C52  1  0.27037005  0.69963661  0.45428180  1
  C  C53  1  0.52037005  0.79571820  0.44963661  1
  C  C54  1  0.11381039  0.10966066  0.69407172  1
  C  C55  1  0.39033934  0.30592828  0.61381039  1
  C  C56  1  0.94407172  0.14033934  0.86381039  1
  C  C57  1  0.29571820  0.05036339  0.47962995  1
  C  C58  1  0.38618961  0.89033934  0.19407172  1
  C  C59  1  0.79571820  0.44963661  0.52037005  1
  C  C60  1  0.04571820  0.72962995  0.19963661  1
  C  C61  1  0.47962995  0.29571820  0.05036339  1
  C  C62  1  0.05036339  0.47962995  0.29571820  1
  C  C63  1  0.30036339  0.95428180  0.22962995  1
  C  C64  1  0.88618961  0.60966066  0.80592828  1
  C  C65  1  0.60966066  0.80592828  0.88618961  1
  C  C66  1  0.54571820  0.77037005  0.80036339  1
  C  C67  1  0.30592828  0.61381039  0.39033934  1
  C  C68  1  0.19407172  0.38618961  0.89033934  1
  C  C69  1  0.55036339  0.02037005  0.70428180  1
  C  C70  1  0.22962995  0.30036339  0.95428180  1
  C  C71  1  0.35966066  0.13618961  0.44407172  1
  C  C72  1  0.36381039  0.55592828  0.85966066  1
  C  C73  1  0.55592828  0.85966066  0.36381039  1
  C  C74  1  0.20428180  0.94963661  0.97962995  1
  C  C75  1  0.70428180  0.55036339  0.02037005  1
  C  C76  1  0.64033934  0.63618961  0.05592828  1
  C  C77  1  0.13618961  0.44407172  0.35966066  1
  C  C78  1  0.80592828  0.88618961  0.60966066  1
  C  C79  1  0.14033934  0.86381039  0.94407172  1
  O  O80  1  0.20250607  0.70731270  0.12705388  1
  O  O81  1  0.75106675  0.27708509  0.09382595  1
  O  O82  1  0.73500210  0.19024608  0.95631095  1
  O  O83  1  0.84416796  0.95804661  0.57228893  1
  O  O84  1  0.26499790  0.69024608  0.54368905  1
  O  O85  1  0.45804661  0.92771107  0.15583204  1
  O  O86  1  0.79368905  0.55975392  0.01499790  1
  O  O87  1  0.29195339  0.59416796  0.82228893  1
  O  O88  1  0.04268730  0.54749393  0.62294612  1
  O  O89  1  0.65583204  0.04195339  0.07228893  1
  O  O90  1  0.95731270  0.04749393  0.87705388  1
  O  O91  1  0.12294612  0.45731270  0.45250607  1
  O  O92  1  0.01499790  0.79368905  0.55975392  1
  O  O93  1  0.99893325  0.65617405  0.47291491  1
  O  O94  1  0.67771107  0.70804661  0.09416796  1
  O  O95  1  0.72291491  0.59382595  0.74893325  1
  O  O96  1  0.00106675  0.15617405  0.02708509  1
  O  O97  1  0.30975392  0.04368905  0.23500210  1
  O  O98  1  0.07228893  0.65583204  0.04195339  1
  O  O99  1  0.94024608  0.98500210  0.29368905  1
  O  O100  1  0.09382595  0.75106675  0.27708509  1
  O  O101  1  0.23500210  0.30975392  0.04368905  1
  O  O102  1  0.54195339  0.42771107  0.34416796  1
  O  O103  1  0.59416796  0.82228893  0.29195339  1
  O  O104  1  0.98500210  0.29368905  0.94024608  1
  O  O105  1  0.82228893  0.29195339  0.59416796  1
  O  O106  1  0.24893325  0.77708509  0.40617405  1
  O  O107  1  0.80975392  0.45631095  0.76499790  1
  O  O108  1  0.90583204  0.17771107  0.79195339  1
  O  O109  1  0.70731270  0.12705388  0.20250607  1
  O  O110  1  0.29368905  0.94024608  0.98500210  1
  O  O111  1  0.92771107  0.15583204  0.45804661  1
  O  O112  1  0.95804661  0.57228893  0.84416796  1
  O  O113  1  0.20804661  0.40583204  0.32228893  1
  O  O114  1  0.95250607  0.37705388  0.54268730  1
  O  O115  1  0.54268730  0.95250607  0.37705388  1
  O  O116  1  0.49893325  0.84382595  0.52708509  1
  O  O117  1  0.48500210  0.20631095  0.05975392  1
  O  O118  1  0.32228893  0.20804661  0.40583204  1
  O  O119  1  0.17771107  0.79195339  0.90583204  1
  O  O120  1  0.15583204  0.45804661  0.92771107  1
  O  O121  1  0.12705388  0.20250607  0.70731270  1
  O  O122  1  0.42771107  0.34416796  0.54195339  1
  O  O123  1  0.40617405  0.24893325  0.77708509  1
  O  O124  1  0.90617405  0.25106675  0.22291491  1
  O  O125  1  0.20731270  0.37294612  0.79749393  1
  O  O126  1  0.04368905  0.23500210  0.30975392  1
  O  O127  1  0.45250607  0.12294612  0.45731270  1
  O  O128  1  0.05975392  0.48500210  0.20631095  1
  O  O129  1  0.40583204  0.32228893  0.20804661  1
  O  O130  1  0.79749393  0.20731270  0.37294612  1
  O  O131  1  0.55975392  0.01499790  0.79368905  1
  O  O132  1  0.54749393  0.62294612  0.04268730  1
  O  O133  1  0.47291491  0.99893325  0.65617405  1
  O  O134  1  0.02708509  0.00106675  0.15617405  1
  O  O135  1  0.74893325  0.72291491  0.59382595  1
  O  O136  1  0.70250607  0.79268730  0.87294612  1
  O  O137  1  0.20631095  0.05975392  0.48500210  1
  O  O138  1  0.45631095  0.76499790  0.80975392  1
  O  O139  1  0.34416796  0.54195339  0.42771107  1
  O  O140  1  0.77708509  0.40617405  0.24893325  1
  O  O141  1  0.84382595  0.52708509  0.49893325  1
  O  O142  1  0.04195339  0.07228893  0.65583204  1
  O  O143  1  0.79268730  0.87294612  0.70250607  1
  O  O144  1  0.19024608  0.95631095  0.73500210  1
  O  O145  1  0.69024608  0.54368905  0.26499790  1
  O  O146  1  0.52708509  0.49893325  0.84382595  1
  O  O147  1  0.70804661  0.09416796  0.67771107  1
  O  O148  1  0.04749393  0.87705388  0.95731270  1
  O  O149  1  0.37294612  0.79749393  0.20731270  1
  O  O150  1  0.59382595  0.74893325  0.72291491  1
  O  O151  1  0.45731270  0.45250607  0.12294612  1
  O  O152  1  0.97291491  0.50106675  0.34382595  1
  O  O153  1  0.57228893  0.84416796  0.95804661  1
  O  O154  1  0.15617405  0.02708509  0.00106675  1
  O  O155  1  0.70631095  0.44024608  0.51499790  1
  O  O156  1  0.79195339  0.90583204  0.17771107  1
  O  O157  1  0.29749393  0.29268730  0.62705388  1
  O  O158  1  0.09416796  0.67771107  0.70804661  1
  O  O159  1  0.62705388  0.29749393  0.29268730  1
  O  O160  1  0.37705388  0.54268730  0.95250607  1
  O  O161  1  0.27708509  0.09382595  0.75106675  1
  O  O162  1  0.34382595  0.97291491  0.50106675  1
  O  O163  1  0.50106675  0.34382595  0.97291491  1
  O  O164  1  0.54368905  0.26499790  0.69024608  1
  O  O165  1  0.25106675  0.22291491  0.90617405  1
  O  O166  1  0.22291491  0.90617405  0.25106675  1
  O  O167  1  0.44024608  0.51499790  0.70631095  1
  O  O168  1  0.95631095  0.73500210  0.19024608  1
  O  O169  1  0.62294612  0.04268730  0.54749393  1
  O  O170  1  0.87294612  0.70250607  0.79268730  1
  O  O171  1  0.76499790  0.80975392  0.45631095  1
  O  O172  1  0.87705388  0.95731270  0.04749393  1
  O  O173  1  0.51499790  0.70631095  0.44024608  1
  O  O174  1  0.65617405  0.47291491  0.99893325  1
  O  O175  1  0.29268730  0.62705388  0.29749393  1
