# generated using pymatgen
data_SnH6Cl4O3
_symmetry_space_group_name_H-M   'P 1'
_cell_length_a   6.50326346
_cell_length_b   11.53181392
_cell_length_c   12.35432031
_cell_angle_alpha   90.00000000
_cell_angle_beta   89.88316509
_cell_angle_gamma   90.00000000
_symmetry_Int_Tables_number   1
_chemical_formula_structural   SnH6Cl4O3
_chemical_formula_sum   'Sn4 H24 Cl16 O12'
_cell_volume   926.50321000
_cell_formula_units_Z   4
loop_
 _symmetry_equiv_pos_site_id
 _symmetry_equiv_pos_as_xyz
  1  'x, y, z'
loop_
 _atom_site_type_symbol
 _atom_site_label
 _atom_site_symmetry_multiplicity
 _atom_site_fract_x
 _atom_site_fract_y
 _atom_site_fract_z
 _atom_site_occupancy
  Sn  Sn0  1  0.86849786  0.76507913  0.66418158  1
  Sn  Sn1  1  0.13150214  0.26507913  0.83581842  1
  Sn  Sn2  1  0.13150214  0.23492087  0.33581842  1
  Sn  Sn3  1  0.86849786  0.73492087  0.16418158  1
  H  H4  1  0.95163066  0.56261041  0.78248361  1
  H  H5  1  0.04836934  0.06261041  0.71751639  1
  H  H6  1  0.04836934  0.43738959  0.21751639  1
  H  H7  1  0.95163066  0.93738959  0.28248361  1
  H  H8  1  0.12783088  0.65605822  0.82129025  1
  H  H9  1  0.87216912  0.15605822  0.67870975  1
  H  H10  1  0.87216912  0.34394178  0.17870975  1
  H  H11  1  0.12783088  0.84394178  0.32129025  1
  H  H12  1  0.14020563  0.71554210  0.49135850  1
  H  H13  1  0.85979437  0.21554210  0.00864150  1
  H  H14  1  0.85979437  0.28445790  0.50864150  1
  H  H15  1  0.14020563  0.78445790  0.99135850  1
  H  H16  1  0.92812718  0.64760985  0.47468540  1
  H  H17  1  0.07187282  0.14760985  0.02531460  1
  H  H18  1  0.07187282  0.35239015  0.52531460  1
  H  H19  1  0.92812718  0.85239015  0.97468540  1
  H  H20  1  0.37127285  0.65163220  0.95234223  1
  H  H21  1  0.62872715  0.15163220  0.54765777  1
  H  H22  1  0.62872715  0.34836780  0.04765777  1
  H  H23  1  0.37127285  0.84836780  0.45234223  1
  H  H24  1  0.40272663  0.75600677  0.87282586  1
  H  H25  1  0.59727337  0.25600677  0.62717414  1
  H  H26  1  0.59727337  0.24399323  0.12717414  1
  H  H27  1  0.40272663  0.74399323  0.37282586  1
  Cl  Cl28  1  0.61113432  0.62067068  0.64096582  1
  Cl  Cl29  1  0.38886568  0.12067068  0.85903418  1
  Cl  Cl30  1  0.38886568  0.37932932  0.35903418  1
  Cl  Cl31  1  0.61113432  0.87932932  0.14096582  1
  Cl  Cl32  1  0.71549159  0.85442576  0.82640914  1
  Cl  Cl33  1  0.28450841  0.35442576  0.67359086  1
  Cl  Cl34  1  0.28450841  0.14557424  0.17359086  1
  Cl  Cl35  1  0.71549159  0.64557424  0.32640914  1
  Cl  Cl36  1  0.18347526  0.87376821  0.68548809  1
  Cl  Cl37  1  0.81652474  0.37376821  0.81451191  1
  Cl  Cl38  1  0.81652474  0.12623179  0.31451191  1
  Cl  Cl39  1  0.18347526  0.62623179  0.18548809  1
  Cl  Cl40  1  0.73174882  0.90206355  0.53307870  1
  Cl  Cl41  1  0.26825118  0.40206355  0.96692130  1
  Cl  Cl42  1  0.26825118  0.09793645  0.46692130  1
  Cl  Cl43  1  0.73174882  0.59793645  0.03307870  1
  O  O44  1  0.02778635  0.63347993  0.76276068  1
  O  O45  1  0.97221365  0.13347993  0.73723932  1
  O  O46  1  0.97221365  0.36652007  0.23723932  1
  O  O47  1  0.02778635  0.86652007  0.26276068  1
  O  O48  1  0.02808280  0.67184820  0.53070267  1
  O  O49  1  0.97191720  0.17184820  0.96929733  1
  O  O50  1  0.97191720  0.32815180  0.46929733  1
  O  O51  1  0.02808280  0.82815180  0.03070267  1
  O  O52  1  0.29570993  0.70943274  0.90992317  1
  O  O53  1  0.70429007  0.20943274  0.59007683  1
  O  O54  1  0.70429007  0.29056726  0.09007683  1
  O  O55  1  0.29570993  0.79056726  0.40992317  1
