# generated using pymatgen
data_Dy2CO5
_symmetry_space_group_name_H-M   'P 1'
_cell_length_a   3.89773316
_cell_length_b   3.86420226
_cell_length_c   15.23165008
_cell_angle_alpha   90.00079293
_cell_angle_beta   89.99967701
_cell_angle_gamma   120.28688572
_symmetry_Int_Tables_number   1
_chemical_formula_structural   Dy2CO5
_chemical_formula_sum   'Dy4 C2 O10'
_cell_volume   198.10105383
_cell_formula_units_Z   2
loop_
 _symmetry_equiv_pos_site_id
 _symmetry_equiv_pos_as_xyz
  1  'x, y, z'
loop_
 _atom_site_type_symbol
 _atom_site_label
 _atom_site_symmetry_multiplicity
 _atom_site_fract_x
 _atom_site_fract_y
 _atom_site_fract_z
 _atom_site_occupancy
  Dy  Dy0  1  0.32876128  0.66427975  0.09294835  1
  Dy  Dy1  1  0.32876469  0.66424428  0.40705190  1
  Dy  Dy2  1  0.66452846  0.33579356  0.59294829  1
  Dy  Dy3  1  0.66453341  0.33577477  0.90705210  1
  C  C4  1  0.83011181  0.91513147  0.24999986  1
  C  C5  1  0.91498043  0.08487612  0.75000003  1
  O  O6  1  0.33120471  0.66717547  0.55727802  1
  O  O7  1  0.00922141  0.00416745  0.32585979  1
  O  O8  1  0.00922197  0.00417512  0.17414023  1
  O  O9  1  0.00507535  0.99585939  0.67413935  1
  O  O10  1  0.00507063  0.99585312  0.82585945  1
  O  O11  1  0.33121665  0.66717803  0.94272264  1
  O  O12  1  0.44977668  0.72637554  0.25000010  1
  O  O13  1  0.66405310  0.33287440  0.05727756  1
  O  O14  1  0.66405370  0.33285362  0.44272259  1
  O  O15  1  0.72335673  0.27358791  0.75000074  1
