# generated using pymatgen
data_Sc13Cu13O33
_symmetry_space_group_name_H-M   'P 1'
_cell_length_a   5.96404456
_cell_length_b   5.96404481
_cell_length_c   76.29911479
_cell_angle_alpha   32.53957432
_cell_angle_beta   32.53957071
_cell_angle_gamma   33.36506237
_symmetry_Int_Tables_number   1
_chemical_formula_structural   Sc13Cu13O33
_chemical_formula_sum   'Sc13 Cu13 O33'
_cell_volume   708.77138457
_cell_formula_units_Z   1
loop_
 _symmetry_equiv_pos_site_id
 _symmetry_equiv_pos_as_xyz
  1  'x, y, z'
loop_
 _atom_site_type_symbol
 _atom_site_label
 _atom_site_symmetry_multiplicity
 _atom_site_fract_x
 _atom_site_fract_y
 _atom_site_fract_z
 _atom_site_occupancy
  Sc  Sc0  1  0.48854563  0.48854563  0.03913187  1
  Sc  Sc1  1  0.49778949  0.49778949  0.11508669  1
  Sc  Sc2  1  0.51538347  0.51538347  0.19279599  1
  Sc  Sc3  1  0.49550031  0.49550031  0.26832040  1
  Sc  Sc4  1  0.51555242  0.51555242  0.34649185  1
  Sc  Sc5  1  0.49378822  0.49378822  0.42245056  1
  Sc  Sc6  1  0.51432704  0.51432704  0.50064323  1
  Sc  Sc7  1  0.49288755  0.49288755  0.57680310  1
  Sc  Sc8  1  0.50411830  0.50411830  0.65239347  1
  Sc  Sc9  1  0.52180906  0.52180906  0.72990996  1
  Sc  Sc10  1  0.50792455  0.50792455  0.80722379  1
  Sc  Sc11  1  0.50433107  0.50433107  0.88506742  1
  Sc  Sc12  1  0.50150291  0.50150291  0.96314030  1
  Cu  Cu13  1  0.02039504  0.02039504  0.99602751  1
  Cu  Cu14  1  0.98070621  0.98070621  0.07917265  1
  Cu  Cu15  1  0.00128804  0.00128804  0.15425682  1
  Cu  Cu16  1  0.02085260  0.02085260  0.22670952  1
  Cu  Cu17  1  0.99053836  0.99053836  0.30943818  1
  Cu  Cu18  1  0.98944894  0.98944894  0.46350221  1
  Cu  Cu19  1  0.01632648  0.01632648  0.38119395  1
  Cu  Cu20  1  0.01720119  0.01720119  0.53518848  1
  Cu  Cu21  1  0.98348169  0.98348169  0.61710206  1
  Cu  Cu22  1  0.00191819  0.00191819  0.69226293  1
  Cu  Cu23  1  0.00973099  0.00973099  0.76721853  1
  Cu  Cu24  1  0.01375235  0.01375235  0.92063573  1
  Cu  Cu25  1  0.01024232  0.01024232  0.84390902  1
  O  O26  1  0.10671519  0.10671519  0.00835958  1
  O  O27  1  0.10683594  0.10683594  0.08463341  1
  O  O28  1  0.11762415  0.11762415  0.16190589  1
  O  O29  1  0.88612612  0.88612612  0.06871608  1
  O  O30  1  0.11615213  0.11615213  0.23755060  1
  O  O31  1  0.91556628  0.91556628  0.14180094  1
  O  O32  1  0.62934512  0.62934512  0.20734888  1
  O  O33  1  0.11451531  0.11451531  0.31579539  1
  O  O34  1  0.87079539  0.87079539  0.22472242  1
  O  O35  1  0.11354504  0.11354504  0.39175600  1
  O  O36  1  0.91225171  0.91225171  0.29591045  1
  O  O37  1  0.62276511  0.62276511  0.36210835  1
  O  O38  1  0.11226819  0.11226819  0.47006509  1
  O  O39  1  0.86955827  0.86955827  0.37863710  1
  O  O40  1  0.11320698  0.11320698  0.54599933  1
  O  O41  1  0.91068523  0.91068523  0.45004348  1
  O  O42  1  0.62188938  0.62188938  0.51634243  1
  O  O43  1  0.11245350  0.11245350  0.62204939  1
  O  O44  1  0.86808856  0.86808856  0.53298711  1
  O  O45  1  0.12532732  0.12532732  0.69865929  1
  O  O46  1  0.89029678  0.89029678  0.60649663  1
  O  O47  1  0.12342923  0.12342923  0.77560472  1
  O  O48  1  0.92353487  0.92353487  0.67881737  1
  O  O49  1  0.64099210  0.64099210  0.74391797  1
  O  O50  1  0.11337123  0.11337123  0.85382922  1
  O  O51  1  0.89119499  0.89119499  0.75978161  1
  O  O52  1  0.63124381  0.63124381  0.82306827  1
  O  O53  1  0.10877889  0.10877889  0.93199129  1
  O  O54  1  0.88916516  0.88916516  0.83693892  1
  O  O55  1  0.62308137  0.62308137  0.90140193  1
  O  O56  1  0.88590762  0.88590762  0.91461980  1
  O  O57  1  0.60504046  0.60504046  0.98051049  1
  O  O58  1  0.86377516  0.86377516  0.99500533  1
