# generated using pymatgen
data_Na2Zn(HO)4
_symmetry_space_group_name_H-M   'P 1'
_cell_length_a   8.09378741
_cell_length_b   6.63159792
_cell_length_c   8.70319768
_cell_angle_alpha   90.00000000
_cell_angle_beta   93.92690258
_cell_angle_gamma   90.00000000
_symmetry_Int_Tables_number   1
_chemical_formula_structural   Na2Zn(HO)4
_chemical_formula_sum   'Na8 Zn4 H16 O16'
_cell_volume   466.04516536
_cell_formula_units_Z   4
loop_
 _symmetry_equiv_pos_site_id
 _symmetry_equiv_pos_as_xyz
  1  'x, y, z'
loop_
 _atom_site_type_symbol
 _atom_site_label
 _atom_site_symmetry_multiplicity
 _atom_site_fract_x
 _atom_site_fract_y
 _atom_site_fract_z
 _atom_site_occupancy
  Na  Na0  1  0.77415952  0.56225108  0.28791582  1
  Na  Na1  1  0.27415952  0.93774892  0.78791582  1
  Na  Na2  1  0.22584048  0.43774892  0.71208418  1
  Na  Na3  1  0.72584048  0.06225108  0.21208418  1
  Na  Na4  1  0.49176695  0.74905288  0.50794457  1
  Na  Na5  1  0.99176695  0.75094712  0.00794457  1
  Na  Na6  1  0.50823305  0.25094712  0.49205543  1
  Na  Na7  1  0.00823305  0.24905288  0.99205543  1
  Zn  Zn8  1  0.95228189  0.74814944  0.63881110  1
  Zn  Zn9  1  0.45228189  0.75185056  0.13881110  1
  Zn  Zn10  1  0.04771811  0.25185056  0.36118890  1
  Zn  Zn11  1  0.54771811  0.24814944  0.86118890  1
  H  H12  1  0.28344217  0.54539120  0.97497806  1
  H  H13  1  0.78344217  0.95460880  0.47497806  1
  H  H14  1  0.71655783  0.45460880  0.02502194  1
  H  H15  1  0.21655783  0.04539120  0.52502194  1
  H  H16  1  0.66984651  0.81030193  0.96273559  1
  H  H17  1  0.16984651  0.68969807  0.46273559  1
  H  H18  1  0.33015349  0.18969807  0.03726441  1
  H  H19  1  0.83015349  0.31030193  0.53726441  1
  H  H20  1  0.16348132  0.53611570  0.22237770  1
  H  H21  1  0.66348132  0.96388430  0.72237770  1
  H  H22  1  0.83651868  0.46388430  0.77762230  1
  H  H23  1  0.33651868  0.03611570  0.27762230  1
  H  H24  1  0.53233438  0.59302987  0.75850686  1
  H  H25  1  0.03233438  0.90697013  0.25850686  1
  H  H26  1  0.46766562  0.40697013  0.24149314  1
  H  H27  1  0.96766562  0.09302987  0.74149314  1
  O  O28  1  0.27954880  0.69355555  0.97656643  1
  O  O29  1  0.77954880  0.80644445  0.47656643  1
  O  O30  1  0.72045120  0.30644445  0.02343357  1
  O  O31  1  0.22045120  0.19355555  0.52343357  1
  O  O32  1  0.18768646  0.74559623  0.56602951  1
  O  O33  1  0.68768646  0.75440377  0.06602951  1
  O  O34  1  0.81231354  0.25440377  0.43397049  1
  O  O35  1  0.31231354  0.24559623  0.93397049  1
  O  O36  1  0.95190250  0.50064058  0.77122719  1
  O  O37  1  0.45190250  0.99935942  0.27122719  1
  O  O38  1  0.04809750  0.49935942  0.22877281  1
  O  O39  1  0.54809750  0.00064058  0.72877281  1
  O  O40  1  0.47087514  0.53241527  0.29926666  1
  O  O41  1  0.97087514  0.96758473  0.79926666  1
  O  O42  1  0.52912486  0.46758473  0.70073334  1
  O  O43  1  0.02912486  0.03241527  0.20073334  1
