# generated using pymatgen
data_SrPHO4
_symmetry_space_group_name_H-M   'P 1'
_cell_length_a   8.19401214
_cell_length_b   9.42839399
_cell_length_c   18.27578035
_cell_angle_alpha   90.00000000
_cell_angle_beta   90.00000000
_cell_angle_gamma   90.00000000
_symmetry_Int_Tables_number   1
_chemical_formula_structural   SrPHO4
_chemical_formula_sum   'Sr16 P16 H16 O64'
_cell_volume   1411.92053675
_cell_formula_units_Z   16
loop_
 _symmetry_equiv_pos_site_id
 _symmetry_equiv_pos_as_xyz
  1  'x, y, z'
loop_
 _atom_site_type_symbol
 _atom_site_label
 _atom_site_symmetry_multiplicity
 _atom_site_fract_x
 _atom_site_fract_y
 _atom_site_fract_z
 _atom_site_occupancy
  Sr  Sr0  1  0.62153955  0.32105902  0.37486324  1
  Sr  Sr1  1  0.12153955  0.17894098  0.62513676  1
  Sr  Sr2  1  0.37846045  0.82105902  0.12513676  1
  Sr  Sr3  1  0.87846045  0.67894098  0.87486324  1
  Sr  Sr4  1  0.37846045  0.67894098  0.62513676  1
  Sr  Sr5  1  0.87846045  0.82105902  0.37486324  1
  Sr  Sr6  1  0.62153955  0.17894098  0.87486324  1
  Sr  Sr7  1  0.12153955  0.32105902  0.12513676  1
  Sr  Sr8  1  0.36942478  0.68249015  0.38256745  1
  Sr  Sr9  1  0.86942478  0.81750985  0.61743255  1
  Sr  Sr10  1  0.63057522  0.18249015  0.11743255  1
  Sr  Sr11  1  0.13057522  0.31750985  0.88256745  1
  Sr  Sr12  1  0.63057522  0.31750985  0.61743255  1
  Sr  Sr13  1  0.13057522  0.18249015  0.38256745  1
  Sr  Sr14  1  0.36942478  0.81750985  0.88256745  1
  Sr  Sr15  1  0.86942478  0.68249015  0.11743255  1
  P  P16  1  0.75168529  0.07939827  0.49584109  1
  P  P17  1  0.25168529  0.42060173  0.50415891  1
  P  P18  1  0.24831471  0.57939827  0.00415891  1
  P  P19  1  0.74831471  0.92060173  0.99584109  1
  P  P20  1  0.24831471  0.92060173  0.50415891  1
  P  P21  1  0.74831471  0.57939827  0.49584109  1
  P  P22  1  0.75168529  0.42060173  0.99584109  1
  P  P23  1  0.25168529  0.07939827  0.00415891  1
  P  P24  1  0.01784140  0.47860553  0.29420642  1
  P  P25  1  0.51784140  0.02139447  0.70579358  1
  P  P26  1  0.98215860  0.97860553  0.20579358  1
  P  P27  1  0.48215860  0.52139447  0.79420642  1
  P  P28  1  0.98215860  0.52139447  0.70579358  1
  P  P29  1  0.48215860  0.97860553  0.29420642  1
  P  P30  1  0.01784140  0.02139447  0.79420642  1
  P  P31  1  0.51784140  0.47860553  0.20579358  1
  H  H32  1  0.58570208  0.88691467  0.49642492  1
  H  H33  1  0.08570208  0.61308533  0.50357508  1
  H  H34  1  0.41429792  0.38691467  0.00357508  1
  H  H35  1  0.91429792  0.11308533  0.99642492  1
  H  H36  1  0.41429792  0.11308533  0.50357508  1
  H  H37  1  0.91429792  0.38691467  0.49642492  1
  H  H38  1  0.58570208  0.61308533  0.99642492  1
  H  H39  1  0.08570208  0.88691467  0.00357508  1
  H  H40  1  0.28586002  0.42388223  0.28119309  1
  H  H41  1  0.78586002  0.07611777  0.71880691  1
  H  H42  1  0.71413998  0.92388223  0.21880691  1
  H  H43  1  0.21413998  0.57611777  0.78119309  1
  H  H44  1  0.71413998  0.57611777  0.71880691  1
  H  H45  1  0.21413998  0.92388223  0.28119309  1
  H  H46  1  0.28586002  0.07611777  0.78119309  1
  H  H47  1  0.78586002  0.42388223  0.21880691  1
  O  O48  1  0.59020163  0.16417689  0.49651167  1
  O  O49  1  0.09020163  0.33582311  0.50348833  1
  O  O50  1  0.40979837  0.66417689  0.00348833  1
  O  O51  1  0.90979837  0.83582311  0.99651167  1
  O  O52  1  0.40979837  0.83582311  0.50348833  1
  O  O53  1  0.90979837  0.66417689  0.49651167  1
  O  O54  1  0.59020163  0.33582311  0.99651167  1
  O  O55  1  0.09020163  0.16417689  0.00348833  1
  O  O56  1  0.84648843  0.10399039  0.42456296  1
  O  O57  1  0.34648843  0.39600961  0.57543704  1
  O  O58  1  0.15351157  0.60399039  0.07543704  1
  O  O59  1  0.65351157  0.89600961  0.92456296  1
  O  O60  1  0.15351157  0.89600961  0.57543704  1
  O  O61  1  0.65351157  0.60399039  0.42456296  1
  O  O62  1  0.84648843  0.39600961  0.92456296  1
  O  O63  1  0.34648843  0.10399039  0.07543704  1
  O  O64  1  0.84921843  0.10581876  0.56640015  1
  O  O65  1  0.34921843  0.39418124  0.43359985  1
  O  O66  1  0.15078157  0.60581876  0.93359985  1
  O  O67  1  0.65078157  0.89418124  0.06640015  1
  O  O68  1  0.15078157  0.89418124  0.43359985  1
  O  O69  1  0.65078157  0.60581876  0.56640015  1
  O  O70  1  0.84921843  0.39418124  0.06640015  1
  O  O71  1  0.34921843  0.10581876  0.93359985  1
  O  O72  1  0.70864603  0.91194417  0.49744129  1
  O  O73  1  0.20864603  0.58805583  0.50255871  1
  O  O74  1  0.29135397  0.41194417  0.00255871  1
  O  O75  1  0.79135397  0.08805583  0.99744129  1
  O  O76  1  0.29135397  0.08805583  0.50255871  1
  O  O77  1  0.79135397  0.41194417  0.49744129  1
  O  O78  1  0.70864603  0.58805583  0.99744129  1
  O  O79  1  0.20864603  0.91194417  0.00255871  1
  O  O80  1  0.07647437  0.61883697  0.32750873  1
  O  O81  1  0.57647437  0.88116303  0.67249127  1
  O  O82  1  0.92352563  0.11883697  0.17249127  1
  O  O83  1  0.42352563  0.38116303  0.82750873  1
  O  O84  1  0.92352563  0.38116303  0.67249127  1
  O  O85  1  0.42352563  0.11883697  0.32750873  1
  O  O86  1  0.07647437  0.88116303  0.82750873  1
  O  O87  1  0.57647437  0.61883697  0.17249127  1
  O  O88  1  0.17192199  0.37415294  0.27893193  1
  O  O89  1  0.67192199  0.12584706  0.72106807  1
  O  O90  1  0.82807801  0.87415294  0.22106807  1
  O  O91  1  0.32807801  0.62584706  0.77893193  1
  O  O92  1  0.82807801  0.62584706  0.72106807  1
  O  O93  1  0.32807801  0.87415294  0.27893193  1
  O  O94  1  0.17192199  0.12584706  0.77893193  1
  O  O95  1  0.67192199  0.37415294  0.22106807  1
  O  O96  1  0.94159131  0.49932592  0.21663385  1
  O  O97  1  0.44159131  0.00067408  0.78336615  1
  O  O98  1  0.05840869  0.99932592  0.28336615  1
  O  O99  1  0.55840869  0.50067408  0.71663385  1
  O  O100  1  0.05840869  0.50067408  0.78336615  1
  O  O101  1  0.55840869  0.99932592  0.21663385  1
  O  O102  1  0.94159131  0.00067408  0.71663385  1
  O  O103  1  0.44159131  0.49932592  0.28336615  1
  O  O104  1  0.90913141  0.38774569  0.34301390  1
  O  O105  1  0.40913141  0.11225431  0.65698610  1
  O  O106  1  0.09086859  0.88774569  0.15698610  1
  O  O107  1  0.59086859  0.61225431  0.84301390  1
  O  O108  1  0.09086859  0.61225431  0.65698610  1
  O  O109  1  0.59086859  0.88774569  0.34301390  1
  O  O110  1  0.90913141  0.11225431  0.84301390  1
  O  O111  1  0.40913141  0.38774569  0.15698610  1
