# generated using pymatgen
data_Sr(AsO3)2
_symmetry_space_group_name_H-M   'P 1'
_cell_length_a   4.94746025
_cell_length_b   4.94683924
_cell_length_c   5.52334229
_cell_angle_alpha   89.99664152
_cell_angle_beta   90.00674585
_cell_angle_gamma   120.00408352
_symmetry_Int_Tables_number   1
_chemical_formula_structural   Sr(AsO3)2
_chemical_formula_sum   'Sr1 As2 O6'
_cell_volume   117.06439516
_cell_formula_units_Z   1
loop_
 _symmetry_equiv_pos_site_id
 _symmetry_equiv_pos_as_xyz
  1  'x, y, z'
loop_
 _atom_site_type_symbol
 _atom_site_label
 _atom_site_symmetry_multiplicity
 _atom_site_fract_x
 _atom_site_fract_y
 _atom_site_fract_z
 _atom_site_occupancy
  Sr  Sr0  1  0.00002178  0.00000089  -0.00000556  1
  As  As1  1  0.33342787  0.66685599  0.50000042  1
  As  As2  1  0.66657135  0.33314459  0.50000064  1
  O  O3  1  0.99997063  0.61749026  0.69151786  1
  O  O4  1  -0.00000592  0.38251528  0.30848222  1
  O  O5  1  0.38248081  0.38250932  0.69151711  1
  O  O6  1  0.61747760  0.61748383  0.30848218  1
  O  O7  1  0.38251997  0.99999992  0.30853300  1
  O  O8  1  0.61743692  0.99999992  0.69147212  1
