# generated using pymatgen
data_RbFeP2(HO4)2
_symmetry_space_group_name_H-M   'P 1'
_cell_length_a   18.47426111
_cell_length_b   18.47427730
_cell_length_c   18.47427726
_cell_angle_alpha   25.96889849
_cell_angle_beta   25.96872532
_cell_angle_gamma   25.96872615
_symmetry_Int_Tables_number   1
_chemical_formula_structural   RbFeP2(HO4)2
_chemical_formula_sum   'Rb6 Fe6 P12 H12 O48'
_cell_volume   1064.90643009
_cell_formula_units_Z   6
loop_
 _symmetry_equiv_pos_site_id
 _symmetry_equiv_pos_as_xyz
  1  'x, y, z'
loop_
 _atom_site_type_symbol
 _atom_site_label
 _atom_site_symmetry_multiplicity
 _atom_site_fract_x
 _atom_site_fract_y
 _atom_site_fract_z
 _atom_site_occupancy
  Rb  Rb0  1  0.75020297  0.75020931  0.75020403  1
  Rb  Rb1  1  0.25020297  0.25020403  0.25020931  1
  Rb  Rb2  1  0.83285739  0.83285339  0.83285954  1
  Rb  Rb3  1  0.33285739  0.33285954  0.33285339  1
  Rb  Rb4  1  0.16755847  0.16755993  0.16756427  1
  Rb  Rb5  1  0.66755847  0.66756427  0.66755993  1
  Fe  Fe6  1  0.41380808  0.41383858  0.41381794  1
  Fe  Fe7  1  0.91380808  0.91381794  0.91383858  1
  Fe  Fe8  1  0.58584036  0.58583556  0.58584562  1
  Fe  Fe9  1  0.08584036  0.08584562  0.08583556  1
  Fe  Fe10  1  0.49973646  0.49976138  0.49975162  1
  Fe  Fe11  1  0.99973646  0.99975162  0.99976138  1
  P  P12  1  0.75950977  0.20091125  0.40135525  1
  P  P13  1  0.20090565  0.40135371  0.75951506  1
  P  P14  1  0.40135167  0.75951610  0.20090839  1
  P  P15  1  0.25950977  0.90135525  0.70091125  1
  P  P16  1  0.90135167  0.70090839  0.25951610  1
  P  P17  1  0.70090565  0.25951506  0.90135371  1
  P  P18  1  0.24153020  0.79875085  0.59767464  1
  P  P19  1  0.79875092  0.59767164  0.24153245  1
  P  P20  1  0.59767135  0.24153143  0.79875236  1
  P  P21  1  0.74153020  0.09767464  0.29875085  1
  P  P22  1  0.09767135  0.29875236  0.74153143  1
  P  P23  1  0.29875092  0.74153245  0.09767164  1
  H  H24  1  0.41995977  0.01416328  0.92637890  1
  H  H25  1  0.01416877  0.92638507  0.41994878  1
  H  H26  1  0.92637707  0.41994977  0.01417575  1
  H  H27  1  0.91995977  0.42637890  0.51416328  1
  H  H28  1  0.42637707  0.51417575  0.91994977  1
  H  H29  1  0.51416877  0.91994878  0.42638507  1
  H  H30  1  0.57640623  0.99038401  0.07339700  1
  H  H31  1  0.99038421  0.07339801  0.57640633  1
  H  H32  1  0.07340437  0.57640444  0.99037724  1
  H  H33  1  0.07640623  0.57339700  0.49038401  1
  H  H34  1  0.57340437  0.49037724  0.07640444  1
  H  H35  1  0.49038421  0.07640633  0.57339801  1
  O  O36  1  0.70724168  0.31868189  0.41113549  1
  O  O37  1  0.31867236  0.41113529  0.70725061  1
  O  O38  1  0.41113208  0.70725011  0.31867780  1
  O  O39  1  0.20724168  0.91113549  0.81868189  1
  O  O40  1  0.91113208  0.81867780  0.20725011  1
  O  O41  1  0.81867236  0.20725061  0.91113529  1
  O  O42  1  0.29180914  0.68138811  0.58928521  1
  O  O43  1  0.68138364  0.58927685  0.29182373  1
  O  O44  1  0.58928090  0.29181757  0.68138510  1
  O  O45  1  0.79180914  0.08928521  0.18138811  1
  O  O46  1  0.08928090  0.18138510  0.79181757  1
  O  O47  1  0.18138364  0.79182373  0.08927685  1
  O  O48  1  0.59176591  0.20807063  0.50397795  1
  O  O49  1  0.20805708  0.50398556  0.59177259  1
  O  O50  1  0.50397832  0.59177479  0.20806071  1
  O  O51  1  0.09176591  0.00397795  0.70807063  1
  O  O52  1  0.00397832  0.70806071  0.09177479  1
  O  O53  1  0.70805708  0.09177259  0.00398556  1
  O  O54  1  0.40974719  0.79111361  0.49488161  1
  O  O55  1  0.79112171  0.49488177  0.40974062  1
  O  O56  1  0.49487652  0.40973907  0.79112823  1
  O  O57  1  0.90974719  0.99488161  0.29111361  1
  O  O58  1  0.99487652  0.29112823  0.90973907  1
  O  O59  1  0.29112171  0.90974062  0.99488177  1
  O  O60  1  0.88505081  0.98521131  0.50743775  1
  O  O61  1  0.98520531  0.50743561  0.88505736  1
  O  O62  1  0.50744438  0.88504748  0.98520718  1
  O  O63  1  0.38505081  0.00743775  0.48521130  1
  O  O64  1  0.00744438  0.48520718  0.38504748  1
  O  O65  1  0.48520531  0.38505736  0.00743561  1
  O  O66  1  0.11857215  0.01559971  0.48890936  1
  O  O67  1  0.01560005  0.48891228  0.11856442  1
  O  O68  1  0.48890818  0.11857018  0.01560086  1
  O  O69  1  0.61857215  0.98890936  0.51559971  1
  O  O70  1  0.98890818  0.51560086  0.61857018  1
  O  O71  1  0.51560005  0.61856442  0.98891228  1
  O  O72  1  0.30410828  0.25425656  0.60998978  1
  O  O73  1  0.25425421  0.60999486  0.30410638  1
  O  O74  1  0.60998860  0.30410960  0.25425726  1
  O  O75  1  0.80410828  0.10998978  0.75425656  1
  O  O76  1  0.10998860  0.75425726  0.80410960  1
  O  O77  1  0.75425421  0.80410638  0.10999486  1
  O  O78  1  0.69437525  0.74724678  0.38965676  1
  O  O79  1  0.74725052  0.38964827  0.69437660  1
  O  O80  1  0.38965202  0.69437866  0.74724723  1
  O  O81  1  0.19437525  0.88965676  0.24724678  1
  O  O82  1  0.88965202  0.24724723  0.19437866  1
  O  O83  1  0.24725052  0.19437660  0.88964827  1
