# generated using pymatgen
data_BaTi8O16
_symmetry_space_group_name_H-M   'P 1'
_cell_length_a   7.44892898
_cell_length_b   5.97462367
_cell_length_c   7.31568781
_cell_angle_alpha   78.15744170
_cell_angle_beta   89.42081378
_cell_angle_gamma   78.38260039
_symmetry_Int_Tables_number   1
_chemical_formula_structural   BaTi8O16
_chemical_formula_sum   'Ba1 Ti8 O16'
_cell_volume   311.95806137
_cell_formula_units_Z   1
loop_
 _symmetry_equiv_pos_site_id
 _symmetry_equiv_pos_as_xyz
  1  'x, y, z'
loop_
 _atom_site_type_symbol
 _atom_site_label
 _atom_site_symmetry_multiplicity
 _atom_site_fract_x
 _atom_site_fract_y
 _atom_site_fract_z
 _atom_site_occupancy
  Ba  Ba0  1  0.99929146  0.02124621  0.00016460  1
  Ti  Ti1  1  0.17978110  0.57707616  0.51804548  1
  Ti  Ti2  1  0.18435667  0.07683353  0.50444362  1
  Ti  Ti3  1  0.52965699  0.66296486  0.82099335  1
  Ti  Ti4  1  0.51381061  0.16914776  0.81279365  1
  Ti  Ti5  1  0.48828334  0.83150215  0.18661613  1
  Ti  Ti6  1  0.46842964  0.33837049  0.17910472  1
  Ti  Ti7  1  0.81552422  0.92261618  0.49715096  1
  Ti  Ti8  1  0.82071907  0.42524954  0.48044247  1
  O  O9  1  0.05436130  0.83014285  0.64536734  1
  O  O10  1  0.05541536  0.32255542  0.64350613  1
  O  O11  1  0.38240113  0.97828770  0.69594356  1
  O  O12  1  0.38625894  0.48470079  0.69377818  1
  O  O13  1  0.64536984  0.85280037  0.96333088  1
  O  O14  1  0.64281773  0.34603501  0.96235982  1
  O  O15  1  0.27945590  0.84061973  0.35696659  1
  O  O16  1  0.28466812  0.34024849  0.36525650  1
  O  O17  1  0.71507946  0.66052316  0.63497703  1
  O  O18  1  0.72082631  0.16228195  0.64299060  1
  O  O19  1  0.35406388  0.14940936  0.03685977  1
  O  O20  1  0.35830134  0.65588458  0.03780969  1
  O  O21  1  0.61745897  0.02373624  0.30395089  1
  O  O22  1  0.61370127  0.51636275  0.30640120  1
  O  O23  1  0.94436138  0.67964294  0.35700423  1
  O  O24  1  0.94560599  0.17281275  0.35374359  1
