# generated using pymatgen
data_Gd2(MoO4)3
_symmetry_space_group_name_H-M   'P 1'
_cell_length_a   7.51431879
_cell_length_b   7.51431879
_cell_length_c   10.81530351
_cell_angle_alpha   90.00000000
_cell_angle_beta   90.00000000
_cell_angle_gamma   90.00000000
_symmetry_Int_Tables_number   1
_chemical_formula_structural   Gd2(MoO4)3
_chemical_formula_sum   'Gd4 Mo6 O24'
_cell_volume   610.68597022
_cell_formula_units_Z   2
loop_
 _symmetry_equiv_pos_site_id
 _symmetry_equiv_pos_as_xyz
  1  'x, y, z'
loop_
 _atom_site_type_symbol
 _atom_site_label
 _atom_site_symmetry_multiplicity
 _atom_site_fract_x
 _atom_site_fract_y
 _atom_site_fract_z
 _atom_site_occupancy
  Gd  Gd0  1  0.18740688  0.18740688  0.26181139  1
  Gd  Gd1  1  0.81259312  0.81259312  0.26181139  1
  Gd  Gd2  1  0.68740688  0.31259312  0.73818861  1
  Gd  Gd3  1  0.31259312  0.68740688  0.73818861  1
  Mo  Mo4  1  0.20724458  0.20724458  0.64303806  1
  Mo  Mo5  1  0.79275542  0.79275542  0.64303806  1
  Mo  Mo6  1  0.70724458  0.29275542  0.35696194  1
  Mo  Mo7  1  0.29275542  0.70724458  0.35696194  1
  Mo  Mo8  1  0.00000000  0.50000000  0.00000000  1
  Mo  Mo9  1  0.50000000  0.00000000  0.00000000  1
  O  O10  1  0.19514452  0.19514452  0.47895789  1
  O  O11  1  0.80485548  0.80485548  0.47895789  1
  O  O12  1  0.69514452  0.30485548  0.52104211  1
  O  O13  1  0.30485548  0.69514452  0.52104211  1
  O  O14  1  0.62683688  0.62683688  0.68959751  1
  O  O15  1  0.37316312  0.37316312  0.68959751  1
  O  O16  1  0.12683688  0.87316312  0.31040249  1
  O  O17  1  0.87316312  0.12683688  0.31040249  1
  O  O18  1  0.77548470  0.50384271  0.29835358  1
  O  O19  1  0.22451530  0.49615729  0.29835358  1
  O  O20  1  0.50384271  0.77548470  0.29835358  1
  O  O21  1  0.49615729  0.22451530  0.29835358  1
  O  O22  1  0.00384271  0.72451530  0.70164642  1
  O  O23  1  0.99615729  0.27548470  0.70164642  1
  O  O24  1  0.72451530  0.00384271  0.70164642  1
  O  O25  1  0.27548470  0.99615729  0.70164642  1
  O  O26  1  0.81077524  0.45918216  0.90322399  1
  O  O27  1  0.18922476  0.54081784  0.90322399  1
  O  O28  1  0.45918216  0.81077524  0.90322399  1
  O  O29  1  0.54081784  0.18922476  0.90322399  1
  O  O30  1  0.95918216  0.68922476  0.09677601  1
  O  O31  1  0.04081784  0.31077524  0.09677601  1
  O  O32  1  0.68922476  0.95918216  0.09677601  1
  O  O33  1  0.31077524  0.04081784  0.09677601  1
