# generated using pymatgen
data_Sr3La9Mn11NiO36
_symmetry_space_group_name_H-M   'P 1'
_cell_length_a   5.57836332
_cell_length_b   16.62142412
_cell_length_c   9.58407796
_cell_angle_alpha   54.70947336
_cell_angle_beta   89.95970115
_cell_angle_gamma   89.98030953
_symmetry_Int_Tables_number   1
_chemical_formula_structural   Sr3La9Mn11NiO36
_chemical_formula_sum   'Sr3 La9 Mn11 Ni1 O36'
_cell_volume   725.33639821
_cell_formula_units_Z   1
loop_
 _symmetry_equiv_pos_site_id
 _symmetry_equiv_pos_as_xyz
  1  'x, y, z'
loop_
 _atom_site_type_symbol
 _atom_site_label
 _atom_site_symmetry_multiplicity
 _atom_site_fract_x
 _atom_site_fract_y
 _atom_site_fract_z
 _atom_site_occupancy
  Sr  Sr0  1  0.00493549  0.41951444  0.74928289  1
  Sr  Sr1  1  0.50576007  0.41571273  0.24885101  1
  Sr  Sr2  1  0.50572157  0.74667580  0.25101729  1
  La  La3  1  0.00465420  0.08548298  0.74722606  1
  La  La4  1  0.00380253  0.75190661  0.75089340  1
  La  La5  1  0.49342581  0.25618864  0.74696175  1
  La  La6  1  0.49257517  0.58362443  0.74967195  1
  La  La7  1  0.49120183  0.91893656  0.74885040  1
  La  La8  1  0.50514040  0.08155995  0.25211687  1
  La  La9  1  0.99174460  0.24891066  0.24779124  1
  La  La10  1  0.99246598  0.57870367  0.25428562  1
  La  La11  1  0.99035808  0.91262025  0.25245847  1
  Mn  Mn12  1  0.00041934  0.33405361  0.49888712  1
  Mn  Mn13  1  0.99903934  0.66640839  0.49922594  1
  Mn  Mn14  1  0.00198026  0.16639748  0.00066718  1
  Mn  Mn15  1  0.00017551  0.49951886  0.00048628  1
  Mn  Mn16  1  0.99699765  0.83306609  0.00056721  1
  Mn  Mn17  1  0.50054063  0.16722348  0.49923924  1
  Mn  Mn18  1  0.49976400  0.83338081  0.50010446  1
  Mn  Mn19  1  0.49956510  0.50013218  0.49983664  1
  Mn  Mn20  1  0.49971217  0.99980884  0.00033951  1
  Mn  Mn21  1  0.49935355  0.33426382  0.99910600  1
  Mn  Mn22  1  0.50136068  0.66598675  0.00154956  1
  Ni  Ni23  1  0.99940087  -0.00003291  0.49985785  1
  O  O24  1  0.06962786  0.08679695  0.24379709  1
  O  O25  1  0.05345898  0.41769689  0.25088749  1
  O  O26  1  0.05554251  0.75444747  0.24752603  1
  O  O27  1  0.24969540  0.07371373  0.54014469  1
  O  O28  1  0.24801247  0.40578430  0.53202914  1
  O  O29  1  0.24650567  0.74005746  0.54007139  1
  O  O30  1  0.25116039  0.26011010  0.96813522  1
  O  O31  1  0.24423275  0.59964162  0.95935607  1
  O  O32  1  0.24356641  0.93301218  0.95837189  1
  O  O33  1  0.25917742  0.23719642  0.54108107  1
  O  O34  1  0.26185009  0.90377908  0.54004103  1
  O  O35  1  0.25993952  0.57694188  0.53237291  1
  O  O36  1  0.25563637  0.09844533  0.95997728  1
  O  O37  1  0.26354902  0.43202072  0.96642856  1
  O  O38  1  0.25694274  0.76573959  0.95878330  1
  O  O39  1  0.43011315  0.24814132  0.25049881  1
  O  O40  1  0.43013631  0.58391428  0.24924442  1
  O  O41  1  0.42892568  0.91994766  0.24967335  1
  O  O42  1  0.56791231  0.08303710  0.74973178  1
  O  O43  1  0.55314144  0.41440086  0.75006909  1
  O  O44  1  0.56681882  0.74844523  0.75078210  1
  O  O45  1  0.74342098  0.23375673  0.04014687  1
  O  O46  1  0.74990439  0.57303918  0.03157776  1
  O  O47  1  0.74991550  0.90709270  0.03088401  1
  O  O48  1  0.73769811  0.09615737  0.46042679  1
  O  O49  1  0.74956018  0.42548936  0.47018131  1
  O  O50  1  0.74712360  0.76189721  0.46792885  1
  O  O51  1  0.75582352  0.06757033  0.04136106  1
  O  O52  1  0.76309890  0.40164840  0.03186637  1
  O  O53  1  0.76259717  0.73416665  0.03325458  1
  O  O54  1  0.76144724  0.25502544  0.46787268  1
  O  O55  1  0.74977261  0.92621017  0.46040229  1
  O  O56  1  0.76164376  0.59087090  0.46777991  1
  O  O57  1  0.93063645  0.24387445  0.75394336  1
  O  O58  1  0.93362148  0.58664992  0.74808646  1
  O  O59  1  0.92769600  0.91323693  0.75601105  1
