# generated using pymatgen
data_Li3CuF6
_symmetry_space_group_name_H-M   'P 1'
_cell_length_a   5.95194128
_cell_length_b   5.95194142
_cell_length_c   5.95194116
_cell_angle_alpha   91.24339461
_cell_angle_beta   91.24339798
_cell_angle_gamma   91.24340266
_symmetry_Int_Tables_number   1
_chemical_formula_structural   Li3CuF6
_chemical_formula_sum   'Li6 Cu2 F12'
_cell_volume   210.69998529
_cell_formula_units_Z   2
loop_
 _symmetry_equiv_pos_site_id
 _symmetry_equiv_pos_as_xyz
  1  'x, y, z'
loop_
 _atom_site_type_symbol
 _atom_site_label
 _atom_site_symmetry_multiplicity
 _atom_site_fract_x
 _atom_site_fract_y
 _atom_site_fract_z
 _atom_site_occupancy
  Li  Li0  1  0.06820266  0.24901854  0.55824313  1
  Li  Li1  1  0.24901854  0.55824313  0.06820266  1
  Li  Li2  1  0.44175687  0.93179734  0.75098146  1
  Li  Li3  1  0.55824313  0.06820266  0.24901854  1
  Li  Li4  1  0.75098146  0.44175687  0.93179734  1
  Li  Li5  1  0.93179734  0.75098146  0.44175687  1
  Cu  Cu6  1  0.00000000  0.00000000  0.00000000  1
  Cu  Cu7  1  0.50000000  0.50000000  0.50000000  1
  F  F8  1  0.07262765  0.92512222  0.69492703  1
  F  F9  1  0.07487778  0.30507297  0.92737235  1
  F  F10  1  0.19483322  0.54670506  0.40436608  1
  F  F11  1  0.30507297  0.92737235  0.07487778  1
  F  F12  1  0.40436608  0.19483322  0.54670506  1
  F  F13  1  0.45329494  0.59563392  0.80516678  1
  F  F14  1  0.54670506  0.40436608  0.19483322  1
  F  F15  1  0.59563392  0.80516678  0.45329494  1
  F  F16  1  0.69492703  0.07262765  0.92512222  1
  F  F17  1  0.80516678  0.45329494  0.59563392  1
  F  F18  1  0.92512222  0.69492703  0.07262765  1
  F  F19  1  0.92737235  0.07487778  0.30507297  1
