# generated using pymatgen
data_Na2SnO3
_symmetry_space_group_name_H-M   'P 1'
_cell_length_a   6.66755814
_cell_length_b   5.61230492
_cell_length_c   11.21315388
_cell_angle_alpha   85.74834256
_cell_angle_beta   155.40307606
_cell_angle_gamma   105.86082957
_symmetry_Int_Tables_number   1
_chemical_formula_structural   Na2SnO3
_chemical_formula_sum   'Na4 Sn2 O6'
_cell_volume   151.23403337
_cell_formula_units_Z   2
loop_
 _symmetry_equiv_pos_site_id
 _symmetry_equiv_pos_as_xyz
  1  'x, y, z'
loop_
 _atom_site_type_symbol
 _atom_site_label
 _atom_site_symmetry_multiplicity
 _atom_site_fract_x
 _atom_site_fract_y
 _atom_site_fract_z
 _atom_site_occupancy
  Na  Na0  1  0.49177630  0.49609095  0.99790933  1
  Na  Na1  1  0.18067133  0.18579822  0.34103000  1
  Na  Na2  1  0.83292482  0.81986190  0.66826725  1
  Na  Na3  1  0.99527249  0.49757455  0.99741362  1
  Sn  Sn4  1  0.33624923  0.83423927  0.66775383  1
  Sn  Sn5  1  0.66767421  0.16469908  0.33484617  1
  O  O6  1  0.33276531  0.13226542  0.77269709  1
  O  O7  1  0.66843336  0.86586760  0.22832556  1
  O  O8  1  0.19242587  0.49702668  0.48940838  1
  O  O9  1  0.07174264  0.87183853  0.14201090  1
  O  O10  1  0.93389263  0.13200547  0.86126286  1
  O  O11  1  0.81360380  0.50194233  0.51365202  1
