# generated using pymatgen
data_NaSbO2
_symmetry_space_group_name_H-M   'P 1'
_cell_length_a   5.41264910
_cell_length_b   5.41264910
_cell_length_c   5.64064181
_cell_angle_alpha   63.91933538
_cell_angle_beta   116.08066462
_cell_angle_gamma   88.92163758
_symmetry_Int_Tables_number   1
_chemical_formula_structural   NaSbO2
_chemical_formula_sum   'Na2 Sb2 O4'
_cell_volume   128.62247268
_cell_formula_units_Z   2
loop_
 _symmetry_equiv_pos_site_id
 _symmetry_equiv_pos_as_xyz
  1  'x, y, z'
loop_
 _atom_site_type_symbol
 _atom_site_label
 _atom_site_symmetry_multiplicity
 _atom_site_fract_x
 _atom_site_fract_y
 _atom_site_fract_z
 _atom_site_occupancy
  Na  Na0  1  0.37688320  0.37688320  0.75000000  1
  Na  Na1  1  0.62311680  0.62311680  0.25000000  1
  Sb  Sb2  1  0.89205358  0.89205358  0.75000000  1
  Sb  Sb3  1  0.10794642  0.10794642  0.25000000  1
  O  O4  1  0.25957055  0.85641659  0.74733144  1
  O  O5  1  0.14358341  0.74042945  0.24733144  1
  O  O6  1  0.85641659  0.25957055  0.75266856  1
  O  O7  1  0.74042945  0.14358341  0.25266856  1
