# generated using pymatgen
data_Y15TmO24
_symmetry_space_group_name_H-M   'P 1'
_cell_length_a   9.26196171
_cell_length_b   9.25781350
_cell_length_c   9.26196171
_cell_angle_alpha   109.46506756
_cell_angle_beta   109.48011464
_cell_angle_gamma   109.48663031
_symmetry_Int_Tables_number   1
_chemical_formula_structural   Y15TmO24
_chemical_formula_sum   'Y15 Tm1 O24'
_cell_volume   611.21663539
_cell_formula_units_Z   1
loop_
 _symmetry_equiv_pos_site_id
 _symmetry_equiv_pos_as_xyz
  1  'x, y, z'
loop_
 _atom_site_type_symbol
 _atom_site_label
 _atom_site_symmetry_multiplicity
 _atom_site_fract_x
 _atom_site_fract_y
 _atom_site_fract_z
 _atom_site_occupancy
  Y  Y0  1  0.49919004  0.99957961  0.99964999  1
  Y  Y1  1  0.96685740  0.25000000  0.21685740  1
  Y  Y2  1  0.78344953  0.03262658  0.75007583  1
  Y  Y3  1  0.71744926  0.46737342  0.25082295  1
  Y  Y4  1  0.75028335  0.78298540  0.03268716  1
  Y  Y5  1  0.75062302  0.28403475  0.53366201  1
  Y  Y6  1  0.00007038  0.50042039  0.99961042  1
  Y  Y7  1  0.53302898  0.75000000  0.28302898  1
  Y  Y8  1  0.50080911  0.50055070  0.50058886  1
  Y  Y9  1  0.46695098  0.25000000  0.71695098  1
  Y  Y10  1  0.00003816  0.99944930  0.50025841  1
  Y  Y11  1  0.24970175  0.71701460  0.46729795  1
  Y  Y12  1  0.24962826  0.21596525  0.96658827  1
  Y  Y13  1  0.21669388  0.96667366  0.24923891  1
  Y  Y14  1  0.28256525  0.53332634  0.75002022  1
  Tm  Tm15  1  0.03368398  0.75000000  0.78368398  1
  O  O16  1  0.76153182  0.03210742  0.48949876  1
  O  O17  1  0.73866492  0.22802424  0.27088887  1
  O  O18  1  0.26965048  0.00796461  0.04018578  1
  O  O19  1  0.96799223  0.51089634  0.23867068  1
  O  O20  1  0.77198108  0.72910922  0.26092181  1
  O  O21  1  0.46815787  0.22928330  0.45689091  1
  O  O22  1  0.45739134  0.46789258  0.22942440  1
  O  O23  1  0.04286462  0.27197576  0.01064068  1
  O  O24  1  0.72921984  0.26104646  0.77194422  1
  O  O25  1  0.01084084  0.04267177  0.27203266  1
  O  O26  1  0.77430455  0.54581165  0.53531826  1
  O  O27  1  0.48930204  0.76115502  0.03194300  1
  O  O28  1  0.22935989  0.45732823  0.46816807  1
  O  O29  1  0.27078898  0.73884498  0.22814803  1
  O  O30  1  0.98950661  0.95418835  0.72849290  1
  O  O31  1  0.51089776  0.23895354  0.96817237  1
  O  O32  1  0.54266023  0.53189881  0.77080178  1
  O  O33  1  0.95772040  0.72852529  0.98634876  1
  O  O34  1  0.53181359  0.77089078  0.54287186  1
  O  O35  1  0.22760761  0.27071670  0.73887357  1
  O  O36  1  0.72777334  0.98910366  0.95709589  1
  O  O37  1  0.03222118  0.49203539  0.76168587  1
  O  O38  1  0.23890297  0.96810119  0.51076142  1
  O  O39  1  0.25782347  0.77147471  0.72919412  1
