# generated using pymatgen
data_Ba2GaP4HO14
_symmetry_space_group_name_H-M   'P 1'
_cell_length_a   4.84903632
_cell_length_b   7.66364021
_cell_length_c   8.68009674
_cell_angle_alpha   108.07905020
_cell_angle_beta   97.03796405
_cell_angle_gamma   105.77939360
_symmetry_Int_Tables_number   1
_chemical_formula_structural   Ba2GaP4HO14
_chemical_formula_sum   'Ba2 Ga1 P4 H1 O14'
_cell_volume   287.43551352
_cell_formula_units_Z   1
loop_
 _symmetry_equiv_pos_site_id
 _symmetry_equiv_pos_as_xyz
  1  'x, y, z'
loop_
 _atom_site_type_symbol
 _atom_site_label
 _atom_site_symmetry_multiplicity
 _atom_site_fract_x
 _atom_site_fract_y
 _atom_site_fract_z
 _atom_site_occupancy
  Ba  Ba0  1  0.14596672  0.47356639  0.74097577  1
  Ba  Ba1  1  0.85403328  0.52643361  0.25902423  1
  Ga  Ga2  1  0.00000000  0.00000000  0.00000000  1
  P  P3  1  0.45422906  0.81701135  0.13868673  1
  P  P4  1  0.62549108  0.82815449  0.62577169  1
  P  P5  1  0.37450892  0.17184551  0.37422831  1
  P  P6  1  0.54577094  0.18298865  0.86131327  1
  H  H7  1  0.00000000  0.00000000  0.50000000  1
  O  O8  1  0.26090536  0.83777860  0.99493455  1
  O  O9  1  0.33412833  0.66937053  0.53308616  1
  O  O10  1  0.42055283  0.96034767  0.31148814  1
  O  O11  1  0.21990378  0.13239543  0.86761763  1
  O  O12  1  0.15656551  0.14804625  0.48835915  1
  O  O13  1  0.34397945  0.61238977  0.14195504  1
  O  O14  1  0.25185210  0.20693631  0.21727399  1
  O  O15  1  0.74814790  0.79306369  0.78272601  1
  O  O16  1  0.65602055  0.38761023  0.85804496  1
  O  O17  1  0.84343449  0.85195375  0.51164085  1
  O  O18  1  0.78009622  0.86760457  0.13238237  1
  O  O19  1  0.57944717  0.03965233  0.68851186  1
  O  O20  1  0.66587167  0.33062947  0.46691384  1
  O  O21  1  0.73909464  0.16222140  0.00506545  1
