# generated using pymatgen
data_Zr25Sc6O59
_symmetry_space_group_name_H-M   'P 1'
_cell_length_a   13.08281383
_cell_length_b   13.07842367
_cell_length_c   13.08596600
_cell_angle_alpha   99.87979780
_cell_angle_beta   99.91683076
_cell_angle_gamma   100.04026142
_symmetry_Int_Tables_number   1
_chemical_formula_structural   Zr25Sc6O59
_chemical_formula_sum   'Zr50 Sc12 O118'
_cell_volume   2124.38144360
_cell_formula_units_Z   2
loop_
 _symmetry_equiv_pos_site_id
 _symmetry_equiv_pos_as_xyz
  1  'x, y, z'
loop_
 _atom_site_type_symbol
 _atom_site_label
 _atom_site_symmetry_multiplicity
 _atom_site_fract_x
 _atom_site_fract_y
 _atom_site_fract_z
 _atom_site_occupancy
  Zr  Zr0  1  0.14839183  0.77373012  0.81868293  1
  Zr  Zr1  1  0.08508203  0.38691981  0.82853246  1
  Zr  Zr2  1  0.08841619  0.51127240  0.61547532  1
  Zr  Zr3  1  0.16600309  0.91095118  0.61387073  1
  Zr  Zr4  1  0.03227016  0.11299052  0.60355541  1
  Zr  Zr5  1  0.05516215  0.27654771  0.41888911  1
  Zr  Zr6  1  0.13479687  0.67320600  0.43717785  1
  Zr  Zr7  1  0.08535258  0.44782610  0.23198022  1
  Zr  Zr8  1  0.00892801  0.01993767  0.20401781  1
  Zr  Zr9  1  0.01599485  0.19670615  0.01402627  1
  Zr  Zr10  1  0.17688455  0.84577958  0.22277481  1
  Zr  Zr11  1  0.11114992  0.60806984  0.03949855  1
  Zr  Zr12  1  0.22228709  0.17839140  0.84468157  1
  Zr  Zr13  1  0.39368872  0.95949638  0.88716257  1
  Zr  Zr14  1  0.32574081  0.56304567  0.85942900  1
  Zr  Zr15  1  0.26177346  0.32859126  0.65593167  1
  Zr  Zr16  1  0.34155775  0.73553005  0.67024568  1
  Zr  Zr17  1  0.22768098  0.09019303  0.44685489  1
  Zr  Zr18  1  0.30200838  0.48818371  0.46956932  1
  Zr  Zr19  1  0.38335185  0.90542079  0.48948567  1
  Zr  Zr20  1  0.23441882  0.23699449  0.23773305  1
  Zr  Zr21  1  0.32755189  0.65889507  0.26273600  1
  Zr  Zr22  1  0.27219564  0.41876072  0.06661474  1
  Zr  Zr23  1  0.19426267  0.01092841  0.01823038  1
  Zr  Zr24  1  0.55355208  0.77013403  0.91075094  1
  Zr  Zr25  1  0.49214149  0.38408579  0.90565185  1
  Zr  Zr26  1  0.58532384  0.93506763  0.72451395  1
  Zr  Zr27  1  0.43819638  0.14159442  0.67437529  1
  Zr  Zr28  1  0.51437428  0.53027972  0.69683565  1
  Zr  Zr29  1  0.53304809  0.69567850  0.51180628  1
  Zr  Zr30  1  0.47241744  0.30398663  0.48864942  1
  Zr  Zr31  1  0.49228407  0.47223007  0.30614603  1
  Zr  Zr32  1  0.56408198  0.85979387  0.32524831  1
  Zr  Zr33  1  0.41935202  0.06405065  0.27313529  1
  Zr  Zr34  1  0.51132562  0.61771456  0.09569108  1
  Zr  Zr35  1  0.44693221  0.23107980  0.09098186  1
  Zr  Zr36  1  0.61780493  0.16991017  0.91103249  1
  Zr  Zr37  1  0.80421053  0.98534621  0.97768417  1
  Zr  Zr38  1  0.73126741  0.58334924  0.93368034  1
  Zr  Zr39  1  0.68108934  0.34387485  0.73190952  1
  Zr  Zr40  1  0.77072530  0.76173228  0.76258833  1
  Zr  Zr41  1  0.62298669  0.09546879  0.51058393  1
  Zr  Zr42  1  0.70555452  0.51043006  0.53028740  1
  Zr  Zr43  1  0.77529444  0.91002738  0.55344308  1
  Zr  Zr44  1  0.66509485  0.26375685  0.33132275  1
  Zr  Zr45  1  0.74405354  0.67201375  0.34331661  1
  Zr  Zr46  1  0.67888470  0.43892909  0.14312843  1
  Zr  Zr47  1  0.60941480  0.03962697  0.11643469  1
  Zr  Zr48  1  0.77948720  0.82028043  0.15639049  1
  Zr  Zr49  1  0.88549194  0.39395152  0.96297806  1
  Sc  Sc50  1  0.38285207  0.82836768  0.08744905  1
  Sc  Sc51  1  0.82264849  0.15262393  0.77351081  1
  Sc  Sc52  1  0.97739204  0.80033257  0.98540110  1
  Sc  Sc53  1  0.98404951  0.97800710  0.80034470  1
  Sc  Sc54  1  0.90797500  0.55455651  0.76907309  1
  Sc  Sc55  1  0.85923346  0.32491541  0.56334968  1
  Sc  Sc56  1  0.93370757  0.72345160  0.57840045  1
  Sc  Sc57  1  0.95968619  0.88389134  0.39402946  1
  Sc  Sc58  1  0.83012732  0.08742826  0.38317669  1
  Sc  Sc59  1  0.90386769  0.48815170  0.38327404  1
  Sc  Sc60  1  0.91330574  0.61744417  0.17439969  1
  Sc  Sc61  1  0.84745498  0.22567551  0.18181134  1
  O  O62  1  0.07906483  0.89598069  0.89632323  1
  O  O63  1  0.08877415  0.70858995  0.93564581  1
  O  O64  1  0.06624370  0.82036164  0.68872701  1
  O  O65  1  0.04316825  0.62622672  0.72295609  1
  O  O66  1  0.01405076  0.59971238  0.51022919  1
  O  O67  1  0.05621576  0.79791800  0.48272524  1
  O  O68  1  0.06601464  0.91201366  0.29252055  1
  O  O69  1  0.01633101  0.58480317  0.30500618  1
  O  O70  1  0.03990543  0.71854898  0.12686285  1
  O  O71  1  0.00117361  0.50402670  0.09970030  1
  O  O72  1  0.10053076  0.92340996  0.10510234  1
  O  O73  1  0.10645162  0.10252231  0.92364413  1
  O  O74  1  0.20353756  0.51640478  0.94528245  1
  O  O75  1  0.12805352  0.25346330  0.72740238  1
  O  O76  1  0.17980050  0.31042795  0.93218509  1
  O  O77  1  0.28136034  0.87738290  0.96306247  1
  O  O78  1  0.19903192  0.45823080  0.73850680  1
  O  O79  1  0.27314470  0.87217631  0.74689634  1
  O  O80  1  0.12852300  0.03954218  0.71763277  1
  O  O81  1  0.26168319  0.67918476  0.78731664  1
  O  O82  1  0.09999804  0.00289744  0.50564401  1
  O  O83  1  0.21610817  0.61068254  0.56515683  1
  O  O84  1  0.18545562  0.40504493  0.53753052  1
  O  O85  1  0.15378738  0.20739971  0.53207515  1
  O  O86  1  0.26136677  0.80195038  0.54299684  1
  O  O87  1  0.21449923  0.74059671  0.32281888  1
  O  O88  1  0.12550701  0.13340313  0.32737814  1
  O  O89  1  0.20564684  0.54796966  0.35788010  1
  O  O90  1  0.28067329  0.95918017  0.37410282  1
  O  O91  1  0.16736299  0.34263194  0.33057477  1
  O  O92  1  0.13505051  0.32947281  0.12347782  1
  O  O93  1  0.12298101  0.12449737  0.12369566  1
  O  O94  1  0.20605244  0.53293047  0.15302045  1
  O  O95  1  0.25303902  0.72628785  0.12827647  1
  O  O96  1  0.30905439  0.93296153  0.17882360  1
  O  O97  1  0.29299784  0.06542065  0.91054891  1
  O  O98  1  0.41539683  0.69346000  0.98539987  1
  O  O99  1  0.39995086  0.49022618  0.98653255  1
  O  O100  1  0.37313242  0.27973626  0.95844535  1
  O  O101  1  0.32262737  0.21372885  0.73942498  1
  O  O102  1  0.49565871  0.90015310  0.99807828  1
  O  O103  1  0.38905468  0.43472570  0.78478607  1
  O  O104  1  0.46756341  0.84637870  0.79297218  1
  O  O105  1  0.45175312  0.64203196  0.79411109  1
  O  O106  1  0.30615518  0.01389541  0.58561712  1
  O  O107  1  0.41348841  0.61116632  0.58887661  1
  O  O108  1  0.38896972  0.41122183  0.58665294  1
  O  O109  1  0.46269764  0.81454994  0.59566252  1
  O  O110  1  0.35732172  0.20468633  0.54710502  1
  O  O111  1  0.43442160  0.78467535  0.38902726  1
  O  O112  1  0.32964723  0.16633424  0.34168150  1
  O  O113  1  0.41130772  0.58664890  0.38869302  1
  O  O114  1  0.38239449  0.38289638  0.38287332  1
  O  O115  1  0.49058419  0.98718843  0.40125580  1
  O  O116  1  0.34178714  0.32861024  0.16609559  1
  O  O117  1  0.40287277  0.53566229  0.18467419  1
  O  O118  1  0.32804657  0.12324642  0.13308010  1
  O  O119  1  0.45702389  0.73776438  0.19834342  1
  O  O120  1  0.51795688  0.94755264  0.20545884  1
  O  O121  1  0.48325139  0.05488574  0.79691288  1
  O  O122  1  0.54180201  0.26133017  0.80175699  1
  O  O123  1  0.67004772  0.87795929  0.86718800  1
  O  O124  1  0.59648328  0.46488303  0.81580839  1
  O  O125  1  0.65589190  0.67088971  0.83231093  1
  O  O126  1  0.50878805  0.01356009  0.60033335  1
  O  O127  1  0.61653247  0.61587801  0.61669333  1
  O  O128  1  0.58784756  0.41286692  0.61161677  1
  O  O129  1  0.66868019  0.83038927  0.65774912  1
  O  O130  1  0.56361826  0.21558745  0.60950267  1
  O  O131  1  0.64126020  0.79646905  0.45366690  1
  O  O132  1  0.53665385  0.18515317  0.40336823  1
  O  O133  1  0.61101605  0.58940172  0.41427513  1
  O  O134  1  0.58529362  0.38904191  0.41105969  1
  O  O135  1  0.69333366  0.98590361  0.41385706  1
  O  O136  1  0.54621943  0.35952030  0.20351563  1
  O  O137  1  0.53130539  0.15428256  0.20612490  1
  O  O138  1  0.61024128  0.56519692  0.21675680  1
  O  O139  1  0.50460499  0.09965992  0.00225801  1
  O  O140  1  0.67602197  0.78650697  0.25895495  1
  O  O141  1  0.62636766  0.72058087  0.04155594  1
  O  O142  1  0.59935806  0.50997203  0.01449279  1
  O  O143  1  0.58493476  0.30544270  0.01405591  1
  O  O144  1  0.70835961  0.93457108  0.08896076  1
  O  O145  1  0.68987895  0.06631920  0.82032056  1
  O  O146  1  0.74633317  0.27479875  0.87405898  1
  O  O147  1  0.79553395  0.46814608  0.84636330  1
  O  O148  1  0.87552559  0.87756070  0.87698854  1
  O  O149  1  0.86250226  0.67225861  0.87558251  1
  O  O150  1  0.83157172  0.65473055  0.66781359  1
  O  O151  1  0.71647236  0.03728088  0.62621897  1
  O  O152  1  0.79146321  0.44797879  0.64381167  1
  O  O153  1  0.87415625  0.86568864  0.67393984  1
  O  O154  1  0.78417819  0.25728406  0.67740634  1
  O  O155  1  0.73958041  0.19791154  0.45780781  1
  O  O156  1  0.84527532  0.79397262  0.46625729  1
  O  O157  1  0.81539881  0.59700662  0.46323310  1
  O  O158  1  0.78218344  0.39105727  0.43472797  1
  O  O159  1  0.89956419  0.99849941  0.49539070  1
  O  O160  1  0.73860853  0.32150046  0.21269073  1
  O  O161  1  0.87725256  0.96155415  0.27862118  1
  O  O162  1  0.72578612  0.12829143  0.25306927  1
  O  O163  1  0.80262039  0.54343201  0.26167100  1
  O  O164  1  0.71664681  0.12234580  0.03439694  1
  O  O165  1  0.82048954  0.68928521  0.06827271  1
  O  O166  1  0.87040749  0.74735887  0.27252203  1
  O  O167  1  0.79421647  0.48101201  0.05190648  1
  O  O168  1  0.89471636  0.89835670  0.07643514  1
  O  O169  1  0.89737046  0.08057800  0.89698032  1
  O  O170  1  0.99868000  0.49519966  0.90177240  1
  O  O171  1  0.96570909  0.28302003  0.87742676  1
  O  O172  1  0.98719511  0.41336537  0.69336032  1
  O  O173  1  0.93549480  0.08803599  0.70837721  1
  O  O174  1  0.94858704  0.20543728  0.51635071  1
  O  O175  1  0.98516819  0.39983932  0.48975923  1
  O  O176  1  0.96110586  0.37104536  0.28257581  1
  O  O177  1  0.93459970  0.17474853  0.30809386  1
  O  O178  1  0.91197825  0.29195665  0.06519119  1
  O  O179  1  0.92174369  0.10480959  0.10131162  1
