# generated using pymatgen
data_Sr2RhO4
_symmetry_space_group_name_H-M   'P 1'
_cell_length_a   5.49458117
_cell_length_b   13.71693377
_cell_length_c   5.49458117
_cell_angle_alpha   78.44639786
_cell_angle_beta   90.00000000
_cell_angle_gamma   101.55360214
_symmetry_Int_Tables_number   1
_chemical_formula_structural   Sr2RhO4
_chemical_formula_sum   'Sr8 Rh4 O16'
_cell_volume   397.16078293
_cell_formula_units_Z   4
loop_
 _symmetry_equiv_pos_site_id
 _symmetry_equiv_pos_as_xyz
  1  'x, y, z'
loop_
 _atom_site_type_symbol
 _atom_site_label
 _atom_site_symmetry_multiplicity
 _atom_site_fract_x
 _atom_site_fract_y
 _atom_site_fract_z
 _atom_site_occupancy
  Sr  Sr0  1  0.94979075  0.39958150  0.30020925  1
  Sr  Sr1  1  0.80020925  0.10041850  0.44979075  1
  Sr  Sr2  1  0.55020925  0.60041850  0.19979075  1
  Sr  Sr3  1  0.69979075  0.89958150  0.05020925  1
  Sr  Sr4  1  0.30020925  0.10041850  0.94979075  1
  Sr  Sr5  1  0.44979075  0.39958150  0.80020925  1
  Sr  Sr6  1  0.05020925  0.60041850  0.69979075  1
  Sr  Sr7  1  0.19979075  0.89958150  0.55020925  1
  Rh  Rh8  1  0.12500000  0.75000000  0.12500000  1
  Rh  Rh9  1  0.37500000  0.25000000  0.37500000  1
  Rh  Rh10  1  0.87500000  0.25000000  0.87500000  1
  Rh  Rh11  1  0.62500000  0.75000000  0.62500000  1
  O  O12  1  0.56845482  0.25000000  0.06845482  1
  O  O13  1  0.06845482  0.25000000  0.18154518  1
  O  O14  1  0.04495800  0.58991501  0.20504200  1
  O  O15  1  0.20504200  0.91008499  0.04495800  1
  O  O16  1  0.29495800  0.08991501  0.45504200  1
  O  O17  1  0.45504200  0.41008499  0.29495800  1
  O  O18  1  0.68154518  0.25000000  0.56845482  1
  O  O19  1  0.81845482  0.75000000  0.31845482  1
  O  O20  1  0.31845482  0.75000000  0.43154518  1
  O  O21  1  0.18154518  0.25000000  0.68154518  1
  O  O22  1  0.95504200  0.41008499  0.79495800  1
  O  O23  1  0.54495800  0.58991501  0.70504200  1
  O  O24  1  0.70504200  0.91008499  0.54495800  1
  O  O25  1  0.79495800  0.08991501  0.95504200  1
  O  O26  1  0.93154518  0.75000000  0.81845482  1
  O  O27  1  0.43154518  0.75000000  0.93154518  1
