# generated using pymatgen
data_NaPH4SO8
_symmetry_space_group_name_H-M   'P 1'
_cell_length_a   5.47281055
_cell_length_b   6.84533310
_cell_length_c   8.82088015
_cell_angle_alpha   90.00000000
_cell_angle_beta   95.42208450
_cell_angle_gamma   90.00000000
_symmetry_Int_Tables_number   1
_chemical_formula_structural   NaPH4SO8
_chemical_formula_sum   'Na2 P2 H8 S2 O16'
_cell_volume   328.97989782
_cell_formula_units_Z   2
loop_
 _symmetry_equiv_pos_site_id
 _symmetry_equiv_pos_as_xyz
  1  'x, y, z'
loop_
 _atom_site_type_symbol
 _atom_site_label
 _atom_site_symmetry_multiplicity
 _atom_site_fract_x
 _atom_site_fract_y
 _atom_site_fract_z
 _atom_site_occupancy
  Na  Na0  1  0.01303321  0.13958446  0.44572681  1
  Na  Na1  1  0.98696679  0.63958446  0.55427319  1
  P  P2  1  0.11846589  0.88045069  0.87832307  1
  P  P3  1  0.88153411  0.38045069  0.12167693  1
  H  H4  1  0.08697657  0.49612660  0.93147808  1
  H  H5  1  0.15403471  0.58016627  0.24916090  1
  H  H6  1  0.42822071  0.08597690  0.86118753  1
  H  H7  1  0.45169118  0.61012659  0.77809033  1
  H  H8  1  0.54830882  0.11012659  0.22190967  1
  H  H9  1  0.57177929  0.58597690  0.13881247  1
  H  H10  1  0.84596529  0.08016627  0.75083910  1
  H  H11  1  0.91302343  0.99612660  0.06852192  1
  S  S12  1  0.45862242  0.86396004  0.36135351  1
  S  S13  1  0.54137758  0.36396004  0.63864649  1
  O  O14  1  0.05182077  0.37193853  0.98978795  1
  O  O15  1  0.01389877  0.48792814  0.26568926  1
  O  O16  1  0.17555123  0.67268369  0.83185858  1
  O  O17  1  0.28464078  0.36596619  0.57767279  1
  O  O18  1  0.35497061  0.99639953  0.93561533  1
  O  O19  1  0.27971247  0.86070834  0.47447269  1
  O  O20  1  0.40321370  0.06561415  0.27721629  1
  O  O21  1  0.40462790  0.70549089  0.24724872  1
  O  O22  1  0.59537210  0.20549089  0.75275128  1
  O  O23  1  0.59678630  0.56561415  0.72278371  1
  O  O24  1  0.72028753  0.36070834  0.52552731  1
  O  O25  1  0.64502939  0.49639953  0.06438467  1
  O  O26  1  0.71535922  0.86596619  0.42232721  1
  O  O27  1  0.82444877  0.17268369  0.16814142  1
  O  O28  1  0.98610123  0.98792814  0.73431074  1
  O  O29  1  0.94817923  0.87193853  0.01021205  1
