# generated using pymatgen
data_Y2HfO5
_symmetry_space_group_name_H-M   'P 1'
_cell_length_a   4.12184760
_cell_length_b   5.99640489
_cell_length_c   10.91027042
_cell_angle_alpha   90.00000000
_cell_angle_beta   90.00000000
_cell_angle_gamma   110.10204642
_symmetry_Int_Tables_number   1
_chemical_formula_structural   Y2HfO5
_chemical_formula_sum   'Y4 Hf2 O10'
_cell_volume   253.23393331
_cell_formula_units_Z   2
loop_
 _symmetry_equiv_pos_site_id
 _symmetry_equiv_pos_as_xyz
  1  'x, y, z'
loop_
 _atom_site_type_symbol
 _atom_site_label
 _atom_site_symmetry_multiplicity
 _atom_site_fract_x
 _atom_site_fract_y
 _atom_site_fract_z
 _atom_site_occupancy
  Y  Y0  1  0.13922000  0.27844101  0.56615301  1
  Y  Y1  1  0.13922000  0.27844101  0.93384699  1
  Y  Y2  1  0.86078000  0.72155899  0.06615301  1
  Y  Y3  1  0.86078000  0.72155899  0.43384699  1
  Hf  Hf4  1  0.17756941  0.35513982  0.25000000  1
  Hf  Hf5  1  0.82243059  0.64486018  0.75000000  1
  O  O6  1  0.04920576  0.09841053  0.11957980  1
  O  O7  1  0.29154070  0.58308041  0.41148431  1
  O  O8  1  0.04920576  0.09841053  0.38042020  1
  O  O9  1  0.29154070  0.58308041  0.08851569  1
  O  O10  1  0.26606709  0.53213418  0.75000000  1
  O  O11  1  0.95079424  0.90158947  0.61957980  1
  O  O12  1  0.73393291  0.46786582  0.25000000  1
  O  O13  1  0.70845930  0.41691959  0.58851569  1
  O  O14  1  0.95079424  0.90158947  0.88042020  1
  O  O15  1  0.70845930  0.41691959  0.91148431  1
