# generated using pymatgen
data_BaNb8O14
_symmetry_space_group_name_H-M   'P 1'
_cell_length_a   10.51710237
_cell_length_b   13.13519977
_cell_length_c   9.58439000
_cell_angle_alpha   90.00000000
_cell_angle_beta   90.00000000
_cell_angle_gamma   66.40053951
_symmetry_Int_Tables_number   1
_chemical_formula_structural   BaNb8O14
_chemical_formula_sum   'Ba4 Nb32 O56'
_cell_volume   1213.29515843
_cell_formula_units_Z   4
loop_
 _symmetry_equiv_pos_site_id
 _symmetry_equiv_pos_as_xyz
  1  'x, y, z'
loop_
 _atom_site_type_symbol
 _atom_site_label
 _atom_site_symmetry_multiplicity
 _atom_site_fract_x
 _atom_site_fract_y
 _atom_site_fract_z
 _atom_site_occupancy
  Ba  Ba0  1  0.12639932  0.72959858  0.50585082  1
  Ba  Ba1  1  0.64400210  0.72959858  0.00585082  1
  Ba  Ba2  1  0.37360068  0.27040142  0.00585082  1
  Ba  Ba3  1  0.85599790  0.27040142  0.50585082  1
  Nb  Nb4  1  0.48742239  0.86719733  0.37613914  1
  Nb  Nb5  1  0.14538028  0.86719733  0.87613914  1
  Nb  Nb6  1  0.64267621  0.86586251  0.62574558  1
  Nb  Nb7  1  0.99146127  0.86586251  0.12574558  1
  Nb  Nb8  1  0.78190152  0.75856905  0.38221460  1
  Nb  Nb9  1  0.95953043  0.75856905  0.88221460  1
  Nb  Nb10  1  0.28819254  0.75270448  0.11782698  1
  Nb  Nb11  1  0.45910298  0.75270448  0.61782698  1
  Nb  Nb12  1  0.60892768  0.63517531  0.37779795  1
  Nb  Nb13  1  0.10767920  0.63398128  0.12504411  1
  Nb  Nb14  1  0.75833952  0.63398128  0.62504411  1
  Nb  Nb15  1  0.25589701  0.63517531  0.87779795  1
  Nb  Nb16  1  0.43171309  0.50706043  0.36296779  1
  Nb  Nb17  1  0.56122648  0.50706043  0.86296779  1
  Nb  Nb18  1  0.93877352  0.49293957  0.36296779  1
  Nb  Nb19  1  0.06828691  0.49293957  0.86296779  1
  Nb  Nb20  1  0.39232080  0.36601872  0.62504411  1
  Nb  Nb21  1  0.24410299  0.36482469  0.37779795  1
  Nb  Nb22  1  0.74166048  0.36601872  0.12504411  1
  Nb  Nb23  1  0.89107232  0.36482469  0.87779795  1
  Nb  Nb24  1  0.04089702  0.24729552  0.11782698  1
  Nb  Nb25  1  0.71809848  0.24143095  0.88221460  1
  Nb  Nb26  1  0.21180746  0.24729552  0.61782698  1
  Nb  Nb27  1  0.54046957  0.24143095  0.38221460  1
  Nb  Nb28  1  0.01257761  0.13280267  0.87613914  1
  Nb  Nb29  1  0.50853873  0.13413749  0.62574558  1
  Nb  Nb30  1  0.35461972  0.13280267  0.37613914  1
  Nb  Nb31  1  0.85732379  0.13413749  0.12574558  1
  Nb  Nb32  1  0.15968263  0.00000000  0.38339010  1
  Nb  Nb33  1  0.66105487  0.00000000  0.11676110  1
  Nb  Nb34  1  0.83894513  0.00000000  0.61676110  1
  Nb  Nb35  1  0.34031737  0.00000000  0.88339010  1
  O  O36  1  0.47598619  0.87437227  0.75619041  1
  O  O37  1  0.64574406  0.87605600  0.24131026  1
  O  O38  1  0.14964154  0.87437227  0.25619041  1
  O  O39  1  0.97819993  0.87605600  0.74131026  1
  O  O40  1  0.31046145  0.87362308  0.49301351  1
  O  O41  1  0.80986617  0.87370699  0.00793804  1
  O  O42  1  0.81642685  0.87370699  0.50793804  1
  O  O43  1  0.31591547  0.87362308  0.99301351  1
  O  O44  1  0.27877170  0.75018286  0.74096045  1
  O  O45  1  0.47104544  0.75018286  0.24096045  1
  O  O46  1  0.78183794  0.75011062  0.75824192  1
  O  O47  1  0.96805144  0.75011062  0.25824192  1
  O  O48  1  0.43801919  0.62695141  0.49125522  1
  O  O49  1  0.43502940  0.62695141  0.99125522  1
  O  O50  1  0.92721614  0.62177650  0.49443463  1
  O  O51  1  0.95100736  0.62177650  0.99443463  1
  O  O52  1  0.59822358  0.62466626  0.75242754  1
  O  O53  1  0.09429724  0.62312916  0.75871342  1
  O  O54  1  0.78257260  0.62312916  0.25871342  1
  O  O55  1  0.27711016  0.62466626  0.25242754  1
  O  O56  1  0.76399917  0.50606250  0.48871821  1
  O  O57  1  0.22993833  0.50606250  0.98871821  1
  O  O58  1  0.91176972  0.50205983  0.75477554  1
  O  O59  1  0.41382956  0.49794017  0.75477554  1
  O  O60  1  0.58823028  0.49794017  0.25477554  1
  O  O61  1  0.08617044  0.50205983  0.25477554  1
  O  O62  1  0.73600083  0.49393750  0.98871821  1
  O  O63  1  0.27006167  0.49393750  0.48871821  1
  O  O64  1  0.71742740  0.37687084  0.75871342  1
  O  O65  1  0.90177642  0.37533374  0.25242754  1
  O  O66  1  0.40570276  0.37687084  0.25871342  1
  O  O67  1  0.22288984  0.37533374  0.75242754  1
  O  O68  1  0.54899264  0.37822350  0.49443463  1
  O  O69  1  0.57278386  0.37822350  0.99443463  1
  O  O70  1  0.06497060  0.37304859  0.49125522  1
  O  O71  1  0.06198081  0.37304859  0.99125522  1
  O  O72  1  0.22122830  0.24981714  0.24096045  1
  O  O73  1  0.02895456  0.24981714  0.74096045  1
  O  O74  1  0.53194856  0.24988938  0.75824192  1
  O  O75  1  0.71816206  0.24988938  0.25824192  1
  O  O76  1  0.18408453  0.12637692  0.49301351  1
  O  O77  1  0.68357315  0.12629301  0.00793804  1
  O  O78  1  0.18953855  0.12637692  0.99301351  1
  O  O79  1  0.69013383  0.12629301  0.50793804  1
  O  O80  1  0.35035846  0.12562773  0.75619041  1
  O  O81  1  0.85425594  0.12394400  0.74131026  1
  O  O82  1  0.02401381  0.12562773  0.25619041  1
  O  O83  1  0.52180007  0.12394400  0.24131026  1
  O  O84  1  0.68061250  0.00000000  0.72956648  1
  O  O85  1  0.49950736  0.00000000  0.50077248  1
  O  O86  1  0.00049264  0.00000000  0.00077248  1
  O  O87  1  0.49987845  0.00000000  0.99874745  1
  O  O88  1  0.81938750  0.00000000  0.22956648  1
  O  O89  1  0.31861151  0.00000000  0.26979313  1
  O  O90  1  0.00012155  0.00000000  0.49874745  1
  O  O91  1  0.18138849  0.00000000  0.76979313  1
