# generated using pymatgen
data_Y6O5F8
_symmetry_space_group_name_H-M   'P 1'
_cell_length_a   5.48738429
_cell_length_b   33.53700598
_cell_length_c   5.61380144
_cell_angle_alpha   90.00000000
_cell_angle_beta   90.00000000
_cell_angle_gamma   89.89461085
_symmetry_Int_Tables_number   1
_chemical_formula_structural   Y6O5F8
_chemical_formula_sum   'Y24 O20 F32'
_cell_volume   1033.10859960
_cell_formula_units_Z   4
loop_
 _symmetry_equiv_pos_site_id
 _symmetry_equiv_pos_as_xyz
  1  'x, y, z'
loop_
 _atom_site_type_symbol
 _atom_site_label
 _atom_site_symmetry_multiplicity
 _atom_site_fract_x
 _atom_site_fract_y
 _atom_site_fract_z
 _atom_site_occupancy
  Y  Y0  1  0.28963211  0.00004219  0.74820742  1
  Y  Y1  1  0.28963211  0.50004219  0.75179258  1
  Y  Y2  1  0.27742815  0.25071041  0.28650490  1
  Y  Y3  1  0.27742815  0.75071041  0.21349510  1
  Y  Y4  1  0.29232758  0.66423445  0.78680998  1
  Y  Y5  1  0.28861106  0.33587369  0.73875251  1
  Y  Y6  1  0.28861106  0.83587369  0.76124749  1
  Y  Y7  1  0.29232758  0.16423445  0.71319002  1
  Y  Y8  1  0.29679785  0.08210152  0.27206212  1
  Y  Y9  1  0.29772010  0.41762834  0.27741329  1
  Y  Y10  1  0.29679785  0.58210152  0.22793788  1
  Y  Y11  1  0.29772010  0.91762834  0.22258671  1
  Y  Y12  1  0.70227990  0.08237166  0.77741329  1
  Y  Y13  1  0.70320215  0.91789848  0.72793788  1
  Y  Y14  1  0.70320215  0.41789848  0.77206212  1
  Y  Y15  1  0.70227990  0.58237166  0.72258671  1
  Y  Y16  1  0.71138894  0.16412631  0.23875251  1
  Y  Y17  1  0.70767242  0.83576555  0.28680998  1
  Y  Y18  1  0.71138894  0.66412631  0.26124749  1
  Y  Y19  1  0.70767242  0.33576555  0.21319002  1
  Y  Y20  1  0.72257185  0.74928959  0.71349510  1
  Y  Y21  1  0.72257185  0.24928959  0.78650490  1
  Y  Y22  1  0.71036789  0.49995781  0.24820742  1
  Y  Y23  1  0.71036789  0.99995781  0.25179258  1
  O  O24  1  0.46376196  0.28951653  0.00777144  1
  O  O25  1  0.46376196  0.78951653  0.49222856  1
  O  O26  1  0.46892965  0.87482135  0.50678852  1
  O  O27  1  0.46993178  0.62745866  0.50688302  1
  O  O28  1  0.46892965  0.37482135  0.99321148  1
  O  O29  1  0.46993178  0.12745866  0.99311698  1
  O  O30  1  0.48455503  0.54185875  0.47655423  1
  O  O31  1  0.48415763  0.95821553  0.47571701  1
  O  O32  1  0.48455503  0.04185875  0.02344577  1
  O  O33  1  0.48415763  0.45821553  0.02428299  1
  O  O34  1  0.51584237  0.54178447  0.97571701  1
  O  O35  1  0.51584237  0.04178447  0.52428299  1
  O  O36  1  0.51544497  0.45814125  0.52344577  1
  O  O37  1  0.51544497  0.95814125  0.97655423  1
  O  O38  1  0.53006822  0.87254134  0.00688302  1
  O  O39  1  0.53107035  0.62517865  0.00678852  1
  O  O40  1  0.53006822  0.37254134  0.49311698  1
  O  O41  1  0.53107035  0.12517865  0.49321148  1
  O  O42  1  0.53623804  0.21048347  0.50777144  1
  O  O43  1  0.53623804  0.71048347  0.99222856  1
  F  F44  1  0.02672027  0.03648941  0.41816703  1
  F  F45  1  0.02515540  0.46338980  0.41808175  1
  F  F46  1  0.02672027  0.53648941  0.08183297  1
  F  F47  1  0.02515540  0.96338980  0.08191825  1
  F  F48  1  0.05377464  0.11132657  0.61353228  1
  F  F49  1  0.05678334  0.38942769  0.61878517  1
  F  F50  1  0.05377464  0.61132657  0.88646772  1
  F  F51  1  0.05678334  0.88942769  0.88121483  1
  F  F52  1  0.09164257  0.18372645  0.35788968  1
  F  F53  1  0.09155671  0.31508068  0.36785086  1
  F  F54  1  0.09155671  0.81508068  0.13214914  1
  F  F55  1  0.09164257  0.68372645  0.14211032  1
  F  F56  1  0.10603143  0.25123099  0.65402420  1
  F  F57  1  0.10603143  0.75123099  0.84597580  1
  F  F58  1  0.45220336  0.70828216  0.49185087  1
  F  F59  1  0.45220336  0.20828216  0.00814913  1
  F  F60  1  0.54779664  0.29171784  0.50814913  1
  F  F61  1  0.54779664  0.79171784  0.99185087  1
  F  F62  1  0.89396857  0.74876901  0.34597580  1
  F  F63  1  0.89396857  0.24876901  0.15402420  1
  F  F64  1  0.90844329  0.18491932  0.86785086  1
  F  F65  1  0.90835743  0.81627355  0.64211032  1
  F  F66  1  0.90835743  0.31627355  0.85788968  1
  F  F67  1  0.90844329  0.68491932  0.63214914  1
  F  F68  1  0.94321666  0.61057231  0.38121483  1
  F  F69  1  0.94321666  0.11057231  0.11878517  1
  F  F70  1  0.94622536  0.88867343  0.38646772  1
  F  F71  1  0.94622536  0.38867343  0.11353228  1
  F  F72  1  0.97484460  0.03661020  0.91808175  1
  F  F73  1  0.97327973  0.46351059  0.91816703  1
  F  F74  1  0.97484460  0.53661020  0.58191825  1
  F  F75  1  0.97327973  0.96351059  0.58183297  1
