# generated using pymatgen
data_FeP4O11
_symmetry_space_group_name_H-M   'P 1'
_cell_length_a   8.34361533
_cell_length_b   12.51945807
_cell_length_c   8.63451369
_cell_angle_alpha   90.00000000
_cell_angle_beta   95.48693291
_cell_angle_gamma   90.00000000
_symmetry_Int_Tables_number   1
_chemical_formula_structural   FeP4O11
_chemical_formula_sum   'Fe4 P16 O44'
_cell_volume   897.80741770
_cell_formula_units_Z   4
loop_
 _symmetry_equiv_pos_site_id
 _symmetry_equiv_pos_as_xyz
  1  'x, y, z'
loop_
 _atom_site_type_symbol
 _atom_site_label
 _atom_site_symmetry_multiplicity
 _atom_site_fract_x
 _atom_site_fract_y
 _atom_site_fract_z
 _atom_site_occupancy
  Fe  Fe0  1  0.22974661  0.46936271  0.73698752  1
  Fe  Fe1  1  0.27025339  0.96936271  0.76301248  1
  Fe  Fe2  1  0.72974661  0.03063729  0.23698752  1
  Fe  Fe3  1  0.77025339  0.53063729  0.26301248  1
  P  P4  1  0.10234145  0.21217132  0.60072561  1
  P  P5  1  0.11690077  0.16530725  0.26661977  1
  P  P6  1  0.18163123  0.49616941  0.33942763  1
  P  P7  1  0.24936926  0.84724132  0.39963870  1
  P  P8  1  0.25063074  0.34724132  0.10036130  1
  P  P9  1  0.31836877  0.99616941  0.16057237  1
  P  P10  1  0.39765855  0.71217132  0.89927439  1
  P  P11  1  0.38309923  0.66530725  0.23338023  1
  P  P12  1  0.61690077  0.33469275  0.76661977  1
  P  P13  1  0.60234145  0.28782868  0.10072561  1
  P  P14  1  0.68163123  0.00383059  0.83942763  1
  P  P15  1  0.74936926  0.65275868  0.89963870  1
  P  P16  1  0.75063074  0.15275868  0.60036130  1
  P  P17  1  0.81836877  0.50383059  0.66057237  1
  P  P18  1  0.88309923  0.83469275  0.73338023  1
  P  P19  1  0.89765855  0.78782868  0.39927439  1
  O  O20  1  0.03097037  0.89766922  0.75469827  1
  O  O21  1  0.00997662  0.46846214  0.29689570  1
  O  O22  1  0.09484397  0.78085690  0.42700671  1
  O  O23  1  0.15203957  0.10243044  0.65065901  1
  O  O24  1  0.15619445  0.30973831  0.68706216  1
  O  O25  1  0.18550558  0.41615515  0.97197190  1
  O  O26  1  0.14378483  0.23320411  0.42115772  1
  O  O27  1  0.12437714  0.25484054  0.13456284  1
  O  O28  1  0.20532878  0.90536313  0.23824536  1
  O  O29  1  0.22008613  0.60075182  0.23245453  1
  O  O30  1  0.25604005  0.51362173  0.50064352  1
  O  O31  1  0.24395995  0.01362173  0.99935648  1
  O  O32  1  0.27991387  0.10075182  0.26754547  1
  O  O33  1  0.31449442  0.91615515  0.52802810  1
  O  O34  1  0.34380555  0.80973831  0.81293784  1
  O  O35  1  0.29467122  0.40536313  0.26175464  1
  O  O36  1  0.34796043  0.60243044  0.84934099  1
  O  O37  1  0.37562286  0.75484054  0.36543716  1
  O  O38  1  0.35621517  0.73320411  0.07884228  1
  O  O39  1  0.40515603  0.28085690  0.07299329  1
  O  O40  1  0.46902963  0.39766922  0.74530173  1
  O  O41  1  0.50997662  0.03153786  0.79689570  1
  O  O42  1  0.49002338  0.96846214  0.20310430  1
  O  O43  1  0.53097037  0.60233078  0.25469827  1
  O  O44  1  0.59484397  0.71914310  0.92700671  1
  O  O45  1  0.64378483  0.26679589  0.92115772  1
  O  O46  1  0.62437714  0.24515946  0.63456284  1
  O  O47  1  0.65203957  0.39756956  0.15065901  1
  O  O48  1  0.70532878  0.59463687  0.73824536  1
  O  O49  1  0.65619445  0.19026169  0.18706216  1
  O  O50  1  0.68550558  0.08384485  0.47197190  1
  O  O51  1  0.72008613  0.89924818  0.73245453  1
  O  O52  1  0.75604005  0.98637827  0.00064352  1
  O  O53  1  0.74395995  0.48637827  0.49935648  1
  O  O54  1  0.77991387  0.39924818  0.76754547  1
  O  O55  1  0.79467122  0.09463687  0.76175464  1
  O  O56  1  0.87562286  0.74515946  0.86543716  1
  O  O57  1  0.85621517  0.76679589  0.57884228  1
  O  O58  1  0.81449442  0.58384485  0.02802810  1
  O  O59  1  0.84380555  0.69026169  0.31293784  1
  O  O60  1  0.84796043  0.89756956  0.34934099  1
  O  O61  1  0.90515603  0.21914310  0.57299329  1
  O  O62  1  0.99002338  0.53153786  0.70310430  1
  O  O63  1  0.96902963  0.10233078  0.24530173  1
