# generated using pymatgen
data_Sb2H4AuF16
_symmetry_space_group_name_H-M   'P 1'
_cell_length_a   5.58314015
_cell_length_b   5.97117615
_cell_length_c   9.41164264
_cell_angle_alpha   89.35301853
_cell_angle_beta   86.00942941
_cell_angle_gamma   87.57736467
_symmetry_Int_Tables_number   1
_chemical_formula_structural   Sb2H4AuF16
_chemical_formula_sum   'Sb2 H4 Au1 F16'
_cell_volume   312.71307459
_cell_formula_units_Z   1
loop_
 _symmetry_equiv_pos_site_id
 _symmetry_equiv_pos_as_xyz
  1  'x, y, z'
loop_
 _atom_site_type_symbol
 _atom_site_label
 _atom_site_symmetry_multiplicity
 _atom_site_fract_x
 _atom_site_fract_y
 _atom_site_fract_z
 _atom_site_occupancy
  Sb  Sb0  1  0.42705746  0.29114929  0.73832925  1
  Sb  Sb1  1  0.57294254  0.70885071  0.26167075  1
  H  H2  1  0.10590376  0.21497856  0.24327831  1
  H  H3  1  0.08492365  0.24435114  0.45428356  1
  H  H4  1  0.91507635  0.75564886  0.54571644  1
  H  H5  1  0.89409624  0.78502144  0.75672169  1
  Au  Au6  1  0.00000000  0.00000000  0.00000000  1
  F  F7  1  0.01321083  0.75934071  0.62778309  1
  F  F8  1  0.18828816  0.19565253  0.14238812  1
  F  F9  1  0.17582696  0.26434021  0.60703437  1
  F  F10  1  0.19992793  0.45576069  0.86207016  1
  F  F11  1  0.34192956  0.71274349  0.12057199  1
  F  F12  1  0.29446281  0.01430942  0.83473425  1
  F  F13  1  0.36877878  0.90635412  0.37593427  1
  F  F14  1  0.45229364  0.44589201  0.35041017  1
  F  F15  1  0.54770636  0.55410799  0.64958983  1
  F  F16  1  0.63122122  0.09364588  0.62406573  1
  F  F17  1  0.70553719  0.98569058  0.16526575  1
  F  F18  1  0.65807044  0.28725651  0.87942801  1
  F  F19  1  0.80007207  0.54423931  0.13792984  1
  F  F20  1  0.82417304  0.73565979  0.39296563  1
  F  F21  1  0.81171184  0.80434747  0.85761188  1
  F  F22  1  0.98678917  0.24065929  0.37221691  1
