# generated using pymatgen
data_Sr2Bi2O5
_symmetry_space_group_name_H-M   'P 1'
_cell_length_a   7.57612127
_cell_length_b   7.75618464
_cell_length_c   6.25519520
_cell_angle_alpha   90.00000000
_cell_angle_beta   90.00000000
_cell_angle_gamma   75.28639114
_symmetry_Int_Tables_number   1
_chemical_formula_structural   Sr2Bi2O5
_chemical_formula_sum   'Sr4 Bi4 O10'
_cell_volume   355.51305898
_cell_formula_units_Z   2
loop_
 _symmetry_equiv_pos_site_id
 _symmetry_equiv_pos_as_xyz
  1  'x, y, z'
loop_
 _atom_site_type_symbol
 _atom_site_label
 _atom_site_symmetry_multiplicity
 _atom_site_fract_x
 _atom_site_fract_y
 _atom_site_fract_z
 _atom_site_occupancy
  Sr  Sr0  1  0.39318682  0.90120330  0.25000000  1
  Sr  Sr1  1  0.60681318  0.59879670  0.75000000  1
  Sr  Sr2  1  0.37055501  0.40757064  0.25000000  1
  Sr  Sr3  1  0.62944499  0.09242936  0.75000000  1
  Bi  Bi4  1  0.87682252  0.78853411  0.25000000  1
  Bi  Bi5  1  0.12317748  0.71146589  0.75000000  1
  Bi  Bi6  1  0.87034769  0.27535619  0.25000000  1
  Bi  Bi7  1  0.12965231  0.22464381  0.75000000  1
  O  O8  1  0.01388461  0.99657632  0.75000000  1
  O  O9  1  0.68058844  0.82424630  0.49133404  1
  O  O10  1  0.68058844  0.82424630  0.00866596  1
  O  O11  1  0.98611539  0.50342368  0.25000000  1
  O  O12  1  0.31941156  0.67575370  0.99133404  1
  O  O13  1  0.31941156  0.67575370  0.50866596  1
  O  O14  1  0.67562614  0.33694073  0.00786655  1
  O  O15  1  0.67562614  0.33694073  0.49213345  1
  O  O16  1  0.32437386  0.16305927  0.99213345  1
  O  O17  1  0.32437386  0.16305927  0.50786655  1
