# generated using pymatgen
data_Mn2H8S3(NO6)2
_symmetry_space_group_name_H-M   'P 1'
_cell_length_a   10.31505256
_cell_length_b   10.31496714
_cell_length_c   10.31498623
_cell_angle_alpha   90.00003494
_cell_angle_beta   90.00013998
_cell_angle_gamma   89.99994695
_symmetry_Int_Tables_number   1
_chemical_formula_structural   Mn2H8S3(NO6)2
_chemical_formula_sum   'Mn8 H32 S12 N8 O48'
_cell_volume   1097.50863680
_cell_formula_units_Z   4
loop_
 _symmetry_equiv_pos_site_id
 _symmetry_equiv_pos_as_xyz
  1  'x, y, z'
loop_
 _atom_site_type_symbol
 _atom_site_label
 _atom_site_symmetry_multiplicity
 _atom_site_fract_x
 _atom_site_fract_y
 _atom_site_fract_z
 _atom_site_occupancy
  Mn  Mn0  1  0.08343071  0.91656488  0.41657840  1
  Mn  Mn1  1  0.15648062  0.34351071  0.65648427  1
  Mn  Mn2  1  0.34351668  0.65647916  0.15648625  1
  Mn  Mn3  1  0.41657063  0.08342975  0.91657725  1
  Mn  Mn4  1  0.58342431  0.58342906  0.58343116  1
  Mn  Mn5  1  0.65647965  0.15647874  0.34352105  1
  Mn  Mn6  1  0.84352220  0.84351479  0.84351631  1
  Mn  Mn7  1  0.91657813  0.41658429  0.08342610  1
  H  H8  1  0.00863448  0.00863573  0.00873527  1
  H  H9  1  0.02431812  0.07634088  0.15726354  1
  H  H10  1  0.07630964  0.15720704  0.02430778  1
  H  H11  1  0.15722493  0.02430557  0.07633145  1
  H  H12  1  0.14431609  0.64431628  0.85578435  1
  H  H13  1  0.15712278  0.71356669  0.70971765  1
  H  H14  1  0.21360111  0.79034265  0.84286231  1
  H  H15  1  0.20967872  0.34286470  0.28642160  1
  H  H16  1  0.29032023  0.65713494  0.78642117  1
  H  H17  1  0.28639819  0.20965698  0.34286250  1
  H  H18  1  0.34287744  0.28643326  0.20971646  1
  H  H19  1  0.35568288  0.35568338  0.35578425  1
  H  H20  1  0.34273561  0.97568086  0.57634276  1
  H  H21  1  0.42366805  0.84277381  0.52430697  1
  H  H22  1  0.47569386  0.92369089  0.65720729  1
  H  H23  1  0.49126585  0.99136569  0.50863570  1
  H  H24  1  0.50873227  0.49136564  0.99136598  1
  H  H25  1  0.52430612  0.42369037  0.84279512  1
  H  H26  1  0.57633088  0.34277404  0.97569444  1
  H  H27  1  0.65726283  0.47568132  0.92365978  1
  H  H28  1  0.64421617  0.85568300  0.14431801  1
  H  H29  1  0.65713795  0.78639900  0.29034177  1
  H  H30  1  0.71357866  0.70967987  0.15713566  1
  H  H31  1  0.70965708  0.15713720  0.71360187  1
  H  H32  1  0.79028368  0.84287875  0.21356680  1
  H  H33  1  0.78643285  0.29028403  0.65712392  1
  H  H34  1  0.84286414  0.21357878  0.79031981  1
  H  H35  1  0.85568251  0.14421557  0.64431683  1
  H  H36  1  0.84273621  0.52431902  0.42365948  1
  H  H37  1  0.92366881  0.65722660  0.47569456  1
  H  H38  1  0.97569447  0.57630924  0.34279365  1
  H  H39  1  0.99126599  0.50863452  0.49136487  1
  S  S40  1  0.03104123  0.73646196  0.12537314  1
  S  S41  1  0.12537502  0.03103977  0.73645828  1
  S  S42  1  0.23646190  0.37462609  0.96895768  1
  S  S43  1  0.26354260  0.62537219  0.46895761  1
  S  S44  1  0.37462324  0.96895769  0.23645613  1
  S  S45  1  0.46895803  0.26353831  0.62537532  1
  S  S46  1  0.53104289  0.76354236  0.87462574  1
  S  S47  1  0.62537297  0.46895953  0.26354168  1
  S  S48  1  0.73645658  0.12537198  0.03104182  1
  S  S49  1  0.76353803  0.87462767  0.53104415  1
  S  S50  1  0.87462423  0.53104346  0.76354413  1
  S  S51  1  0.96895948  0.23645488  0.37462814  1
  N  N52  1  0.06629029  0.06629174  0.06632182  1
  N  N53  1  0.20164541  0.70164523  0.79837534  1
  N  N54  1  0.29835384  0.29835422  0.29837612  1
  N  N55  1  0.43367909  0.93370943  0.56629208  1
  N  N56  1  0.56631937  0.43370914  0.93371042  1
  N  N57  1  0.70162281  0.79835476  0.20164604  1
  N  N58  1  0.79835466  0.20162485  0.70164605  1
  N  N59  1  0.93368057  0.56628953  0.43370911  1
  O  O60  1  0.00037601  0.09837667  0.34590684  1
  O  O61  1  0.00879854  0.81367156  0.24552868  1
  O  O62  1  0.02295245  0.94431554  0.78829053  1
  O  O63  1  0.05568163  0.28829250  0.47704763  1
  O  O64  1  0.08131108  0.16823488  0.74841898  1
  O  O65  1  0.09837434  0.34590461  0.00037525  1
  O  O66  1  0.15409532  0.99962615  0.59837894  1
  O  O67  1  0.16822958  0.74841452  0.08131341  1
  O  O68  1  0.18632649  0.74552528  0.49120172  1
  O  O69  1  0.21170933  0.52294969  0.55568447  1
  O  O70  1  0.24552490  0.00879631  0.81367191  1
  O  O71  1  0.24841616  0.41868703  0.83177044  1
  O  O72  1  0.25158363  0.58131393  0.33176765  1
  O  O73  1  0.25447161  0.99120276  0.31367153  1
  O  O74  1  0.28828950  0.47704652  0.05568297  1
  O  O75  1  0.31367312  0.25447239  0.99120273  1
  O  O76  1  0.33176896  0.25158312  0.58131292  1
  O  O77  1  0.34590462  0.00037507  0.09837685  1
  O  O78  1  0.40162232  0.65409509  0.50037590  1
  O  O79  1  0.41868718  0.83176909  0.24841702  1
  O  O80  1  0.44431876  0.71170873  0.97704943  1
  O  O81  1  0.47704726  0.05568458  0.28829450  1
  O  O82  1  0.49120297  0.18632808  0.74552592  1
  O  O83  1  0.49962553  0.90162419  0.84590709  1
  O  O84  1  0.50037519  0.40162520  0.65409242  1
  O  O85  1  0.50879629  0.68632759  0.75447248  1
  O  O86  1  0.52295438  0.55568254  0.21170889  1
  O  O87  1  0.55568551  0.21170615  0.52295075  1
  O  O88  1  0.58131143  0.33176536  0.25158344  1
  O  O89  1  0.59837524  0.15409442  0.99962355  1
  O  O90  1  0.65409201  0.50037364  0.40162165  1
  O  O91  1  0.66822961  0.75158221  0.91868419  1
  O  O92  1  0.68632632  0.75447134  0.50879725  1
  O  O93  1  0.71171047  0.97704891  0.44431533  1
  O  O94  1  0.74552941  0.49120104  0.18632674  1
  O  O95  1  0.74841407  0.08131259  0.16823071  1
  O  O96  1  0.75158635  0.91868765  0.66823059  1
  O  O97  1  0.75447213  0.50879809  0.68632813  1
  O  O98  1  0.78829148  0.02295360  0.94431903  1
  O  O99  1  0.81367248  0.24552971  0.00879924  1
  O  O100  1  0.83176474  0.24841585  0.41868651  1
  O  O101  1  0.84590721  0.49962575  0.90162365  1
  O  O102  1  0.90162121  0.84590317  0.49962563  1
  O  O103  1  0.91868665  0.66823118  0.75158341  1
  O  O104  1  0.94431822  0.78829035  0.02295615  1
  O  O105  1  0.97704664  0.44431717  0.71170627  1
  O  O106  1  0.99120023  0.31367298  0.25447165  1
  O  O107  1  0.99962466  0.59837278  0.15409484  1
