# generated using pymatgen
data_LiP4WO13
_symmetry_space_group_name_H-M   'P 1'
_cell_length_a   7.20909391
_cell_length_b   8.18607660
_cell_length_c   17.26634596
_cell_angle_alpha   90.00000000
_cell_angle_beta   90.00000000
_cell_angle_gamma   90.00000000
_symmetry_Int_Tables_number   1
_chemical_formula_structural   LiP4WO13
_chemical_formula_sum   'Li4 P16 W4 O52'
_cell_volume   1018.95950680
_cell_formula_units_Z   4
loop_
 _symmetry_equiv_pos_site_id
 _symmetry_equiv_pos_as_xyz
  1  'x, y, z'
loop_
 _atom_site_type_symbol
 _atom_site_label
 _atom_site_symmetry_multiplicity
 _atom_site_fract_x
 _atom_site_fract_y
 _atom_site_fract_z
 _atom_site_occupancy
  Li  Li0  1  0.21852994  0.73701481  0.49501937  1
  Li  Li1  1  0.28147006  0.26298519  0.99501937  1
  Li  Li2  1  0.71852994  0.76298519  0.50498063  1
  Li  Li3  1  0.78147006  0.23701481  0.00498063  1
  P  P4  1  0.07285793  0.32341739  0.42692033  1
  P  P5  1  0.09079191  0.90388026  0.92385705  1
  P  P6  1  0.09791922  0.89330660  0.65977534  1
  P  P7  1  0.09731475  0.34323710  0.16640686  1
  P  P8  1  0.40268525  0.65676290  0.66640686  1
  P  P9  1  0.40208078  0.10669340  0.15977534  1
  P  P10  1  0.40920809  0.09611974  0.42385705  1
  P  P11  1  0.42714207  0.67658261  0.92692033  1
  P  P12  1  0.57285793  0.17658261  0.57307967  1
  P  P13  1  0.59079191  0.59611974  0.07614295  1
  P  P14  1  0.59791922  0.60669340  0.34022466  1
  P  P15  1  0.59731475  0.15676290  0.83359314  1
  P  P16  1  0.90268525  0.84323710  0.33359314  1
  P  P17  1  0.90208078  0.39330660  0.84022466  1
  P  P18  1  0.90920809  0.40388026  0.57614295  1
  P  P19  1  0.92714207  0.82341739  0.07307967  1
  W  W20  1  0.23262343  0.27655172  0.71304786  1
  W  W21  1  0.26737657  0.72344828  0.21304786  1
  W  W22  1  0.73262343  0.22344828  0.28695214  1
  W  W23  1  0.76737657  0.77655172  0.78695214  1
  O  O24  1  0.99981754  0.78200206  0.98634904  1
  O  O25  1  0.01308558  0.36299973  0.65139394  1
  O  O26  1  0.09770735  0.07811565  0.94628616  1
  O  O27  1  0.09098725  0.34506854  0.08058619  1
  O  O28  1  0.08202000  0.80050755  0.29074625  1
  O  O29  1  0.08721603  0.32859127  0.80774085  1
  O  O30  1  0.09548374  0.78941116  0.12462865  1
  O  O31  1  0.11568950  0.89823537  0.57469777  1
  O  O32  1  0.12729382  0.06147893  0.70243225  1
  O  O33  1  0.16576622  0.48365315  0.42211376  1
  O  O34  1  0.15998662  0.50927256  0.20485609  1
  O  O35  1  0.20289599  0.16626347  0.41212156  1
  O  O36  1  0.24651260  0.21788281  0.20209741  1
  O  O37  1  0.25348740  0.78211719  0.70209741  1
  O  O38  1  0.29710401  0.83373653  0.91212156  1
  O  O39  1  0.34001338  0.49072744  0.70485609  1
  O  O40  1  0.33423378  0.51634685  0.92211376  1
  O  O41  1  0.37270618  0.93852107  0.20243225  1
  O  O42  1  0.38431050  0.10176463  0.07469777  1
  O  O43  1  0.40451626  0.21058884  0.62462865  1
  O  O44  1  0.41278397  0.67140873  0.30774085  1
  O  O45  1  0.40901275  0.65493146  0.58058619  1
  O  O46  1  0.41798000  0.19949245  0.79074625  1
  O  O47  1  0.40229265  0.92188435  0.44628616  1
  O  O48  1  0.48691442  0.63700027  0.15139394  1
  O  O49  1  0.50018246  0.21799794  0.48634904  1
  O  O50  1  0.49981754  0.71799794  0.01365096  1
  O  O51  1  0.51308558  0.13700027  0.34860606  1
  O  O52  1  0.59770735  0.42188435  0.05371384  1
  O  O53  1  0.59098725  0.15493146  0.91941381  1
  O  O54  1  0.58202000  0.69949245  0.70925375  1
  O  O55  1  0.58721603  0.17140873  0.19225915  1
  O  O56  1  0.59548374  0.71058884  0.87537135  1
  O  O57  1  0.61568950  0.60176463  0.42530223  1
  O  O58  1  0.62729382  0.43852107  0.29756775  1
  O  O59  1  0.66576622  0.01634685  0.57788624  1
  O  O60  1  0.65998662  0.99072744  0.79514391  1
  O  O61  1  0.70289599  0.33373653  0.58787844  1
  O  O62  1  0.74651260  0.28211719  0.79790259  1
  O  O63  1  0.75348740  0.71788281  0.29790259  1
  O  O64  1  0.79710401  0.66626347  0.08787844  1
  O  O65  1  0.84001338  0.00927256  0.29514391  1
  O  O66  1  0.83423378  0.98365315  0.07788624  1
  O  O67  1  0.87270618  0.56147893  0.79756775  1
  O  O68  1  0.88431050  0.39823537  0.92530223  1
  O  O69  1  0.90451626  0.28941116  0.37537135  1
  O  O70  1  0.91278397  0.82859127  0.69225915  1
  O  O71  1  0.90901275  0.84506854  0.41941381  1
  O  O72  1  0.91798000  0.30050755  0.20925375  1
  O  O73  1  0.90229265  0.57811565  0.55371384  1
  O  O74  1  0.98691442  0.86299973  0.84860606  1
  O  O75  1  0.00018246  0.28200206  0.51365096  1
