# generated using pymatgen
data_Mn11In25O48
_symmetry_space_group_name_H-M   'P 1'
_cell_length_a   11.26707154
_cell_length_b   11.26475198
_cell_length_c   11.26638100
_cell_angle_alpha   120.00477909
_cell_angle_beta   109.47836019
_cell_angle_gamma   80.40111745
_symmetry_Int_Tables_number   1
_chemical_formula_structural   Mn11In25O48
_chemical_formula_sum   'Mn11 In25 O48'
_cell_volume   1167.43157967
_cell_formula_units_Z   1
loop_
 _symmetry_equiv_pos_site_id
 _symmetry_equiv_pos_as_xyz
  1  'x, y, z'
loop_
 _atom_site_type_symbol
 _atom_site_label
 _atom_site_symmetry_multiplicity
 _atom_site_fract_x
 _atom_site_fract_y
 _atom_site_fract_z
 _atom_site_occupancy
  Mn  Mn0  1  0.49969904  0.33305356  0.16655915  1
  Mn  Mn1  1  0.62474232  0.33336126  0.54156244  1
  Mn  Mn2  1  0.12520126  0.33316976  0.04171672  1
  Mn  Mn3  1  0.49973351  0.66666700  0.83308429  1
  Mn  Mn4  1  0.00039352  0.66666700  0.33374474  1
  Mn  Mn5  1  0.49969904  0.00027944  0.50017259  1
  Mn  Mn6  1  0.00037153  0.00012755  0.00014294  1
  Mn  Mn7  1  0.12526109  0.66666700  0.70816675  1
  Mn  Mn8  1  0.12520126  0.00016324  0.37521396  1
  Mn  Mn9  1  0.62474232  0.99997174  0.87486718  1
  Mn  Mn10  1  0.00037153  0.33320645  0.66668339  1
  In  In11  1  0.81418414  0.83391070  0.10289983  1
  In  In12  1  0.81414221  0.33092202  0.10418143  1
  In  In13  1  0.62496203  0.66666700  0.20836114  1
  In  In14  1  0.81421718  0.49809022  0.43861329  1
  In  In15  1  0.31049277  0.83522267  0.10343484  1
  In  In16  1  0.81248855  0.16649864  0.27074415  1
  In  In17  1  0.81421718  0.83524278  0.60719006  1
  In  In18  1  0.56118654  0.66666700  0.52270887  1
  In  In19  1  0.06261115  0.66666700  0.02084122  1
  In  In20  1  0.31049160  0.66666700  0.27202699  1
  In  In21  1  0.81245226  0.66666700  0.77062622  1
  In  In22  1  0.56118091  0.00243037  0.18711894  1
  In  In23  1  0.81414221  0.00241098  0.43992641  1
  In  In24  1  0.31232199  0.83371014  0.60446344  1
  In  In25  1  0.31232199  0.49962286  0.43741930  1
  In  In26  1  0.31227710  0.16701493  0.27104422  1
  In  In27  1  0.81418414  0.49942230  0.93565613  1
  In  In28  1  0.81248855  0.16683436  0.77091250  1
  In  In29  1  0.31226621  0.33329117  0.60369127  1
  In  In30  1  0.06287646  0.33324467  0.35427632  1
  In  In31  1  0.56118091  0.33090263  0.85135457  1
  In  In32  1  0.31049277  0.49811133  0.93487917  1
  In  In33  1  0.31227710  0.16631807  0.77069628  1
  In  In34  1  0.06287646  0.00008833  0.68769765  1
  In  In35  1  0.31226621  0.00004283  0.93706710  1
  O  O36  1  0.93239170  0.66666700  0.13236881  1
  O  O37  1  0.69180043  0.84477825  0.23055282  1
  O  O38  1  0.69180043  0.48855575  0.05244057  1
  O  O39  1  0.93350154  0.17777533  0.15659517  1
  O  O40  1  0.93216410  0.48817852  0.31076251  1
  O  O41  1  0.93216410  0.84515548  0.48925099  1
  O  O42  1  0.93356446  0.33230995  0.46574312  1
  O  O43  1  0.70097652  0.33399290  0.23370194  1
  O  O44  1  0.69182020  0.66666700  0.40874673  1
  O  O45  1  0.42460576  0.66666700  0.14155445  1
  O  O46  1  0.92377984  0.66666700  0.64084813  1
  O  O47  1  0.69186274  0.99959182  0.07598747  1
  O  O48  1  0.92374988  0.99942997  0.30790449  1
  O  O49  1  0.19244558  0.82117106  0.21866500  1
  O  O50  1  0.19244558  0.51216194  0.06415993  1
  O  O51  1  0.69187800  0.82125204  0.71815099  1
  O  O52  1  0.69187800  0.51208096  0.56356495  1
  O  O53  1  0.69186664  0.15423563  0.38521843  1
  O  O54  1  0.93370139  0.51211725  0.82234864  1
  O  O55  1  0.93370139  0.82121575  0.97689739  1
  O  O56  1  0.43332444  0.82077961  0.47702392  1
  O  O57  1  0.93350154  0.15555767  0.64548584  1
  O  O58  1  0.43332444  0.51255339  0.32291131  1
  O  O59  1  0.43228494  0.15536239  0.14412741  1
  O  O60  1  0.43337069  0.99918787  0.29854207  1
  O  O61  1  0.70110472  0.66666700  0.90101596  1
  O  O62  1  0.20052266  0.66666700  0.40106015  1
  O  O63  1  0.70097652  0.99934010  0.56637504  1
  O  O64  1  0.43232733  0.66666700  0.63286122  1
  O  O65  1  0.93356446  0.00102405  0.80010017  1
  O  O66  1  0.20059495  0.00085930  0.06687433  1
  O  O67  1  0.92374988  0.33390303  0.97514151  1
  O  O68  1  0.19185110  0.33353431  0.24253054  1
  O  O69  1  0.69186274  0.33374218  0.74306265  1
  O  O70  1  0.42428858  0.33330948  0.47477875  1
  O  O71  1  0.19185452  0.84526376  0.73076129  1
  O  O72  1  0.69186664  0.17909837  0.89764880  1
  O  O73  1  0.19201763  0.17832375  0.39712298  1
  O  O74  1  0.19185452  0.48806924  0.55216353  1
  O  O75  1  0.43335270  0.84515283  0.99035866  1
  O  O76  1  0.43228494  0.17797061  0.65543102  1
  O  O77  1  0.43335270  0.48818017  0.81187184  1
  O  O78  1  0.20059495  0.33247370  0.73268203  1
  O  O79  1  0.43337069  0.33414513  0.96602119  1
  O  O80  1  0.19253206  0.66666700  0.90957602  1
  O  O81  1  0.42428858  0.00002352  0.80813627  1
  O  O82  1  0.19185110  0.99979869  0.57566223  1
  O  O83  1  0.19201763  0.15500925  0.88546524  1
