# generated using pymatgen
data_Na(WO3)10
_symmetry_space_group_name_H-M   'P 1'
_cell_length_a   13.98225531
_cell_length_b   6.70542257
_cell_length_c   6.70542257
_cell_angle_alpha   70.36981951
_cell_angle_beta   99.44037583
_cell_angle_gamma   99.44037583
_symmetry_Int_Tables_number   1
_chemical_formula_structural   Na(WO3)10
_chemical_formula_sum   'Na1 W10 O30'
_cell_volume   580.09443551
_cell_formula_units_Z   1
loop_
 _symmetry_equiv_pos_site_id
 _symmetry_equiv_pos_as_xyz
  1  'x, y, z'
loop_
 _atom_site_type_symbol
 _atom_site_label
 _atom_site_symmetry_multiplicity
 _atom_site_fract_x
 _atom_site_fract_y
 _atom_site_fract_z
 _atom_site_occupancy
  Na  Na0  1  0.20000000  0.30056362  0.29943638  1
  W  W1  1  0.60571546  0.39602161  0.89525046  1
  W  W2  1  0.80408464  0.19559129  0.69475576  1
  W  W3  1  0.19555549  0.30849046  0.79925610  1
  W  W4  1  0.39811238  0.10130985  0.60960676  1
  W  W5  1  0.79428554  0.70474954  0.20397839  1
  W  W6  1  0.99336299  0.50231672  0.00602827  1
  W  W7  1  0.59591536  0.90524424  0.40440871  1
  W  W8  1  0.40663701  0.59397173  0.09768328  1
  W  W9  1  0.00188762  0.99039324  0.49869015  1
  W  W10  1  0.20444451  0.80074390  0.29150954  1
  O  O11  1  0.90005358  0.35005302  0.85088335  1
  O  O12  1  0.80023359  0.94991484  0.95010261  1
  O  O13  1  0.50112361  0.49740601  0.99878109  1
  O  O14  1  0.70150460  0.29841181  0.79879921  1
  O  O15  1  0.90191009  0.09911033  0.59923511  1
  O  O16  1  0.29870630  0.44811931  0.95375692  1
  O  O17  1  0.50012068  0.24907717  0.75036532  1
  O  O18  1  0.80012727  0.45001265  0.45024831  1
  O  O19  1  0.89987932  0.84963468  0.35092283  1
  O  O20  1  0.70000000  0.04984780  0.55015220  1
  O  O21  1  0.59976641  0.64989739  0.65008516  1
  O  O22  1  0.39934702  0.84843685  0.85082381  1
  O  O23  1  0.29795776  0.20302572  0.69615612  1
  O  O24  1  0.69849540  0.80120079  0.30158819  1
  O  O25  1  0.89887639  0.60121891  0.10259399  1
  O  O26  1  0.49808991  0.00076489  0.50088967  1
  O  O27  1  0.10003111  0.40031604  0.90478506  1
  O  O28  1  0.59987273  0.14975169  0.14998735  1
  O  O29  1  0.10141033  0.15306282  0.64468521  1
  O  O30  1  0.49994642  0.74911665  0.24994698  1
  O  O31  1  0.39755666  0.34886881  0.35034110  1
  O  O32  1  0.70000000  0.54964297  0.05035703  1
  O  O33  1  0.00065298  0.74917619  0.75156315  1
  O  O34  1  0.29858967  0.95531479  0.44693718  1
  O  O35  1  0.20026376  0.55026458  0.54600370  1
  O  O36  1  0.29996889  0.69521494  0.19968396  1
  O  O37  1  0.10204224  0.90384388  0.39697428  1
  O  O38  1  0.19973624  0.05399630  0.04973542  1
  O  O39  1  0.00244334  0.24965890  0.25113119  1
  O  O40  1  0.10129370  0.64624308  0.15188069  1
