# generated using pymatgen
data_LiCo(PO3)4
_symmetry_space_group_name_H-M   'P 1'
_cell_length_a   7.23567198
_cell_length_b   7.52991466
_cell_length_c   5.08404794
_cell_angle_alpha   82.89385539
_cell_angle_beta   111.58505551
_cell_angle_gamma   113.70297672
_symmetry_Int_Tables_number   1
_chemical_formula_structural   LiCo(PO3)4
_chemical_formula_sum   'Li1 Co1 P4 O12'
_cell_volume   235.75034213
_cell_formula_units_Z   1
loop_
 _symmetry_equiv_pos_site_id
 _symmetry_equiv_pos_as_xyz
  1  'x, y, z'
loop_
 _atom_site_type_symbol
 _atom_site_label
 _atom_site_symmetry_multiplicity
 _atom_site_fract_x
 _atom_site_fract_y
 _atom_site_fract_z
 _atom_site_occupancy
  Li  Li0  1  0.71960426  0.55072107  0.05182371  1
  Co  Co1  1  0.00957068  0.01196484  0.99706849  1
  P  P2  1  0.40604347  0.21496523  0.56280723  1
  P  P3  1  0.19964754  0.79105864  0.54724933  1
  P  P4  1  0.79770588  0.20542307  0.44060562  1
  P  P5  1  0.60195736  0.78393721  0.44467644  1
  O  O6  1  0.76066228  0.80976363  0.75294657  1
  O  O7  1  0.24065823  0.19618736  0.26225145  1
  O  O8  1  0.03412824  0.81107295  0.25896020  1
  O  O9  1  0.38103152  0.76919363  0.45965131  1
  O  O10  1  0.12087482  0.64946320  0.74492937  1
  O  O11  1  0.68356157  0.99037850  0.29261717  1
  O  O12  1  0.31817537  0.00606761  0.70180089  1
  O  O13  1  0.45815695  0.37250834  0.75470167  1
  O  O14  1  0.57620744  0.63126243  0.26394341  1
  O  O15  1  0.61870041  0.21551814  0.53911665  1
  O  O16  1  0.97542805  0.19165985  0.71464006  1
  O  O17  1  0.85376392  0.35228830  0.23304044  1
