# generated using pymatgen
data_Mg5Ti13O30
_symmetry_space_group_name_H-M   'P 1'
_cell_length_a   5.25633805
_cell_length_b   10.67672215
_cell_length_c   10.10629826
_cell_angle_alpha   90.00000000
_cell_angle_beta   90.00000000
_cell_angle_gamma   96.19062654
_symmetry_Int_Tables_number   1
_chemical_formula_structural   Mg5Ti13O30
_chemical_formula_sum   'Mg5 Ti13 O30'
_cell_volume   563.86273103
_cell_formula_units_Z   1
loop_
 _symmetry_equiv_pos_site_id
 _symmetry_equiv_pos_as_xyz
  1  'x, y, z'
loop_
 _atom_site_type_symbol
 _atom_site_label
 _atom_site_symmetry_multiplicity
 _atom_site_fract_x
 _atom_site_fract_y
 _atom_site_fract_z
 _atom_site_occupancy
  Mg  Mg0  1  0.32309381  0.93425493  0.75000000  1
  Mg  Mg1  1  0.34035144  0.73147808  0.25000000  1
  Mg  Mg2  1  0.00941988  0.39972231  0.25000000  1
  Mg  Mg3  1  0.99143630  0.60360886  0.75000000  1
  Mg  Mg4  1  0.67277807  0.06417951  0.25000000  1
  Ti  Ti5  1  0.22701563  0.95444747  0.43308571  1
  Ti  Ti6  1  0.22701563  0.95444747  0.06691429  1
  Ti  Ti7  1  0.44280753  0.71121931  0.93226616  1
  Ti  Ti8  1  0.44280753  0.71121931  0.56773384  1
  Ti  Ti9  1  0.10760305  0.38105420  0.93862431  1
  Ti  Ti10  1  0.10760305  0.38105420  0.56137569  1
  Ti  Ti11  1  0.89027187  0.62335802  0.43269692  1
  Ti  Ti12  1  0.56177365  0.28652297  0.06808223  1
  Ti  Ti13  1  0.89027187  0.62335802  0.06730308  1
  Ti  Ti14  1  0.56177365  0.28652297  0.43191777  1
  Ti  Ti15  1  0.65848508  0.26789146  0.75000000  1
  Ti  Ti16  1  0.77800071  0.04213289  0.93804216  1
  Ti  Ti17  1  0.77800071  0.04213289  0.56195784  1
  O  O18  1  0.07483438  0.98497339  0.61338230  1
  O  O19  1  0.07483438  0.98497339  0.88661770  1
  O  O20  1  0.14583519  0.77063436  0.06303070  1
  O  O21  1  0.14583519  0.77063436  0.43696930  1
  O  O22  1  0.36711427  0.92626283  0.25000000  1
  O  O23  1  0.03350592  0.59269852  0.25000000  1
  O  O24  1  0.29919564  0.74037446  0.75000000  1
  O  O25  1  0.52238410  0.89683549  0.93409998  1
  O  O26  1  0.52238410  0.89683549  0.56590002  1
  O  O27  1  0.18808174  0.56119337  0.56673680  1
  O  O28  1  0.18808174  0.56119337  0.93326320  1
  O  O29  1  0.59080231  0.68196271  0.38668249  1
  O  O30  1  0.59080231  0.68196271  0.11331751  1
  O  O31  1  0.25913330  0.34748875  0.38899952  1
  O  O32  1  0.25913330  0.34748875  0.11100048  1
  O  O33  1  0.74200202  0.65116377  0.61303738  1
  O  O34  1  0.74200202  0.65116377  0.88696262  1
  O  O35  1  0.41456984  0.31715787  0.61988554  1
  O  O36  1  0.41456984  0.31715787  0.88011446  1
  O  O37  1  0.47909004  0.10454823  0.06454802  1
  O  O38  1  0.81597354  0.43659300  0.43798991  1
  O  O39  1  0.81597354  0.43659300  0.06201009  1
  O  O40  1  0.47909004  0.10454823  0.43545198  1
  O  O41  1  0.70256199  0.26029336  0.25000000  1
  O  O42  1  0.95019148  0.40235697  0.75000000  1
  O  O43  1  0.62501744  0.08268906  0.75000000  1
  O  O44  1  0.84842463  0.22993996  0.93072279  1
  O  O45  1  0.84842463  0.22993996  0.56927721  1
  O  O46  1  0.92481929  0.01586957  0.38660544  1
  O  O47  1  0.92481929  0.01586957  0.11339456  1
