# generated using pymatgen
data_TaSb3O8
_symmetry_space_group_name_H-M   'P 1'
_cell_length_a   5.57879795
_cell_length_b   4.96108963
_cell_length_c   23.91264098
_cell_angle_alpha   89.99589693
_cell_angle_beta   89.95712977
_cell_angle_gamma   90.02807904
_symmetry_Int_Tables_number   1
_chemical_formula_structural   TaSb3O8
_chemical_formula_sum   'Ta4 Sb12 O32'
_cell_volume   661.82790524
_cell_formula_units_Z   4
loop_
 _symmetry_equiv_pos_site_id
 _symmetry_equiv_pos_as_xyz
  1  'x, y, z'
loop_
 _atom_site_type_symbol
 _atom_site_label
 _atom_site_symmetry_multiplicity
 _atom_site_fract_x
 _atom_site_fract_y
 _atom_site_fract_z
 _atom_site_occupancy
  Ta  Ta0  1  0.12932096  0.00305117  0.42768299  1
  Ta  Ta1  1  0.36542763  0.49743153  0.17778700  1
  Ta  Ta2  1  0.62964834  0.49751476  0.42762882  1
  Ta  Ta3  1  0.63452423  0.50263742  0.92772974  1
  Sb  Sb4  1  0.98222633  0.54818440  0.30222657  1
  Sb  Sb5  1  0.98173953  0.54301246  0.80211378  1
  Sb  Sb6  1  0.13427018  0.00220250  0.92688335  1
  Sb  Sb7  1  0.36616957  0.49940118  0.67786244  1
  Sb  Sb8  1  0.51698295  0.04661261  0.05227310  1
  Sb  Sb9  1  0.51467505  0.04494476  0.55249869  1
  Sb  Sb10  1  0.47988096  0.95168595  0.30244279  1
  Sb  Sb11  1  0.48388748  0.95651205  0.80232518  1
  Sb  Sb12  1  0.86585466  0.99725872  0.17704067  1
  Sb  Sb13  1  0.86613157  0.00048043  0.67774723  1
  Sb  Sb14  1  0.01695526  0.45394131  0.05195136  1
  Sb  Sb15  1  0.01490239  0.45540811  0.55255384  1
  O  O16  1  0.08105397  0.71039272  0.14938544  1
  O  O17  1  0.07807656  0.70468636  0.64827192  1
  O  O18  1  0.14390306  0.21025190  0.70648834  1
  O  O19  1  0.13743911  0.21512674  0.20378466  1
  O  O20  1  0.15493507  0.83476192  0.34914140  1
  O  O21  1  0.15616607  0.83696828  0.84773910  1
  O  O22  1  0.17847039  0.16253239  0.50502204  1
  O  O23  1  0.17966541  0.15877770  0.00477582  1
  O  O24  1  0.31988926  0.65810622  0.25439706  1
  O  O25  1  0.32092690  0.65703579  0.75516691  1
  O  O26  1  0.34213480  0.33883503  0.59876741  1
  O  O27  1  0.34386831  0.33555840  0.09860032  1
  O  O28  1  0.36265547  0.71630020  0.95210794  1
  O  O29  1  0.36829055  0.72029441  0.45237175  1
  O  O30  1  0.42353809  0.21154095  0.40082484  1
  O  O31  1  0.42143388  0.20890739  0.90032579  1
  O  O32  1  0.57757227  0.79551920  0.64829025  1
  O  O33  1  0.57888482  0.79060814  0.15058327  1
  O  O34  1  0.64410439  0.28975545  0.70632554  1
  O  O35  1  0.63697276  0.28334438  0.20212818  1
  O  O36  1  0.65485685  0.66515479  0.34870721  1
  O  O37  1  0.65626592  0.66556170  0.84873278  1
  O  O38  1  0.67844889  0.33760814  0.50491211  1
  O  O39  1  0.67859817  0.34186311  0.00456794  1
  O  O40  1  0.81944207  0.84304729  0.25522816  1
  O  O41  1  0.82054726  0.84119086  0.75459240  1
  O  O42  1  0.84399295  0.16186498  0.09810812  1
  O  O43  1  0.84217408  0.16138472  0.59873232  1
  O  O44  1  0.86803925  0.78036585  0.45243327  1
  O  O45  1  0.86260546  0.78432007  0.95378952  1
  O  O46  1  0.91887548  0.28909393  0.89931371  1
  O  O47  1  0.92357642  0.28896165  0.40083691  1
