# generated using pymatgen
data_Mg2Ti7O15
_symmetry_space_group_name_H-M   'P 1'
_cell_length_a   5.25835160
_cell_length_b   10.71706744
_cell_length_c   10.08269589
_cell_angle_alpha   90.00000000
_cell_angle_beta   90.00000000
_cell_angle_gamma   96.02274266
_symmetry_Int_Tables_number   1
_chemical_formula_structural   Mg2Ti7O15
_chemical_formula_sum   'Mg4 Ti14 O30'
_cell_volume   565.06505418
_cell_formula_units_Z   2
loop_
 _symmetry_equiv_pos_site_id
 _symmetry_equiv_pos_as_xyz
  1  'x, y, z'
loop_
 _atom_site_type_symbol
 _atom_site_label
 _atom_site_symmetry_multiplicity
 _atom_site_fract_x
 _atom_site_fract_y
 _atom_site_fract_z
 _atom_site_occupancy
  Mg  Mg0  1  0.32459433  0.93558070  0.75000000  1
  Mg  Mg1  1  0.34207267  0.73108630  0.25000000  1
  Mg  Mg2  1  0.00808721  0.39834757  0.25000000  1
  Mg  Mg3  1  0.65857979  0.26831943  0.75000000  1
  Ti  Ti4  1  0.22686427  0.95299707  0.06151405  1
  Ti  Ti5  1  0.22686427  0.95299707  0.43848595  1
  Ti  Ti6  1  0.43980273  0.71366993  0.56151405  1
  Ti  Ti7  1  0.43980273  0.71366993  0.93848595  1
  Ti  Ti8  1  0.10815073  0.37653083  0.56245260  1
  Ti  Ti9  1  0.10815073  0.37653083  0.93754740  1
  Ti  Ti10  1  0.89436925  0.62020583  0.06830012  1
  Ti  Ti11  1  0.89436925  0.62020583  0.43169988  1
  Ti  Ti12  1  0.55851527  0.29013617  0.06245260  1
  Ti  Ti13  1  0.55851527  0.29013617  0.43754740  1
  Ti  Ti14  1  0.99148365  0.60178245  0.75000000  1
  Ti  Ti15  1  0.67518235  0.06488355  0.25000000  1
  Ti  Ti16  1  0.77229775  0.04646117  0.93169988  1
  Ti  Ti17  1  0.77229775  0.04646117  0.56830012  1
  O  O18  1  0.07382839  0.98537080  0.88825923  1
  O  O19  1  0.07382839  0.98537080  0.61174077  1
  O  O20  1  0.14789672  0.77048353  0.43422423  1
  O  O21  1  0.14789672  0.77048353  0.06577577  1
  O  O22  1  0.03890893  0.59226392  0.25000000  1
  O  O23  1  0.38157590  0.92979086  0.25000000  1
  O  O24  1  0.28509110  0.73687614  0.75000000  1
  O  O25  1  0.51877028  0.89618247  0.93422423  1
  O  O26  1  0.18264734  0.56270053  0.56902304  1
  O  O27  1  0.18264734  0.56270053  0.93097696  1
  O  O28  1  0.51877028  0.89618247  0.56577577  1
  O  O29  1  0.59283761  0.68129520  0.38825923  1
  O  O30  1  0.25849628  0.34876150  0.38636037  1
  O  O31  1  0.59283761  0.68129520  0.11174077  1
  O  O32  1  0.25849628  0.34876150  0.11363963  1
  O  O33  1  0.74815453  0.65029130  0.88089408  1
  O  O34  1  0.74815453  0.65029130  0.61910592  1
  O  O35  1  0.40817072  0.31790550  0.61363963  1
  O  O36  1  0.40817072  0.31790550  0.88636037  1
  O  O37  1  0.81145924  0.43675021  0.06654310  1
  O  O38  1  0.48401866  0.10396647  0.43097696  1
  O  O39  1  0.81145924  0.43675021  0.43345690  1
  O  O40  1  0.48401866  0.10396647  0.06902304  1
  O  O41  1  0.70784303  0.25186922  0.25000000  1
  O  O42  1  0.95882397  0.41479678  0.75000000  1
  O  O43  1  0.62775707  0.07440308  0.75000000  1
  O  O44  1  0.85520776  0.22991579  0.93345690  1
  O  O45  1  0.85520776  0.22991579  0.56654310  1
  O  O46  1  0.91851247  0.01637570  0.38089408  1
  O  O47  1  0.91851247  0.01637570  0.11910592  1
