# generated using pymatgen
data_Li2VFeP2(O4F)2
_symmetry_space_group_name_H-M   'P 1'
_cell_length_a   5.22473310
_cell_length_b   15.01772282
_cell_length_c   7.41181341
_cell_angle_alpha   94.18560339
_cell_angle_beta   71.28341040
_cell_angle_gamma   87.56231297
_symmetry_Int_Tables_number   1
_chemical_formula_structural   Li2VFeP2(O4F)2
_chemical_formula_sum   'Li6 V3 Fe3 P6 O24 F6'
_cell_volume   547.99348504
_cell_formula_units_Z   3
loop_
 _symmetry_equiv_pos_site_id
 _symmetry_equiv_pos_as_xyz
  1  'x, y, z'
loop_
 _atom_site_type_symbol
 _atom_site_label
 _atom_site_symmetry_multiplicity
 _atom_site_fract_x
 _atom_site_fract_y
 _atom_site_fract_z
 _atom_site_occupancy
  Li  Li0  1  0.06429266  0.20478245  0.01653810  1
  Li  Li1  1  0.26892683  0.46154816  0.64922043  1
  Li  Li2  1  0.60312142  0.12819476  0.31573840  1
  Li  Li3  1  0.39687858  0.87180524  0.68426160  1
  Li  Li4  1  0.73107317  0.53845184  0.35077957  1
  Li  Li5  1  0.93570734  0.79521755  0.98346190  1
  V  V6  1  0.00000000  0.00000000  0.50000000  1
  V  V7  1  0.33349655  0.66668782  0.66675485  1
  V  V8  1  0.66650345  0.33331218  0.33324515  1
  Fe  Fe9  1  0.00000000  0.00000000  0.00000000  1
  Fe  Fe10  1  0.33313308  0.66665133  0.16680675  1
  Fe  Fe11  1  0.66686692  0.33334867  0.83319325  1
  P  P12  1  0.10895960  0.21373308  0.45172784  1
  P  P13  1  0.22424744  0.45321162  0.21489393  1
  P  P14  1  0.44280896  0.88003550  0.11739939  1
  P  P15  1  0.55719104  0.11996450  0.88260061  1
  P  P16  1  0.77575256  0.54678838  0.78510607  1
  P  P17  1  0.89104040  0.78626692  0.54827216  1
  O  O18  1  0.01239975  0.73734173  0.34772247  1
  O  O19  1  0.13868766  0.55326795  0.21080272  1
  O  O20  1  0.23842957  0.88795771  0.00178249  1
  O  O21  1  0.34595995  0.40399415  0.01423723  1
  O  O22  1  0.19451288  0.11385707  0.45759720  1
  O  O23  1  0.04775211  0.58396331  0.67026629  1
  O  O24  1  0.09241092  0.77853470  0.66567249  1
  O  O25  1  0.38146123  0.25034367  0.33667012  1
  O  O26  1  0.32278035  0.92880205  0.31826397  1
  O  O27  1  0.42559906  0.44517850  0.33219662  1
  O  O28  1  0.52779289  0.78035395  0.12319240  1
  O  O29  1  0.28595682  0.08154595  0.99635823  1
  O  O30  1  0.71404318  0.91845405  0.00364177  1
  O  O31  1  0.47220711  0.21964605  0.87680760  1
  O  O32  1  0.57440094  0.55482150  0.66780338  1
  O  O33  1  0.67721965  0.07119795  0.68173603  1
  O  O34  1  0.61853877  0.74965633  0.66332988  1
  O  O35  1  0.90758908  0.22146530  0.33432751  1
  O  O36  1  0.95224789  0.41603669  0.32973371  1
  O  O37  1  0.80548712  0.88614293  0.54240280  1
  O  O38  1  0.65404005  0.59600585  0.98576277  1
  O  O39  1  0.76157043  0.11204229  0.99821751  1
  O  O40  1  0.86131234  0.44673205  0.78919728  1
  O  O41  1  0.98760025  0.26265827  0.65227753  1
  F  F42  1  0.15370774  0.97579361  0.71406968  1
  F  F43  1  0.17929093  0.69073223  0.95517970  1
  F  F44  1  0.48717006  0.64247812  0.37827456  1
  F  F45  1  0.51282994  0.35752188  0.62172544  1
  F  F46  1  0.82070907  0.30926777  0.04482030  1
  F  F47  1  0.84629226  0.02420639  0.28593032  1
