# generated using pymatgen
data_KMn2O4
_symmetry_space_group_name_H-M   'P 1'
_cell_length_a   3.05066541
_cell_length_b   5.13478240
_cell_length_c   12.69088926
_cell_angle_alpha   90.00000000
_cell_angle_beta   90.00000000
_cell_angle_gamma   93.35094267
_symmetry_Int_Tables_number   1
_chemical_formula_structural   KMn2O4
_chemical_formula_sum   'K2 Mn4 O8'
_cell_volume   198.45657937
_cell_formula_units_Z   2
loop_
 _symmetry_equiv_pos_site_id
 _symmetry_equiv_pos_as_xyz
  1  'x, y, z'
loop_
 _atom_site_type_symbol
 _atom_site_label
 _atom_site_symmetry_multiplicity
 _atom_site_fract_x
 _atom_site_fract_y
 _atom_site_fract_z
 _atom_site_occupancy
  K  K0  1  0.02733663  0.66900810  0.25000000  1
  K  K1  1  0.97266337  0.33099190  0.75000000  1
  Mn  Mn2  1  0.50000000  0.50000000  0.00000000  1
  Mn  Mn3  1  0.50000000  0.50000000  0.50000000  1
  Mn  Mn4  1  0.00000000  0.00000000  0.50000000  1
  Mn  Mn5  1  0.00000000  0.00000000  0.00000000  1
  O  O6  1  0.54618026  0.81569320  0.41724425  1
  O  O7  1  0.54618026  0.81569320  0.08275575  1
  O  O8  1  0.01254635  0.65927941  0.57730251  1
  O  O9  1  0.01254635  0.65927941  0.92269749  1
  O  O10  1  0.45381974  0.18430680  0.91724425  1
  O  O11  1  0.45381974  0.18430680  0.58275575  1
  O  O12  1  0.98745365  0.34072059  0.42269749  1
  O  O13  1  0.98745365  0.34072059  0.07730251  1
