# generated using pymatgen
data_Li2VFe(P2O7)2
_symmetry_space_group_name_H-M   'P 1'
_cell_length_a   14.09003904
_cell_length_b   8.26788226
_cell_length_c   7.04562739
_cell_angle_alpha   89.85393212
_cell_angle_beta   80.43192650
_cell_angle_gamma   90.02866234
_symmetry_Int_Tables_number   1
_chemical_formula_structural   Li2VFe(P2O7)2
_chemical_formula_sum   'Li6 V3 Fe3 P12 O42'
_cell_volume   809.35784457
_cell_formula_units_Z   3
loop_
 _symmetry_equiv_pos_site_id
 _symmetry_equiv_pos_as_xyz
  1  'x, y, z'
loop_
 _atom_site_type_symbol
 _atom_site_label
 _atom_site_symmetry_multiplicity
 _atom_site_fract_x
 _atom_site_fract_y
 _atom_site_fract_z
 _atom_site_occupancy
  Li  Li0  1  0.05838871  0.86133710  0.61245342  1
  Li  Li1  1  0.27447224  0.36161519  0.05181177  1
  Li  Li2  1  0.39239235  0.86100530  0.28201542  1
  Li  Li3  1  0.60777085  0.36091383  0.71967537  1
  Li  Li4  1  0.72562146  0.86193515  0.94784941  1
  Li  Li5  1  0.94131085  0.36060308  0.38723058  1
  V  V6  1  0.26222691  0.00014963  0.00977186  1
  V  V7  1  0.40446656  0.50013067  0.32380696  1
  V  V8  1  0.73830103  0.49987018  0.98963300  1
  Fe  Fe9  1  0.07262289  0.49994088  0.66025731  1
  Fe  Fe10  1  0.59468968  0.00011079  0.67221810  1
  Fe  Fe11  1  0.92746313  0.99970630  0.33961242  1
  P  P12  1  0.13300518  0.18049970  0.38966472  1
  P  P13  1  0.07176672  0.78364661  0.01460303  1
  P  P14  1  0.26194525  0.28415980  0.65132488  1
  P  P15  1  0.19995050  0.68038181  0.27848756  1
  P  P16  1  0.40486796  0.78424588  0.68195621  1
  P  P17  1  0.53348557  0.68142029  0.94416500  1
  P  P18  1  0.46671161  0.18100985  0.05471550  1
  P  P19  1  0.59460673  0.28394711  0.31889208  1
  P  P20  1  0.79974932  0.17952674  0.72223736  1
  P  P21  1  0.73792345  0.78392570  0.34822658  1
  P  P22  1  0.92843212  0.28349466  0.98565436  1
  P  P23  1  0.86721999  0.67978269  0.60991307  1
  O  O24  1  0.01670138  0.32624801  0.83922045  1
  O  O25  1  0.04614030  0.69453834  0.83921427  1
  O  O26  1  0.13367978  0.93289373  0.95034731  1
  O  O27  1  0.06188966  0.03879154  0.42009582  1
  O  O28  1  0.08308303  0.34506258  0.42619828  1
  O  O29  1  0.13300069  0.67792997  0.47283889  1
  O  O30  1  0.19937939  0.43266170  0.71411585  1
  O  O31  1  0.19883409  0.15278619  0.55372594  1
  O  O32  1  0.13483686  0.65226031  0.11248538  1
  O  O33  1  0.28883360  0.19694618  0.82524037  1
  O  O34  1  0.31733372  0.82488575  0.83138422  1
  O  O35  1  0.20061948  0.17826996  0.19440512  1
  O  O36  1  0.25161317  0.84327386  0.24177593  1
  O  O37  1  0.27115938  0.53866035  0.24608537  1
  O  O38  1  0.34960553  0.32473118  0.50229681  1
  O  O39  1  0.37814397  0.69675531  0.50896416  1
  O  O40  1  0.46803261  0.65305032  0.78020779  1
  O  O41  1  0.46773585  0.93283247  0.61880643  1
  O  O42  1  0.53368131  0.17830584  0.86011161  1
  O  O43  1  0.39556505  0.03879632  0.08765174  1
  O  O44  1  0.41540609  0.34352296  0.09140805  1
  O  O45  1  0.58391307  0.84560907  0.90723795  1
  O  O46  1  0.60458937  0.53952783  0.91243989  1
  O  O47  1  0.46632478  0.67817441  0.13921462  1
  O  O48  1  0.53288118  0.43285369  0.38328123  1
  O  O49  1  0.53176947  0.15263815  0.22107544  1
  O  O50  1  0.62110485  0.19485748  0.49364541  1
  O  O51  1  0.64978559  0.82631998  0.49513756  1
  O  O52  1  0.72855463  0.03773466  0.75330526  1
  O  O53  1  0.74875532  0.34259278  0.75852767  1
  O  O54  1  0.79950019  0.67789109  0.80499671  1
  O  O55  1  0.68229234  0.32517172  0.17015988  1
  O  O56  1  0.71192192  0.69632740  0.17419691  1
  O  O57  1  0.86539189  0.15191814  0.88820500  1
  O  O58  1  0.80108079  0.65248239  0.44633834  1
  O  O59  1  0.80080238  0.93246030  0.28490119  1
  O  O60  1  0.86707953  0.17786970  0.52774912  1
  O  O61  1  0.91718662  0.84463627  0.57331605  1
  O  O62  1  0.93820869  0.53837451  0.57998869  1
  O  O63  1  0.86663407  0.43240546  0.04996472  1
  O  O64  1  0.95386727  0.19423058  0.16176292  1
  O  O65  1  0.98369004  0.82610560  0.16179771  1
