# generated using pymatgen
data_LiVCrP2(HO5)2
_symmetry_space_group_name_H-M   'P 1'
_cell_length_a   19.33157632
_cell_length_b   7.36253650
_cell_length_c   5.20093831
_cell_angle_alpha   74.48436689
_cell_angle_beta   89.36158795
_cell_angle_gamma   85.93046772
_symmetry_Int_Tables_number   1
_chemical_formula_structural   LiVCrP2(HO5)2
_chemical_formula_sum   'Li4 V4 Cr4 P8 H8 O40'
_cell_volume   711.44810571
_cell_formula_units_Z   4
loop_
 _symmetry_equiv_pos_site_id
 _symmetry_equiv_pos_as_xyz
  1  'x, y, z'
loop_
 _atom_site_type_symbol
 _atom_site_label
 _atom_site_symmetry_multiplicity
 _atom_site_fract_x
 _atom_site_fract_y
 _atom_site_fract_z
 _atom_site_occupancy
  Li  Li0  1  0.13947563  0.98829010  0.78752515  1
  Li  Li1  1  0.35982176  0.51170458  0.71330964  1
  Li  Li2  1  0.60974207  0.76087512  0.46307207  1
  Li  Li3  1  0.85997790  0.01111140  0.21243705  1
  V  V4  1  0.12396912  0.61831585  0.38039994  1
  V  V5  1  0.37498118  0.88099715  0.12053441  1
  V  V6  1  0.62492419  0.13059968  0.87090432  1
  V  V7  1  0.87496497  0.38087957  0.62082299  1
  Cr  Cr8  1  0.99981800  0.00008937  0.00035392  1
  Cr  Cr9  1  0.24977354  0.25011137  0.75035711  1
  Cr  Cr10  1  0.49935788  0.49791475  0.50227599  1
  Cr  Cr11  1  0.74937873  0.74785529  0.25217526  1
  P  P12  1  0.03107246  0.25426919  0.41794195  1
  P  P13  1  0.21844966  0.98893318  0.33042301  1
  P  P14  1  0.28103951  0.51075765  0.17012135  1
  P  P15  1  0.46862042  0.24399388  0.08307744  1
  P  P16  1  0.53115788  0.75966847  0.92061187  1
  P  P17  1  0.71861351  0.49376472  0.83292524  1
  P  P18  1  0.78117605  0.00967961  0.67064665  1
  P  P19  1  0.96834437  0.74508794  0.58270341  1
  H  H20  1  0.07092852  0.72386348  0.92218733  1
  H  H21  1  0.17285206  0.50980752  0.84353019  1
  H  H22  1  0.32708716  0.99051497  0.65718915  1
  H  H23  1  0.42842787  0.77455448  0.57986106  1
  H  H24  1  0.57656068  0.23898469  0.40844831  1
  H  H25  1  0.67840629  0.02431981  0.33042060  1
  H  H26  1  0.82651515  0.48885803  0.15798238  1
  H  H27  1  0.92891462  0.27599996  0.07888205  1
  O  O28  1  0.04400289  0.11339887  0.25309369  1
  O  O29  1  0.05398145  0.16456209  0.70945656  1
  O  O30  1  0.04669548  0.66845872  0.60846586  1
  O  O31  1  0.07633686  0.42561332  0.29966425  1
  O  O32  1  0.08105473  0.79959648  0.04711934  1
  O  O33  1  0.19835695  0.07131788  0.03504271  1
  O  O34  1  0.17195020  0.45327229  0.69134122  1
  O  O35  1  0.20592084  0.13424057  0.49391735  1
  O  O36  1  0.17084790  0.82834224  0.46243992  1
  O  O37  1  0.20299230  0.58635809  0.13958832  1
  O  O38  1  0.32775985  0.04677328  0.80969600  1
  O  O39  1  0.29407175  0.36588429  0.00605100  1
  O  O40  1  0.30154617  0.42834163  0.46510420  1
  O  O41  1  0.29679016  0.91312141  0.36085994  1
  O  O42  1  0.32891941  0.67166332  0.03814227  1
  O  O43  1  0.42339013  0.07341978  0.20279035  1
  O  O44  1  0.44528471  0.33461333  0.79204761  1
  O  O45  1  0.41837588  0.69886986  0.45455191  1
  O  O46  1  0.45688344  0.38734665  0.24480856  1
  O  O47  1  0.45276700  0.83364328  0.88652364  1
  O  O48  1  0.54655855  0.16563211  0.10654745  1
  O  O49  1  0.54480776  0.61597615  0.75525657  1
  O  O50  1  0.57716025  0.29508517  0.56100105  1
  O  O51  1  0.55054049  0.67880955  0.21669204  1
  O  O52  1  0.57885249  0.92105758  0.79014243  1
  O  O53  1  0.67344598  0.32315756  0.95240000  1
  O  O54  1  0.70274505  0.08341776  0.63690368  1
  O  O55  1  0.69534356  0.58435326  0.54180100  1
  O  O56  1  0.70689657  0.63698863  0.99491757  1
  O  O57  1  0.66818148  0.94866206  0.20524678  1
  O  O58  1  0.79659922  0.41563289  0.85627038  1
  O  O59  1  0.82887583  0.17102067  0.54039959  1
  O  O60  1  0.79480818  0.86612865  0.50499871  1
  O  O61  1  0.82728731  0.54512215  0.31035859  1
  O  O62  1  0.80054457  0.92883298  0.96682278  1
  O  O63  1  0.91867659  0.20014298  0.95424346  1
  O  O64  1  0.92336442  0.57406971  0.70072934  1
  O  O65  1  0.95301673  0.33071672  0.39222126  1
  O  O66  1  0.94593979  0.83505934  0.29075872  1
  O  O67  1  0.95605988  0.88637391  0.74718806  1
