# generated using pymatgen
data_FeP2O7
_symmetry_space_group_name_H-M   'P 1'
_cell_length_a   7.06683169
_cell_length_b   8.36021906
_cell_length_c   9.31999675
_cell_angle_alpha   90.00000000
_cell_angle_beta   112.20351839
_cell_angle_gamma   90.00000000
_symmetry_Int_Tables_number   1
_chemical_formula_structural   FeP2O7
_chemical_formula_sum   'Fe4 P8 O28'
_cell_volume   509.79734390
_cell_formula_units_Z   4
loop_
 _symmetry_equiv_pos_site_id
 _symmetry_equiv_pos_as_xyz
  1  'x, y, z'
loop_
 _atom_site_type_symbol
 _atom_site_label
 _atom_site_symmetry_multiplicity
 _atom_site_fract_x
 _atom_site_fract_y
 _atom_site_fract_z
 _atom_site_occupancy
  Fe  Fe0  1  0.87185776  0.41882903  0.13739008  1
  Fe  Fe1  1  0.37185776  0.08117097  0.63739008  1
  Fe  Fe2  1  0.12814224  0.58117097  0.86260992  1
  Fe  Fe3  1  0.62814224  0.91882903  0.36260992  1
  P  P4  1  0.57023091  0.75567873  0.03521593  1
  P  P5  1  0.42976909  0.24432127  0.96478407  1
  P  P6  1  0.92976909  0.25567873  0.46478407  1
  P  P7  1  0.67837178  0.77793703  0.75378088  1
  P  P8  1  0.07023091  0.74432127  0.53521593  1
  P  P9  1  0.17837178  0.72206297  0.25378088  1
  P  P10  1  0.32162822  0.22206297  0.24621912  1
  P  P11  1  0.82162822  0.27793703  0.74621912  1
  O  O12  1  0.40078582  0.08272383  0.36173985  1
  O  O13  1  0.63619975  0.88740778  0.15847391  1
  O  O14  1  0.83880588  0.76622964  0.47146628  1
  O  O15  1  0.68889796  0.60074649  0.08566463  1
  O  O16  1  0.36380025  0.11259222  0.84152609  1
  O  O17  1  0.90078582  0.41727617  0.86173985  1
  O  O18  1  0.59921418  0.91727617  0.63826015  1
  O  O19  1  0.86380025  0.38740778  0.34152609  1
  O  O20  1  0.16119412  0.23377036  0.52853372  1
  O  O21  1  0.06979457  0.88031350  0.18548936  1
  O  O22  1  0.90774119  0.74752142  0.81211220  1
  O  O23  1  0.81110204  0.10074649  0.41433537  1
  O  O24  1  0.59225881  0.24752142  0.68788780  1
  O  O25  1  0.37401682  0.16543268  0.10190528  1
  O  O26  1  0.13619875  0.61259222  0.65847391  1
  O  O27  1  0.12598318  0.66543268  0.39809472  1
  O  O28  1  0.33880588  0.73377036  0.97146628  1
  O  O29  1  0.09921418  0.58272383  0.13826015  1
  O  O30  1  0.31110204  0.39925351  0.91433537  1
  O  O31  1  0.43020543  0.38031350  0.31451064  1
  O  O32  1  0.93020543  0.11968650  0.81451064  1
  O  O33  1  0.40774119  0.75247858  0.31211220  1
  O  O34  1  0.87401682  0.33456732  0.60190528  1
  O  O35  1  0.09225881  0.25247858  0.18788780  1
  O  O36  1  0.66119412  0.26622964  0.02853372  1
  O  O37  1  0.18889796  0.89925351  0.58566463  1
  O  O38  1  0.62598318  0.83456732  0.89809472  1
  O  O39  1  0.56979457  0.61968650  0.68548936  1
