# generated using pymatgen
data_NaVP2O7
_symmetry_space_group_name_H-M   'P 1'
_cell_length_a   4.90228480
_cell_length_b   8.36264208
_cell_length_c   7.19684291
_cell_angle_alpha   90.00000000
_cell_angle_beta   107.77429522
_cell_angle_gamma   90.00000000
_symmetry_Int_Tables_number   1
_chemical_formula_structural   NaVP2O7
_chemical_formula_sum   'Na2 V2 P4 O14'
_cell_volume   280.95874286
_cell_formula_units_Z   2
loop_
 _symmetry_equiv_pos_site_id
 _symmetry_equiv_pos_as_xyz
  1  'x, y, z'
loop_
 _atom_site_type_symbol
 _atom_site_label
 _atom_site_symmetry_multiplicity
 _atom_site_fract_x
 _atom_site_fract_y
 _atom_site_fract_z
 _atom_site_occupancy
  Na  Na0  1  0.22853597  0.90378383  0.73370732  1
  Na  Na1  1  0.77146403  0.40378383  0.26629268  1
  V  V2  1  0.21889919  0.49691530  0.73008820  1
  V  V3  1  0.78110081  0.99691530  0.26991180  1
  P  P4  1  0.38984512  0.18776209  0.50355163  1
  P  P5  1  0.22599538  0.76780270  0.10654279  1
  P  P6  1  0.77400462  0.26780270  0.89345721  1
  P  P7  1  0.61015488  0.68776209  0.49644837  1
  O  O8  1  0.02951529  0.31454498  0.82774786  1
  O  O9  1  0.14380234  0.67250811  0.91834632  1
  O  O10  1  0.16310511  0.05563867  0.46157306  1
  O  O11  1  0.26680066  0.35522955  0.50174699  1
  O  O12  1  0.41212954  0.67726352  0.62414935  1
  O  O13  1  0.59089776  0.41483040  0.91118127  1
  O  O14  1  0.57603827  0.14650984  0.72894873  1
  O  O15  1  0.42396173  0.64650984  0.27105127  1
  O  O16  1  0.40910224  0.91483040  0.08881873  1
  O  O17  1  0.58787046  0.17726352  0.37585065  1
  O  O18  1  0.73319934  0.85522955  0.49825301  1
  O  O19  1  0.83689489  0.55563867  0.53842694  1
  O  O20  1  0.85619766  0.17250811  0.08165368  1
  O  O21  1  0.97048471  0.81454498  0.17225214  1
