# generated using pymatgen
data_LiVCrP2(HO5)2
_symmetry_space_group_name_H-M   'P 1'
_cell_length_a   14.51604154
_cell_length_b   7.36325976
_cell_length_c   5.20352101
_cell_angle_alpha   74.48900594
_cell_angle_beta   86.14953872
_cell_angle_gamma   91.84160652
_symmetry_Int_Tables_number   1
_chemical_formula_structural   LiVCrP2(HO5)2
_chemical_formula_sum   'Li3 V3 Cr3 P6 H6 O30'
_cell_volume   533.98768109
_cell_formula_units_Z   3
loop_
 _symmetry_equiv_pos_site_id
 _symmetry_equiv_pos_as_xyz
  1  'x, y, z'
loop_
 _atom_site_type_symbol
 _atom_site_label
 _atom_site_symmetry_multiplicity
 _atom_site_fract_x
 _atom_site_fract_y
 _atom_site_fract_z
 _atom_site_occupancy
  Li  Li0  1  0.18603585  0.03528834  0.74130997  1
  Li  Li1  1  0.47988674  0.63115418  0.59293024  1
  Li  Li2  1  0.81340936  0.96390890  0.25866511  1
  V  V3  1  0.16548350  0.65992947  0.33882422  1
  V  V4  1  0.50021960  0.00594874  0.99554304  1
  V  V5  1  0.83349053  0.33930107  0.66223697  1
  Cr  Cr6  1  0.99979636  0.00011447  0.00016044  1
  Cr  Cr7  1  0.33307031  0.33352807  0.66685478  1
  Cr  Cr8  1  0.66592043  0.66412381  0.33579420  1
  P  P9  1  0.04149828  0.26470659  0.40736281  1
  P  P10  1  0.29145864  0.06179690  0.25737503  1
  P  P11  1  0.37476388  0.60460967  0.07648537  1
  P  P12  1  0.62496980  0.40020919  0.92660758  1
  P  P13  1  0.70834338  0.93673392  0.74361046  1
  P  P14  1  0.95796257  0.73479079  0.59306696  1
  H  H15  1  0.09467049  0.74766418  0.89889382  1
  H  H16  1  0.23036768  0.56735024  0.78534392  1
  H  H17  1  0.43636927  0.09964631  0.54858587  1
  H  H18  1  0.57123727  0.91734400  0.43654194  1
  H  H19  1  0.76888081  0.43113094  0.21589923  1
  H  H20  1  0.90517107  0.25230621  0.10211026  1
  O  O21  1  0.05864286  0.12838409  0.23788154  1
  O  O22  1  0.07192773  0.18236503  0.69111268  1
  O  O23  1  0.06232850  0.68433155  0.59266092  1
  O  O24  1  0.10180828  0.45115475  0.27463290  1
  O  O25  1  0.10806897  0.82691516  0.02019760  1
  O  O26  1  0.26463196  0.13750335  0.96889092  1
  O  O27  1  0.22939665  0.51075615  0.63332612  1
  O  O28  1  0.27470007  0.20268706  0.42536869  1
  O  O29  1  0.39579172  0.01213093  0.26165988  1
  O  O30  1  0.22780698  0.88537579  0.40485468  1
  O  O31  1  0.27067123  0.65416973  0.07212670  1
  O  O32  1  0.39203029  0.46432952  0.90772098  1
  O  O33  1  0.43703533  0.15595262  0.70095105  1
  O  O34  1  0.40200155  0.52882450  0.36452950  1
  O  O35  1  0.43862725  0.78134254  0.92916985  1
  O  O36  1  0.56460853  0.21452937  0.06105953  1
  O  O37  1  0.59374022  0.48314721  0.64371076  1
  O  O38  1  0.55781984  0.83812485  0.31496828  1
  O  O39  1  0.60928051  0.53929962  0.09271702  1
  O  O40  1  0.72881316  0.34794751  0.92373429  1
  O  O41  1  0.77197545  0.11384740  0.59781935  1
  O  O42  1  0.60377133  0.98449535  0.73602737  1
  O  O43  1  0.72634593  0.79776794  0.57335277  1
  O  O44  1  0.76963819  0.48730397  0.36827763  1
  O  O45  1  0.73399230  0.86219063  0.03329504  1
  O  O46  1  0.89151277  0.17299672  0.98104944  1
  O  O47  1  0.89788950  0.54863873  0.72549585  1
  O  O48  1  0.93739309  0.31499825  0.40785046  1
  O  O49  1  0.92800508  0.81744840  0.30890351  1
  O  O50  1  0.94139891  0.87155628  0.76214849  1
