# generated using pymatgen
data_LiMn3Al2(HO2)6
_symmetry_space_group_name_H-M   'P 1'
_cell_length_a   5.15912652
_cell_length_b   5.15909704
_cell_length_c   19.14171016
_cell_angle_alpha   92.66820277
_cell_angle_beta   92.66817369
_cell_angle_gamma   120.70494794
_symmetry_Int_Tables_number   1
_chemical_formula_structural   LiMn3Al2(HO2)6
_chemical_formula_sum   'Li2 Mn6 Al4 H12 O24'
_cell_volume   436.11445729
_cell_formula_units_Z   2
loop_
 _symmetry_equiv_pos_site_id
 _symmetry_equiv_pos_as_xyz
  1  'x, y, z'
loop_
 _atom_site_type_symbol
 _atom_site_label
 _atom_site_symmetry_multiplicity
 _atom_site_fract_x
 _atom_site_fract_y
 _atom_site_fract_z
 _atom_site_occupancy
  Li  Li0  1  0.58302123  0.91648905  0.75003788  1
  Li  Li1  1  0.74982796  0.74968717  0.25003572  1
  Mn  Mn2  1  0.17004960  0.83397126  0.50002647  1
  Mn  Mn3  1  0.33344273  0.66681795  0.00003512  1
  Mn  Mn4  1  0.50012326  0.50009298  0.50003803  1
  Mn  Mn5  1  0.66731093  0.33672246  0.00002549  1
  Mn  Mn6  1  0.83012559  0.16605484  0.50001826  1
  Mn  Mn7  1  0.99939767  0.99680848  0.00002291  1
  Al  Al8  1  0.91656270  0.58283969  0.74997053  1
  Al  Al9  1  0.08416867  0.41693796  0.24997196  1
  Al  Al10  1  0.41618246  0.08322073  0.24996601  1
  Al  Al11  1  0.25028725  0.25085350  0.74997740  1
  H  H12  1  0.43569678  0.79074156  0.35330534  1
  H  H13  1  0.26882409  0.95384138  0.85324825  1
  H  H14  1  0.89661150  0.88127805  0.64681217  1
  H  H15  1  0.05746653  0.71476157  0.14677458  1
  H  H16  1  0.78717439  0.43548732  0.35324304  1
  H  H17  1  0.62408424  0.60236419  0.85331099  1
  H  H18  1  0.19870146  0.53410077  0.64697575  1
  H  H19  1  0.36743741  0.36536827  0.14697051  1
  H  H20  1  0.13264758  0.13262724  0.35302332  1
  H  H21  1  0.96596481  0.29931795  0.85302696  1
  H  H22  1  0.71461022  0.06327387  0.14680845  1
  H  H23  1  0.54809878  0.22414159  0.64677918  1
  O  O24  1  0.47893338  0.84194507  0.44592511  1
  O  O25  1  0.40560399  0.76903829  0.30155351  1
  O  O26  1  0.23840563  0.93570991  0.80166308  1
  O  O27  1  0.31272563  0.99055890  0.94864539  1
  O  O28  1  0.92861891  0.89803791  0.69825636  1
  O  O29  1  0.85123482  0.85218752  0.54998844  1
  O  O30  1  0.99122781  0.68784322  0.05413157  1
  O  O31  1  0.09605388  0.73095957  0.19824868  1
  O  O32  1  0.76905601  0.40505864  0.30166033  1
  O  O33  1  0.82388376  0.47939658  0.44864363  1
  O  O34  1  0.67535404  0.64560703  0.94591999  1
  O  O35  1  0.60236700  0.57228087  0.80155660  1
  O  O36  1  0.36898612  0.36869210  0.19847642  1
  O  O37  1  0.35389338  0.34291258  0.05140106  1
  O  O38  1  0.20201205  0.53563707  0.69847809  1
  O  O39  1  0.17622832  0.52055758  0.55140621  1
  O  O40  1  0.98132271  0.31578682  0.95005434  1
  O  O41  1  0.13081641  0.13094689  0.30161074  1
  O  O42  1  0.96430773  0.29750753  0.80161449  1
  O  O43  1  0.14909800  0.14797897  0.45004752  1
  O  O44  1  0.56430908  0.26270589  0.69825107  1
  O  O45  1  0.52117393  0.15795264  0.55412589  1
  O  O46  1  0.73135915  0.09529717  0.19825270  1
  O  O47  1  0.68551240  0.01789745  0.04998246  1
