# generated using pymatgen
data_LiVCrP2(HO5)2
_symmetry_space_group_name_H-M   'P 1'
_cell_length_a   5.30974981
_cell_length_b   10.37056387
_cell_length_c   7.36477292
_cell_angle_alpha   105.44666547
_cell_angle_beta   69.83138368
_cell_angle_gamma   83.02022692
_symmetry_Int_Tables_number   1
_chemical_formula_structural   LiVCrP2(HO5)2
_chemical_formula_sum   'Li2 V2 Cr2 P4 H4 O20'
_cell_volume   356.57752039
_cell_formula_units_Z   2
loop_
 _symmetry_equiv_pos_site_id
 _symmetry_equiv_pos_as_xyz
  1  'x, y, z'
loop_
 _atom_site_type_symbol
 _atom_site_label
 _atom_site_symmetry_multiplicity
 _atom_site_fract_x
 _atom_site_fract_y
 _atom_site_fract_z
 _atom_site_occupancy
  Li  Li0  1  0.40413525  0.03218796  0.18313025  1
  Li  Li1  1  0.09586475  0.46781204  0.31686975  1
  V  V2  1  0.75000000  0.75000000  0.25000000  1
  V  V3  1  0.25000000  0.25000000  0.75000000  1
  Cr  Cr4  1  0.49871295  0.50222753  0.50547063  1
  Cr  Cr5  1  0.00128705  0.99777247  0.99452937  1
  P  P6  1  0.90188338  0.22612028  0.45017313  1
  P  P7  1  0.39835254  0.72424310  0.95231062  1
  P  P8  1  0.59811662  0.27387972  0.04982687  1
  P  P9  1  0.10164746  0.77575690  0.54768938  1
  H  H10  1  0.78841048  0.49615968  0.15117832  1
  H  H11  1  0.71158952  0.00384032  0.34882168  1
  H  H12  1  0.31540177  0.99332058  0.65373914  1
  H  H13  1  0.18459823  0.50667942  0.84626086  1
  O  O14  1  0.97772858  0.84635543  0.77857248  1
  O  O15  1  0.85903579  0.32494727  0.94703528  1
  O  O16  1  0.88131954  0.81062466  0.46002494  1
  O  O17  1  0.83701910  0.38164872  0.48932952  1
  O  O18  1  0.66298090  0.11835128  0.01067048  1
  O  O19  1  0.73785461  0.93698359  0.21591787  1
  O  O20  1  0.76214539  0.56301641  0.28408213  1
  O  O21  1  0.52227142  0.65364457  0.72142752  1
  O  O22  1  0.64096421  0.17505273  0.55296472  1
  O  O23  1  0.36959798  0.31403851  0.97356202  1
  O  O24  1  0.61868046  0.68937534  0.03997506  1
  O  O25  1  0.35876399  0.83207855  0.44927011  1
  O  O26  1  0.46641283  0.35522902  0.28095522  1
  O  O27  1  0.25867138  0.43003371  0.71434350  1
  O  O28  1  0.24132862  0.06996629  0.78565650  1
  O  O29  1  0.31814260  0.88210092  0.01161911  1
  O  O30  1  0.18185740  0.61789908  0.48838089  1
  O  O31  1  0.13040202  0.18596149  0.52643798  1
  O  O32  1  0.14123601  0.66792145  0.05072989  1
  O  O33  1  0.03358717  0.14477098  0.21904478  1
