# generated using pymatgen
data_Li2VFeP2(O4F)2
_symmetry_space_group_name_H-M   'P 1'
_cell_length_a   7.56959768
_cell_length_b   6.96443062
_cell_length_c   7.79007424
_cell_angle_alpha   91.18874507
_cell_angle_beta   117.28124763
_cell_angle_gamma   90.49437100
_symmetry_Int_Tables_number   1
_chemical_formula_structural   Li2VFeP2(O4F)2
_chemical_formula_sum   'Li4 V2 Fe2 P4 O16 F4'
_cell_volume   364.84139348
_cell_formula_units_Z   2
loop_
 _symmetry_equiv_pos_site_id
 _symmetry_equiv_pos_as_xyz
  1  'x, y, z'
loop_
 _atom_site_type_symbol
 _atom_site_label
 _atom_site_symmetry_multiplicity
 _atom_site_fract_x
 _atom_site_fract_y
 _atom_site_fract_z
 _atom_site_occupancy
  Li  Li0  1  0.07932327  0.65180494  0.26733491  1
  Li  Li1  1  0.57849152  0.15202297  0.76704308  1
  Li  Li2  1  0.42114333  0.84729976  0.23287247  1
  Li  Li3  1  0.92099422  0.34878786  0.73268569  1
  V  V4  1  0.99964355  -0.00002823  0.00022327  1
  V  V5  1  0.75000981  0.25008909  0.24975701  1
  Fe  Fe6  1  0.50084266  0.49984749  0.49969882  1
  Fe  Fe7  1  0.25000155  0.75010411  0.75064473  1
  P  P8  1  0.22261607  0.10055492  0.46008560  1
  P  P9  1  0.27767559  0.39967281  0.03982800  1
  P  P10  1  0.72175696  0.60061110  0.95974145  1
  P  P11  1  0.77796557  0.89917671  0.54039677  1
  O  O12  1  0.10393484  0.26476472  0.01811754  1
  O  O13  1  0.03765780  0.21420243  0.42790773  1
  O  O14  1  0.46254532  0.28598750  0.07218319  1
  O  O15  1  0.68897678  0.00353866  0.34508903  1
  O  O16  1  0.39617235  0.23645428  0.48098275  1
  O  O17  1  0.32510963  0.54740928  0.21162942  1
  O  O18  1  0.82457757  0.04676284  0.71178725  1
  O  O19  1  0.81152367  0.49691764  0.15565591  1
  O  O20  1  0.18729605  0.50374041  0.84422173  1
  O  O21  1  0.17533427  0.95310792  0.28839423  1
  O  O22  1  0.67512689  0.45287426  0.78819876  1
  O  O23  1  0.60293569  0.76425791  0.51764030  1
  O  O24  1  0.31214195  0.99551443  0.65489898  1
  O  O25  1  0.53636258  0.71364531  0.92659564  1
  O  O26  1  0.96352052  0.78622762  0.57358428  1
  O  O27  1  0.89688034  0.73470452  0.98319031  1
  F  F28  1  0.76689001  0.10301941  0.03014120  1
  F  F29  1  0.26758286  0.60265331  0.53061865  1
  F  F30  1  0.73178474  0.39760724  0.46986254  1
  F  F31  1  0.23318204  0.89666678  0.96898575  1
