# generated using pymatgen
data_CoP3H15C3NO12
_symmetry_space_group_name_H-M   'P 1'
_cell_length_a   9.25549752
_cell_length_b   9.89436810
_cell_length_c   16.29651034
_cell_angle_alpha   90.00000000
_cell_angle_beta   90.00000000
_cell_angle_gamma   115.30693519
_symmetry_Int_Tables_number   1
_chemical_formula_structural   CoP3H15C3NO12
_chemical_formula_sum   'Co4 P12 H60 C12 N4 O48'
_cell_volume   1349.16691602
_cell_formula_units_Z   4
loop_
 _symmetry_equiv_pos_site_id
 _symmetry_equiv_pos_as_xyz
  1  'x, y, z'
loop_
 _atom_site_type_symbol
 _atom_site_label
 _atom_site_symmetry_multiplicity
 _atom_site_fract_x
 _atom_site_fract_y
 _atom_site_fract_z
 _atom_site_occupancy
  Co  Co0  1  0.54391647  0.17320783  0.70825182  1
  Co  Co1  1  0.45608353  0.32679217  0.20825182  1
  Co  Co2  1  0.45608353  0.82679217  0.29174818  1
  Co  Co3  1  0.54391647  0.67320783  0.79174818  1
  P  P4  1  0.17409345  0.99165858  0.78310309  1
  P  P5  1  0.82590655  0.50834142  0.28310309  1
  P  P6  1  0.82590655  0.00834142  0.21689691  1
  P  P7  1  0.17409345  0.49165858  0.71689691  1
  P  P8  1  0.93901275  0.71492877  0.53933725  1
  P  P9  1  0.06098725  0.78507123  0.03933725  1
  P  P10  1  0.06098725  0.28507123  0.46066275  1
  P  P11  1  0.93901275  0.21492877  0.96066275  1
  P  P12  1  0.54973853  0.88515762  0.61880041  1
  P  P13  1  0.45026147  0.61484238  0.11880041  1
  P  P14  1  0.45026147  0.11484238  0.38119959  1
  P  P15  1  0.54973853  0.38515762  0.88119959  1
  H  H16  1  0.77316426  0.86698811  0.58289612  1
  H  H17  1  0.22683574  0.63301189  0.08289612  1
  H  H18  1  0.22683574  0.13301189  0.41710388  1
  H  H19  1  0.77316426  0.36698811  0.91710388  1
  H  H20  1  0.02375265  0.92288304  0.66678237  1
  H  H21  1  0.97624735  0.57711696  0.16678237  1
  H  H22  1  0.97624735  0.07711696  0.33321763  1
  H  H23  1  0.02375265  0.42288304  0.83321763  1
  H  H24  1  0.92585281  0.72933750  0.40472527  1
  H  H25  1  0.07414719  0.77066250  0.90472527  1
  H  H26  1  0.07414719  0.27066250  0.59527473  1
  H  H27  1  0.92585281  0.22933750  0.09527473  1
  H  H28  1  0.85544825  0.33058777  0.66716751  1
  H  H29  1  0.14455175  0.16941223  0.16716751  1
  H  H30  1  0.14455175  0.66941223  0.33283249  1
  H  H31  1  0.85544825  0.83058777  0.83283249  1
  H  H32  1  0.77808451  0.41319566  0.61087351  1
  H  H33  1  0.22191549  0.08680434  0.11087351  1
  H  H34  1  0.22191549  0.58680434  0.38912649  1
  H  H35  1  0.77808451  0.91319566  0.88912649  1
  H  H36  1  0.68367258  0.00495966  0.76876223  1
  H  H37  1  0.31632742  0.49504034  0.26876223  1
  H  H38  1  0.31632742  0.99504034  0.23123777  1
  H  H39  1  0.68367258  0.50495966  0.73123777  1
  H  H40  1  0.76651741  0.16440969  0.81812358  1
  H  H41  1  0.23348259  0.33559031  0.31812358  1
  H  H42  1  0.23348259  0.83559031  0.18187642  1
  H  H43  1  0.76651741  0.66440969  0.68187642  1
  H  H44  1  0.40736201  0.36043056  0.66703856  1
  H  H45  1  0.59263799  0.13956944  0.16703856  1
  H  H46  1  0.59263799  0.63956944  0.33296144  1
  H  H47  1  0.40736201  0.86043056  0.83296144  1
  H  H48  1  0.31812907  0.21782945  0.61251480  1
  H  H49  1  0.68187093  0.28217055  0.11251480  1
  H  H50  1  0.68187093  0.78217055  0.38748520  1
  H  H51  1  0.31812907  0.71782945  0.88748520  1
  H  H52  1  0.40266114  0.62423683  0.58152254  1
  H  H53  1  0.59733886  0.87576317  0.08152254  1
  H  H54  1  0.59733886  0.37576317  0.41847746  1
  H  H55  1  0.40266114  0.12423683  0.91847746  1
  H  H56  1  0.40266220  0.74664016  0.49835113  1
  H  H57  1  0.59733780  0.75335984  0.99835113  1
  H  H58  1  0.59733780  0.25335984  0.50164887  1
  H  H59  1  0.40266220  0.24664016  0.00164887  1
  H  H60  1  0.05375574  0.15572488  0.82335007  1
  H  H61  1  0.94624426  0.34427512  0.32335007  1
  H  H62  1  0.94624426  0.84427512  0.17664993  1
  H  H63  1  0.05375574  0.65572488  0.67664993  1
  H  H64  1  0.25412392  0.25440807  0.78661769  1
  H  H65  1  0.74587608  0.24559193  0.28661769  1
  H  H66  1  0.74587608  0.74559193  0.21338231  1
  H  H67  1  0.25412392  0.75440807  0.71338231  1
  H  H68  1  0.20693108  0.90228757  0.56426899  1
  H  H69  1  0.79306892  0.59771243  0.06426899  1
  H  H70  1  0.79306892  0.09771243  0.43573101  1
  H  H71  1  0.20693108  0.40228757  0.93573101  1
  H  H72  1  0.20316028  0.79378832  0.47735282  1
  H  H73  1  0.79683972  0.70621168  0.97735282  1
  H  H74  1  0.79683972  0.20621168  0.52264718  1
  H  H75  1  0.20316028  0.29378832  0.02264718  1
  C  C76  1  0.38471614  0.72332683  0.56426315  1
  C  C77  1  0.61528386  0.77667317  0.06426315  1
  C  C78  1  0.61528386  0.27667317  0.43573685  1
  C  C79  1  0.38471614  0.22332683  0.93573685  1
  C  C80  1  0.17562164  0.16481738  0.82849860  1
  C  C81  1  0.82437836  0.33518262  0.32849860  1
  C  C82  1  0.82437836  0.83518262  0.17150140  1
  C  C83  1  0.17562164  0.66481738  0.67150140  1
  C  C84  1  0.16047555  0.78630079  0.54066462  1
  C  C85  1  0.83952445  0.71369921  0.04066462  1
  C  C86  1  0.83952445  0.21369921  0.45933538  1
  C  C87  1  0.16047555  0.28630079  0.95933538  1
  N  N88  1  0.23085645  0.70740442  0.58873779  1
  N  N89  1  0.76914355  0.79259558  0.08873779  1
  N  N90  1  0.76914355  0.29259558  0.41126221  1
  N  N91  1  0.23085645  0.20740442  0.91126221  1
  O  O92  1  0.50884332  0.01779714  0.61474125  1
  O  O93  1  0.49115668  0.48220286  0.11474125  1
  O  O94  1  0.49115668  0.98220286  0.38525875  1
  O  O95  1  0.50884332  0.51779714  0.88525875  1
  O  O96  1  0.56615066  0.83092267  0.70357490  1
  O  O97  1  0.43384934  0.66907733  0.20357490  1
  O  O98  1  0.43384934  0.16907733  0.29642510  1
  O  O99  1  0.56615066  0.33092267  0.79642510  1
  O  O100  1  0.69965800  0.91318641  0.56316259  1
  O  O101  1  0.30034200  0.58681359  0.06316259  1
  O  O102  1  0.30034200  0.08681359  0.43683741  1
  O  O103  1  0.69965800  0.41318641  0.93683741  1
  O  O104  1  0.34502315  0.00661404  0.77955709  1
  O  O105  1  0.65497685  0.49338596  0.27955709  1
  O  O106  1  0.65497685  0.99338596  0.22044291  1
  O  O107  1  0.34502315  0.50661404  0.72044291  1
  O  O108  1  0.05364094  0.85441211  0.82665360  1
  O  O109  1  0.94635906  0.64558789  0.32665360  1
  O  O110  1  0.94635906  0.14558789  0.17334640  1
  O  O111  1  0.05364094  0.35441211  0.67334640  1
  O  O112  1  0.11490249  0.01026043  0.69415189  1
  O  O113  1  0.88509751  0.48973957  0.19415189  1
  O  O114  1  0.88509751  0.98973957  0.30584811  1
  O  O115  1  0.11490249  0.51026043  0.80584811  1
  O  O116  1  0.85850120  0.54772121  0.54228998  1
  O  O117  1  0.14149880  0.95227879  0.04228998  1
  O  O118  1  0.14149880  0.45227879  0.45771002  1
  O  O119  1  0.85850120  0.04772121  0.95771002  1
  O  O120  1  0.91242858  0.78358887  0.45571972  1
  O  O121  1  0.08757142  0.71641113  0.95571972  1
  O  O122  1  0.08757142  0.21641113  0.54428028  1
  O  O123  1  0.91242858  0.28358887  0.04428028  1
  O  O124  1  0.89398429  0.79662533  0.60893244  1
  O  O125  1  0.10601571  0.70337467  0.10893244  1
  O  O126  1  0.10601571  0.20337467  0.39106756  1
  O  O127  1  0.89398429  0.29662533  0.89106756  1
  O  O128  1  0.75275143  0.33543187  0.65465999  1
  O  O129  1  0.24724857  0.16456813  0.15465999  1
  O  O130  1  0.24724857  0.66456813  0.34534001  1
  O  O131  1  0.75275143  0.83543187  0.84534001  1
  O  O132  1  0.69508789  0.10794574  0.77281117  1
  O  O133  1  0.30491211  0.39205426  0.27281117  1
  O  O134  1  0.30491211  0.89205426  0.22718883  1
  O  O135  1  0.69508789  0.60794574  0.72718883  1
  O  O136  1  0.42021677  0.27747796  0.63909201  1
  O  O137  1  0.57978323  0.22252204  0.13909201  1
  O  O138  1  0.57978323  0.72252204  0.36090799  1
  O  O139  1  0.42021677  0.77747796  0.86090799  1
