# generated using pymatgen
data_Dy11Y5O24
_symmetry_space_group_name_H-M   'P 1'
_cell_length_a   9.25722615
_cell_length_b   9.25718849
_cell_length_c   9.25669213
_cell_angle_alpha   109.47400247
_cell_angle_beta   109.45989598
_cell_angle_gamma   109.47827679
_symmetry_Int_Tables_number   1
_chemical_formula_structural   Dy11Y5O24
_chemical_formula_sum   'Dy11 Y5 O24'
_cell_volume   610.66336710
_cell_formula_units_Z   1
loop_
 _symmetry_equiv_pos_site_id
 _symmetry_equiv_pos_as_xyz
  1  'x, y, z'
loop_
 _atom_site_type_symbol
 _atom_site_label
 _atom_site_symmetry_multiplicity
 _atom_site_fract_x
 _atom_site_fract_y
 _atom_site_fract_z
 _atom_site_occupancy
  Dy  Dy0  1  0.96768516  0.25013409  0.21746565  1
  Dy  Dy1  1  0.00026197  0.50007331  0.00004641  1
  Dy  Dy2  1  0.49974490  0.49979549  0.49981863  1
  Dy  Dy3  1  0.46701864  0.24990563  0.71707097  1
  Dy  Dy4  1  0.00017186  0.00004618  0.50011644  1
  Dy  Dy5  1  0.53244810  0.74981425  0.28258988  1
  Dy  Dy6  1  0.24995375  0.71731709  0.46726780  1
  Dy  Dy7  1  0.24995602  0.21733383  0.96724879  1
  Dy  Dy8  1  0.21727158  0.96728320  0.25003022  1
  Dy  Dy9  1  0.28258576  0.53251493  0.74988360  1
  Dy  Dy10  1  0.03283839  0.75005243  0.78278101  1
  Y  Y11  1  0.49981624  0.99994203  0.99985968  1
  Y  Y12  1  0.71751871  0.46753356  0.25004260  1
  Y  Y13  1  0.78262745  0.03254238  0.74993177  1
  Y  Y14  1  0.75004506  0.28271887  0.53276425  1
  Y  Y15  1  0.75004265  0.78243803  0.03251238  1
  O  O16  1  0.76059854  0.03074237  0.48870682  1
  O  O17  1  0.73987443  0.22858154  0.27054093  1
  O  O18  1  0.27113219  0.01101447  0.04202372  1
  O  O19  1  0.96938624  0.51095397  0.23936296  1
  O  O20  1  0.46812637  0.22934457  0.45758729  1
  O  O21  1  0.77177034  0.72983641  0.26131325  1
  O  O22  1  0.04241495  0.27190245  0.01118151  1
  O  O23  1  0.45763119  0.46884424  0.22950740  1
  O  O24  1  0.72942544  0.26132333  0.77206417  1
  O  O25  1  0.77053037  0.54263468  0.53193959  1
  O  O26  1  0.01129435  0.04234162  0.27190023  1
  O  O27  1  0.48867216  0.76007597  0.03099043  1
  O  O28  1  0.98966396  0.95783798  0.72836019  1
  O  O29  1  0.51036773  0.23921696  0.96822158  1
  O  O30  1  0.22952564  0.45802418  0.46892334  1
  O  O31  1  0.27052734  0.73948992  0.22854436  1
  O  O32  1  0.54161464  0.53070432  0.76997871  1
  O  O33  1  0.95835046  0.72834311  0.98912443  1
  O  O34  1  0.53064385  0.77004643  0.54161481  1
  O  O35  1  0.22834447  0.27043487  0.73931049  1
  O  O36  1  0.72876046  0.98947805  0.95812900  1
  O  O37  1  0.03185031  0.48947704  0.76126039  1
  O  O38  1  0.23930087  0.96881838  0.51087516  1
  O  O39  1  0.26020744  0.77108682  0.72910817  1
