# generated using pymatgen
data_Y13Ho3O24
_symmetry_space_group_name_H-M   'P 1'
_cell_length_a   9.25748203
_cell_length_b   9.26007841
_cell_length_c   9.25835042
_cell_angle_alpha   109.47690425
_cell_angle_beta   109.45713328
_cell_angle_gamma   109.46433281
_symmetry_Int_Tables_number   1
_chemical_formula_structural   Y13Ho3O24
_chemical_formula_sum   'Y13 Ho3 O24'
_cell_volume   611.08438766
_cell_formula_units_Z   1
loop_
 _symmetry_equiv_pos_site_id
 _symmetry_equiv_pos_as_xyz
  1  'x, y, z'
loop_
 _atom_site_type_symbol
 _atom_site_label
 _atom_site_symmetry_multiplicity
 _atom_site_fract_x
 _atom_site_fract_y
 _atom_site_fract_z
 _atom_site_occupancy
  Y  Y0  1  0.96822985  0.25018060  0.21843808  1
  Y  Y1  1  0.49974102  0.99951945  0.99969118  1
  Y  Y2  1  0.78259774  0.03206720  0.74966888  1
  Y  Y3  1  0.71755468  0.46790078  0.25054355  1
  Y  Y4  1  0.74960075  0.78207682  0.03220542  1
  Y  Y5  1  0.75038459  0.28270437  0.53265082  1
  Y  Y6  1  0.00045581  0.50004250  0.99988237  1
  Y  Y7  1  0.46689303  0.25036283  0.71700333  1
  Y  Y8  1  0.53277768  0.74977967  0.28259515  1
  Y  Y9  1  0.25013181  0.71752420  0.46791557  1
  Y  Y10  1  0.25006658  0.21787291  0.96725201  1
  Y  Y11  1  0.21741958  0.96795393  0.25033423  1
  Y  Y12  1  0.03230260  0.74988799  0.78191948  1
  Ho  Ho13  1  0.49983326  0.50007984  0.50036222  1
  Ho  Ho14  1  0.00015545  0.00058569  0.50011656  1
  Ho  Ho15  1  0.28258467  0.53221960  0.74942671  1
  O  O16  1  0.76156414  0.03120823  0.48849182  1
  O  O17  1  0.73955430  0.22820186  0.27076971  1
  O  O18  1  0.27149526  0.01141264  0.04228614  1
  O  O19  1  0.96915617  0.51138525  0.23990608  1
  O  O20  1  0.46858137  0.23046335  0.45730436  1
  O  O21  1  0.77314355  0.73049897  0.26188090  1
  O  O22  1  0.45731892  0.46871752  0.23055226  1
  O  O23  1  0.04260174  0.27163677  0.01148702  1
  O  O24  1  0.76942622  0.54263132  0.53166416  1
  O  O25  1  0.01112778  0.04255118  0.27310891  1
  O  O26  1  0.72910436  0.26025151  0.77147497  1
  O  O27  1  0.48702797  0.75800997  0.02919351  1
  O  O28  1  0.27117017  0.74015529  0.22867646  1
  O  O29  1  0.51132545  0.23989017  0.96873622  1
  O  O30  1  0.23060545  0.45775099  0.47030140  1
  O  O31  1  0.98914897  0.95762882  0.72679459  1
  O  O32  1  0.54145182  0.53136563  0.76942567  1
  O  O33  1  0.95728430  0.72807029  0.98838149  1
  O  O34  1  0.22699869  0.27109710  0.73821008  1
  O  O35  1  0.53147301  0.76957100  0.54266452  1
  O  O36  1  0.03231337  0.48867557  0.76000704  1
  O  O37  1  0.72856568  0.98868253  0.95777322  1
  O  O38  1  0.23829676  0.96881856  0.51165508  1
  O  O39  1  0.26053346  0.77056710  0.72924783  1
