# generated using pymatgen
data_Li4MnFe3(PO4)4
_symmetry_space_group_name_H-M   'P 1'
_cell_length_a   4.76272523
_cell_length_b   10.48076537
_cell_length_c   12.21746303
_cell_angle_alpha   90.00000000
_cell_angle_beta   90.00000000
_cell_angle_gamma   90.00000000
_symmetry_Int_Tables_number   1
_chemical_formula_structural   Li4MnFe3(PO4)4
_chemical_formula_sum   'Li8 Mn2 Fe6 P8 O32'
_cell_volume   609.85917119
_cell_formula_units_Z   2
loop_
 _symmetry_equiv_pos_site_id
 _symmetry_equiv_pos_as_xyz
  1  'x, y, z'
loop_
 _atom_site_type_symbol
 _atom_site_label
 _atom_site_symmetry_multiplicity
 _atom_site_fract_x
 _atom_site_fract_y
 _atom_site_fract_z
 _atom_site_occupancy
  Li  Li0  1  0.99981114  0.00041622  0.74985356  1
  Li  Li1  1  0.99981114  0.00041622  0.00014644  1
  Li  Li2  1  0.00033593  0.99974359  0.24953751  1
  Li  Li3  1  0.00033593  0.99974359  0.50046249  1
  Li  Li4  1  0.50018886  0.50041622  0.24985356  1
  Li  Li5  1  0.49966407  0.49974359  0.74953751  1
  Li  Li6  1  0.49966407  0.49974359  0.00046249  1
  Li  Li7  1  0.50018886  0.50041622  0.50014644  1
  Mn  Mn8  1  0.02311471  0.71850851  0.87500000  1
  Mn  Mn9  1  0.47688529  0.21850851  0.37500000  1
  Fe  Fe10  1  0.02595208  0.71839453  0.37500000  1
  Fe  Fe11  1  0.47404792  0.21839453  0.87500000  1
  Fe  Fe12  1  0.52532162  0.78158451  0.62460089  1
  Fe  Fe13  1  0.52532162  0.78158451  0.12539911  1
  Fe  Fe14  1  0.97467838  0.28158451  0.12460089  1
  Fe  Fe15  1  0.97467838  0.28158451  0.62539911  1
  P  P16  1  0.08405744  0.59427117  0.62422841  1
  P  P17  1  0.08405744  0.59427117  0.12577159  1
  P  P18  1  0.41594256  0.09427117  0.62577159  1
  P  P19  1  0.41594256  0.09427117  0.12422841  1
  P  P20  1  0.58206526  0.90731154  0.87500000  1
  P  P21  1  0.58368033  0.90467679  0.37500000  1
  P  P22  1  0.91793474  0.40731154  0.37500000  1
  P  P23  1  0.91631967  0.40467679  0.87500000  1
  O  O24  1  0.20684865  0.45630352  0.62438035  1
  O  O25  1  0.20684865  0.45630352  0.12561965  1
  O  O26  1  0.22150578  0.66417016  0.02542768  1
  O  O27  1  0.21620480  0.66449394  0.22752612  1
  O  O28  1  0.21620480  0.66449394  0.52247388  1
  O  O29  1  0.22150578  0.66417016  0.72457232  1
  O  O30  1  0.24138266  0.40484338  0.37500000  1
  O  O31  1  0.23964505  0.40328448  0.87500000  1
  O  O32  1  0.26035495  0.90328448  0.37500000  1
  O  O33  1  0.25861734  0.90484338  0.87500000  1
  O  O34  1  0.28379520  0.16449394  0.02247388  1
  O  O35  1  0.27849422  0.16417016  0.22457232  1
  O  O36  1  0.28379520  0.16449394  0.72752612  1
  O  O37  1  0.27849422  0.16417016  0.52542768  1
  O  O38  1  0.29315135  0.95630352  0.12438035  1
  O  O39  1  0.29315135  0.95630352  0.62561965  1
  O  O40  1  0.70957683  0.04171344  0.37500000  1
  O  O41  1  0.70827507  0.04403610  0.87500000  1
  O  O42  1  0.71622789  0.83430761  0.27352072  1
  O  O43  1  0.71622789  0.83430761  0.47647928  1
  O  O44  1  0.71280427  0.83629365  0.77351784  1
  O  O45  1  0.71280427  0.83629365  0.97648216  1
  O  O46  1  0.73906807  0.09703075  0.62489865  1
  O  O47  1  0.73906807  0.09703075  0.12510135  1
  O  O48  1  0.76093193  0.59703075  0.12489865  1
  O  O49  1  0.76093193  0.59703075  0.62510135  1
  O  O50  1  0.78719573  0.33629365  0.47648216  1
  O  O51  1  0.78377211  0.33430761  0.77352072  1
  O  O52  1  0.78377211  0.33430761  0.97647928  1
  O  O53  1  0.78719573  0.33629365  0.27351784  1
  O  O54  1  0.79172493  0.54403610  0.37500000  1
  O  O55  1  0.79042317  0.54171344  0.87500000  1
