# generated using pymatgen
data_Gd3Y13O24
_symmetry_space_group_name_H-M   'P 1'
_cell_length_a   9.29608432
_cell_length_b   9.29629879
_cell_length_c   9.28532297
_cell_angle_alpha   109.44963856
_cell_angle_beta   109.44542900
_cell_angle_gamma   109.49508881
_symmetry_Int_Tables_number   1
_chemical_formula_structural   Gd3Y13O24
_chemical_formula_sum   'Gd3 Y13 O24'
_cell_volume   617.88990061
_cell_formula_units_Z   1
loop_
 _symmetry_equiv_pos_site_id
 _symmetry_equiv_pos_as_xyz
  1  'x, y, z'
loop_
 _atom_site_type_symbol
 _atom_site_label
 _atom_site_symmetry_multiplicity
 _atom_site_fract_x
 _atom_site_fract_y
 _atom_site_fract_z
 _atom_site_occupancy
  Gd  Gd0  1  0.25024063  0.21837181  0.96854025  1
  Gd  Gd1  1  0.28275386  0.53230507  0.74981699  1
  Gd  Gd2  1  0.03132894  0.74963604  0.78199753  1
  Y  Y3  1  0.50132424  0.00065301  0.00064880  1
  Y  Y4  1  0.96656698  0.24986573  0.21714101  1
  Y  Y5  1  0.78155865  0.03313013  0.74969257  1
  Y  Y6  1  0.71768111  0.46744504  0.24982888  1
  Y  Y7  1  0.75043784  0.78337521  0.03356309  1
  Y  Y8  1  0.74843146  0.28152371  0.53184078  1
  Y  Y9  1  0.99864090  0.49984094  0.00053324  1
  Y  Y10  1  0.50013550  0.50003690  0.49987155  1
  Y  Y11  1  0.53368074  0.75115738  0.28390220  1
  Y  Y12  1  0.99941925  0.99941744  0.49890961  1
  Y  Y13  1  0.46739108  0.24919747  0.71652217  1
  Y  Y14  1  0.25036865  0.71721025  0.46641591  1
  Y  Y15  1  0.21721790  0.96684395  0.25078884  1
  O  O16  1  0.73944184  0.22841587  0.27078224  1
  O  O17  1  0.76070597  0.03171645  0.48886432  1
  O  O18  1  0.27388035  0.01093969  0.04449031  1
  O  O19  1  0.96854155  0.51127933  0.23992588  1
  O  O20  1  0.46776559  0.22901382  0.45754419  1
  O  O21  1  0.77190967  0.72943682  0.26103591  1
  O  O22  1  0.45991218  0.47119865  0.23137948  1
  O  O23  1  0.03982892  0.27203731  0.01086048  1
  O  O24  1  0.49154173  0.76337178  0.03384815  1
  O  O25  1  0.72865577  0.26048974  0.77119122  1
  O  O26  1  0.76814256  0.53951507  0.52907208  1
  O  O27  1  0.01083109  0.04270040  0.27164342  1
  O  O28  1  0.22974949  0.45753136  0.46590748  1
  O  O29  1  0.27068853  0.73855392  0.22794841  1
  O  O30  1  0.98625336  0.95783941  0.72656633  1
  O  O31  1  0.51338327  0.23990757  0.96900092  1
  O  O32  1  0.54471459  0.53151133  0.77117836  1
  O  O33  1  0.95785689  0.72841812  0.99204031  1
  O  O34  1  0.53170835  0.77100731  0.54276954  1
  O  O35  1  0.22834283  0.26781142  0.73631269  1
  O  O36  1  0.72848701  0.98903142  0.95768149  1
  O  O37  1  0.02879158  0.48666830  0.76036233  1
  O  O38  1  0.23879703  0.96777852  0.51018165  1
  O  O39  1  0.26288912  0.77381731  0.72939938  1
