# generated using pymatgen
data_Y5O4F7
_symmetry_space_group_name_H-M   'P 1'
_cell_length_a   10.95314263
_cell_length_b   14.28694618
_cell_length_c   5.61586938
_cell_angle_alpha   78.66538864
_cell_angle_beta   90.00000000
_cell_angle_gamma   90.00000000
_symmetry_Int_Tables_number   1
_chemical_formula_structural   Y5O4F7
_chemical_formula_sum   'Y20 O16 F28'
_cell_volume   861.67010464
_cell_formula_units_Z   4
loop_
 _symmetry_equiv_pos_site_id
 _symmetry_equiv_pos_as_xyz
  1  'x, y, z'
loop_
 _atom_site_type_symbol
 _atom_site_label
 _atom_site_symmetry_multiplicity
 _atom_site_fract_x
 _atom_site_fract_y
 _atom_site_fract_z
 _atom_site_occupancy
  Y  Y0  1  0.14771497  0.09912745  0.69729398  1
  Y  Y1  1  0.14607707  0.90153928  0.30062941  1
  Y  Y2  1  0.13824932  0.49900951  0.48303773  1
  Y  Y3  1  0.14693244  0.70508792  0.95652500  1
  Y  Y4  1  0.14246688  0.29524312  0.13131420  1
  Y  Y5  1  0.35753312  0.70475688  0.42655732  1
  Y  Y6  1  0.35306756  0.29491208  0.66161291  1
  Y  Y7  1  0.36175068  0.50099049  0.98204824  1
  Y  Y8  1  0.35392293  0.09846072  0.20216870  1
  Y  Y9  1  0.35228503  0.90087255  0.79642243  1
  Y  Y10  1  0.64607707  0.09846072  0.70216870  1
  Y  Y11  1  0.64771497  0.90087255  0.29642243  1
  Y  Y12  1  0.63824932  0.50099049  0.48204824  1
  Y  Y13  1  0.64246688  0.70475688  0.92655732  1
  Y  Y14  1  0.64693244  0.29491208  0.16161291  1
  Y  Y15  1  0.85306756  0.70508792  0.45652500  1
  Y  Y16  1  0.85753312  0.29524312  0.63131420  1
  Y  Y17  1  0.86175068  0.49900951  0.98303773  1
  Y  Y18  1  0.85228503  0.09912745  0.19729398  1
  Y  Y19  1  0.85392293  0.90153928  0.80062941  1
  O  O20  1  0.23559120  0.19989426  0.93193457  1
  O  O21  1  0.23726166  0.79446706  0.63247374  1
  O  O22  1  0.23129251  0.40464025  0.81020857  1
  O  O23  1  0.25000000  0.00000000  0.48664832  1
  O  O24  1  0.25000000  0.00000000  0.98672799  1
  O  O25  1  0.26870849  0.59535975  0.21484881  1
  O  O26  1  0.26273834  0.20553294  0.42694080  1
  O  O27  1  0.26440880  0.80010574  0.13182983  1
  O  O28  1  0.73559120  0.80010574  0.63182983  1
  O  O29  1  0.73726166  0.20553294  0.92694080  1
  O  O30  1  0.73129251  0.59535975  0.71484881  1
  O  O31  1  0.75000000  0.00000000  0.48672799  1
  O  O32  1  0.75000000  0.00000000  0.98664832  1
  O  O33  1  0.76870749  0.40464025  0.31020857  1
  O  O34  1  0.76440880  0.19989426  0.43193457  1
  O  O35  1  0.76273834  0.79446706  0.13247374  1
  F  F36  1  0.99903975  0.99998890  0.09935502  1
  F  F37  1  0.00096025  0.99998890  0.59935502  1
  F  F38  1  0.02104255  0.17429561  0.32240289  1
  F  F39  1  0.02466041  0.82730735  0.00485199  1
  F  F40  1  0.05046252  0.34502235  0.47485485  1
  F  F41  1  0.04177905  0.65431797  0.33970743  1
  F  F42  1  0.05539244  0.49724440  0.11323378  1
  F  F43  1  0.22564309  0.59989663  0.71140615  1
  F  F44  1  0.27435691  0.40010337  0.31130177  1
  F  F45  1  0.44460756  0.50275560  0.61047918  1
  F  F46  1  0.45822095  0.34568203  0.99402541  1
  F  F47  1  0.44953748  0.65497765  0.81987721  1
  F  F48  1  0.47533959  0.17269265  0.83215934  1
  F  F49  1  0.47895745  0.82570439  0.49669850  1
  F  F50  1  0.50096025  0.00001110  0.09934293  1
  F  F51  1  0.49903975  0.00001110  0.59934293  1
  F  F52  1  0.52104255  0.82570439  0.99669850  1
  F  F53  1  0.52466041  0.17269265  0.33215934  1
  F  F54  1  0.54177905  0.34568203  0.49402541  1
  F  F55  1  0.55046252  0.65497765  0.31987721  1
  F  F56  1  0.55539244  0.50275560  0.11047918  1
  F  F57  1  0.72564309  0.40010337  0.81130177  1
  F  F58  1  0.77435691  0.59989663  0.21140615  1
  F  F59  1  0.94460756  0.49724440  0.61323378  1
  F  F60  1  0.94953748  0.34502235  0.97485485  1
  F  F61  1  0.95822095  0.65431797  0.83970743  1
  F  F62  1  0.97533959  0.82730735  0.50485199  1
  F  F63  1  0.97895745  0.17429561  0.82240289  1
