# generated using pymatgen
data_La3(MoO5)2
_symmetry_space_group_name_H-M   'P 1'
_cell_length_a   20.42026809
_cell_length_b   10.85138275
_cell_length_c   7.32080051
_cell_angle_alpha   28.80863087
_cell_angle_beta   29.13063815
_cell_angle_gamma   16.84861508
_symmetry_Int_Tables_number   1
_chemical_formula_structural   La3(MoO5)2
_chemical_formula_sum   'La3 Mo2 O10'
_cell_volume   219.39217228
_cell_formula_units_Z   1
loop_
 _symmetry_equiv_pos_site_id
 _symmetry_equiv_pos_as_xyz
  1  'x, y, z'
loop_
 _atom_site_type_symbol
 _atom_site_label
 _atom_site_symmetry_multiplicity
 _atom_site_fract_x
 _atom_site_fract_y
 _atom_site_fract_z
 _atom_site_occupancy
  La  La0  1  0.39418453  0.00865655  0.99338025  1
  La  La1  1  0.62744868  0.93904172  0.00804285  1
  La  La2  1  0.79010277  0.99856791  0.01723720  1
  Mo  Mo3  1  0.98498440  0.04963094  0.89052014  1
  Mo  Mo4  1  0.20586751  0.94178119  0.03452419  1
  O  O5  1  0.09418712  0.22751103  0.35265018  1
  O  O6  1  0.23112339  0.51665608  0.08739302  1
  O  O7  1  0.46840531  0.27052275  0.28252019  1
  O  O8  1  0.07710794  0.84732741  0.67486042  1
  O  O9  1  0.72728049  0.19208561  0.26414547  1
  O  O10  1  0.32391208  0.84944860  0.64961656  1
  O  O11  1  0.95641543  0.13414541  0.27204103  1
  O  O12  1  0.43813074  0.79643473  0.79916778  1
  O  O13  1  0.70444782  0.69540952  0.81797066  1
  O  O14  1  0.96573178  0.54684554  0.88846705  1
