# generated using pymatgen
data_Li7Y7Zr9S32
_symmetry_space_group_name_H-M   'P 1'
_cell_length_a   7.86758227
_cell_length_b   7.74640400
_cell_length_c   25.33612681
_cell_angle_alpha   100.04966835
_cell_angle_beta   99.33347430
_cell_angle_gamma   58.97557579
_symmetry_Int_Tables_number   1
_chemical_formula_structural   Li7Y7Zr9S32
_chemical_formula_sum   'Li7 Y7 Zr9 S32'
_cell_volume   1298.14543608
_cell_formula_units_Z   1
loop_
 _symmetry_equiv_pos_site_id
 _symmetry_equiv_pos_as_xyz
  1  'x, y, z'
loop_
 _atom_site_type_symbol
 _atom_site_label
 _atom_site_symmetry_multiplicity
 _atom_site_fract_x
 _atom_site_fract_y
 _atom_site_fract_z
 _atom_site_occupancy
  Li  Li0  1  0.68810941  0.68931945  0.06282542  1
  Li  Li1  1  0.99972084  0.99898702  0.00002527  1
  Li  Li2  1  0.43793084  0.43823390  0.31246298  1
  Li  Li3  1  0.50133158  0.49821202  0.50043076  1
  Li  Li4  1  0.93600368  0.93957895  0.81192559  1
  Li  Li5  1  0.18566786  0.18958242  0.56134024  1
  Li  Li6  1  0.25131489  0.24809279  0.75024818  1
  Y  Y7  1  0.96781054  0.96813297  0.40592745  1
  Y  Y8  1  0.21798143  0.21859761  0.15700750  1
  Y  Y9  1  0.46989262  0.96782359  0.40584615  1
  Y  Y10  1  0.21813515  0.71864330  0.65601185  1
  Y  Y11  1  0.71917783  0.71869592  0.65601911  1
  Y  Y12  1  0.96820880  0.46866502  0.90623585  1
  Y  Y13  1  0.46948071  0.46836038  0.90611761  1
  Zr  Zr14  1  0.34413239  0.34436234  0.03175150  1
  Zr  Zr15  1  0.21765760  0.72514702  0.15836842  1
  Zr  Zr16  1  0.72620875  0.21799677  0.15867891  1
  Zr  Zr17  1  0.84421582  0.84275975  0.53051747  1
  Zr  Zr18  1  0.09324048  0.09396649  0.28099860  1
  Zr  Zr19  1  0.96454831  0.47448946  0.40512901  1
  Zr  Zr20  1  0.59344879  0.59297861  0.78035842  1
  Zr  Zr21  1  0.71924304  0.21708342  0.65564341  1
  Zr  Zr22  1  0.46971963  0.96770827  0.90596981  1
  S  S23  1  0.91763740  0.91608562  0.21483895  1
  S  S24  1  0.37959025  0.90478631  0.21794894  1
  S  S25  1  0.05648013  0.53007582  0.09384802  1
  S  S26  1  0.52004032  0.51983857  0.09646704  1
  S  S27  1  0.53169413  0.05603888  0.09441068  1
  S  S28  1  0.26651289  0.80274773  0.33928438  1
  S  S29  1  0.41188988  0.41229457  0.21273861  1
  S  S30  1  0.90237804  0.38281599  0.21779225  1
  S  S31  1  0.02485271  0.02454471  0.09890241  1
  S  S32  1  0.79298594  0.76239170  0.34902000  1
  S  S33  1  0.13509133  0.65493423  0.46956255  1
  S  S34  1  0.67874664  0.65588710  0.46934586  1
  S  S35  1  0.80329977  0.28087728  0.34279383  1
  S  S36  1  0.25698022  0.28068924  0.34194404  1
  S  S37  1  0.01932652  0.55248547  0.59120356  1
  S  S38  1  0.14678108  0.17085010  0.46360275  1
  S  S39  1  0.89599186  0.92245743  0.71419321  1
  S  S40  1  0.66785012  0.13516716  0.47192316  1
  S  S41  1  0.41858399  0.88471516  0.72189070  1
  S  S42  1  0.54152463  0.51526718  0.59856697  1
  S  S43  1  0.88411960  0.40566655  0.71932602  1
  S  S44  1  0.42929133  0.40625420  0.71921406  1
  S  S45  1  0.55303339  0.03291516  0.59386254  1
  S  S46  1  0.75860528  0.78193100  0.84403857  1
  S  S47  1  0.30320049  0.78274096  0.84384194  1
  S  S48  1  0.00810097  0.03238937  0.59397517  1
  S  S49  1  0.76979550  0.30245361  0.84120856  1
  S  S50  1  0.64603088  0.67245438  0.96440201  1
  S  S51  1  0.17033231  0.63449537  0.97251908  1
  S  S52  1  0.29113811  0.26546604  0.84854267  1
  S  S53  1  0.63391556  0.15531307  0.96916428  1
  S  S54  1  0.18101676  0.15555257  0.96978666  1
