# generated using pymatgen
data_Li2VCr(P2O7)2
_symmetry_space_group_name_H-M   'P 1'
_cell_length_a   4.87126805
_cell_length_b   8.22406022
_cell_length_c   7.02670991
_cell_angle_alpha   89.69379733
_cell_angle_beta   108.73058992
_cell_angle_gamma   90.21811170
_symmetry_Int_Tables_number   1
_chemical_formula_structural   Li2VCr(P2O7)2
_chemical_formula_sum   'Li2 V1 Cr1 P4 O14'
_cell_volume   266.58820070
_cell_formula_units_Z   1
loop_
 _symmetry_equiv_pos_site_id
 _symmetry_equiv_pos_as_xyz
  1  'x, y, z'
loop_
 _atom_site_type_symbol
 _atom_site_label
 _atom_site_symmetry_multiplicity
 _atom_site_fract_x
 _atom_site_fract_y
 _atom_site_fract_z
 _atom_site_occupancy
  Li  Li0  1  0.17740821  0.86281524  0.67653647  1
  Li  Li1  1  0.82341758  0.36239486  0.32449174  1
  V  V2  1  0.21692437  0.49978241  0.72979895  1
  Cr  Cr3  1  0.78625732  0.99975174  0.27274139  1
  P  P4  1  0.39954217  0.17967628  0.52058518  1
  P  P5  1  0.21165067  0.78613577  0.08622339  1
  P  P6  1  0.78604390  0.28170618  0.91439217  1
  P  P7  1  0.59964385  0.68065147  0.47602530  1
  O  O8  1  0.05038670  0.32249296  0.85318520  1
  O  O9  1  0.13018689  0.69765165  0.88525339  1
  O  O10  1  0.18631059  0.03674170  0.48167645  1
  O  O11  1  0.24835331  0.34423348  0.50518498  1
  O  O12  1  0.39959405  0.67934242  0.60583007  1
  O  O13  1  0.60315020  0.43276478  0.91864232  1
  O  O14  1  0.59332664  0.15126904  0.75317429  1
  O  O15  1  0.40408034  0.65206773  0.24632718  1
  O  O16  1  0.40031520  0.93542399  0.08462737  1
  O  O17  1  0.60247499  0.17846986  0.39357463  1
  O  O18  1  0.75198990  0.84608681  0.49007494  1
  O  O19  1  0.81474878  0.53885146  0.51838248  1
  O  O20  1  0.86727671  0.19262939  0.11630484  1
  O  O21  1  0.94691663  0.82463979  0.14696730  1
