# generated using pymatgen
data_Li7Ti11O24
_symmetry_space_group_name_H-M   'P 1'
_cell_length_a   5.96483821
_cell_length_b   10.34528204
_cell_length_c   8.44770749
_cell_angle_alpha   114.07011388
_cell_angle_beta   89.91382158
_cell_angle_gamma   73.28126673
_symmetry_Int_Tables_number   1
_chemical_formula_structural   Li7Ti11O24
_chemical_formula_sum   'Li7 Ti11 O24'
_cell_volume   451.61444011
_cell_formula_units_Z   1
loop_
 _symmetry_equiv_pos_site_id
 _symmetry_equiv_pos_as_xyz
  1  'x, y, z'
loop_
 _atom_site_type_symbol
 _atom_site_label
 _atom_site_symmetry_multiplicity
 _atom_site_fract_x
 _atom_site_fract_y
 _atom_site_fract_z
 _atom_site_occupancy
  Li  Li0  1  0.99495733  0.00318677  0.00335349  1
  Li  Li1  1  0.66481109  0.66347923  0.33349973  1
  Li  Li2  1  0.08333300  0.33333300  0.29166700  1
  Li  Li3  1  0.50185591  0.00318677  0.24983327  1
  Li  Li4  1  0.17170967  0.66347923  0.57997951  1
  Li  Li5  1  0.33127236  0.33333300  0.66762496  1
  Li  Li6  1  0.83539464  0.33333300  0.91570804  1
  Ti  Ti7  1  0.08333300  0.83333300  0.29166700  1
  Ti  Ti8  1  0.24157063  0.49688312  0.13459054  1
  Ti  Ti9  1  0.58333300  0.33333300  0.29166700  1
  Ti  Ti10  1  0.76154624  0.49688312  0.61229258  1
  Ti  Ti11  1  0.92509637  0.16978288  0.44874246  1
  Ti  Ti12  1  0.58333300  0.83333300  0.79166700  1
  Ti  Ti13  1  0.24945648  0.00108805  0.62554352  1
  Ti  Ti14  1  0.91721052  0.66557895  0.95778948  1
  Ti  Ti15  1  0.74920333  0.00159335  0.62579667  1
  Ti  Ti16  1  0.41746367  0.66507365  0.95753633  1
  Ti  Ti17  1  0.40512076  0.16978288  0.97104042  1
  O  O18  1  0.59241446  0.81688247  0.02054298  1
  O  O19  1  0.09070407  0.81688247  0.04633849  1
  O  O20  1  0.94092978  0.66560464  0.19633619  1
  O  O21  1  0.38976929  0.66675671  0.19428702  1
  O  O22  1  0.11772056  0.33333300  0.04081471  1
  O  O23  1  0.55923910  0.33333300  0.05467018  1
  O  O24  1  0.27071477  0.48739593  0.35066792  1
  O  O25  1  0.07596293  0.84978453  0.53699451  1
  O  O26  1  0.42477770  0.17927107  0.19660499  1
  O  O27  1  0.74188930  0.48739593  0.38672801  1
  O  O28  1  0.89595123  0.17927107  0.23266608  1
  O  O29  1  0.57425254  0.84978453  0.56279002  1
  O  O30  1  0.60742790  0.33333300  0.52866382  1
  O  O31  1  0.04894644  0.33333300  0.54251929  1
  O  O32  1  0.44347399  0.66675671  0.72246969  1
  O  O33  1  0.89346558  0.66560464  0.71926744  1
  O  O34  1  0.77689771  0.99990929  0.38904598  1
  O  O35  1  0.22573622  0.00106236  0.38699681  1
  O  O36  1  0.73972383  0.51917740  0.87197267  1
  O  O37  1  0.92556823  0.14748860  0.68612827  1
  O  O38  1  0.24109777  0.51917740  0.89720473  1
  O  O39  1  0.42694217  0.14748860  0.71136133  1
  O  O40  1  0.27320142  0.00106236  0.86406556  1
  O  O41  1  0.72319301  0.99990929  0.86086331  1
