# generated using pymatgen
data_Li4MnFe3(PO4)4
_symmetry_space_group_name_H-M   'P 1'
_cell_length_a   10.51487508
_cell_length_b   7.73553615
_cell_length_c   7.74525690
_cell_angle_alpha   104.08871271
_cell_angle_beta   89.99998705
_cell_angle_gamma   89.99999621
_symmetry_Int_Tables_number   1
_chemical_formula_structural   Li4MnFe3(PO4)4
_chemical_formula_sum   'Li8 Mn2 Fe6 P8 O32'
_cell_volume   611.03526293
_cell_formula_units_Z   2
loop_
 _symmetry_equiv_pos_site_id
 _symmetry_equiv_pos_as_xyz
  1  'x, y, z'
loop_
 _atom_site_type_symbol
 _atom_site_label
 _atom_site_symmetry_multiplicity
 _atom_site_fract_x
 _atom_site_fract_y
 _atom_site_fract_z
 _atom_site_occupancy
  Li  Li0  1  0.49895978  0.24994640  0.24953585  1
  Li  Li1  1  0.49992721  0.74987236  0.75041658  1
  Li  Li2  1  0.49952387  0.99997575  0.49973356  1
  Li  Li3  1  0.49940520  0.49996011  0.00006051  1
  Li  Li4  1  0.00007271  0.24987235  0.75041653  1
  Li  Li5  1  0.00047616  0.49997574  0.49973355  1
  Li  Li6  1  0.00104022  0.74994637  0.24953581  1
  Li  Li7  1  0.00059464  0.99995989  0.00006038  1
  Mn  Mn8  1  0.78264128  0.13531668  0.38570021  1
  Mn  Mn9  1  0.71735941  0.63531794  0.38569989  1
  Fe  Fe10  1  0.78280169  0.63685752  0.88672293  1
  Fe  Fe11  1  0.71719848  0.13685740  0.88672313  1
  Fe  Fe12  1  0.28251895  0.36247131  0.61287193  1
  Fe  Fe13  1  0.28247308  0.86235561  0.11192574  1
  Fe  Fe14  1  0.21748074  0.86247064  0.61287189  1
  Fe  Fe15  1  0.21752697  0.36235559  0.11192629  1
  P  P16  1  0.90609193  0.41639184  0.16449345  1
  P  P17  1  0.90540586  0.91687009  0.66881067  1
  P  P18  1  0.59459379  0.41687071  0.66881121  1
  P  P19  1  0.59390820  0.91639129  0.16449314  1
  P  P20  1  0.40404282  0.08376359  0.83366414  1
  P  P21  1  0.40298792  0.58341712  0.33349415  1
  P  P22  1  0.09595721  0.58376279  0.83366409  1
  P  P23  1  0.09701229  0.08341735  0.33349392  1
  O  O24  1  0.96013868  0.02107943  0.27133030  1
  O  O25  1  0.95880229  0.52203481  0.77188715  1
  O  O26  1  0.90185034  0.25398833  0.00498715  1
  O  O27  1  0.90180663  0.75725059  0.50635114  1
  O  O28  1  0.83553362  0.08641080  0.63736040  1
  O  O29  1  0.83668502  0.38486753  0.33407623  1
  O  O30  1  0.83537451  0.88069340  0.83637225  1
  O  O31  1  0.83651421  0.58464647  0.12840132  1
  O  O32  1  0.66462549  0.38069346  0.83637237  1
  O  O33  1  0.66348614  0.08464640  0.12840131  1
  O  O34  1  0.66331465  0.88486767  0.33407635  1
  O  O35  1  0.66446628  0.58641075  0.63736019  1
  O  O36  1  0.59819349  0.25725052  0.50635135  1
  O  O37  1  0.59814945  0.75398824  0.00498726  1
  O  O38  1  0.54119765  0.02203501  0.77188708  1
  O  O39  1  0.53986128  0.52107936  0.27133052  1
  O  O40  1  0.45697693  0.47770526  0.72942965  1
  O  O41  1  0.45669498  0.97815018  0.22637281  1
  O  O42  1  0.40082506  0.74470939  0.49468598  1
  O  O43  1  0.40069012  0.24495094  0.99480303  1
  O  O44  1  0.33410379  0.11808779  0.66503027  1
  O  O45  1  0.33323732  0.41499390  0.36841700  1
  O  O46  1  0.33415722  0.91496265  0.86796851  1
  O  O47  1  0.33335100  0.61826982  0.16509507  1
  O  O48  1  0.16589608  0.61808799  0.66503051  1
  O  O49  1  0.16676247  0.91499425  0.36841672  1
  O  O50  1  0.16584263  0.41496232  0.86796911  1
  O  O51  1  0.16664917  0.11826970  0.16509507  1
  O  O52  1  0.09930995  0.74495170  0.99480340  1
  O  O53  1  0.09917495  0.24470994  0.49468594  1
  O  O54  1  0.04302333  0.97770500  0.72942984  1
  O  O55  1  0.04330483  0.47814994  0.22637321  1
