# generated using pymatgen
data_Li4CrFe3O8
_symmetry_space_group_name_H-M   'P 1'
_cell_length_a   5.17891954
_cell_length_b   7.87989863
_cell_length_c   7.87996510
_cell_angle_alpha   81.80119821
_cell_angle_beta   70.98706761
_cell_angle_gamma   83.74173811
_symmetry_Int_Tables_number   1
_chemical_formula_structural   Li4CrFe3O8
_chemical_formula_sum   'Li8 Cr2 Fe6 O16'
_cell_volume   300.25227961
_cell_formula_units_Z   2
loop_
 _symmetry_equiv_pos_site_id
 _symmetry_equiv_pos_as_xyz
  1  'x, y, z'
loop_
 _atom_site_type_symbol
 _atom_site_label
 _atom_site_symmetry_multiplicity
 _atom_site_fract_x
 _atom_site_fract_y
 _atom_site_fract_z
 _atom_site_occupancy
  Li  Li0  1  0.99924926  0.99973589  0.00064393  1
  Li  Li1  1  0.99765896  0.24994561  0.25134004  1
  Li  Li2  1  0.00231072  0.62503406  0.12366674  1
  Li  Li3  1  0.00048225  0.12581633  0.62449368  1
  Li  Li4  1  0.99903855  0.49907555  0.50071991  1
  Li  Li5  1  0.00072491  0.87526160  0.37438010  1
  Li  Li6  1  0.00095025  0.37594234  0.87429006  1
  Li  Li7  1  0.99954932  0.74917851  0.75047602  1
  Cr  Cr8  1  0.50001876  0.31275852  0.56287713  1
  Cr  Cr9  1  0.49998786  0.56224467  0.81212066  1
  Fe  Fe10  1  0.49983486  0.06288345  0.31282943  1
  Fe  Fe11  1  0.49997355  0.43750320  0.18751114  1
  Fe  Fe12  1  0.50013522  0.81210918  0.06216591  1
  Fe  Fe13  1  0.50081121  0.68703366  0.43759049  1
  Fe  Fe14  1  0.49924587  0.18797314  0.93739833  1
  Fe  Fe15  1  0.49999994  0.93750574  0.68750053  1
  O  O16  1  0.27076229  0.03077791  0.15183402  1
  O  O17  1  0.72898446  0.21982211  0.09794345  1
  O  O18  1  0.27244129  0.40663174  0.02549414  1
  O  O19  1  0.72734228  0.09607588  0.47421630  1
  O  O20  1  0.27265415  0.28093295  0.40316690  1
  O  O21  1  0.27100561  0.65521865  0.27708919  1
  O  O22  1  0.72755997  0.46837106  0.34951024  1
  O  O23  1  0.27268791  0.15654455  0.77540826  1
  O  O24  1  0.27480486  0.52907170  0.65209510  1
  O  O25  1  0.72925981  0.84420649  0.22314593  1
  O  O26  1  0.72521346  0.34591147  0.72288070  1
  O  O27  1  0.27103320  0.90517268  0.52667530  1
  O  O28  1  0.72732279  0.71846046  0.59959389  1
  O  O29  1  0.27267016  0.77888927  0.90076749  1
  O  O30  1  0.72731875  0.59404712  0.97183196  1
  O  O31  1  0.72896954  0.96986252  0.84834404  1
