# generated using pymatgen
data_Li8Mn13Fe3O32
_symmetry_space_group_name_H-M   'P 1'
_cell_length_a   8.66259529
_cell_length_b   10.15668738
_cell_length_c   8.30432825
_cell_angle_alpha   66.34372409
_cell_angle_beta   90.53914794
_cell_angle_gamma   114.97563404
_symmetry_Int_Tables_number   1
_chemical_formula_structural   Li8Mn13Fe3O32
_chemical_formula_sum   'Li8 Mn13 Fe3 O32'
_cell_volume   595.29103991
_cell_formula_units_Z   1
loop_
 _symmetry_equiv_pos_site_id
 _symmetry_equiv_pos_as_xyz
  1  'x, y, z'
loop_
 _atom_site_type_symbol
 _atom_site_label
 _atom_site_symmetry_multiplicity
 _atom_site_fract_x
 _atom_site_fract_y
 _atom_site_fract_z
 _atom_site_occupancy
  Li  Li0  1  0.44840023  0.12431825  0.31463137  1
  Li  Li1  1  0.94820517  0.12285751  0.81625799  1
  Li  Li2  1  0.80433463  0.37600788  0.93654458  1
  Li  Li3  1  0.30277598  0.37620898  0.43608579  1
  Li  Li4  1  0.19833672  0.62353229  0.06355001  1
  Li  Li5  1  0.69682960  0.62310062  0.56311034  1
  Li  Li6  1  0.05185630  0.87494301  0.18552077  1
  Li  Li7  1  0.55253271  0.87691657  0.68395239  1
  Mn  Mn8  1  0.24981704  0.99954791  0.75060256  1
  Mn  Mn9  1  0.75095177  -0.00005596  0.24948334  1
  Mn  Mn10  1  0.37539647  0.24997911  0.87556232  1
  Mn  Mn11  1  0.87910807  0.25057192  0.37524742  1
  Mn  Mn12  1  0.62639938  0.24984728  0.62583508  1
  Mn  Mn13  1  0.12587967  0.24904197  0.12548337  1
  Mn  Mn14  1  0.75044579  0.49946329  0.24980820  1
  Mn  Mn15  1  0.00245306  0.49901843  0.49960704  1
  Mn  Mn16  1  0.49830275  0.50035915  0.00036961  1
  Mn  Mn17  1  0.87373796  0.74891730  0.87445677  1
  Mn  Mn18  1  0.37543341  0.75122507  0.37409604  1
  Mn  Mn19  1  0.62222719  0.74892660  0.12444507  1
  Mn  Mn20  1  0.12479659  0.74938225  0.62461318  1
  Fe  Fe21  1  0.50093567  0.00086182  -0.00005192  1
  Fe  Fe22  1  -0.00024903  0.99859043  0.50029694  1
  Fe  Fe23  1  0.25055527  0.50001815  0.74978797  1
  O  O24  1  0.48373467  0.01512251  0.74866184  1
  O  O25  1  0.76791943  0.01261756  0.47889767  1
  O  O26  1  0.98356458  0.01351876  0.24924521  1
  O  O27  1  0.26730423  0.01308342  0.97951734  1
  O  O28  1  0.86324650  0.23317526  0.15141095  1
  O  O29  1  0.36149470  0.23274759  0.65174189  1
  O  O30  1  0.09931612  0.24202584  0.36421710  1
  O  O31  1  0.59869820  0.24463130  0.86331417  1
  O  O32  1  0.38954846  0.26707357  0.09938091  1
  O  O33  1  0.15294584  0.25555306  0.88755416  1
  O  O34  1  0.89061008  0.26569783  0.60005467  1
  O  O35  1  0.65695214  0.26217699  0.38301151  1
  O  O36  1  0.26599180  0.48481878  0.00022412  1
  O  O37  1  0.99181339  0.48417189  0.27420113  1
  O  O38  1  0.48263459  0.48610115  0.77054561  1
  O  O39  1  0.76855228  0.48485834  0.49772620  1
  O  O40  1  0.23521465  0.51528060  0.49926799  1
  O  O41  1  0.01807490  0.51328311  0.72940942  1
  O  O42  1  0.50931205  0.51532613  0.22570555  1
  O  O43  1  0.73172391  0.51368323  0.00240266  1
  O  O44  1  0.34787972  0.74459749  0.61206164  1
  O  O45  1  0.84386217  0.73657837  0.11704810  1
  O  O46  1  0.11063202  0.73234085  0.40084819  1
  O  O47  1  0.61022503  0.73360274  0.89976275  1
  O  O48  1  0.13862625  0.76643165  0.84868976  1
  O  O49  1  0.90167855  0.75476898  0.63681319  1
  O  O50  1  0.40185076  0.75737534  0.13578873  1
  O  O51  1  0.63869798  0.76666061  0.34795299  1
  O  O52  1  0.01617112  0.98384372  0.75183723  1
  O  O53  1  0.23277450  0.98617843  0.52129491  1
  O  O54  1  0.73340097  0.98703380  0.02030202  1
  O  O55  1  0.51814599  0.98650726  0.25052615  1
