# generated using pymatgen
data_Li4Mn3Fe(PO4)4
_symmetry_space_group_name_H-M   'P 1'
_cell_length_a   4.78815896
_cell_length_b   12.18849769
_cell_length_c   12.18921077
_cell_angle_alpha   119.35529195
_cell_angle_beta   89.86473798
_cell_angle_gamma   90.28951785
_symmetry_Int_Tables_number   1
_chemical_formula_structural   Li4Mn3Fe(PO4)4
_chemical_formula_sum   'Li8 Mn6 Fe2 P8 O32'
_cell_volume   620.01800961
_cell_formula_units_Z   2
loop_
 _symmetry_equiv_pos_site_id
 _symmetry_equiv_pos_as_xyz
  1  'x, y, z'
loop_
 _atom_site_type_symbol
 _atom_site_label
 _atom_site_symmetry_multiplicity
 _atom_site_fract_x
 _atom_site_fract_y
 _atom_site_fract_z
 _atom_site_occupancy
  Li  Li0  1  0.49995265  0.50104092  0.00081886  1
  Li  Li1  1  0.49994018  0.74916551  0.24894977  1
  Li  Li2  1  0.49983517  0.25017891  0.75024980  1
  Li  Li3  1  0.49982126  0.99970728  0.49978903  1
  Li  Li4  1  0.00029740  0.50012514  0.49962932  1
  Li  Li5  1  0.00024066  0.25035284  0.24986842  1
  Li  Li6  1  0.99978508  0.75033727  0.75067000  1
  Li  Li7  1  0.99951627  0.99928143  0.99959729  1
  Mn  Mn8  1  0.97301600  0.48504342  0.76665441  1
  Mn  Mn9  1  0.97292792  0.98357522  0.26522581  1
  Mn  Mn10  1  0.52670431  0.73395072  0.51528245  1
  Mn  Mn11  1  0.52664205  0.23457271  0.01583896  1
  Mn  Mn12  1  0.47351926  0.26582939  0.48431079  1
  Mn  Mn13  1  0.02663927  0.01545443  0.73433922  1
  Fe  Fe14  1  0.47167000  0.76583046  0.98467735  1
  Fe  Fe15  1  0.02871053  0.51590515  0.23394182  1
  P  P16  1  0.91123098  0.17111678  0.57888150  1
  P  P17  1  0.91105443  0.67174714  0.07834729  1
  P  P18  1  0.58983254  0.42215013  0.32786438  1
  P  P19  1  0.58740011  0.92069904  0.82927191  1
  P  P20  1  0.41322577  0.07778740  0.17044188  1
  P  P21  1  0.41319292  0.57951890  0.67222871  1
  P  P22  1  0.08711657  0.32965707  0.92229095  1
  P  P23  1  0.08712969  0.82765024  0.42030063  1
  O  O24  1  0.78809130  0.10247604  0.64751691  1
  O  O25  1  0.79220011  0.60262578  0.14752696  1
  O  O26  1  0.77462284  0.60584700  0.94353964  1
  O  O27  1  0.77854789  0.10525139  0.44348129  1
  O  O28  1  0.77899669  0.30636725  0.64458946  1
  O  O29  1  0.77552311  0.80649175  0.14408819  1
  O  O30  1  0.76648423  0.32674693  0.92272795  1
  O  O31  1  0.76649192  0.82697655  0.42297161  1
  O  O32  1  0.73387636  0.57723209  0.67272873  1
  O  O33  1  0.73381990  0.07749651  0.17299667  1
  O  O34  1  0.72493161  0.35636490  0.19290450  1
  O  O35  1  0.72531629  0.55731831  0.39386367  1
  O  O36  1  0.72141242  0.85508291  0.69404898  1
  O  O37  1  0.72180630  0.05612611  0.89500536  1
  O  O38  1  0.70793447  0.85205139  0.89803496  1
  O  O39  1  0.70958045  0.35331305  0.39664525  1
  O  O40  1  0.28910823  0.14621561  0.10228988  1
  O  O41  1  0.28914495  0.64770963  0.60382738  1
  O  O42  1  0.27803220  0.44432847  0.60684768  1
  O  O43  1  0.28386066  0.94102304  0.10382845  1
  O  O44  1  0.28441235  0.64588292  0.80880960  1
  O  O45  1  0.27849787  0.14289772  0.30543117  1
  O  O46  1  0.26673218  0.92281531  0.82683592  1
  O  O47  1  0.26854470  0.42363647  0.32613657  1
  O  O48  1  0.23210534  0.17315160  0.57708803  1
  O  O49  1  0.23220765  0.67429275  0.07598877  1
  O  O50  1  0.21581204  0.69128762  0.35384072  1
  O  O51  1  0.22109388  0.19476136  0.85706830  1
  O  O52  1  0.21622458  0.39625499  0.05881831  1
  O  O53  1  0.22151374  0.89300799  0.55537071  1
  O  O54  1  0.21180824  0.39803826  0.85371850  1
  O  O55  1  0.21186548  0.89625081  0.35196330  1
