# generated using pymatgen
data_Rb5FeO4
_symmetry_space_group_name_H-M   'P 1'
_cell_length_a   11.06198361
_cell_length_b   12.20572637
_cell_length_c   7.12521447
_cell_angle_alpha   90.00000000
_cell_angle_beta   97.89089737
_cell_angle_gamma   90.00000000
_symmetry_Int_Tables_number   1
_chemical_formula_structural   Rb5FeO4
_chemical_formula_sum   'Rb20 Fe4 O16'
_cell_volume   952.93390471
_cell_formula_units_Z   4
loop_
 _symmetry_equiv_pos_site_id
 _symmetry_equiv_pos_as_xyz
  1  'x, y, z'
loop_
 _atom_site_type_symbol
 _atom_site_label
 _atom_site_symmetry_multiplicity
 _atom_site_fract_x
 _atom_site_fract_y
 _atom_site_fract_z
 _atom_site_occupancy
  Rb  Rb0  1  0.01070253  0.07815633  0.77110063  1
  Rb  Rb1  1  0.01070253  0.42184367  0.27110063  1
  Rb  Rb2  1  0.14905118  0.82374836  0.83289447  1
  Rb  Rb3  1  0.14905118  0.67625164  0.33289447  1
  Rb  Rb4  1  0.23597572  0.29604772  0.99527248  1
  Rb  Rb5  1  0.23597572  0.20395228  0.49527248  1
  Rb  Rb6  1  0.36814928  0.93136877  0.54958237  1
  Rb  Rb7  1  0.36814928  0.56863123  0.04958237  1
  Rb  Rb8  1  0.50544812  0.13474396  0.92393210  1
  Rb  Rb9  1  0.49455188  0.63474396  0.57606790  1
  Rb  Rb10  1  0.50544812  0.36525604  0.42393210  1
  Rb  Rb11  1  0.49455188  0.86525604  0.07606790  1
  Rb  Rb12  1  0.63185072  0.43136877  0.95041763  1
  Rb  Rb13  1  0.63185072  0.06863123  0.45041763  1
  Rb  Rb14  1  0.76402428  0.79604772  0.50472752  1
  Rb  Rb15  1  0.76402428  0.70395228  0.00472752  1
  Rb  Rb16  1  0.85094882  0.32374836  0.66710553  1
  Rb  Rb17  1  0.85094882  0.17625164  0.16710553  1
  Rb  Rb18  1  0.98929747  0.57815633  0.72889937  1
  Rb  Rb19  1  0.98929747  0.92184367  0.22889937  1
  Fe  Fe20  1  0.25321178  0.46720046  0.61590228  1
  Fe  Fe21  1  0.25321178  0.03279954  0.11590228  1
  Fe  Fe22  1  0.74678822  0.96720046  0.88409772  1
  Fe  Fe23  1  0.74678822  0.53279954  0.38409672  1
  O  O24  1  0.10668159  0.38575600  0.65442167  1
  O  O25  1  0.10668159  0.11424400  0.15442167  1
  O  O26  1  0.23985784  0.61995277  0.69339719  1
  O  O27  1  0.26970332  0.03488825  0.84802647  1
  O  O28  1  0.23985784  0.88004723  0.19339719  1
  O  O29  1  0.26970332  0.46511175  0.34802647  1
  O  O30  1  0.39481253  0.39998817  0.75911177  1
  O  O31  1  0.39481253  0.10001183  0.25911177  1
  O  O32  1  0.60518747  0.89998817  0.74088823  1
  O  O33  1  0.60518747  0.60001183  0.24088823  1
  O  O34  1  0.73029668  0.53488825  0.65197353  1
  O  O35  1  0.76014216  0.11995277  0.80660281  1
  O  O36  1  0.73029668  0.96511175  0.15197353  1
  O  O37  1  0.76014216  0.38004723  0.30660281  1
  O  O38  1  0.89331841  0.88575600  0.84557833  1
  O  O39  1  0.89331841  0.61424400  0.34557833  1
