# generated using pymatgen
data_HfP2O7
_symmetry_space_group_name_H-M   'P 1'
_cell_length_a   5.22660469
_cell_length_b   13.06091726
_cell_length_c   8.35044288
_cell_angle_alpha   90.00000000
_cell_angle_beta   88.98333923
_cell_angle_gamma   90.00000000
_symmetry_Int_Tables_number   1
_chemical_formula_structural   HfP2O7
_chemical_formula_sum   'Hf4 P8 O28'
_cell_volume   569.94699629
_cell_formula_units_Z   4
loop_
 _symmetry_equiv_pos_site_id
 _symmetry_equiv_pos_as_xyz
  1  'x, y, z'
loop_
 _atom_site_type_symbol
 _atom_site_label
 _atom_site_symmetry_multiplicity
 _atom_site_fract_x
 _atom_site_fract_y
 _atom_site_fract_z
 _atom_site_occupancy
  Hf  Hf0  1  0.21645353  0.34976067  0.15843630  1
  Hf  Hf1  1  0.28354647  0.84976067  0.34156370  1
  Hf  Hf2  1  0.71645353  0.15023933  0.65843630  1
  Hf  Hf3  1  0.78354647  0.65023933  0.84156370  1
  P  P4  1  0.19771264  0.97765101  0.69987352  1
  P  P5  1  0.21652863  0.31132117  0.56800169  1
  P  P6  1  0.28347137  0.81132117  0.93199831  1
  P  P7  1  0.30228736  0.47765101  0.80012648  1
  P  P8  1  0.69771264  0.52234899  0.19987352  1
  P  P9  1  0.71652863  0.18867883  0.06800169  1
  P  P10  1  0.78347137  0.68867883  0.43199831  1
  P  P11  1  0.80228736  0.02234899  0.30012648  1
  O  O12  1  0.98899170  0.22948843  0.08316367  1
  O  O13  1  0.02326545  0.24943669  0.66726361  1
  O  O14  1  0.09576503  0.55525973  0.84577310  1
  O  O15  1  0.05817300  0.97132095  0.26305444  1
  O  O16  1  0.13337018  0.32122713  0.39510790  1
  O  O17  1  0.17891971  0.89251023  0.57458545  1
  O  O18  1  0.21175351  0.42695239  0.63455996  1
  O  O19  1  0.28824649  0.92695239  0.86544004  1
  O  O20  1  0.32108029  0.39251023  0.92541455  1
  O  O21  1  0.36662982  0.82122713  0.10489210  1
  O  O22  1  0.40423497  0.05525973  0.65422690  1
  O  O23  1  0.44182700  0.47132095  0.23694556  1
  O  O24  1  0.47673455  0.74943669  0.83273639  1
  O  O25  1  0.51100830  0.72948843  0.41683633  1
  O  O26  1  0.48899170  0.27051157  0.58316367  1
  O  O27  1  0.52326545  0.25056331  0.16726361  1
  O  O28  1  0.55817300  0.52867905  0.76305444  1
  O  O29  1  0.59576503  0.94474027  0.34577310  1
  O  O30  1  0.63337018  0.17877287  0.89510790  1
  O  O31  1  0.67891971  0.60748977  0.07458545  1
  O  O32  1  0.71175351  0.07304761  0.13455996  1
  O  O33  1  0.78824649  0.57304761  0.36544004  1
  O  O34  1  0.82108029  0.10748977  0.42541455  1
  O  O35  1  0.86662982  0.67877287  0.60489210  1
  O  O36  1  0.94182700  0.02867905  0.73694556  1
  O  O37  1  0.90423497  0.44474027  0.15422690  1
  O  O38  1  0.97673455  0.75056331  0.33273639  1
  O  O39  1  0.01100830  0.77051157  0.91683633  1
