# generated using pymatgen
data_YB5O9
_symmetry_space_group_name_H-M   'P 1'
_cell_length_a   6.38490878
_cell_length_b   11.48887148
_cell_length_c   8.14422628
_cell_angle_alpha   90.00000000
_cell_angle_beta   105.65869555
_cell_angle_gamma   90.00000000
_symmetry_Int_Tables_number   1
_chemical_formula_structural   YB5O9
_chemical_formula_sum   'Y4 B20 O36'
_cell_volume   575.25053401
_cell_formula_units_Z   4
loop_
 _symmetry_equiv_pos_site_id
 _symmetry_equiv_pos_as_xyz
  1  'x, y, z'
loop_
 _atom_site_type_symbol
 _atom_site_label
 _atom_site_symmetry_multiplicity
 _atom_site_fract_x
 _atom_site_fract_y
 _atom_site_fract_z
 _atom_site_occupancy
  Y  Y0  1  0.25231118  0.82380721  0.86331952  1
  Y  Y1  1  0.25231118  0.67619279  0.36331952  1
  Y  Y2  1  0.74768882  0.32380721  0.63668048  1
  Y  Y3  1  0.74768882  0.17619279  0.13668048  1
  B  B4  1  0.19062977  0.12744296  0.91174780  1
  B  B5  1  0.14187668  0.53072841  0.74286799  1
  B  B6  1  0.22592122  0.25261291  0.67169636  1
  B  B7  1  0.19062977  0.37255704  0.41174780  1
  B  B8  1  0.14187668  0.96927159  0.24286799  1
  B  B9  1  0.29013240  0.94158513  0.54894955  1
  B  B10  1  0.22592122  0.24738709  0.17169636  1
  B  B11  1  0.48823291  0.09747601  0.78001068  1
  B  B12  1  0.29013240  0.55841487  0.04894955  1
  B  B13  1  0.51176709  0.59747601  0.71998932  1
  B  B14  1  0.48823291  0.40252399  0.28001068  1
  B  B15  1  0.70986760  0.44158513  0.95105045  1
  B  B16  1  0.51176709  0.90252399  0.21998932  1
  B  B17  1  0.77407878  0.75261291  0.82830364  1
  B  B18  1  0.70986760  0.05841487  0.45105045  1
  B  B19  1  0.85812332  0.03072841  0.75713201  1
  B  B20  1  0.80937023  0.62744296  0.58825220  1
  B  B21  1  0.77407878  0.74738709  0.32830364  1
  B  B22  1  0.85812332  0.46927159  0.25713201  1
  B  B23  1  0.80937023  0.87255704  0.08825220  1
  O  O24  1  0.07686236  0.01758562  0.83947928  1
  O  O25  1  0.10486999  0.22069054  0.78122108  1
  O  O26  1  0.22271938  0.48743019  0.90644917  1
  O  O27  1  0.13319781  0.34254795  0.56745770  1
  O  O28  1  0.07686236  0.48241438  0.33947928  1
  O  O29  1  0.10486999  0.27930946  0.28122108  1
  O  O30  1  0.24100425  0.82593647  0.55034205  1
  O  O31  1  0.27122181  0.59634814  0.66757784  1
  O  O32  1  0.22271938  0.01256981  0.40644917  1
  O  O33  1  0.42480997  0.11605228  0.93879845  1
  O  O34  1  0.13319781  0.15745205  0.06745770  1
  O  O35  1  0.40093235  0.98626757  0.70548890  1
  O  O36  1  0.41929601  0.20145671  0.66739040  1
  O  O37  1  0.24100425  0.67406353  0.05034205  1
  O  O38  1  0.27122181  0.90365186  0.16757784  1
  O  O39  1  0.42480997  0.38394772  0.43879845  1
  O  O40  1  0.58070399  0.70145671  0.83260960  1
  O  O41  1  0.59906765  0.48626757  0.79451110  1
  O  O42  1  0.40093235  0.51373243  0.20548890  1
  O  O43  1  0.41929601  0.29854329  0.16739040  1
  O  O44  1  0.57519003  0.61605228  0.56120155  1
  O  O45  1  0.72877819  0.09634814  0.83242216  1
  O  O46  1  0.75899575  0.32593647  0.94965795  1
  O  O47  1  0.58070399  0.79854329  0.33260960  1
  O  O48  1  0.59906765  0.01373243  0.29451110  1
  O  O49  1  0.86680219  0.84254795  0.93254230  1
  O  O50  1  0.57519003  0.88394772  0.06120155  1
  O  O51  1  0.77728062  0.98743019  0.59355083  1
  O  O52  1  0.72877819  0.40365186  0.33242216  1
  O  O53  1  0.75899575  0.17406353  0.44965795  1
  O  O54  1  0.89513001  0.72069054  0.71877892  1
  O  O55  1  0.92313764  0.51758562  0.66052072  1
  O  O56  1  0.86680219  0.65745205  0.43254230  1
  O  O57  1  0.77728062  0.51256981  0.09355083  1
  O  O58  1  0.89513001  0.77930946  0.21877892  1
  O  O59  1  0.92313764  0.98241438  0.16052072  1
