# generated using pymatgen
data_Li10CoNi9O20
_symmetry_space_group_name_H-M   'P 1'
_cell_length_a   21.47679976
_cell_length_b   2.79205842
_cell_length_c   5.71465514
_cell_angle_alpha   89.99999306
_cell_angle_beta   82.48703573
_cell_angle_gamma   89.99999789
_symmetry_Int_Tables_number   1
_chemical_formula_structural   Li10CoNi9O20
_chemical_formula_sum   'Li10 Co1 Ni9 O20'
_cell_volume   339.73454838
_cell_formula_units_Z   1
loop_
 _symmetry_equiv_pos_site_id
 _symmetry_equiv_pos_as_xyz
  1  'x, y, z'
loop_
 _atom_site_type_symbol
 _atom_site_label
 _atom_site_symmetry_multiplicity
 _atom_site_fract_x
 _atom_site_fract_y
 _atom_site_fract_z
 _atom_site_occupancy
  Li  Li0  1  0.90114028  0.50000000  0.30371164  1
  Li  Li1  1  0.79820639  0.00000000  0.09983085  1
  Li  Li2  1  0.70031895  0.50000000  0.89893211  1
  Li  Li3  1  0.60009839  0.00000000  0.69981523  1
  Li  Li4  1  0.50000000  0.50000000  0.50000000  1
  Li  Li5  1  0.39990161  1.00000000  0.30018477  1
  Li  Li6  1  0.20179361  1.00000000  0.90016915  1
  Li  Li7  1  0.29968105  0.50000000  0.10106789  1
  Li  Li8  1  0.09885972  0.50000000  0.69628836  1
  Li  Li9  1  0.00000000  0.00000000  0.50000000  1
  Co  Co10  1  0.00000000  0.00000000  0.00000000  1
  Ni  Ni11  1  0.90314058  0.50000000  0.79792074  1
  Ni  Ni12  1  0.80124105  1.00000000  0.60037526  1
  Ni  Ni13  1  0.70033271  0.50000000  0.40014470  1
  Ni  Ni14  1  0.60007599  0.00000000  0.19987460  1
  Ni  Ni15  1  0.39992401  1.00000000  0.80012540  1
  Ni  Ni16  1  0.50000000  0.50000000  0.00000000  1
  Ni  Ni17  1  0.29966729  0.50000000  0.59985530  1
  Ni  Ni18  1  0.19875895  0.00000000  0.39962474  1
  Ni  Ni19  1  0.09685942  0.50000000  0.20207926  1
  O  O20  1  0.00069068  0.50000000  0.77194721  1
  O  O21  1  0.89969681  1.00000000  0.57281387  1
  O  O22  1  0.80145031  0.50000000  0.82939134  1
  O  O23  1  0.90920596  1.00000000  0.02334939  1
  O  O24  1  0.70036970  0.00000000  0.62580005  1
  O  O25  1  0.80080133  0.50000000  0.37188237  1
  O  O26  1  0.60010201  0.50000000  0.97468041  1
  O  O27  1  0.70011717  1.00000000  0.17456123  1
  O  O28  1  0.60000196  0.50000000  0.42506193  1
  O  O29  1  0.50005666  1.00000000  0.77473008  1
  O  O30  1  0.49994334  0.00000000  0.22526992  1
  O  O31  1  0.29988283  0.00000000  0.82543877  1
  O  O32  1  0.39999804  0.50000000  0.57493807  1
  O  O33  1  0.39989799  0.50000000  0.02531959  1
  O  O34  1  0.29963030  1.00000000  0.37419995  1
  O  O35  1  0.19919867  0.50000000  0.62811763  1
  O  O36  1  0.09079404  0.00000000  0.97665061  1
  O  O37  1  0.19854969  0.50000000  0.17060866  1
  O  O38  1  0.10030319  0.00000000  0.42718613  1
  O  O39  1  0.99930932  0.50000000  0.22805279  1
