# generated using pymatgen
data_LaAlO3
_symmetry_space_group_name_H-M   'P 1'
_cell_length_a   7.14202327
_cell_length_b   7.15342918
_cell_length_c   10.24705034
_cell_angle_alpha   90.00000000
_cell_angle_beta   90.00000000
_cell_angle_gamma   60.05272590
_symmetry_Int_Tables_number   1
_chemical_formula_structural   LaAlO3
_chemical_formula_sum   'La6 Al6 O18'
_cell_volume   453.62349507
_cell_formula_units_Z   6
loop_
 _symmetry_equiv_pos_site_id
 _symmetry_equiv_pos_as_xyz
  1  'x, y, z'
loop_
 _atom_site_type_symbol
 _atom_site_label
 _atom_site_symmetry_multiplicity
 _atom_site_fract_x
 _atom_site_fract_y
 _atom_site_fract_z
 _atom_site_occupancy
  La  La0  1  0.17142267  0.65715566  0.00000000  1
  La  La1  1  0.17142267  0.65715566  0.50000000  1
  La  La2  1  0.82857733  0.34284434  0.00000000  1
  La  La3  1  0.82857733  0.34284434  0.50000000  1
  La  La4  1  0.50000000  0.00000000  0.50000000  1
  La  La5  1  0.50000000  0.00000000  0.00000000  1
  Al  Al6  1  0.83436420  0.74205066  0.75000000  1
  Al  Al7  1  0.42358514  0.74205066  0.25000000  1
  Al  Al8  1  0.57641486  0.25794934  0.75000000  1
  Al  Al9  1  0.16563580  0.25794934  0.25000000  1
  Al  Al10  1  0.90559312  0.00000000  0.25000000  1
  Al  Al11  1  0.09440688  0.00000000  0.75000000  1
  O  O12  1  0.16498523  0.75972870  0.25000000  1
  O  O13  1  0.07528608  0.75972870  0.75000000  1
  O  O14  1  0.83355770  0.64542263  0.90719035  1
  O  O15  1  0.83355770  0.64542263  0.59280965  1
  O  O16  1  0.52101968  0.64542263  0.09280965  1
  O  O17  1  0.52101968  0.64542263  0.40719035  1
  O  O18  1  0.47898032  0.35457737  0.90719035  1
  O  O19  1  0.47898032  0.35457737  0.59280965  1
  O  O20  1  0.16644230  0.35457737  0.09280965  1
  O  O21  1  0.16644230  0.35457737  0.40719035  1
  O  O22  1  0.83501477  0.24027130  0.75000000  1
  O  O23  1  0.92471392  0.24027130  0.25000000  1
  O  O24  1  0.40629446  0.00000000  0.25000000  1
  O  O25  1  0.81153925  0.00000000  0.09022699  1
  O  O26  1  0.81153925  0.00000000  0.40977301  1
  O  O27  1  0.18846075  0.00000000  0.59022699  1
  O  O28  1  0.18846075  0.00000000  0.90977301  1
  O  O29  1  0.59370554  0.00000000  0.75000000  1
