# generated using pymatgen
data_Tl2SO3
_symmetry_space_group_name_H-M   'P 1'
_cell_length_a   6.97691686
_cell_length_b   7.73041539
_cell_length_c   10.88201253
_cell_angle_alpha   90.00000000
_cell_angle_beta   105.33553300
_cell_angle_gamma   90.00000000
_symmetry_Int_Tables_number   1
_chemical_formula_structural   Tl2SO3
_chemical_formula_sum   'Tl8 S4 O12'
_cell_volume   566.01757285
_cell_formula_units_Z   4
loop_
 _symmetry_equiv_pos_site_id
 _symmetry_equiv_pos_as_xyz
  1  'x, y, z'
loop_
 _atom_site_type_symbol
 _atom_site_label
 _atom_site_symmetry_multiplicity
 _atom_site_fract_x
 _atom_site_fract_y
 _atom_site_fract_z
 _atom_site_occupancy
  Tl  Tl0  1  0.25136134  0.83867715  0.54485337  1
  Tl  Tl1  1  0.17764815  0.39588735  0.30007648  1
  Tl  Tl2  1  0.24863866  0.33867715  0.95514663  1
  Tl  Tl3  1  0.32235185  0.89588735  0.19992352  1
  Tl  Tl4  1  0.67764815  0.10411265  0.80007648  1
  Tl  Tl5  1  0.75136134  0.66132285  0.04485337  1
  Tl  Tl6  1  0.82235185  0.60411265  0.69992352  1
  Tl  Tl7  1  0.74863866  0.16132285  0.45514663  1
  S  S8  1  0.77879744  0.66269446  0.37874580  1
  S  S9  1  0.72120256  0.16269446  0.12125420  1
  S  S10  1  0.22120256  0.33730554  0.62125420  1
  S  S11  1  0.27879744  0.83730554  0.87874580  1
  O  O12  1  0.84132610  0.25535481  0.24511389  1
  O  O13  1  0.50692945  0.15414908  0.13785577  1
  O  O14  1  0.20705241  0.20425048  0.51200164  1
  O  O15  1  0.99307055  0.65414908  0.36214423  1
  O  O16  1  0.29294759  0.70425048  0.98799836  1
  O  O17  1  0.65867390  0.75535481  0.25488611  1
  O  O18  1  0.34132610  0.24464519  0.74511389  1
  O  O19  1  0.79294759  0.79574952  0.48799836  1
  O  O20  1  0.49307055  0.84585092  0.86214423  1
  O  O21  1  0.70705241  0.29574952  0.01200164  1
  O  O22  1  0.00692945  0.34585092  0.63785577  1
  O  O23  1  0.15867390  0.74464519  0.75488611  1
