# generated using pymatgen
data_Li4CrFe3O8
_symmetry_space_group_name_H-M   'P 1'
_cell_length_a   5.18767222
_cell_length_b   7.87858362
_cell_length_c   7.87917448
_cell_angle_alpha   81.78704600
_cell_angle_beta   70.98693240
_cell_angle_gamma   83.75887031
_symmetry_Int_Tables_number   1
_chemical_formula_structural   Li4CrFe3O8
_chemical_formula_sum   'Li8 Cr2 Fe6 O16'
_cell_volume   300.67647089
_cell_formula_units_Z   2
loop_
 _symmetry_equiv_pos_site_id
 _symmetry_equiv_pos_as_xyz
  1  'x, y, z'
loop_
 _atom_site_type_symbol
 _atom_site_label
 _atom_site_symmetry_multiplicity
 _atom_site_fract_x
 _atom_site_fract_y
 _atom_site_fract_z
 _atom_site_occupancy
  Li  Li0  1  0.00000965  0.00000772  0.99999939  1
  Li  Li1  1  0.99879286  0.24995886  0.25041097  1
  Li  Li2  1  0.99867493  0.62538424  0.12522874  1
  Li  Li3  1  0.99978344  0.12613188  0.62492031  1
  Li  Li4  1  0.99996461  0.50002271  0.49999924  1
  Li  Li5  1  0.00021103  0.87386585  0.37508317  1
  Li  Li6  1  0.00128784  0.37461873  0.87477767  1
  Li  Li7  1  0.00126617  0.74999117  0.74958090  1
  Cr  Cr8  1  0.49985593  0.31332200  0.56204440  1
  Cr  Cr9  1  0.50015403  0.68668171  0.43792978  1
  Fe  Fe10  1  0.50015307  0.06222501  0.31312258  1
  Fe  Fe11  1  0.50041144  0.43737527  0.18778153  1
  Fe  Fe12  1  0.50035347  0.81227286  0.06296383  1
  Fe  Fe13  1  0.49961410  0.18773172  0.93704935  1
  Fe  Fe14  1  0.49959763  0.56262129  0.81222378  1
  Fe  Fe15  1  0.49985516  0.93777525  0.68688269  1
  O  O16  1  0.27117086  0.03072642  0.15184996  1
  O  O17  1  0.72867064  0.21933330  0.09791810  1
  O  O18  1  0.27049194  0.40590830  0.02777769  1
  O  O19  1  0.72682759  0.09683388  0.47394891  1
  O  O20  1  0.27392142  0.28029288  0.40270888  1
  O  O21  1  0.27455479  0.65528320  0.27773019  1
  O  O22  1  0.72542775  0.47018263  0.35039568  1
  O  O23  1  0.27303283  0.15681575  0.77453308  1
  O  O24  1  0.27459797  0.52983350  0.64959746  1
  O  O25  1  0.72698400  0.84318358  0.22546197  1
  O  O26  1  0.72545971  0.34470623  0.72226417  1
  O  O27  1  0.27317837  0.90317244  0.52604151  1
  O  O28  1  0.72607808  0.71971547  0.59729194  1
  O  O29  1  0.27131296  0.78067003  0.90209916  1
  O  O30  1  0.72949557  0.59408036  0.97221509  1
  O  O31  1  0.72880915  0.96927476  0.84816989  1
