# generated using pymatgen
data_GdTa7O19
_symmetry_space_group_name_H-M   'P 1'
_cell_length_a   6.26970755
_cell_length_b   6.26965530
_cell_length_c   20.13418899
_cell_angle_alpha   89.99996519
_cell_angle_beta   89.99997795
_cell_angle_gamma   119.99995872
_symmetry_Int_Tables_number   1
_chemical_formula_structural   GdTa7O19
_chemical_formula_sum   'Gd2 Ta14 O38'
_cell_volume   685.41862448
_cell_formula_units_Z   2
loop_
 _symmetry_equiv_pos_site_id
 _symmetry_equiv_pos_as_xyz
  1  'x, y, z'
loop_
 _atom_site_type_symbol
 _atom_site_label
 _atom_site_symmetry_multiplicity
 _atom_site_fract_x
 _atom_site_fract_y
 _atom_site_fract_z
 _atom_site_occupancy
  Gd  Gd0  1  0.33333303  0.66668869  -0.00000231  1
  Gd  Gd1  1  0.33331888  0.66661142  0.49999925  1
  Ta  Ta2  1  0.36028124  0.36005659  0.15555541  1
  Ta  Ta3  1  0.36027770  0.36005463  0.34443655  1
  Ta  Ta4  1  0.63995018  0.63972742  0.65556040  1
  Ta  Ta5  1  0.63994792  0.63972336  0.84444273  1
  Ta  Ta6  1  0.36027879  0.00022041  0.84443699  1
  Ta  Ta7  1  0.36027839  0.00022261  0.65555586  1
  Ta  Ta8  1  0.66664689  0.33330647  0.49999814  1
  Ta  Ta9  1  0.66665434  0.33334702  0.00000009  1
  Ta  Ta10  1  0.63995151  0.00022469  0.15556119  1
  Ta  Ta11  1  0.63994841  0.00022383  0.34444264  1
  Ta  Ta12  1  0.99978067  0.63972308  0.15556126  1
  Ta  Ta13  1  0.99978082  0.63972421  0.34444259  1
  Ta  Ta14  1  0.99978372  0.36005516  0.84444198  1
  Ta  Ta15  1  0.99978025  0.36005705  0.65556005  1
  O  O16  1  0.99993212  0.75356597  0.65327288  1
  O  O17  1  0.99992967  0.75357153  0.84672756  1
  O  O18  1  0.04210612  0.62623389  0.25000105  1
  O  O19  1  0.24643737  0.00007582  0.34672558  1
  O  O20  1  0.24643786  0.00007554  0.15327442  1
  O  O21  1  0.04211123  0.41586799  0.75000137  1
  O  O22  1  0.99993036  0.24636296  0.15327221  1
  O  O23  1  0.99992354  0.24637142  0.34672718  1
  O  O24  1  0.37377096  0.95789892  0.74999875  1
  O  O25  1  0.33333157  0.66666722  0.13127366  1
  O  O26  1  0.33333168  0.66667190  0.86872496  1
  O  O27  1  0.33333549  0.66666352  0.63127497  1
  O  O28  1  0.33333390  0.66666551  0.36872587  1
  O  O29  1  0.58413639  0.95789707  0.25000015  1
  O  O30  1  0.24643734  0.24636158  0.65327442  1
  O  O31  1  0.24643826  0.24636574  0.84672557  1
  O  O32  1  0.37376761  0.41587366  0.24999787  1
  O  O33  1  0.42866285  0.38116750  0.05606543  1
  O  O34  1  0.42864941  0.38114648  0.44393605  1
  O  O35  1  0.75363390  0.00007813  0.65327436  1
  O  O36  1  0.75362966  0.00007584  0.84672771  1
  O  O37  1  0.58413562  0.62624259  0.75000133  1
  O  O38  1  0.61884764  0.57133668  0.55606539  1
  O  O39  1  0.61883899  0.57134685  0.94393434  1
  O  O40  1  0.75363156  0.75355207  0.15327474  1
  O  O41  1  0.75363708  0.75356376  0.34672653  1
  O  O42  1  0.42865872  0.04749201  0.55606564  1
  O  O43  1  0.42865482  0.04750880  0.94393451  1
  O  O44  1  0.66666922  0.33333579  0.33331408  1
  O  O45  1  0.66666742  0.33333364  0.66668675  1
  O  O46  1  0.66666895  0.33333742  0.83331399  1
  O  O47  1  0.66666908  0.33333301  0.16668655  1
  O  O48  1  0.61883635  0.04749333  0.44393498  1
  O  O49  1  0.61884737  0.04751422  0.05606588  1
  O  O50  1  0.95248942  0.57133011  0.44393492  1
  O  O51  1  0.95249932  0.57135447  0.05606258  1
  O  O52  1  0.95249090  0.38116378  0.94393463  1
  O  O53  1  0.95249452  0.38114266  0.55606431  1
