# generated using pymatgen
data_Li12Mn11Fe(PO4)12
_symmetry_space_group_name_H-M   'P 1'
_cell_length_a   4.78796982
_cell_length_b   10.54268493
_cell_length_c   18.52210541
_cell_angle_alpha   90.00000000
_cell_angle_beta   90.00000000
_cell_angle_gamma   89.97008116
_symmetry_Int_Tables_number   1
_chemical_formula_structural   Li12Mn11Fe(PO4)12
_chemical_formula_sum   'Li12 Mn11 Fe1 P12 O48'
_cell_volume   934.95977068
_cell_formula_units_Z   1
loop_
 _symmetry_equiv_pos_site_id
 _symmetry_equiv_pos_as_xyz
  1  'x, y, z'
loop_
 _atom_site_type_symbol
 _atom_site_label
 _atom_site_symmetry_multiplicity
 _atom_site_fract_x
 _atom_site_fract_y
 _atom_site_fract_z
 _atom_site_occupancy
  Li  Li0  1  -0.00001558  0.00000757  0.33333389  1
  Li  Li1  1  0.00003041  0.00000351  0.99995432  1
  Li  Li2  1  -0.00001558  0.00000757  0.16666611  1
  Li  Li3  1  0.00003041  0.00000351  0.50004568  1
  Li  Li4  1  0.99991741  0.00052349  0.66692082  1
  Li  Li5  1  0.99991741  0.00052349  0.83307918  1
  Li  Li6  1  0.50006295  0.49999967  0.16668485  1
  Li  Li7  1  0.50011932  0.49989797  0.99987369  1
  Li  Li8  1  0.50011932  0.49989797  0.50012631  1
  Li  Li9  1  0.50006295  0.49999967  0.33331515  1
  Li  Li10  1  0.49982024  0.49971878  0.83294831  1
  Li  Li11  1  0.49982024  0.49971878  0.66705169  1
  Mn  Mn12  1  0.02763571  0.71872787  0.25000000  1
  Mn  Mn13  1  0.02798559  0.71862670  0.58349822  1
  Mn  Mn14  1  0.02798559  0.71862670  0.91650178  1
  Mn  Mn15  1  0.47186866  0.21865630  0.58371905  1
  Mn  Mn16  1  0.47186866  0.21865630  0.91628095  1
  Mn  Mn17  1  0.47196304  0.21869073  0.25000000  1
  Mn  Mn18  1  0.52788005  0.78125941  0.08328494  1
  Mn  Mn19  1  0.52788005  0.78125941  0.41671506  1
  Mn  Mn20  1  0.52724776  0.78132191  0.75000000  1
  Mn  Mn21  1  0.97201404  0.28123859  0.08320085  1
  Mn  Mn22  1  0.97201404  0.28123859  0.41679915  1
  Fe  Fe23  1  0.96911235  0.28136635  0.75000000  1
  P  P24  1  0.09044549  0.59192141  0.08330452  1
  P  P25  1  0.09044549  0.59192141  0.41669548  1
  P  P26  1  0.08930502  0.59104893  0.75000000  1
  P  P27  1  0.40957953  0.09205410  0.08331207  1
  P  P28  1  0.40957953  0.09205410  0.41668793  1
  P  P29  1  0.40853805  0.09392529  0.75000000  1
  P  P30  1  0.59041169  0.90802482  0.25000000  1
  P  P31  1  0.59042537  0.90801842  0.58336536  1
  P  P32  1  0.59042537  0.90801842  0.91663464  1
  P  P33  1  0.90990053  0.40803231  0.25000000  1
  P  P34  1  0.91111826  0.40763565  0.58391260  1
  P  P35  1  0.91111826  0.40763565  0.91608740  1
  O  O36  1  0.21241484  0.45506471  0.08333642  1
  O  O37  1  0.21241484  0.45506471  0.41666358  1
  O  O38  1  0.20927788  0.45373340  0.75000000  1
  O  O39  1  0.22320337  0.66123052  0.01641914  1
  O  O40  1  0.22316575  0.66130596  0.15017708  1
  O  O41  1  0.22316575  0.66130596  0.34982292  1
  O  O42  1  0.22320337  0.66123052  0.48358086  1
  O  O43  1  0.22317242  0.66049562  0.68321980  1
  O  O44  1  0.22317242  0.66049562  0.81678020  1
  O  O45  1  0.23074342  0.40417036  0.25000000  1
  O  O46  1  0.23191575  0.40414390  0.58322683  1
  O  O47  1  0.23191575  0.40414390  0.91677317  1
  O  O48  1  0.26942148  0.90393815  0.25000000  1
  O  O49  1  0.26948591  0.90396335  0.91666349  1
  O  O50  1  0.26948591  0.90396335  0.58333651  1
  O  O51  1  0.27671825  0.16126652  0.01641765  1
  O  O52  1  0.27649821  0.16128376  0.15017077  1
  O  O53  1  0.27671825  0.16126652  0.48358235  1
  O  O54  1  0.27345841  0.16267712  0.68320970  1
  O  O55  1  0.27649821  0.16128376  0.34982923  1
  O  O56  1  0.27345841  0.16267712  0.81679030  1
  O  O57  1  0.28764115  0.95507672  0.08337456  1
  O  O58  1  0.28764115  0.95507672  0.41662544  1
  O  O59  1  0.28908153  0.95635561  0.75000000  1
  O  O60  1  0.71233421  0.04479212  0.25000000  1
  O  O61  1  0.71216866  0.04488285  0.58338308  1
  O  O62  1  0.71216866  0.04488285  0.91661692  1
  O  O63  1  0.72335187  0.83869623  0.18311019  1
  O  O64  1  0.72335187  0.83869623  0.31688981  1
  O  O65  1  0.72342774  0.83873732  0.51646412  1
  O  O66  1  0.72336338  0.83863895  0.84978793  1
  O  O67  1  0.72342774  0.83873732  0.98353588  1
  O  O68  1  0.72336338  0.83863895  0.65021207  1
  O  O69  1  0.73047001  0.09600919  0.08334169  1
  O  O70  1  0.73047001  0.09600919  0.41665831  1
  O  O71  1  0.72994384  0.09772757  0.75000000  1
  O  O72  1  0.76943180  0.59598134  0.08331527  1
  O  O73  1  0.76845283  0.59620309  0.75000000  1
  O  O74  1  0.76943180  0.59598134  0.41668473  1
  O  O75  1  0.77693560  0.33891455  0.18310294  1
  O  O76  1  0.77693560  0.33891455  0.31689706  1
  O  O77  1  0.77671017  0.33832789  0.51725782  1
  O  O78  1  0.77671017  0.33832789  0.98274218  1
  O  O79  1  0.78218278  0.33790118  0.84860034  1
  O  O80  1  0.78218278  0.33790118  0.65139966  1
  O  O81  1  0.78784562  0.54506333  0.25000000  1
  O  O82  1  0.78742221  0.54427734  0.58382441  1
  O  O83  1  0.78742221  0.54427734  0.91617559  1
