# generated using pymatgen
data_Li2V3SnO8
_symmetry_space_group_name_H-M   'P 1'
_cell_length_a   6.01400020
_cell_length_b   5.96338859
_cell_length_c   9.83151170
_cell_angle_alpha   89.87281889
_cell_angle_beta   90.06305500
_cell_angle_gamma   119.72199903
_symmetry_Int_Tables_number   1
_chemical_formula_structural   Li2V3SnO8
_chemical_formula_sum   'Li4 V6 Sn2 O16'
_cell_volume   306.20776910
_cell_formula_units_Z   2
loop_
 _symmetry_equiv_pos_site_id
 _symmetry_equiv_pos_as_xyz
  1  'x, y, z'
loop_
 _atom_site_type_symbol
 _atom_site_label
 _atom_site_symmetry_multiplicity
 _atom_site_fract_x
 _atom_site_fract_y
 _atom_site_fract_z
 _atom_site_occupancy
  Li  Li0  1  0.33273922  0.67045589  0.89529691  1
  Li  Li1  1  0.00416876  0.99795102  0.99281727  1
  Li  Li2  1  0.99583124  0.99378226  0.49281727  1
  Li  Li3  1  0.66726078  0.33771668  0.39529691  1
  V  V4  1  0.17511142  0.82773727  0.21922455  1
  V  V5  1  0.66311284  0.82952370  0.21129601  1
  V  V6  1  0.33688716  0.16641086  0.71129601  1
  V  V7  1  0.82783522  0.17078552  0.71393352  1
  V  V8  1  0.17216478  0.34295030  0.21393352  1
  V  V9  1  0.82488858  0.65262586  0.71922455  1
  Sn  Sn10  1  0.33603022  0.66550901  0.49243186  1
  Sn  Sn11  1  0.66396978  0.32947779  0.99243186  1
  O  O12  1  0.16289761  0.83768067  0.60295215  1
  O  O13  1  0.03486161  0.52730172  0.34284129  1
  O  O14  1  0.31706987  0.67416408  0.10444433  1
  O  O15  1  0.01539091  0.99673747  0.30649426  1
  O  O16  1  0.98460909  0.98134656  0.80649426  1
  O  O17  1  0.16082181  0.31898960  0.60069864  1
  O  O18  1  0.48022861  0.96798359  0.33781099  1
  O  O19  1  0.47865307  0.51437881  0.33720351  1
  O  O20  1  0.32210707  0.15646575  0.09647371  1
  O  O21  1  0.67789293  0.83435968  0.59647371  1
  O  O22  1  0.51977139  0.48775498  0.83781099  1
  O  O23  1  0.52134693  0.03572574  0.83720351  1
  O  O24  1  0.68293013  0.35709421  0.60444433  1
  O  O25  1  0.83710239  0.67478306  0.10295215  1
  O  O26  1  0.96513839  0.49244011  0.84284129  1
  O  O27  1  0.83917819  0.15816779  0.10069864  1
