# generated using pymatgen
data_Hf2N2O
_symmetry_space_group_name_H-M   'P 1'
_cell_length_a   8.73006316
_cell_length_b   8.73350039
_cell_length_c   8.72987241
_cell_angle_alpha   109.53043671
_cell_angle_beta   109.43669892
_cell_angle_gamma   109.40599112
_symmetry_Int_Tables_number   1
_chemical_formula_structural   Hf2N2O
_chemical_formula_sum   'Hf16 N16 O8'
_cell_volume   512.63515744
_cell_formula_units_Z   8
loop_
 _symmetry_equiv_pos_site_id
 _symmetry_equiv_pos_as_xyz
  1  'x, y, z'
loop_
 _atom_site_type_symbol
 _atom_site_label
 _atom_site_symmetry_multiplicity
 _atom_site_fract_x
 _atom_site_fract_y
 _atom_site_fract_z
 _atom_site_occupancy
  Hf  Hf0  1  0.96524428  0.25019308  0.21492151  1
  Hf  Hf1  1  0.50782504  0.00633355  0.99668460  1
  Hf  Hf2  1  0.78949031  0.03509296  0.75897962  1
  Hf  Hf3  1  0.71451688  0.46652322  0.25027613  1
  Hf  Hf4  1  0.75502160  0.29574130  0.53156927  1
  Hf  Hf5  1  0.74943343  0.77836846  0.03068584  1
  Hf  Hf6  1  0.00940828  0.50566292  0.99646205  1
  Hf  Hf7  1  0.00607835  0.99528250  0.50569279  1
  Hf  Hf8  1  0.50224052  0.50955242  0.51267851  1
  Hf  Hf9  1  0.45654102  0.24943580  0.72044680  1
  Hf  Hf10  1  0.53825139  0.75099532  0.29158995  1
  Hf  Hf11  1  0.25688074  0.71700795  0.47143187  1
  Hf  Hf12  1  0.23956994  0.21173403  0.95485914  1
  Hf  Hf13  1  0.28069306  0.53366579  0.74280143  1
  Hf  Hf14  1  0.21355880  0.95416805  0.24843765  1
  Hf  Hf15  1  0.03084188  0.74469392  0.77974745  1
  N  N16  1  0.74107887  0.22532904  0.27422982  1
  N  N17  1  0.77058431  0.72803403  0.26058151  1
  N  N18  1  0.04670668  0.27766555  0.01429730  1
  N  N19  1  0.76817741  0.54387794  0.53134692  1
  N  N20  1  0.22567286  0.45156344  0.46290767  1
  N  N21  1  0.51248587  0.23957607  0.96737639  1
  N  N22  1  0.98821376  0.95495803  0.72764567  1
  N  N23  1  0.27386606  0.73620365  0.22227179  1
  N  N24  1  0.95905222  0.73178218  0.99356590  1
  N  N25  1  0.54479804  0.53293125  0.77270724  1
  N  N26  1  0.22306649  0.27113788  0.73756627  1
  N  N27  1  0.53542011  0.77143751  0.54314929  1
  N  N28  1  0.02978882  0.48305112  0.75846358  1
  N  N29  1  0.72611412  0.98446209  0.95397592  1
  N  N30  1  0.26305509  0.77615277  0.73120744  1
  N  N31  1  0.23611823  0.96637615  0.50694318  1
  O  O32  1  0.75680064  0.03331546  0.48748604  1
  O  O33  1  0.27761778  0.01786151  0.05374186  1
  O  O34  1  0.96382197  0.51146880  0.23841198  1
  O  O35  1  0.46533107  0.22469385  0.45099150  1
  O  O36  1  0.45364477  0.46584236  0.22635231  1
  O  O37  1  0.01312259  0.04848969  0.27449075  1
  O  O38  1  0.72289299  0.25651829  0.76621943  1
  O  O39  1  0.48697375  0.76281908  0.03680767  1
