# generated using pymatgen
data_La3Si2BO10
_symmetry_space_group_name_H-M   'P 1'
_cell_length_a   10.03808956
_cell_length_b   7.32232614
_cell_length_c   23.57613687
_cell_angle_alpha   90.00000000
_cell_angle_beta   90.00000000
_cell_angle_gamma   90.00000000
_symmetry_Int_Tables_number   1
_chemical_formula_structural   La3Si2BO10
_chemical_formula_sum   'La24 Si16 B8 O80'
_cell_volume   1732.89711598
_cell_formula_units_Z   8
loop_
 _symmetry_equiv_pos_site_id
 _symmetry_equiv_pos_as_xyz
  1  'x, y, z'
loop_
 _atom_site_type_symbol
 _atom_site_label
 _atom_site_symmetry_multiplicity
 _atom_site_fract_x
 _atom_site_fract_y
 _atom_site_fract_z
 _atom_site_occupancy
  La  La0  1  0.00879816  0.35917273  0.42819543  1
  La  La1  1  0.00879816  0.14082727  0.92819543  1
  La  La2  1  0.13412172  0.82823846  0.33731314  1
  La  La3  1  0.13412172  0.67176154  0.83731314  1
  La  La4  1  0.23273863  0.40707345  0.68239954  1
  La  La5  1  0.23273863  0.09292655  0.18239954  1
  La  La6  1  0.26726137  0.90707345  0.68239954  1
  La  La7  1  0.26726137  0.59292655  0.18239954  1
  La  La8  1  0.36587828  0.32823846  0.33731314  1
  La  La9  1  0.36587828  0.17176154  0.83731314  1
  La  La10  1  0.49120184  0.64082727  0.92819543  1
  La  La11  1  0.49120184  0.85917273  0.42819543  1
  La  La12  1  0.50879816  0.35917273  0.07180457  1
  La  La13  1  0.50879816  0.14082727  0.57180457  1
  La  La14  1  0.63412172  0.82823846  0.16268686  1
  La  La15  1  0.63412172  0.67176154  0.66268686  1
  La  La16  1  0.73273863  0.40707345  0.81760046  1
  La  La17  1  0.73273863  0.09292655  0.31760046  1
  La  La18  1  0.76726137  0.90707345  0.81760046  1
  La  La19  1  0.76726137  0.59292655  0.31760046  1
  La  La20  1  0.86587828  0.32823846  0.16268686  1
  La  La21  1  0.86587828  0.17176154  0.66268686  1
  La  La22  1  0.99120184  0.64082727  0.57180457  1
  La  La23  1  0.99120184  0.85917273  0.07180457  1
  Si  Si24  1  0.06088672  0.31816491  0.27911368  1
  Si  Si25  1  0.06088672  0.18183509  0.77911368  1
  Si  Si26  1  0.12494718  0.35451498  0.07824619  1
  Si  Si27  1  0.12494718  0.14548502  0.57824619  1
  Si  Si28  1  0.37505282  0.85451498  0.07824619  1
  Si  Si29  1  0.37505282  0.64548502  0.57824619  1
  Si  Si30  1  0.43911328  0.81816491  0.27911368  1
  Si  Si31  1  0.43911328  0.68183509  0.77911368  1
  Si  Si32  1  0.56088672  0.31816491  0.22088632  1
  Si  Si33  1  0.56088672  0.18183509  0.72088632  1
  Si  Si34  1  0.62494718  0.14548502  0.92175381  1
  Si  Si35  1  0.62494718  0.35451498  0.42175381  1
  Si  Si36  1  0.87505282  0.85451498  0.42175381  1
  Si  Si37  1  0.87505282  0.64548502  0.92175381  1
  Si  Si38  1  0.93911328  0.81816491  0.22088632  1
  Si  Si39  1  0.93911328  0.68183509  0.72088632  1
  B  B40  1  0.24467479  0.84842634  0.97176566  1
  B  B41  1  0.24467479  0.65157366  0.47176566  1
  B  B42  1  0.25532521  0.15157366  0.47176566  1
  B  B43  1  0.25532521  0.34842634  0.97176566  1
  B  B44  1  0.74467479  0.65157366  0.02823434  1
  B  B45  1  0.74467479  0.84842634  0.52823434  1
  B  B46  1  0.75532521  0.15157366  0.02823434  1
  B  B47  1  0.75532521  0.34842634  0.52823434  1
  O  O48  1  0.04143875  0.53329813  0.09951051  1
  O  O49  1  0.04143875  0.96670187  0.59951051  1
  O  O50  1  0.04912195  0.17487425  0.10490203  1
  O  O51  1  0.04912195  0.32512575  0.60490203  1
  O  O52  1  0.09689955  0.36924305  0.21213751  1
  O  O53  1  0.09689955  0.13075695  0.71213751  1
  O  O54  1  0.10341035  0.79852879  0.22114759  1
  O  O55  1  0.10341035  0.70147121  0.72114759  1
  O  O56  1  0.10764900  0.46797164  0.32677106  1
  O  O57  1  0.10764900  0.03202836  0.82677106  1
  O  O58  1  0.13002729  0.57565915  0.49114414  1
  O  O59  1  0.13002729  0.92434085  0.99114414  1
  O  O60  1  0.14008987  0.33808902  0.00779237  1
  O  O61  1  0.14008987  0.16191098  0.50779237  1
  O  O62  1  0.15173828  0.13353245  0.29002032  1
  O  O63  1  0.15173828  0.36646755  0.79002032  1
  O  O64  1  0.22677322  0.85076139  0.10931271  1
  O  O65  1  0.22677322  0.64923861  0.60931271  1
  O  O66  1  0.23722000  0.22263340  0.41836675  1
  O  O67  1  0.23722000  0.27736660  0.91836675  1
  O  O68  1  0.26278000  0.72263340  0.41836675  1
  O  O69  1  0.26278000  0.77736660  0.91836675  1
  O  O70  1  0.27322678  0.35076139  0.10931271  1
  O  O71  1  0.27322678  0.14923861  0.60931271  1
  O  O72  1  0.34826172  0.63353245  0.29002032  1
  O  O73  1  0.34826172  0.86646755  0.79002032  1
  O  O74  1  0.35991013  0.83808902  0.00779237  1
  O  O75  1  0.35991013  0.66191098  0.50779237  1
  O  O76  1  0.36997271  0.07565915  0.49114414  1
  O  O77  1  0.36997271  0.42434085  0.99114414  1
  O  O78  1  0.39235100  0.96797164  0.32677106  1
  O  O79  1  0.39235100  0.53202836  0.82677106  1
  O  O80  1  0.39658965  0.29852879  0.22114759  1
  O  O81  1  0.39658965  0.20147121  0.72114759  1
  O  O82  1  0.40310045  0.86924305  0.21213751  1
  O  O83  1  0.40310045  0.63075695  0.71213751  1
  O  O84  1  0.45087805  0.67487425  0.10490203  1
  O  O85  1  0.45087805  0.82512575  0.60490203  1
  O  O86  1  0.45856125  0.03329813  0.09951051  1
  O  O87  1  0.45856125  0.46670187  0.59951051  1
  O  O88  1  0.54143875  0.53329813  0.40048949  1
  O  O89  1  0.54143875  0.96670187  0.90048949  1
  O  O90  1  0.54912195  0.17487425  0.39509797  1
  O  O91  1  0.54912195  0.32512575  0.89509797  1
  O  O92  1  0.59689955  0.36924305  0.28786249  1
  O  O93  1  0.59689955  0.13075695  0.78786249  1
  O  O94  1  0.60341035  0.79852879  0.27885241  1
  O  O95  1  0.60341035  0.70147121  0.77885241  1
  O  O96  1  0.60764900  0.46797164  0.17322894  1
  O  O97  1  0.60764900  0.03202836  0.67322894  1
  O  O98  1  0.63002729  0.57565915  0.00885586  1
  O  O99  1  0.63002729  0.92434085  0.50885586  1
  O  O100  1  0.64008987  0.33808902  0.49220763  1
  O  O101  1  0.64008987  0.16191098  0.99220763  1
  O  O102  1  0.65173828  0.13353245  0.20997968  1
  O  O103  1  0.65173828  0.36646755  0.70997968  1
  O  O104  1  0.72677322  0.64923861  0.89068729  1
  O  O105  1  0.72677322  0.85076139  0.39068729  1
  O  O106  1  0.73722000  0.22263340  0.08163325  1
  O  O107  1  0.73722000  0.27736660  0.58163325  1
  O  O108  1  0.76278000  0.72263340  0.08163325  1
  O  O109  1  0.76278000  0.77736660  0.58163325  1
  O  O110  1  0.77322678  0.14923861  0.89068729  1
  O  O111  1  0.77322678  0.35076139  0.39068729  1
  O  O112  1  0.84826172  0.63353245  0.20997968  1
  O  O113  1  0.84826172  0.86646755  0.70997968  1
  O  O114  1  0.85991013  0.83808902  0.49220763  1
  O  O115  1  0.85991013  0.66191098  0.99220763  1
  O  O116  1  0.86997271  0.07565915  0.00885586  1
  O  O117  1  0.86997271  0.42434085  0.50885586  1
  O  O118  1  0.89235100  0.96797164  0.17322894  1
  O  O119  1  0.89235100  0.53202836  0.67322894  1
  O  O120  1  0.89658965  0.29852879  0.27885241  1
  O  O121  1  0.89658965  0.20147121  0.77885241  1
  O  O122  1  0.90310045  0.86924305  0.28786249  1
  O  O123  1  0.90310045  0.63075695  0.78786249  1
  O  O124  1  0.95087805  0.67487425  0.39509797  1
  O  O125  1  0.95087805  0.82512575  0.89509797  1
  O  O126  1  0.95856125  0.03329813  0.40048949  1
  O  O127  1  0.95856125  0.46670187  0.90048949  1
