# generated using pymatgen
data_SrV4O10
_symmetry_space_group_name_H-M   'P 1'
_cell_length_a   8.18496082
_cell_length_b   7.46832814
_cell_length_c   9.06207533
_cell_angle_alpha   90.04113813
_cell_angle_beta   88.44232203
_cell_angle_gamma   46.94381259
_symmetry_Int_Tables_number   1
_chemical_formula_structural   SrV4O10
_chemical_formula_sum   'Sr2 V8 O20'
_cell_volume   404.46949837
_cell_formula_units_Z   2
loop_
 _symmetry_equiv_pos_site_id
 _symmetry_equiv_pos_as_xyz
  1  'x, y, z'
loop_
 _atom_site_type_symbol
 _atom_site_label
 _atom_site_symmetry_multiplicity
 _atom_site_fract_x
 _atom_site_fract_y
 _atom_site_fract_z
 _atom_site_occupancy
  Sr  Sr0  1  0.18230934  0.11046115  0.01320177  1
  Sr  Sr1  1  0.81769066  0.88953885  0.98679823  1
  V  V2  1  0.12103431  0.41420473  0.66071776  1
  V  V3  1  0.45693813  0.66214069  0.34000141  1
  V  V4  1  0.54306187  0.33785931  0.65999859  1
  V  V5  1  0.87896569  0.58579527  0.33928224  1
  V  V6  1  0.13709287  0.89186713  0.66034169  1
  V  V7  1  0.47258756  0.14012868  0.33487790  1
  V  V8  1  0.52741244  0.85987132  0.66512210  1
  V  V9  1  0.86290713  0.10813287  0.33965831  1
  O  O10  1  0.07930681  0.92423673  0.84520923  1
  O  O11  1  0.08657692  0.45257161  0.84620526  1
  O  O12  1  0.15532255  0.37847359  0.39710302  1
  O  O13  1  0.17433155  0.87338099  0.41082879  1
  O  O14  1  0.19972334  0.10800772  0.65031405  1
  O  O15  1  0.20724843  0.58745553  0.62908665  1
  O  O16  1  0.43203711  0.70268825  0.16084032  1
  O  O17  1  0.44621646  0.13589831  0.15083545  1
  O  O18  1  0.46987505  0.15255030  0.60387764  1
  O  O19  1  0.47171702  0.64019959  0.63378037  1
  O  O20  1  0.52828298  0.35980041  0.36621963  1
  O  O21  1  0.53012495  0.84744970  0.39612236  1
  O  O22  1  0.55378354  0.86410169  0.84916455  1
  O  O23  1  0.56796289  0.29731175  0.83915968  1
  O  O24  1  0.79275157  0.41254447  0.37091335  1
  O  O25  1  0.80027666  0.89199228  0.34968595  1
  O  O26  1  0.82566845  0.12661901  0.58917121  1
  O  O27  1  0.84467745  0.62152641  0.60289698  1
  O  O28  1  0.91342308  0.54742839  0.15379474  1
  O  O29  1  0.92069319  0.07576327  0.15479077  1
