# generated using pymatgen
data_Li2VFeP2(O4F)2
_symmetry_space_group_name_H-M   'P 1'
_cell_length_a   5.22496246
_cell_length_b   5.38027589
_cell_length_c   7.45880282
_cell_angle_alpha   109.79422723
_cell_angle_beta   106.59726043
_cell_angle_gamma   97.85824922
_symmetry_Int_Tables_number   1
_chemical_formula_structural   Li2VFeP2(O4F)2
_chemical_formula_sum   'Li2 V1 Fe1 P2 O8 F2'
_cell_volume   182.62452500
_cell_formula_units_Z   1
loop_
 _symmetry_equiv_pos_site_id
 _symmetry_equiv_pos_as_xyz
  1  'x, y, z'
loop_
 _atom_site_type_symbol
 _atom_site_label
 _atom_site_symmetry_multiplicity
 _atom_site_fract_x
 _atom_site_fract_y
 _atom_site_fract_z
 _atom_site_occupancy
  Li  Li0  1  0.08194596  0.42884417  0.81249676  1
  Li  Li1  1  0.91805404  0.57115583  0.18750324  1
  V  V2  1  0.00000000  0.00000000  0.00000000  1
  Fe  Fe3  1  0.50000000  0.50000000  0.50000000  1
  P  P4  1  0.43897715  0.11981710  0.76142970  1
  P  P5  1  0.56102285  0.88018290  0.23857030  1
  O  O6  1  0.28280935  0.15894266  0.91419447  1
  O  O7  1  0.36054440  0.82133064  0.61000800  1
  O  O8  1  0.34947873  0.31558721  0.65810589  1
  O  O9  1  0.24137763  0.77847096  0.11206380  1
  O  O10  1  0.75862237  0.22152904  0.88793620  1
  O  O11  1  0.65052127  0.68441279  0.34189411  1
  O  O12  1  0.63945560  0.17866936  0.38999200  1
  O  O13  1  0.71719065  0.84105734  0.08580553  1
  F  F14  1  0.13655170  0.33729949  0.26531346  1
  F  F15  1  0.86344830  0.66270051  0.73468654  1
