# generated using pymatgen
data_LiFeSbO4
_symmetry_space_group_name_H-M   'P 1'
_cell_length_a   6.10512240
_cell_length_b   6.27526781
_cell_length_c   6.27526844
_cell_angle_alpha   59.74791085
_cell_angle_beta   60.89293455
_cell_angle_gamma   60.89293131
_symmetry_Int_Tables_number   1
_chemical_formula_structural   LiFeSbO4
_chemical_formula_sum   'Li2 Fe2 Sb2 O8'
_cell_volume   171.91738767
_cell_formula_units_Z   2
loop_
 _symmetry_equiv_pos_site_id
 _symmetry_equiv_pos_as_xyz
  1  'x, y, z'
loop_
 _atom_site_type_symbol
 _atom_site_label
 _atom_site_symmetry_multiplicity
 _atom_site_fract_x
 _atom_site_fract_y
 _atom_site_fract_z
 _atom_site_occupancy
  Li  Li0  1  0.14701298  0.10298702  0.10298702  1
  Li  Li1  1  0.85298702  0.89701298  0.89701298  1
  Fe  Fe2  1  0.00000000  0.50000000  0.50000000  1
  Fe  Fe3  1  0.50000000  0.50000000  0.50000000  1
  Sb  Sb4  1  0.50000000  0.00000000  0.50000000  1
  Sb  Sb5  1  0.50000000  0.50000000  0.00000000  1
  O  O6  1  0.27401559  0.25077171  0.25077171  1
  O  O7  1  0.27967939  0.23507490  0.70556732  1
  O  O8  1  0.27967939  0.70556732  0.23507490  1
  O  O9  1  0.72444099  0.25077171  0.25077171  1
  O  O10  1  0.27555901  0.74922829  0.74922829  1
  O  O11  1  0.72032061  0.76492510  0.29443268  1
  O  O12  1  0.72032061  0.29443268  0.76492510  1
  O  O13  1  0.72598441  0.74922829  0.74922829  1
