# generated using pymatgen
data_Mn2NiO4
_symmetry_space_group_name_H-M   'P 1'
_cell_length_a   6.00117045
_cell_length_b   6.00117017
_cell_length_c   11.99462829
_cell_angle_alpha   91.10958368
_cell_angle_beta   119.76875416
_cell_angle_gamma   118.97750135
_symmetry_Int_Tables_number   1
_chemical_formula_structural   Mn2NiO4
_chemical_formula_sum   'Mn8 Ni4 O16'
_cell_volume   308.21620291
_cell_formula_units_Z   4
loop_
 _symmetry_equiv_pos_site_id
 _symmetry_equiv_pos_as_xyz
  1  'x, y, z'
loop_
 _atom_site_type_symbol
 _atom_site_label
 _atom_site_symmetry_multiplicity
 _atom_site_fract_x
 _atom_site_fract_y
 _atom_site_fract_z
 _atom_site_occupancy
  Mn  Mn0  1  0.25668667  0.61920054  0.68794361  1
  Mn  Mn1  1  0.99383141  0.99852984  0.49947497  1
  Mn  Mn2  1  0.00054167  0.99626506  0.24840336  1
  Mn  Mn3  1  0.50042010  0.50511853  0.49947497  1
  Mn  Mn4  1  0.74360651  0.38327392  0.81344022  1
  Mn  Mn5  1  0.00377172  0.00071662  0.00011210  1
  Mn  Mn6  1  0.49950758  0.49645247  0.00011210  1
  Mn  Mn7  1  0.74691297  0.38062905  0.31377101  1
  Ni  Ni8  1  0.25593028  0.61284816  0.18438922  1
  Ni  Ni9  1  0.49859551  0.99907546  0.49883549  1
  Ni  Ni10  1  -0.00007726  0.00166765  0.75079520  1
  Ni  Ni11  1  0.49960276  0.00122199  0.00041238  1
  O  O12  1  0.02179931  0.79612638  0.88704283  1
  O  O13  1  0.02441614  0.24914717  0.88678166  1
  O  O14  1  0.01277001  0.79532836  0.37681822  1
  O  O15  1  0.54160159  0.75495083  0.89827621  1
  O  O16  1  0.47795928  0.25228635  0.88704283  1
  O  O17  1  0.02278123  0.23779902  0.38029013  1
  O  O18  1  0.51532811  0.74872732  0.61168284  1
  O  O19  1  0.52822616  0.75030315  0.38926466  1
  O  O20  1  0.45751106  0.24779419  0.60265262  1
  O  O21  1  0.45830808  0.24086643  0.37681822  1
  O  O22  1  0.97060956  0.74915621  0.60988288  1
  O  O23  1  0.54533949  0.76361696  0.12564633  1
  O  O24  1  0.46692943  0.24745260  0.10719102  1
  O  O25  1  0.97463836  0.20803758  0.61168284  1
  O  O26  1  0.99477655  0.75745499  0.12611577  1
  O  O27  1  0.98767571  0.20595318  0.12564633  1
