# generated using pymatgen
data_Gd2P4O13
_symmetry_space_group_name_H-M   'P 1'
_cell_length_a   7.14325636
_cell_length_b   9.58099317
_cell_length_c   8.70883209
_cell_angle_alpha   90.00000000
_cell_angle_beta   90.00000000
_cell_angle_gamma   68.11266900
_symmetry_Int_Tables_number   1
_chemical_formula_structural   Gd2P4O13
_chemical_formula_sum   'Gd4 P8 O26'
_cell_volume   553.06555761
_cell_formula_units_Z   2
loop_
 _symmetry_equiv_pos_site_id
 _symmetry_equiv_pos_as_xyz
  1  'x, y, z'
loop_
 _atom_site_type_symbol
 _atom_site_label
 _atom_site_symmetry_multiplicity
 _atom_site_fract_x
 _atom_site_fract_y
 _atom_site_fract_z
 _atom_site_occupancy
  Gd  Gd0  1  0.39973918  0.70627760  0.39591386  1
  Gd  Gd1  1  0.89398322  0.70627760  0.60408614  1
  Gd  Gd2  1  0.10601678  0.29372240  0.10408614  1
  Gd  Gd3  1  0.60026082  0.29372240  0.89591386  1
  P  P4  1  0.27813803  0.88315574  0.02203945  1
  P  P5  1  0.83870723  0.88315574  0.97796055  1
  P  P6  1  0.90365925  0.68149604  0.24633126  1
  P  P7  1  0.41484571  0.68149604  0.75366874  1
  P  P8  1  0.58515429  0.31850396  0.25366874  1
  P  P9  1  0.09634075  0.31850396  0.74633126  1
  P  P10  1  0.72186197  0.11684426  0.52203945  1
  P  P11  1  0.16129277  0.11684426  0.47796055  1
  O  O12  1  0.74392756  0.95623033  0.54350138  1
  O  O13  1  0.29984310  0.95623033  0.45649862  1
  O  O14  1  0.06203049  0.87594003  0.00000000  1
  O  O15  1  0.78969327  0.83011293  0.14212806  1
  O  O16  1  0.38019380  0.83011293  0.85787194  1
  O  O17  1  0.84231034  0.77241566  0.85517922  1
  O  O18  1  0.38527400  0.77241566  0.14482078  1
  O  O19  1  0.06560956  0.70953244  0.34634221  1
  O  O20  1  0.22485800  0.70953244  0.65365779  1
  O  O21  1  0.58051500  0.67926570  0.63953340  1
  O  O22  1  0.74021930  0.67926570  0.36046660  1
  O  O23  1  0.47057780  0.54720515  0.85913169  1
  O  O24  1  0.98221706  0.54720515  0.14086831  1
  O  O25  1  0.52942220  0.45279485  0.35913169  1
  O  O26  1  0.01778294  0.45279485  0.64086831  1
  O  O27  1  0.41948500  0.32073430  0.13953340  1
  O  O28  1  0.25978070  0.32073430  0.86046660  1
  O  O29  1  0.93439044  0.29046756  0.84634221  1
  O  O30  1  0.77514200  0.29046756  0.15365779  1
  O  O31  1  0.15768966  0.22758434  0.35517922  1
  O  O32  1  0.61472600  0.22758434  0.64482078  1
  O  O33  1  0.61980620  0.16988707  0.35787194  1
  O  O34  1  0.21030673  0.16988707  0.64212806  1
  O  O35  1  0.93796951  0.12405997  0.50000000  1
  O  O36  1  0.70015690  0.04376967  0.95649862  1
  O  O37  1  0.25607244  0.04376967  0.04350138  1
