# generated using pymatgen
data_Li8MnFe7(BO3)8
_symmetry_space_group_name_H-M   'P 1'
_cell_length_a   5.22172182
_cell_length_b   9.06358853
_cell_length_c   10.40015203
_cell_angle_alpha   91.63205662
_cell_angle_beta   91.05173352
_cell_angle_gamma   89.99231553
_symmetry_Int_Tables_number   1
_chemical_formula_structural   Li8MnFe7(BO3)8
_chemical_formula_sum   'Li8 Mn1 Fe7 B8 O24'
_cell_volume   491.93099036
_cell_formula_units_Z   1
loop_
 _symmetry_equiv_pos_site_id
 _symmetry_equiv_pos_as_xyz
  1  'x, y, z'
loop_
 _atom_site_type_symbol
 _atom_site_label
 _atom_site_symmetry_multiplicity
 _atom_site_fract_x
 _atom_site_fract_y
 _atom_site_fract_z
 _atom_site_occupancy
  Li  Li0  1  0.84919754  0.82805319  0.66490539  1
  Li  Li1  1  0.81704972  0.83617842  0.16848547  1
  Li  Li2  1  0.68144184  0.66855273  0.41574292  1
  Li  Li3  1  0.66205834  0.67396461  0.91485921  1
  Li  Li4  1  0.34614253  0.32747043  0.66657515  1
  Li  Li5  1  0.31770919  0.33678239  0.16748529  1
  Li  Li6  1  0.18441366  0.17037042  0.41439443  1
  Li  Li7  1  0.16190591  0.17488060  0.91517259  1
  Mn  Mn8  1  0.66715405  0.00300222  0.88422761  1
  Fe  Fe9  1  0.81978907  0.50104770  0.13365178  1
  Fe  Fe10  1  0.84198682  0.16128961  0.63282332  1
  Fe  Fe11  1  0.67404907  0.33119868  0.38385219  1
  Fe  Fe12  1  0.33380169  0.65952310  0.63424044  1
  Fe  Fe13  1  0.31554037  0.99965157  0.13143130  1
  Fe  Fe14  1  0.18265466  0.83276579  0.38288108  1
  Fe  Fe15  1  0.16566504  0.50030045  0.88558411  1
  B  B16  1  0.82842637  0.16804701  0.12847401  1
  B  B17  1  0.83363724  0.50024208  0.62559544  1
  B  B18  1  0.66857449  0.00136453  0.37522235  1
  B  B19  1  0.67173972  0.33693056  0.87511474  1
  B  B20  1  0.32976036  0.66685098  0.12603215  1
  B  B21  1  0.33772479  0.00019329  0.62508700  1
  B  B22  1  0.16557252  0.50211063  0.37545280  1
  B  B23  1  0.16894815  0.83210756  0.87653698  1
  O  O24  1  0.90346940  0.51419962  0.34592551  1
  O  O25  1  0.90600181  0.82115865  0.86189298  1
  O  O26  1  0.82133148  0.21308602  0.84497035  1
  O  O27  1  0.80812163  0.12738128  0.41519338  1
  O  O28  1  0.78777513  0.86688160  0.36219119  1
  O  O29  1  0.78798638  0.46860404  0.91678012  1
  O  O30  1  0.72023037  0.63769208  0.61307571  1
  O  O31  1  0.70767532  0.03317225  0.09939866  1
  O  O32  1  0.69190141  0.37212102  0.59668335  1
  O  O33  1  0.68684456  0.29156108  0.16539119  1
  O  O34  1  0.59379495  0.67847554  0.11422756  1
  O  O35  1  0.59406708  0.99140643  0.66447569  1
  O  O36  1  0.40470530  0.01441450  0.34717720  1
  O  O37  1  0.40752251  0.32780994  0.86226245  1
  O  O38  1  0.32264273  0.71005253  0.84608351  1
  O  O39  1  0.30457672  0.62675560  0.41676980  1
  O  O40  1  0.28807003  0.36761046  0.36155894  1
  O  O41  1  0.27993937  0.96571594  0.91900064  1
  O  O42  1  0.21021903  0.53176982  0.09599312  1
  O  O43  1  0.22150796  0.13765344  0.61306770  1
  O  O44  1  0.19744279  0.87265132  0.59632202  1
  O  O45  1  0.18685410  0.78919341  0.16526685  1
  O  O46  1  0.09252856  0.17892256  0.11534868  1
  O  O47  1  0.09045126  0.48943132  0.66471464  1
