# generated using pymatgen
data_RbTaO3
_symmetry_space_group_name_H-M   'P 1'
_cell_length_a   9.11195733
_cell_length_b   8.57985203
_cell_length_c   5.17377975
_cell_angle_alpha   94.58255134
_cell_angle_beta   93.74136809
_cell_angle_gamma   114.19379086
_symmetry_Int_Tables_number   1
_chemical_formula_structural   RbTaO3
_chemical_formula_sum   'Rb4 Ta4 O12'
_cell_volume   365.63261935
_cell_formula_units_Z   4
loop_
 _symmetry_equiv_pos_site_id
 _symmetry_equiv_pos_as_xyz
  1  'x, y, z'
loop_
 _atom_site_type_symbol
 _atom_site_label
 _atom_site_symmetry_multiplicity
 _atom_site_fract_x
 _atom_site_fract_y
 _atom_site_fract_z
 _atom_site_occupancy
  Rb  Rb0  1  0.00000000  0.50000000  0.50000000  1
  Rb  Rb1  1  0.40210246  0.79611674  0.08565079  1
  Rb  Rb2  1  0.50000000  0.50000000  0.50000000  1
  Rb  Rb3  1  0.59789754  0.20388326  0.91434921  1
  Ta  Ta4  1  0.18407004  0.98945602  0.47159824  1
  Ta  Ta5  1  0.14342318  0.21171592  0.99912444  1
  Ta  Ta6  1  0.85657682  0.78828408  0.00087556  1
  Ta  Ta7  1  0.81592996  0.01054398  0.52840176  1
  O  O8  1  0.00936782  0.92674331  0.73743427  1
  O  O9  1  0.04179737  0.78580271  0.21950091  1
  O  O10  1  0.31527685  0.89363720  0.59356864  1
  O  O11  1  0.22804886  0.43473454  0.14514167  1
  O  O12  1  0.27054250  0.21637830  0.71206878  1
  O  O13  1  0.29160966  0.12221890  0.19934137  1
  O  O14  1  0.70839034  0.87778110  0.80065863  1
  O  O15  1  0.72945750  0.78362170  0.28793122  1
  O  O16  1  0.77195114  0.56526546  0.85485833  1
  O  O17  1  0.68472315  0.10636280  0.40643136  1
  O  O18  1  0.95820263  0.21419729  0.78049909  1
  O  O19  1  0.99063218  0.07325669  0.26256573  1
