# generated using pymatgen
data_BaPrO3
_symmetry_space_group_name_H-M   'P 1'
_cell_length_a   6.46309557
_cell_length_b   6.45386705
_cell_length_c   6.45386705
_cell_angle_alpha   59.74677916
_cell_angle_beta   59.95268734
_cell_angle_gamma   59.95268729
_symmetry_Int_Tables_number   1
_chemical_formula_structural   BaPrO3
_chemical_formula_sum   'Ba2 Pr2 O6'
_cell_volume   189.85316114
_cell_formula_units_Z   2
loop_
 _symmetry_equiv_pos_site_id
 _symmetry_equiv_pos_as_xyz
  1  'x, y, z'
loop_
 _atom_site_type_symbol
 _atom_site_label
 _atom_site_symmetry_multiplicity
 _atom_site_fract_x
 _atom_site_fract_y
 _atom_site_fract_z
 _atom_site_occupancy
  O  O0  1  0.18930602  0.31069398  0.81069398  1
  O  O1  1  0.81069398  0.18930602  0.68930602  1
  O  O2  1  0.81069398  0.68930602  0.18930602  1
  O  O3  1  0.18930602  0.81069398  0.31069398  1
  O  O4  1  0.64880990  0.75000000  0.75000000  1
  O  O5  1  0.35119010  0.25000000  0.25000000  1
  Ba  Ba6  1  0.76922849  0.25000000  0.25000000  1
  Ba  Ba7  1  0.23077151  0.75000000  0.75000000  1
  Pr  Pr8  1  0.50000000  0.00000000  0.00000000  1
  Pr  Pr9  1  0.00000000  0.50000000  0.50000000  1
