# generated using pymatgen
data_Li4MnFe3(PO4)4
_symmetry_space_group_name_H-M   'P 1'
_cell_length_a   10.51703284
_cell_length_b   7.74046331
_cell_length_c   7.72961673
_cell_angle_alpha   103.98916141
_cell_angle_beta   90.05412383
_cell_angle_gamma   90.07980486
_symmetry_Int_Tables_number   1
_chemical_formula_structural   Li4MnFe3(PO4)4
_chemical_formula_sum   'Li8 Mn2 Fe6 P8 O32'
_cell_volume   610.57910883
_cell_formula_units_Z   2
loop_
 _symmetry_equiv_pos_site_id
 _symmetry_equiv_pos_as_xyz
  1  'x, y, z'
loop_
 _atom_site_type_symbol
 _atom_site_label
 _atom_site_symmetry_multiplicity
 _atom_site_fract_x
 _atom_site_fract_y
 _atom_site_fract_z
 _atom_site_occupancy
  Li  Li0  1  0.50051062  0.74983908  0.75048538  1
  Li  Li1  1  0.50000000  0.00000000  0.50000000  1
  Li  Li2  1  0.49948938  0.25016092  0.24951462  1
  Li  Li3  1  0.50000000  0.50000000  0.00000000  1
  Li  Li4  1  0.99948466  0.25003100  0.75037217  1
  Li  Li5  1  0.00000000  0.50000000  0.50000000  1
  Li  Li6  1  0.00051534  0.74996900  0.24962783  1
  Li  Li7  1  0.00000000  0.00000000  0.00000000  1
  Mn  Mn8  1  0.71758097  0.63576144  0.38529012  1
  Mn  Mn9  1  0.28241903  0.36423856  0.61470988  1
  Fe  Fe10  1  0.78260695  0.13700043  0.38720690  1
  Fe  Fe11  1  0.78257339  0.63786282  0.88760301  1
  Fe  Fe12  1  0.71756271  0.13657148  0.88697806  1
  Fe  Fe13  1  0.28243729  0.86342852  0.11302194  1
  Fe  Fe14  1  0.21739405  0.86299957  0.61279310  1
  Fe  Fe15  1  0.21742661  0.36213718  0.11239699  1
  P  P16  1  0.90492962  0.91739635  0.66736444  1
  P  P17  1  0.90572096  0.41461300  0.16465795  1
  P  P18  1  0.59660586  0.41660682  0.66874567  1
  P  P19  1  0.59552511  0.91841384  0.16631713  1
  P  P20  1  0.40447489  0.08158616  0.83368387  1
  P  P21  1  0.40339414  0.58339318  0.33125433  1
  P  P22  1  0.09427904  0.58538700  0.83534105  1
  P  P23  1  0.09507038  0.08260365  0.33263556  1
  O  O24  1  0.95795274  0.02112433  0.27125884  1
  O  O25  1  0.95762968  0.52236981  0.77237176  1
  O  O26  1  0.90219146  0.25368693  0.00361296  1
  O  O27  1  0.90203869  0.75570070  0.50553699  1
  O  O28  1  0.83458104  0.08485224  0.63194083  1
  O  O29  1  0.83572132  0.37956917  0.33316890  1
  O  O30  1  0.83460638  0.88209483  0.83492976  1
  O  O31  1  0.83582869  0.58298666  0.12971149  1
  O  O32  1  0.66515606  0.88749649  0.33640642  1
  O  O33  1  0.66503213  0.08653858  0.13039341  1
  O  O34  1  0.66600508  0.58625629  0.63729109  1
  O  O35  1  0.66583023  0.38007501  0.83651096  1
  O  O36  1  0.59917538  0.25684193  0.50550203  1
  O  O37  1  0.59939869  0.75550093  0.00659354  1
  O  O38  1  0.54074233  0.52221837  0.27054359  1
  O  O39  1  0.54200028  0.02121293  0.77289285  1
  O  O40  1  0.45925767  0.47778163  0.72945641  1
  O  O41  1  0.45799972  0.97878707  0.22710715  1
  O  O42  1  0.40082462  0.74315807  0.49449797  1
  O  O43  1  0.40060131  0.24449907  0.99340646  1
  O  O44  1  0.33496787  0.91346142  0.86960659  1
  O  O45  1  0.33484394  0.11250351  0.66359358  1
  O  O46  1  0.33399492  0.41374371  0.36270891  1
  O  O47  1  0.33416977  0.61992499  0.16348904  1
  O  O48  1  0.16427868  0.62043083  0.66683110  1
  O  O49  1  0.16541896  0.91514776  0.36805917  1
  O  O50  1  0.16417131  0.41701334  0.87028851  1
  O  O51  1  0.16539362  0.11790517  0.16507024  1
  O  O52  1  0.09780854  0.74631307  0.99638704  1
  O  O53  1  0.09796131  0.24429930  0.49446301  1
  O  O54  1  0.04204726  0.97887567  0.72874116  1
  O  O55  1  0.04237032  0.47763019  0.22762824  1
