# generated using pymatgen
data_Na2BiO3
_symmetry_space_group_name_H-M   'P 1'
_cell_length_a   5.97627952
_cell_length_b   10.85019338
_cell_length_c   5.97622757
_cell_angle_alpha   100.38288507
_cell_angle_beta   69.73527086
_cell_angle_gamma   79.60689981
_symmetry_Int_Tables_number   1
_chemical_formula_structural   Na2BiO3
_chemical_formula_sum   'Na8 Bi4 O12'
_cell_volume   344.97841800
_cell_formula_units_Z   4
loop_
 _symmetry_equiv_pos_site_id
 _symmetry_equiv_pos_as_xyz
  1  'x, y, z'
loop_
 _atom_site_type_symbol
 _atom_site_label
 _atom_site_symmetry_multiplicity
 _atom_site_fract_x
 _atom_site_fract_y
 _atom_site_fract_z
 _atom_site_occupancy
  Na  Na0  1  0.00244629  0.99426181  0.49782330  1
  Na  Na1  1  0.57771017  0.84259477  0.42398853  1
  Na  Na2  1  0.16801576  0.66279221  0.33093379  1
  Na  Na3  1  0.74596543  0.50504574  0.25337332  1
  Na  Na4  1  0.24952340  0.49449990  0.75034579  1
  Na  Na5  1  0.32883355  0.34324971  0.17513206  1
  Na  Na6  1  0.41410846  0.16283466  0.58206158  1
  Na  Na7  1  0.49693620  0.00406149  0.00206152  1
  Bi  Bi8  1  0.08151487  0.83341267  0.91809726  1
  Bi  Bi9  1  0.66407908  0.66859617  0.83584942  1
  Bi  Bi10  1  0.83058643  0.33351515  0.66815152  1
  Bi  Bi11  1  0.91420606  0.16834689  0.08578591  1
  O  O12  1  0.30681686  0.82866155  0.13388748  1
  O  O13  1  0.86186809  0.82789485  0.69631686  1
  O  O14  1  0.39186700  0.68712450  0.62002368  1
  O  O15  1  0.91801806  0.68737983  0.07109298  1
  O  O16  1  0.53540365  0.48779837  0.96891928  1
  O  O17  1  0.97216259  0.48773624  0.52301134  1
  O  O18  1  0.05242664  0.32755606  0.88766424  1
  O  O19  1  0.61544499  0.32864823  0.44190625  1
  O  O20  1  0.67986769  0.18705080  0.83034540  1
  O  O21  1  0.13001655  0.18766411  0.35710553  1
  O  O22  1  0.22820286  0.98736166  0.77669561  1
  O  O23  1  0.78045832  0.98730064  0.21284436  1
