# generated using pymatgen
data_V4(OF3)3
_symmetry_space_group_name_H-M   'P 1'
_cell_length_a   5.20746599
_cell_length_b   5.42693219
_cell_length_c   9.18582635
_cell_angle_alpha   73.42083968
_cell_angle_beta   90.33341159
_cell_angle_gamma   61.09868432
_symmetry_Int_Tables_number   1
_chemical_formula_structural   V4(OF3)3
_chemical_formula_sum   'V4 O3 F9'
_cell_volume   214.59726811
_cell_formula_units_Z   1
loop_
 _symmetry_equiv_pos_site_id
 _symmetry_equiv_pos_as_xyz
  1  'x, y, z'
loop_
 _atom_site_type_symbol
 _atom_site_label
 _atom_site_symmetry_multiplicity
 _atom_site_fract_x
 _atom_site_fract_y
 _atom_site_fract_z
 _atom_site_occupancy
  V  V0  1  0.75119887  0.49960680  0.25024792  1
  V  V1  1  0.46495712  0.01308964  0.49901355  1
  V  V2  1  0.26366491  0.51899968  0.74493899  1
  V  V3  1  0.03714265  0.98447945  0.00288248  1
  O  O4  1  0.39617697  0.76218533  0.08072834  1
  O  O5  1  0.40326923  0.74160809  0.66879968  1
  O  O6  1  0.10415278  0.23989916  0.41857012  1
  F  F7  1  0.91271050  0.76036851  0.16958150  1
  F  F8  1  0.90784362  0.74427504  0.58256427  1
  F  F9  1  0.96138321  0.26122122  0.11956616  1
  F  F10  1  0.53777207  0.74222600  0.37786177  1
  F  F11  1  0.59124911  0.23883057  0.33169388  1
  F  F12  1  0.58540260  0.24522654  0.92164269  1
  F  F13  1  0.47472078  0.23915305  0.63096126  1
  F  F14  1  0.02733202  0.75011416  0.87496294  1
  F  F15  1  0.08102258  0.25871677  0.82598445  1
