# generated using pymatgen
data_TaZn2
_symmetry_space_group_name_H-M   'P 1'
_cell_length_a   5.04750053
_cell_length_b   5.04751038
_cell_length_c   16.32455412
_cell_angle_alpha   90.00127159
_cell_angle_beta   89.99878455
_cell_angle_gamma   120.00398519
_symmetry_Int_Tables_number   1
_chemical_formula_structural   TaZn2
_chemical_formula_sum   'Ta8 Zn16'
_cell_volume   360.17047819
_cell_formula_units_Z   8
loop_
 _symmetry_equiv_pos_site_id
 _symmetry_equiv_pos_as_xyz
  1  'x, y, z'
loop_
 _atom_site_type_symbol
 _atom_site_label
 _atom_site_symmetry_multiplicity
 _atom_site_fract_x
 _atom_site_fract_y
 _atom_site_fract_z
 _atom_site_occupancy
  Ta  Ta0  1  0.99998701  0.99998643  0.09132565  1
  Ta  Ta1  1  0.00001030  0.00000423  0.59129708  1
  Ta  Ta2  1  0.99994584  0.00001697  0.90865709  1
  Ta  Ta3  1  0.00001310  0.00000078  0.40872477  1
  Ta  Ta4  1  0.33329648  0.66668121  0.84365423  1
  Ta  Ta5  1  0.66665004  0.33336204  0.34362739  1
  Ta  Ta6  1  0.66667537  0.33330777  0.15639795  1
  Ta  Ta7  1  0.33335073  0.66665281  0.65633725  1
  Zn  Zn8  1  0.16051169  0.32101404  0.25000173  1
  Zn  Zn9  1  0.83951621  0.67901489  0.74999620  1
  Zn  Zn10  1  0.67898693  0.83947212  0.25000241  1
  Zn  Zn11  1  0.16054371  0.83947783  0.24999277  1
  Zn  Zn12  1  0.83947590  0.16049509  0.74999926  1
  Zn  Zn13  1  0.32096480  0.16047937  0.74998551  1
  Zn  Zn14  1  0.49995662  0.00001335  -0.00000126  1
  Zn  Zn15  1  0.50001545  0.00001873  0.50000254  1
  Zn  Zn16  1  0.99995400  0.49998624  -0.00000145  1
  Zn  Zn17  1  0.49998166  0.50001097  -0.00000196  1
  Zn  Zn18  1  0.50001749  0.50000368  0.49999932  1
  Zn  Zn19  1  0.00000219  0.50000612  0.50000211  1
  Zn  Zn20  1  0.33333212  0.66664697  0.12701206  1
  Zn  Zn21  1  0.66668345  0.33333000  0.62700327  1
  Zn  Zn22  1  0.66659436  0.33334216  0.87299098  1
  Zn  Zn23  1  0.33333456  0.66667822  0.37299210  1
