# generated using pymatgen
data_Sm27Y5O48
_symmetry_space_group_name_H-M   'P 1'
_cell_length_a   9.49298829
_cell_length_b   9.48045492
_cell_length_c   15.49796520
_cell_angle_alpha   90.01727355
_cell_angle_beta   90.02749778
_cell_angle_gamma   109.46098008
_symmetry_Int_Tables_number   1
_chemical_formula_structural   Sm27Y5O48
_chemical_formula_sum   'Sm27 Y5 O48'
_cell_volume   1315.09727202
_cell_formula_units_Z   1
loop_
 _symmetry_equiv_pos_site_id
 _symmetry_equiv_pos_as_xyz
  1  'x, y, z'
loop_
 _atom_site_type_symbol
 _atom_site_label
 _atom_site_symmetry_multiplicity
 _atom_site_fract_x
 _atom_site_fract_y
 _atom_site_fract_z
 _atom_site_occupancy
  Sm  Sm0  1  0.85897465  0.14208173  0.10847113  1
  Sm  Sm1  1  0.59203160  0.34157924  0.12493434  1
  Sm  Sm2  1  0.90796840  0.15842076  0.37506566  1
  Sm  Sm3  1  0.73398735  0.76656331  0.01587879  1
  Sm  Sm4  1  0.48308927  0.01667275  0.26629780  1
  Sm  Sm5  1  0.89040328  0.10999138  0.63995038  1
  Sm  Sm6  1  0.75000000  0.75000000  0.25000000  1
  Sm  Sm7  1  0.38993014  0.60779254  0.14063505  1
  Sm  Sm8  1  0.64102535  0.35791827  0.39152887  1
  Sm  Sm9  1  0.01691073  0.48332725  0.23370220  1
  Sm  Sm10  1  0.76601265  0.73343669  0.48412121  1
  Sm  Sm11  1  0.09418585  0.84270021  0.12489777  1
  Sm  Sm12  1  0.59408077  0.34188754  0.62456646  1
  Sm  Sm13  1  0.40581415  0.65729979  0.37510223  1
  Sm  Sm14  1  0.90591923  0.15811346  0.87543354  1
  Sm  Sm15  1  0.23463445  0.26717468  0.51509218  1
  Sm  Sm16  1  0.98482560  0.51640123  0.76629718  1
  Sm  Sm17  1  0.75000000  0.75000000  0.75000000  1
  Sm  Sm18  1  0.25000000  0.25000000  0.75000000  1
  Sm  Sm19  1  0.60959672  0.39000862  0.86004962  1
  Sm  Sm20  1  0.11006986  0.89220746  0.35936495  1
  Sm  Sm21  1  0.35810844  0.64174261  0.60809450  1
  Sm  Sm22  1  0.51517440  0.98359877  0.73370282  1
  Sm  Sm23  1  0.26536555  0.23282532  0.98490782  1
  Sm  Sm24  1  0.09351932  0.84275015  0.62379733  1
  Sm  Sm25  1  0.40648068  0.65724985  0.87620267  1
  Sm  Sm26  1  0.14189156  0.85825739  0.89190550  1
  Y  Y27  1  0.50006028  0.99978198  0.00032760  1
  Y  Y28  1  0.99962640  0.50011813  0.00026338  1
  Y  Y29  1  0.25000000  0.25000000  0.25000000  1
  Y  Y30  1  0.50037360  0.99988187  0.49973662  1
  Y  Y31  1  0.99993972  0.50021802  0.49967240  1
  O  O32  1  0.85079316  0.39287502  0.11852149  1
  O  O33  1  0.96424243  0.73089661  0.99456023  1
  O  O34  1  0.60331523  0.09185067  0.13390307  1
  O  O35  1  0.34170670  0.35164380  0.11697576  1
  O  O36  1  0.89668477  0.40814933  0.36609693  1
  O  O37  1  0.98601084  0.71533800  0.25569873  1
  O  O38  1  0.64042217  0.59995478  0.12937125  1
  O  O39  1  0.64920684  0.10712498  0.38147851  1
  O  O40  1  0.50184063  0.27647416  0.26541274  1
  O  O41  1  0.47397843  0.74930380  0.01564427  1
  O  O42  1  0.87660758  0.90568605  0.13504530  1
  O  O43  1  0.97436628  0.24955622  0.51469066  1
  O  O44  1  0.65342777  0.12235296  0.61195371  1
  O  O45  1  0.15383029  0.62263651  0.11252852  1
  O  O46  1  0.99815937  0.22352584  0.23458726  1
  O  O47  1  0.62339242  0.59431395  0.36495470  1
  O  O48  1  0.25966223  0.49557154  0.27043144  1
  O  O49  1  0.75440198  0.48964987  0.52088591  1
  O  O50  1  0.25464610  0.98938401  0.02112254  1
  O  O51  1  0.75833572  0.00002972  0.77005657  1
  O  O52  1  0.85957783  0.90004522  0.37062875  1
  O  O53  1  0.15829330  0.14835620  0.38302424  1
  O  O54  1  0.46438550  0.23035894  0.49427380  1
  O  O55  1  0.51398916  0.78466200  0.24430127  1
  O  O56  1  0.53575757  0.76910339  0.50543977  1
  O  O57  1  0.84423301  0.85541710  0.61485327  1
  O  O58  1  0.48491594  0.21477579  0.75558350  1
  O  O59  1  0.74166428  0.49997028  0.72994343  1
  O  O60  1  0.14117510  0.10109263  0.62885615  1
  O  O61  1  0.74559802  0.01035013  0.97911409  1
  O  O62  1  0.24033777  0.00442846  0.22956856  1
  O  O63  1  0.24535390  0.51061599  0.47887746  1
  O  O64  1  0.00691739  0.77690595  0.76446380  1
  O  O65  1  0.34616971  0.87736349  0.38747148  1
  O  O66  1  0.37719806  0.40611646  0.63474823  1
  O  O67  1  0.84657223  0.37764704  0.88804629  1
  O  O68  1  0.49308261  0.72309405  0.73553620  1
  O  O69  1  0.02602157  0.75069620  0.48435573  1
  O  O70  1  0.52563372  0.25044378  0.98530934  1
  O  O71  1  0.12280194  0.09388354  0.86525177  1
  O  O72  1  0.35882490  0.39890737  0.87114385  1
  O  O73  1  0.35110153  0.89324829  0.61743496  1
  O  O74  1  0.65576699  0.64458290  0.88514673  1
  O  O75  1  0.10281488  0.59150596  0.63306826  1
  O  O76  1  0.01508406  0.28522421  0.74441650  1
  O  O77  1  0.39718512  0.90849404  0.86693174  1
  O  O78  1  0.03561450  0.26964106  0.00572620  1
  O  O79  1  0.14889847  0.60675171  0.88256504  1
