# generated using pymatgen
data_Li4Mn3Fe(PO4)4
_symmetry_space_group_name_H-M   'P 1'
_cell_length_a   7.79073915
_cell_length_b   10.53411700
_cell_length_c   7.79356259
_cell_angle_alpha   89.96382390
_cell_angle_beta   104.26216188
_cell_angle_gamma   89.92562920
_symmetry_Int_Tables_number   1
_chemical_formula_structural   Li4Mn3Fe(PO4)4
_chemical_formula_sum   'Li8 Mn6 Fe2 P8 O32'
_cell_volume   619.89207854
_cell_formula_units_Z   2
loop_
 _symmetry_equiv_pos_site_id
 _symmetry_equiv_pos_as_xyz
  1  'x, y, z'
loop_
 _atom_site_type_symbol
 _atom_site_label
 _atom_site_symmetry_multiplicity
 _atom_site_fract_x
 _atom_site_fract_y
 _atom_site_fract_z
 _atom_site_occupancy
  Li  Li0  1  0.00000000  0.00000000  0.00000000  1
  Li  Li1  1  0.00000000  0.50000000  0.50000000  1
  Li  Li2  1  0.50000000  0.50000000  0.00000000  1
  Li  Li3  1  0.25013602  0.49966631  0.24960409  1
  Li  Li4  1  0.74990657  0.00034054  0.24957816  1
  Li  Li5  1  0.50000000  0.00000000  0.50000000  1
  Li  Li6  1  0.25009443  0.99965946  0.75042184  1
  Li  Li7  1  0.74986398  0.50033369  0.75039591  1
  Mn  Mn8  1  0.36145315  0.21854702  0.11169120  1
  Mn  Mn9  1  0.13793107  0.78142182  0.38815128  1
  Mn  Mn10  1  0.36142246  0.28119679  0.61168994  1
  Mn  Mn11  1  0.63857754  0.71880321  0.38831006  1
  Mn  Mn12  1  0.86206893  0.21857818  0.61184872  1
  Mn  Mn13  1  0.63854685  0.78145298  0.88830880  1
  Fe  Fe14  1  0.86058277  0.28180439  0.11028345  1
  Fe  Fe15  1  0.13941723  0.71819561  0.88971655  1
  P  P16  1  0.07900245  0.09351415  0.32907116  1
  P  P17  1  0.41854418  0.90699547  0.16863166  1
  P  P18  1  0.58235734  0.40738849  0.33054528  1
  P  P19  1  0.08082040  0.40832369  0.83256320  1
  P  P20  1  0.91917960  0.59167631  0.16743680  1
  P  P21  1  0.41764266  0.59261151  0.66945472  1
  P  P22  1  0.58145582  0.09300453  0.83136834  1
  P  P23  1  0.92099755  0.90648585  0.67092884  1
  O  O24  1  0.08517084  0.66175446  0.13062294  1
  O  O25  1  0.25795914  0.90296245  0.00804123  1
  O  O26  1  0.11261555  0.16295910  0.16198874  1
  O  O27  1  0.01913331  0.95618713  0.26933332  1
  O  O28  1  0.47961096  0.04397308  0.22989093  1
  O  O29  1  0.38525259  0.83794924  0.33644581  1
  O  O30  1  0.58647594  0.83798687  0.13536404  1
  O  O31  1  0.08813208  0.83697229  0.63719415  1
  O  O32  1  0.24019296  0.09673884  0.49018230  1
  O  O33  1  0.25820256  0.59564340  0.50758101  1
  O  O34  1  0.75721880  0.59590332  0.00789029  1
  O  O35  1  0.41503787  0.33776816  0.36358625  1
  O  O36  1  0.61966413  0.33752404  0.16482747  1
  O  O37  1  0.11335535  0.33847882  0.66499459  1
  O  O38  1  0.01962978  0.54521038  0.77101343  1
  O  O39  1  0.52002231  0.54402801  0.26860220  1
  O  O40  1  0.47997769  0.45597199  0.73139780  1
  O  O41  1  0.98037022  0.45478962  0.22898657  1
  O  O42  1  0.88664465  0.66152118  0.33500541  1
  O  O43  1  0.38033587  0.66247596  0.83517253  1
  O  O44  1  0.58496213  0.66223184  0.63641375  1
  O  O45  1  0.74179744  0.40435660  0.49241899  1
  O  O46  1  0.24278120  0.40409668  0.99210971  1
  O  O47  1  0.75980704  0.90326116  0.50981770  1
  O  O48  1  0.91186792  0.16302771  0.36280585  1
  O  O49  1  0.41352406  0.16201313  0.86463596  1
  O  O50  1  0.61474741  0.16205076  0.66355419  1
  O  O51  1  0.52038904  0.95602692  0.77010907  1
  O  O52  1  0.98086669  0.04381287  0.73066668  1
  O  O53  1  0.88738445  0.83704090  0.83801126  1
  O  O54  1  0.74204086  0.09703755  0.99195877  1
  O  O55  1  0.91482916  0.33824554  0.86937706  1
