# generated using pymatgen
data_Ni(PO3)4
_symmetry_space_group_name_H-M   'P 1'
_cell_length_a   7.29801217
_cell_length_b   7.29655568
_cell_length_c   9.89061170
_cell_angle_alpha   84.04322116
_cell_angle_beta   66.97876121
_cell_angle_gamma   109.21089591
_symmetry_Int_Tables_number   1
_chemical_formula_structural   Ni(PO3)4
_chemical_formula_sum   'Ni2 P8 O24'
_cell_volume   441.06382941
_cell_formula_units_Z   2
loop_
 _symmetry_equiv_pos_site_id
 _symmetry_equiv_pos_as_xyz
  1  'x, y, z'
loop_
 _atom_site_type_symbol
 _atom_site_label
 _atom_site_symmetry_multiplicity
 _atom_site_fract_x
 _atom_site_fract_y
 _atom_site_fract_z
 _atom_site_occupancy
  Ni  Ni0  1  0.00000000  0.50000000  0.00000000  1
  Ni  Ni1  1  0.00000000  0.00000000  0.50000000  1
  P  P2  1  0.99886741  0.31794919  0.69345631  1
  P  P3  1  0.30402642  0.27039428  0.97114799  1
  P  P4  1  0.48891655  0.30781096  0.19327486  1
  P  P5  1  0.51108345  0.69218904  0.80672514  1
  P  P6  1  0.69597358  0.72960572  0.02885201  1
  P  P7  1  0.74142435  0.27514830  0.52900269  1
  P  P8  1  0.25857565  0.72485170  0.47099731  1
  P  P9  1  0.00113259  0.68205081  0.30654369  1
  O  O10  1  0.67901214  0.80693688  0.64928572  1
  O  O11  1  0.49804931  0.85470390  0.39937937  1
  O  O12  1  0.02490846  0.12740586  0.65910429  1
  O  O13  1  0.09901619  0.80429411  0.56918435  1
  O  O14  1  0.80579984  0.33921258  0.66111075  1
  O  O15  1  0.50195069  0.14529610  0.60062063  1
  O  O16  1  0.95621164  0.32839040  0.85076345  1
  O  O17  1  0.87363697  0.66829642  0.93064001  1
  O  O18  1  0.41870523  0.21790445  0.07029046  1
  O  O19  1  0.49987915  0.46672489  0.83893463  1
  O  O20  1  0.28643581  0.68410117  0.84099950  1
  O  O21  1  0.58129477  0.78209555  0.92970954  1
  O  O22  1  0.32098786  0.19306312  0.35071428  1
  O  O23  1  0.04378836  0.67160960  0.14923655  1
  O  O24  1  0.19420016  0.66078742  0.33888925  1
  O  O25  1  0.50012085  0.53327511  0.16106537  1
  O  O26  1  0.75446485  0.89779909  0.10041998  1
  O  O27  1  0.12636303  0.33170358  0.06935999  1
  O  O28  1  0.24553515  0.10220091  0.89958002  1
  O  O29  1  0.97509154  0.87259414  0.34089571  1
  O  O30  1  0.71356419  0.31589883  0.15900050  1
  O  O31  1  0.78819319  0.48893294  0.42960125  1
  O  O32  1  0.21180681  0.51106706  0.57039875  1
  O  O33  1  0.90098381  0.19570589  0.43081565  1
