# generated using pymatgen
data_Li16Mn15Fe(PO4)16
_symmetry_space_group_name_H-M   'P 1'
_cell_length_a   4.78781132
_cell_length_b   10.56261717
_cell_length_c   24.66398143
_cell_angle_alpha   90.00000000
_cell_angle_beta   90.00000000
_cell_angle_gamma   89.97917077
_symmetry_Int_Tables_number   1
_chemical_formula_structural   Li16Mn15Fe(PO4)16
_chemical_formula_sum   'Li16 Mn15 Fe1 P16 O64'
_cell_volume   1247.30229927
_cell_formula_units_Z   1
loop_
 _symmetry_equiv_pos_site_id
 _symmetry_equiv_pos_as_xyz
  1  'x, y, z'
loop_
 _atom_site_type_symbol
 _atom_site_label
 _atom_site_symmetry_multiplicity
 _atom_site_fract_x
 _atom_site_fract_y
 _atom_site_fract_z
 _atom_site_occupancy
  Li  Li0  1  0.00002025  0.99998618  0.99997922  1
  Li  Li1  1  0.99998592  0.00001330  0.12498714  1
  Li  Li2  1  0.00000536  0.00000187  0.24999208  1
  Li  Li3  1  0.00000536  0.00000187  0.37500792  1
  Li  Li4  1  0.99998592  0.00001330  0.50001286  1
  Li  Li5  1  0.00002025  0.99998618  0.62502078  1
  Li  Li6  1  0.99966007  0.00030674  0.75008470  1
  Li  Li7  1  0.99966007  0.00030674  0.87491530  1
  Li  Li8  1  0.50000786  0.50001372  0.12499136  1
  Li  Li9  1  0.50011683  0.49991690  0.99990741  1
  Li  Li10  1  0.49999257  0.49999542  0.37500618  1
  Li  Li11  1  0.49999257  0.49999542  0.24999382  1
  Li  Li12  1  0.50011683  0.49991690  0.62509259  1
  Li  Li13  1  0.49955820  0.49978220  0.87480711  1
  Li  Li14  1  0.49955820  0.49978220  0.75019289  1
  Li  Li15  1  0.50000786  0.50001372  0.50000864  1
  Mn  Mn16  1  0.02761575  0.71885478  0.18749683  1
  Mn  Mn17  1  0.02761575  0.71885478  0.43750317  1
  Mn  Mn18  1  0.02763143  0.71873681  0.68760492  1
  Mn  Mn19  1  0.02763143  0.71873681  0.93739508  1
  Mn  Mn20  1  0.47237911  0.21887077  0.43750667  1
  Mn  Mn21  1  0.47236683  0.21901230  0.68777454  1
  Mn  Mn22  1  0.47237911  0.21887077  0.18749333  1
  Mn  Mn23  1  0.47236683  0.21901230  0.93722546  1
  Mn  Mn24  1  0.52760064  0.78113844  0.06249078  1
  Mn  Mn25  1  0.52760064  0.78113844  0.56250922  1
  Mn  Mn26  1  0.52751082  0.78114375  0.31250000  1
  Mn  Mn27  1  0.52737038  0.78092688  0.81250000  1
  Mn  Mn28  1  0.97230365  0.28116497  0.06238924  1
  Mn  Mn29  1  0.97230365  0.28116497  0.56261076  1
  Mn  Mn30  1  0.97240563  0.28115593  0.31250000  1
  Fe  Fe31  1  0.97409065  0.28059433  0.81250000  1
  P  P32  1  0.09069774  0.59193773  0.06248864  1
  P  P33  1  0.09069790  0.59192179  0.31250000  1
  P  P34  1  0.09069774  0.59193773  0.56251136  1
  P  P35  1  0.08969255  0.59129795  0.81250000  1
  P  P36  1  0.40924860  0.09190864  0.06249363  1
  P  P37  1  0.40931238  0.09193793  0.31250000  1
  P  P38  1  0.40866341  0.09325305  0.81250000  1
  P  P39  1  0.40924860  0.09190864  0.56250637  1
  P  P40  1  0.59068671  0.90809207  0.43749710  1
  P  P41  1  0.59068671  0.90809207  0.18750290  1
  P  P42  1  0.59057996  0.90802250  0.68751528  1
  P  P43  1  0.59057996  0.90802250  0.93748472  1
  P  P44  1  0.90929860  0.40807344  0.18749965  1
  P  P45  1  0.91024966  0.40787384  0.68800567  1
  P  P46  1  0.90929860  0.40807344  0.43750035  1
  P  P47  1  0.91024966  0.40787384  0.93699433  1
  O  O48  1  0.21243349  0.45522975  0.06250407  1
  O  O49  1  0.21250038  0.45527642  0.31250000  1
  O  O50  1  0.21243349  0.45522975  0.56249593  1
  O  O51  1  0.20979250  0.45412634  0.81250000  1
  O  O52  1  0.22335861  0.66115646  0.01231051  1
  O  O53  1  0.22348813  0.66114421  0.11268427  1
  O  O54  1  0.22349506  0.66115742  0.26231230  1
  O  O55  1  0.22349506  0.66115742  0.36268770  1
  O  O56  1  0.22348813  0.66114421  0.51231573  1
  O  O57  1  0.22335861  0.66115646  0.61268949  1
  O  O58  1  0.22341075  0.66065327  0.76239175  1
  O  O59  1  0.22341075  0.66065327  0.86260825  1
  O  O60  1  0.23155651  0.40414758  0.93751900  1
  O  O61  1  0.23056331  0.40402944  0.18750990  1
  O  O62  1  0.23056331  0.40402944  0.43749010  1
  O  O63  1  0.23155651  0.40414758  0.68748100  1
  O  O64  1  0.26941620  0.90406908  0.18750937  1
  O  O65  1  0.26937519  0.90402905  0.68749056  1
  O  O66  1  0.26937519  0.90402905  0.93750944  1
  O  O67  1  0.26941620  0.90406908  0.43749063  1
  O  O68  1  0.27656057  0.16124181  0.01229168  1
  O  O69  1  0.27645832  0.16118646  0.11268705  1
  O  O70  1  0.27645832  0.16118646  0.51231295  1
  O  O71  1  0.27648181  0.16118877  0.36269115  1
  O  O72  1  0.27648181  0.16118877  0.26230885  1
  O  O73  1  0.27656057  0.16124181  0.61270832  1
  O  O74  1  0.27306146  0.16244073  0.76244319  1
  O  O75  1  0.27306146  0.16244073  0.86255681  1
  O  O76  1  0.28756435  0.95533882  0.06250856  1
  O  O77  1  0.28757555  0.95532428  0.31250000  1
  O  O78  1  0.28902550  0.95621965  0.81250000  1
  O  O79  1  0.28756435  0.95533882  0.56249144  1
  O  O80  1  0.71244951  0.04469272  0.18751072  1
  O  O81  1  0.71244951  0.04469272  0.43748928  1
  O  O82  1  0.71203932  0.04480074  0.68752473  1
  O  O83  1  0.71203932  0.04480074  0.93747527  1
  O  O84  1  0.72347579  0.83881913  0.13732202  1
  O  O85  1  0.72346088  0.83882659  0.23770008  1
  O  O86  1  0.72346088  0.83882659  0.38729992  1
  O  O87  1  0.72353332  0.83884684  0.63731015  1
  O  O88  1  0.72351038  0.83881404  0.73766593  1
  O  O89  1  0.72351038  0.83881404  0.88733407  1
  O  O90  1  0.72353332  0.83884684  0.98768985  1
  O  O91  1  0.72347579  0.83881913  0.48767798  1
  O  O92  1  0.73057647  0.09598662  0.06251421  1
  O  O93  1  0.73055006  0.09597929  0.31250000  1
  O  O94  1  0.73057647  0.09598662  0.56248579  1
  O  O95  1  0.73021236  0.09707865  0.81250000  1
  O  O96  1  0.76943167  0.59591638  0.06250441  1
  O  O97  1  0.76943167  0.59591638  0.56249559  1
  O  O98  1  0.76946317  0.59597122  0.31250000  1
  O  O99  1  0.76866220  0.59629491  0.81250000  1
  O  O100  1  0.77657707  0.33881261  0.13730137  1
  O  O101  1  0.77654566  0.33881930  0.23768972  1
  O  O102  1  0.77654566  0.33881930  0.38731028  1
  O  O103  1  0.77639529  0.33844910  0.98706773  1
  O  O104  1  0.78116897  0.33837073  0.73870408  1
  O  O105  1  0.77639529  0.33844910  0.63793227  1
  O  O106  1  0.78116897  0.33837073  0.88629592  1
  O  O107  1  0.77657707  0.33881261  0.48769863  1
  O  O108  1  0.78747155  0.54469000  0.18750705  1
  O  O109  1  0.78747155  0.54469000  0.43749295  1
  O  O110  1  0.78737040  0.54418958  0.68776503  1
  O  O111  1  0.78737040  0.54418958  0.93723497  1
