# generated using pymatgen
data_Li8MnFe7(PO4)8
_symmetry_space_group_name_H-M   'P 1'
_cell_length_a   4.75597760
_cell_length_b   10.45837641
_cell_length_c   12.18012046
_cell_angle_alpha   90.00000000
_cell_angle_beta   90.00000000
_cell_angle_gamma   90.03498464
_symmetry_Int_Tables_number   1
_chemical_formula_structural   Li8MnFe7(PO4)8
_chemical_formula_sum   'Li8 Mn1 Fe7 P8 O32'
_cell_volume   605.83669075
_cell_formula_units_Z   1
loop_
 _symmetry_equiv_pos_site_id
 _symmetry_equiv_pos_as_xyz
  1  'x, y, z'
loop_
 _atom_site_type_symbol
 _atom_site_label
 _atom_site_symmetry_multiplicity
 _atom_site_fract_x
 _atom_site_fract_y
 _atom_site_fract_z
 _atom_site_occupancy
  Li  Li0  1  0.99991231  0.00044780  0.50025485  1
  Li  Li1  1  0.00007314  -0.00001044  0.99998695  1
  Li  Li2  1  0.99991231  0.00044780  0.24974515  1
  Li  Li3  1  0.00007314  -0.00001044  0.75001305  1
  Li  Li4  1  0.49969953  0.49975362  0.24946463  1
  Li  Li5  1  0.50011678  0.49997183  0.99986427  1
  Li  Li6  1  0.50011678  0.49997183  0.75013573  1
  Li  Li7  1  0.49969953  0.49975362  0.50053537  1
  Mn  Mn8  1  0.02360970  0.71846345  0.37500000  1
  Fe  Fe9  1  0.02625463  0.71824337  0.87500000  1
  Fe  Fe10  1  0.47374698  0.21845135  0.87500000  1
  Fe  Fe11  1  0.47332952  0.21837054  0.37500000  1
  Fe  Fe12  1  0.52611299  0.78158472  0.12439631  1
  Fe  Fe13  1  0.52611299  0.78158472  0.62560369  1
  Fe  Fe14  1  0.97380667  0.28156129  0.12479893  1
  Fe  Fe15  1  0.97380667  0.28156129  0.62520107  1
  P  P16  1  0.08416760  0.59416821  0.12407611  1
  P  P17  1  0.08416760  0.59416821  0.62592389  1
  P  P18  1  0.41740055  0.09468324  0.12499977  1
  P  P19  1  0.41740055  0.09468324  0.62500023  1
  P  P20  1  0.58249969  0.90552148  0.87500000  1
  P  P21  1  0.58147245  0.90755485  0.37500000  1
  P  P22  1  0.91644738  0.40431432  0.37500000  1
  P  P23  1  0.91744139  0.40527211  0.87500000  1
  O  O24  1  0.20652518  0.45618062  0.12435660  1
  O  O25  1  0.20652518  0.45618062  0.62564340  1
  O  O26  1  0.21629573  0.66460049  0.02206255  1
  O  O27  1  0.22285496  0.66441208  0.52547157  1
  O  O28  1  0.21629573  0.66460049  0.72793745  1
  O  O29  1  0.22285496  0.66441208  0.22452743  1
  O  O30  1  0.23924049  0.40307725  0.37500000  1
  O  O31  1  0.24018732  0.40286411  0.87500000  1
  O  O32  1  0.25886946  0.90504966  0.37500000  1
  O  O33  1  0.25962746  0.90300103  0.87500000  1
  O  O34  1  0.28350411  0.16520521  0.02343272  1
  O  O35  1  0.28364244  0.16514213  0.22661569  1
  O  O36  1  0.28350411  0.16520521  0.72656728  1
  O  O37  1  0.28364244  0.16514213  0.52338431  1
  O  O38  1  0.29281983  0.95685621  0.12487295  1
  O  O39  1  0.29281983  0.95685621  0.62512705  1
  O  O40  1  0.70835599  0.04443959  0.37500000  1
  O  O41  1  0.70693360  0.04309388  0.87500000  1
  O  O42  1  0.71293498  0.83637632  0.27329782  1
  O  O43  1  0.71293498  0.83637632  0.47670218  1
  O  O44  1  0.71629078  0.83486756  0.77338223  1
  O  O45  1  0.71629078  0.83486756  0.97661777  1
  O  O46  1  0.74019912  0.09705637  0.12497746  1
  O  O47  1  0.74019912  0.09705637  0.62502254  1
  O  O48  1  0.76122448  0.59717614  0.12515057  1
  O  O49  1  0.76122448  0.59717614  0.62484943  1
  O  O50  1  0.78350235  0.33401962  0.27326279  1
  O  O51  1  0.78350235  0.33401962  0.47673721  1
  O  O52  1  0.78341238  0.33471184  0.77344680  1
  O  O53  1  0.78341238  0.33471184  0.97655320  1
  O  O54  1  0.79015612  0.54173571  0.37500000  1
  O  O55  1  0.79283099  0.54301759  0.87500000  1
