# generated using pymatgen
data_V3CoO8
_symmetry_space_group_name_H-M   'P 1'
_cell_length_a   8.55441506
_cell_length_b   9.80227464
_cell_length_c   9.80227464
_cell_angle_alpha   84.13995935
_cell_angle_beta   115.87113337
_cell_angle_gamma   64.12886663
_symmetry_Int_Tables_number   1
_chemical_formula_structural   V3CoO8
_chemical_formula_sum   'V12 Co4 O32'
_cell_volume   620.50040118
_cell_formula_units_Z   4
loop_
 _symmetry_equiv_pos_site_id
 _symmetry_equiv_pos_as_xyz
  1  'x, y, z'
loop_
 _atom_site_type_symbol
 _atom_site_label
 _atom_site_symmetry_multiplicity
 _atom_site_fract_x
 _atom_site_fract_y
 _atom_site_fract_z
 _atom_site_occupancy
  V  V0  1  0.55466807  0.24235151  0.35520959  1
  V  V1  1  0.94180900  0.35520959  0.24235151  1
  V  V2  1  0.02916668  0.00892320  0.68622915  1
  V  V3  1  0.85186173  0.68622915  0.00892320  1
  V  V4  1  0.16721056  0.30930870  0.64676652  1
  V  V5  1  0.32975273  0.64676652  0.30930870  1
  V  V6  1  0.66721056  0.35323348  0.69069130  1
  V  V7  1  0.82975273  0.69069130  0.35323348  1
  V  V8  1  0.52916668  0.31377085  0.99107680  1
  V  V9  1  0.35186173  0.99107680  0.31377085  1
  V  V10  1  0.05466807  0.64479041  0.75764849  1
  V  V11  1  0.44180900  0.75764849  0.64479041  1
  Co  Co12  1  0.63697228  0.01385673  0.67155307  1
  Co  Co13  1  0.47927595  0.67155307  0.01385673  1
  Co  Co14  1  0.13697228  0.32844693  0.98614327  1
  Co  Co15  1  0.97927595  0.98614327  0.32844693  1
  O  O16  1  0.73463762  0.12326218  0.10332144  1
  O  O17  1  0.25457836  0.10332144  0.12326218  1
  O  O18  1  0.09340930  0.14613101  0.31961858  1
  O  O19  1  0.41992173  0.31961858  0.14613101  1
  O  O20  1  0.48099103  0.11859213  0.41352169  1
  O  O21  1  0.00947633  0.42394522  0.12071542  1
  O  O22  1  0.81270614  0.12071542  0.42394522  1
  O  O23  1  0.68606147  0.41352169  0.11859213  1
  O  O24  1  0.78224901  0.14204550  0.69368644  1
  O  O25  1  0.73060807  0.69368644  0.14204550  1
  O  O26  1  0.51055472  0.40391553  0.43756372  1
  O  O27  1  0.97690552  0.43756372  0.40391553  1
  O  O28  1  0.06862133  0.19189451  0.65059622  1
  O  O29  1  0.37794668  0.20033415  0.64318575  1
  O  O30  1  0.10991962  0.65059622  0.19189451  1
  O  O31  1  0.43509508  0.64318575  0.20033415  1
  O  O32  1  0.56862133  0.34940378  0.80810549  1
  O  O33  1  0.60991962  0.80810549  0.34940378  1
  O  O34  1  0.93509508  0.79966585  0.35681425  1
  O  O35  1  0.87794668  0.35681425  0.79966585  1
  O  O36  1  0.01055472  0.56243628  0.59608447  1
  O  O37  1  0.47690552  0.59608447  0.56243628  1
  O  O38  1  0.28224901  0.30631356  0.85795450  1
  O  O39  1  0.23060807  0.85795450  0.30631356  1
  O  O40  1  0.31270614  0.57605478  0.87928458  1
  O  O41  1  0.50947633  0.87928458  0.57605478  1
  O  O42  1  0.18606147  0.88140787  0.58647831  1
  O  O43  1  0.98099103  0.58647831  0.88140787  1
  O  O44  1  0.91992173  0.85386899  0.68038142  1
  O  O45  1  0.59340930  0.68038142  0.85386899  1
  O  O46  1  0.75457836  0.87673782  0.89667856  1
  O  O47  1  0.23463762  0.89667856  0.87673782  1
