# generated using pymatgen
data_TiV(PO4)2
_symmetry_space_group_name_H-M   'P 1'
_cell_length_a   8.60538851
_cell_length_b   8.68139051
_cell_length_c   8.68139081
_cell_angle_alpha   59.99999414
_cell_angle_beta   59.70740669
_cell_angle_gamma   59.70741262
_symmetry_Int_Tables_number   1
_chemical_formula_structural   TiV(PO4)2
_chemical_formula_sum   'Ti3 V3 P6 O24'
_cell_volume   456.56138050
_cell_formula_units_Z   3
loop_
 _symmetry_equiv_pos_site_id
 _symmetry_equiv_pos_as_xyz
  1  'x, y, z'
loop_
 _atom_site_type_symbol
 _atom_site_label
 _atom_site_symmetry_multiplicity
 _atom_site_fract_x
 _atom_site_fract_y
 _atom_site_fract_z
 _atom_site_occupancy
  Ti  Ti0  1  0.06507377  0.64497541  0.64497541  1
  Ti  Ti1  1  0.43064062  0.85645279  0.85645279  1
  Ti  Ti2  1  0.93527169  0.35490944  0.35490944  1
  V  V3  1  0.00219138  0.99926987  0.99926987  1
  V  V4  1  0.57498098  0.14167267  0.14167267  1
  V  V5  1  0.49700086  0.50100005  0.50100005  1
  P  P6  1  0.25153183  0.24981581  0.54271435  1
  P  P7  1  0.25153183  0.95593801  0.24981581  1
  P  P8  1  0.25153183  0.54271435  0.95593801  1
  P  P9  1  0.75023226  0.45715462  0.04346551  1
  P  P10  1  0.75023226  0.04346551  0.74914761  1
  P  P11  1  0.75023226  0.74914761  0.45715462  1
  O  O12  1  0.06940948  0.11802050  0.31527744  1
  O  O13  1  0.06940948  0.49729258  0.11802050  1
  O  O14  1  0.06940948  0.31527744  0.49729258  1
  O  O15  1  0.22903887  0.08959817  0.73946068  1
  O  O16  1  0.43151181  0.18675876  0.39139050  1
  O  O17  1  0.26071084  0.41313064  0.56500840  1
  O  O18  1  0.22903887  0.94190228  0.08959817  1
  O  O19  1  0.26071084  0.76115012  0.41313064  1
  O  O20  1  0.56951197  0.61682001  0.99812623  1
  O  O21  1  0.26071084  0.56500840  0.76115012  1
  O  O22  1  0.77798050  0.26316124  0.05477520  1
  O  O23  1  0.56951197  0.99812623  0.81554179  1
  O  O24  1  0.43151181  0.99033893  0.18675876  1
  O  O25  1  0.22903887  0.73946068  0.94190228  1
  O  O26  1  0.73007326  0.44443907  0.23827473  1
  O  O27  1  0.43151181  0.39139050  0.99033893  1
  O  O28  1  0.73007326  0.23827473  0.58721194  1
  O  O29  1  0.77798050  0.05477520  0.90408305  1
  O  O30  1  0.73007326  0.58721194  0.44443907  1
  O  O31  1  0.56951197  0.81554179  0.61682001  1
  O  O32  1  0.77798050  0.90408305  0.26316124  1
  O  O33  1  0.92827941  0.67891598  0.50811077  1
  O  O34  1  0.92827941  0.50811077  0.88469484  1
  O  O35  1  0.92827941  0.88469484  0.67891598  1
