# generated using pymatgen
data_LiB3P(HO3)3
_symmetry_space_group_name_H-M   'P 1'
_cell_length_a   11.61224982
_cell_length_b   8.88380586
_cell_length_c   14.00505209
_cell_angle_alpha   90.00000000
_cell_angle_beta   90.00000000
_cell_angle_gamma   90.00000000
_symmetry_Int_Tables_number   1
_chemical_formula_structural   LiB3P(HO3)3
_chemical_formula_sum   'Li8 B24 P8 H24 O72'
_cell_volume   1444.77480050
_cell_formula_units_Z   8
loop_
 _symmetry_equiv_pos_site_id
 _symmetry_equiv_pos_as_xyz
  1  'x, y, z'
loop_
 _atom_site_type_symbol
 _atom_site_label
 _atom_site_symmetry_multiplicity
 _atom_site_fract_x
 _atom_site_fract_y
 _atom_site_fract_z
 _atom_site_occupancy
  Li  Li0  1  0.00000000  0.17992327  0.25000000  1
  Li  Li1  1  0.00000000  0.48688342  0.25000000  1
  Li  Li2  1  0.00000000  0.51311658  0.75000000  1
  Li  Li3  1  0.00000000  0.82007673  0.75000000  1
  Li  Li4  1  0.50000000  0.67992327  0.25000000  1
  Li  Li5  1  0.50000000  0.01311658  0.75000000  1
  Li  Li6  1  0.50000000  0.32007673  0.75000000  1
  Li  Li7  1  0.50000000  0.98688342  0.25000000  1
  B  B8  1  0.14674019  0.03138150  0.08153697  1
  B  B9  1  0.14674019  0.96861850  0.58153697  1
  B  B10  1  0.14522837  0.53070042  0.07496047  1
  B  B11  1  0.14522837  0.46929958  0.57496047  1
  B  B12  1  0.24429130  0.08914583  0.44241775  1
  B  B13  1  0.24429130  0.91085417  0.94241775  1
  B  B14  1  0.25570870  0.41085417  0.94241775  1
  B  B15  1  0.25570870  0.58914583  0.44241775  1
  B  B16  1  0.35477163  0.03070042  0.07496047  1
  B  B17  1  0.35477163  0.96929958  0.57496047  1
  B  B18  1  0.35325981  0.53138150  0.08153697  1
  B  B19  1  0.35325981  0.46861850  0.58153697  1
  B  B20  1  0.64674019  0.46861850  0.91846303  1
  B  B21  1  0.64674019  0.53138150  0.41846303  1
  B  B22  1  0.64522837  0.03070042  0.42503953  1
  B  B23  1  0.64522837  0.96929958  0.92503953  1
  B  B24  1  0.74429130  0.41085417  0.55758225  1
  B  B25  1  0.74429130  0.58914583  0.05758225  1
  B  B26  1  0.75570870  0.08914583  0.05758225  1
  B  B27  1  0.75570870  0.91085417  0.55758225  1
  B  B28  1  0.85477163  0.46929958  0.92503953  1
  B  B29  1  0.85477163  0.53070042  0.42503953  1
  B  B30  1  0.85325981  0.03138150  0.41846303  1
  B  B31  1  0.85325981  0.96861850  0.91846303  1
  P  P32  1  0.23088679  0.34201315  0.32601706  1
  P  P33  1  0.23088679  0.65798685  0.82601706  1
  P  P34  1  0.26911321  0.15798685  0.82601706  1
  P  P35  1  0.26911321  0.84201315  0.32601706  1
  P  P36  1  0.73088679  0.15798685  0.67398294  1
  P  P37  1  0.73088679  0.84201315  0.17398294  1
  P  P38  1  0.76911321  0.34201315  0.17398294  1
  P  P39  1  0.76911321  0.65798685  0.67398294  1
  H  H40  1  0.97932654  0.06283859  0.08445955  1
  H  H41  1  0.97932654  0.93716141  0.58445955  1
  H  H42  1  0.02516659  0.56279910  0.42260161  1
  H  H43  1  0.02516659  0.43720090  0.92260161  1
  H  H44  1  0.20590955  0.28538572  0.70373435  1
  H  H45  1  0.20590955  0.71461428  0.20373435  1
  H  H46  1  0.29409045  0.21461428  0.20373435  1
  H  H47  1  0.29409045  0.78538572  0.70373435  1
  H  H48  1  0.47483341  0.06279910  0.42260161  1
  H  H49  1  0.47483341  0.93720090  0.92260161  1
  H  H50  1  0.52067346  0.56283859  0.08445955  1
  H  H51  1  0.52067346  0.43716141  0.58445955  1
  H  H52  1  0.47932654  0.43716141  0.91554045  1
  H  H53  1  0.47932654  0.56283859  0.41554045  1
  H  H54  1  0.52516659  0.06279910  0.07739839  1
  H  H55  1  0.52516659  0.93720090  0.57739839  1
  H  H56  1  0.70590955  0.78538572  0.79626565  1
  H  H57  1  0.70590955  0.21461428  0.29626565  1
  H  H58  1  0.79409045  0.28538572  0.79626565  1
  H  H59  1  0.79409045  0.71461428  0.29626565  1
  H  H60  1  0.97483341  0.43720090  0.57739839  1
  H  H61  1  0.97483341  0.56279910  0.07739839  1
  H  H62  1  0.02067346  0.06283859  0.41554045  1
  H  H63  1  0.02067346  0.93716141  0.91554045  1
  O  O64  1  0.04444553  0.57194321  0.11901464  1
  O  O65  1  0.04444553  0.42805679  0.61901464  1
  O  O66  1  0.04786591  0.08232160  0.12487627  1
  O  O67  1  0.04786591  0.91767840  0.62487627  1
  O  O68  1  0.11013387  0.33245119  0.28703565  1
  O  O69  1  0.11013387  0.66754881  0.78703565  1
  O  O70  1  0.14266312  0.94387363  0.00133064  1
  O  O71  1  0.14266312  0.05612637  0.50133064  1
  O  O72  1  0.14719704  0.54864221  0.49128049  1
  O  O73  1  0.14719704  0.45135779  0.99128049  1
  O  O74  1  0.17684451  0.79157574  0.24966628  1
  O  O75  1  0.17684451  0.20842426  0.74966628  1
  O  O76  1  0.23277966  0.00640384  0.35018025  1
  O  O77  1  0.23277966  0.99359616  0.85018025  1
  O  O78  1  0.24796859  0.25151507  0.42062641  1
  O  O79  1  0.24796859  0.74848493  0.92062641  1
  O  O80  1  0.24699035  0.42697362  0.62123536  1
  O  O81  1  0.24699035  0.57302638  0.12123436  1
  O  O82  1  0.25300965  0.07302638  0.12123436  1
  O  O83  1  0.25300965  0.92697362  0.62123536  1
  O  O84  1  0.25203141  0.75151507  0.42062641  1
  O  O85  1  0.25203141  0.24848493  0.92062641  1
  O  O86  1  0.26722034  0.49359616  0.85018025  1
  O  O87  1  0.26722034  0.50640384  0.35018025  1
  O  O88  1  0.32315549  0.29157574  0.24966628  1
  O  O89  1  0.32315549  0.70842426  0.74966628  1
  O  O90  1  0.35280296  0.04864221  0.49128049  1
  O  O91  1  0.35280296  0.95135779  0.99128049  1
  O  O92  1  0.35733688  0.55612637  0.50133064  1
  O  O93  1  0.35733688  0.44387363  0.00133064  1
  O  O94  1  0.38986613  0.83245119  0.28703565  1
  O  O95  1  0.38986613  0.16754881  0.78703565  1
  O  O96  1  0.45213409  0.58232160  0.12487627  1
  O  O97  1  0.45213409  0.41767840  0.62487627  1
  O  O98  1  0.45555447  0.07194321  0.11901464  1
  O  O99  1  0.45555447  0.92805679  0.61901464  1
  O  O100  1  0.54444553  0.07194321  0.38098536  1
  O  O101  1  0.54444553  0.92805679  0.88098536  1
  O  O102  1  0.54786591  0.58232160  0.37512373  1
  O  O103  1  0.54786591  0.41767840  0.87512373  1
  O  O104  1  0.61013387  0.83245119  0.21296435  1
  O  O105  1  0.61013387  0.16754881  0.71296435  1
  O  O106  1  0.64266312  0.44387363  0.49866936  1
  O  O107  1  0.64266312  0.55612637  0.99866936  1
  O  O108  1  0.64719704  0.04864221  0.00871951  1
  O  O109  1  0.64719704  0.95135779  0.50871951  1
  O  O110  1  0.67684451  0.29157574  0.25033372  1
  O  O111  1  0.67684451  0.70842426  0.75033372  1
  O  O112  1  0.73277966  0.49359616  0.64981975  1
  O  O113  1  0.73277966  0.50640384  0.14981975  1
  O  O114  1  0.74796859  0.24848493  0.57937359  1
  O  O115  1  0.74796859  0.75151507  0.07937359  1
  O  O116  1  0.74699035  0.92697362  0.87876464  1
  O  O117  1  0.74699035  0.07302638  0.37876564  1
  O  O118  1  0.75300965  0.42697362  0.87876464  1
  O  O119  1  0.75300965  0.57302638  0.37876564  1
  O  O120  1  0.75203141  0.25151507  0.07937359  1
  O  O121  1  0.75203141  0.74848493  0.57937359  1
  O  O122  1  0.76722034  0.00640384  0.14981975  1
  O  O123  1  0.76722034  0.99359616  0.64981975  1
  O  O124  1  0.82315549  0.20842426  0.75033372  1
  O  O125  1  0.82315549  0.79157574  0.25033372  1
  O  O126  1  0.85280296  0.45135779  0.50871951  1
  O  O127  1  0.85280296  0.54864221  0.00871951  1
  O  O128  1  0.85733688  0.05612637  0.99866936  1
  O  O129  1  0.85733688  0.94387363  0.49866936  1
  O  O130  1  0.88986613  0.33245119  0.21296435  1
  O  O131  1  0.88986613  0.66754881  0.71296435  1
  O  O132  1  0.95213409  0.08232160  0.37512373  1
  O  O133  1  0.95213409  0.91767840  0.87512373  1
  O  O134  1  0.95555447  0.42805679  0.88098536  1
  O  O135  1  0.95555447  0.57194321  0.38098536  1
