# generated using pymatgen
data_Li2V3SbO8
_symmetry_space_group_name_H-M   'P 1'
_cell_length_a   8.61735477
_cell_length_b   8.61737939
_cell_length_c   8.61798473
_cell_angle_alpha   90.00065137
_cell_angle_beta   89.99955933
_cell_angle_gamma   90.00011130
_symmetry_Int_Tables_number   1
_chemical_formula_structural   Li2V3SbO8
_chemical_formula_sum   'Li8 V12 Sb4 O32'
_cell_volume   639.96306068
_cell_formula_units_Z   4
loop_
 _symmetry_equiv_pos_site_id
 _symmetry_equiv_pos_as_xyz
  1  'x, y, z'
loop_
 _atom_site_type_symbol
 _atom_site_label
 _atom_site_symmetry_multiplicity
 _atom_site_fract_x
 _atom_site_fract_y
 _atom_site_fract_z
 _atom_site_occupancy
  Li  Li0  1  0.00344673  0.00357581  0.00353867  1
  Li  Li1  1  0.24652729  0.24654161  0.24644782  1
  Li  Li2  1  0.25350594  0.75343065  0.74645657  1
  Li  Li3  1  0.49648959  0.99644925  0.50356220  1
  Li  Li4  1  0.50343972  0.49648904  0.99651411  1
  Li  Li5  1  0.74655196  0.25341128  0.75352704  1
  Li  Li6  1  0.75345860  0.74655698  0.25351147  1
  Li  Li7  1  0.99651463  0.50354823  0.49649717  1
  V  V8  1  0.11764325  0.13218877  0.62499408  1
  V  V9  1  0.12502065  0.38231991  0.86780563  1
  V  V10  1  0.13221510  0.62506953  0.11765232  1
  V  V11  1  0.36783630  0.37494722  0.61761963  1
  V  V12  1  0.37500180  0.61769671  0.36782368  1
  V  V13  1  0.38232028  0.86780370  0.12501771  1
  V  V14  1  0.61768172  0.36782346  0.37500978  1
  V  V15  1  0.62499395  0.11769636  0.13220688  1
  V  V16  1  0.63216793  0.87496129  0.88236372  1
  V  V17  1  0.86781770  0.12502866  0.38235284  1
  V  V18  1  0.87500462  0.88234353  0.63218487  1
  V  V19  1  0.88237280  0.63222705  0.87501896  1
  Sb  Sb20  1  0.12487109  0.87516450  0.37513857  1
  Sb  Sb21  1  0.37514153  0.12486721  0.87511293  1
  Sb  Sb22  1  0.62482570  0.62474280  0.62482622  1
  Sb  Sb23  1  0.87513552  0.37517218  0.12488021  1
  O  O24  1  0.10736966  0.11024391  0.38176599  1
  O  O25  1  0.11817828  0.89261696  0.61019254  1
  O  O26  1  0.11593935  0.61592225  0.88407545  1
  O  O27  1  0.13985030  0.14259171  0.86833080  1
  O  O28  1  0.11022338  0.38183156  0.10737213  1
  O  O29  1  0.13406990  0.36593465  0.63407245  1
  O  O30  1  0.13164240  0.63991157  0.35737970  1
  O  O31  1  0.14260187  0.86839342  0.13985072  1
  O  O32  1  0.35738804  0.13158856  0.63985898  1
  O  O33  1  0.36834232  0.36006472  0.85736087  1
  O  O34  1  0.36593300  0.63409545  0.13408890  1
  O  O35  1  0.38980674  0.61814511  0.60741588  1
  O  O36  1  0.36012375  0.85740898  0.36833611  1
  O  O37  1  0.38410979  0.38408334  0.38406478  1
  O  O38  1  0.38178168  0.10739813  0.11016955  1
  O  O39  1  0.39260138  0.88973443  0.88176218  1
  O  O40  1  0.60741514  0.38975096  0.61822255  1
  O  O41  1  0.61821278  0.60740138  0.38985253  1
  O  O42  1  0.61590838  0.88410020  0.11590996  1
  O  O43  1  0.63987433  0.35742996  0.13166876  1
  O  O44  1  0.61019728  0.11814993  0.89263206  1
  O  O45  1  0.63405986  0.13406577  0.36593827  1
  O  O46  1  0.63163721  0.86008089  0.64264670  1
  O  O47  1  0.64263555  0.63161869  0.86017339  1
  O  O48  1  0.85741598  0.36838507  0.36012803  1
  O  O49  1  0.86832002  0.13992529  0.14261096  1
  O  O50  1  0.86591900  0.86596237  0.86593666  1
  O  O51  1  0.88976242  0.88181783  0.39262219  1
  O  O52  1  0.86016343  0.64261075  0.63169536  1
  O  O53  1  0.88408568  0.11590398  0.61590882  1
  O  O54  1  0.88181638  0.39264362  0.88981414  1
  O  O55  1  0.89263133  0.61027380  0.11821852  1
