# generated using pymatgen
data_Ag3P6H12N3O19
_symmetry_space_group_name_H-M   'P 1'
_cell_length_a   10.03379310
_cell_length_b   10.03379309
_cell_length_c   10.03379290
_cell_angle_alpha   99.55708306
_cell_angle_beta   99.55708301
_cell_angle_gamma   99.55708507
_symmetry_Int_Tables_number   1
_chemical_formula_structural   Ag3P6H12N3O19
_chemical_formula_sum   'Ag6 P12 H24 N6 O38'
_cell_volume   962.66198376
_cell_formula_units_Z   2
loop_
 _symmetry_equiv_pos_site_id
 _symmetry_equiv_pos_as_xyz
  1  'x, y, z'
loop_
 _atom_site_type_symbol
 _atom_site_label
 _atom_site_symmetry_multiplicity
 _atom_site_fract_x
 _atom_site_fract_y
 _atom_site_fract_z
 _atom_site_occupancy
  Ag  Ag0  1  0.46684180  0.80851616  0.01074751  1
  Ag  Ag1  1  0.80851616  0.01074751  0.46684180  1
  Ag  Ag2  1  0.01074751  0.46684180  0.80851616  1
  Ag  Ag3  1  0.53315820  0.19148384  0.98925249  1
  Ag  Ag4  1  0.19148384  0.98925249  0.53315820  1
  Ag  Ag5  1  0.98925249  0.53315820  0.19148384  1
  P  P6  1  0.42434772  0.30887483  0.66655200  1
  P  P7  1  0.30887483  0.66655200  0.42434772  1
  P  P8  1  0.66655200  0.42434772  0.30887483  1
  P  P9  1  0.57565228  0.69112517  0.33344800  1
  P  P10  1  0.69112517  0.33344800  0.57565228  1
  P  P11  1  0.33344800  0.57565228  0.69112517  1
  P  P12  1  0.11578961  0.76353669  0.02113489  1
  P  P13  1  0.76353669  0.02113489  0.11578961  1
  P  P14  1  0.02113489  0.11578961  0.76353669  1
  P  P15  1  0.88421039  0.23646331  0.97886511  1
  P  P16  1  0.23646331  0.97886511  0.88421039  1
  P  P17  1  0.97886511  0.88421039  0.23646331  1
  H  H18  1  0.42080711  0.10950047  0.38701796  1
  H  H19  1  0.10950047  0.38701796  0.42080711  1
  H  H20  1  0.38701796  0.42080711  0.10950047  1
  H  H21  1  0.57919289  0.89049953  0.61298204  1
  H  H22  1  0.89049953  0.61298204  0.57919289  1
  H  H23  1  0.61298204  0.57919289  0.89049953  1
  H  H24  1  0.61258806  0.96452518  0.78347955  1
  H  H25  1  0.96452518  0.78347955  0.61258806  1
  H  H26  1  0.78347955  0.61258806  0.96452518  1
  H  H27  1  0.38741194  0.03547482  0.21652045  1
  H  H28  1  0.03547482  0.21652045  0.38741194  1
  H  H29  1  0.21652045  0.38741194  0.03547482  1
  H  H30  1  0.65957962  0.60744444  0.06329879  1
  H  H31  1  0.60744444  0.06329879  0.65957962  1
  H  H32  1  0.06329879  0.65957962  0.60744444  1
  H  H33  1  0.34042038  0.39255556  0.93670121  1
  H  H34  1  0.39255556  0.93670121  0.34042038  1
  H  H35  1  0.93670121  0.34042038  0.39255556  1
  H  H36  1  0.53917246  0.03577093  0.31575506  1
  H  H37  1  0.03577093  0.31575506  0.53917246  1
  H  H38  1  0.31575506  0.53917246  0.03577093  1
  H  H39  1  0.46082754  0.96422907  0.68424494  1
  H  H40  1  0.96422907  0.68424494  0.46082754  1
  H  H41  1  0.68424494  0.46082754  0.96422907  1
  N  N42  1  0.43518976  0.02917598  0.31439483  1
  N  N43  1  0.02917598  0.31439483  0.43518976  1
  N  N44  1  0.31439483  0.43518976  0.02917598  1
  N  N45  1  0.56481024  0.97082402  0.68560517  1
  N  N46  1  0.97082402  0.68560517  0.56481024  1
  N  N47  1  0.68560517  0.56481024  0.97082402  1
  O  O48  1  0.58060705  0.38364635  0.66313827  1
  O  O49  1  0.38364635  0.66313827  0.58060705  1
  O  O50  1  0.66313827  0.58060705  0.38364635  1
  O  O51  1  0.41939295  0.61635365  0.33686173  1
  O  O52  1  0.61635365  0.33686173  0.41939295  1
  O  O53  1  0.33686173  0.41939295  0.61635365  1
  O  O54  1  0.81481212  0.41972905  0.30360956  1
  O  O55  1  0.41972905  0.30360956  0.81481212  1
  O  O56  1  0.30360956  0.81481212  0.41972905  1
  O  O57  1  0.18518788  0.58027095  0.69639044  1
  O  O58  1  0.58027095  0.69639044  0.18518788  1
  O  O59  1  0.69639044  0.18518788  0.58027095  1
  O  O60  1  0.17940489  0.55776200  0.37969179  1
  O  O61  1  0.55776200  0.37969179  0.17940489  1
  O  O62  1  0.37969179  0.17940489  0.55776200  1
  O  O63  1  0.82059511  0.44223800  0.62030821  1
  O  O64  1  0.44223800  0.62030821  0.82059511  1
  O  O65  1  0.62030821  0.82059511  0.44223800  1
  O  O66  1  0.87943182  0.14817664  0.09951066  1
  O  O67  1  0.14817664  0.09951066  0.87943182  1
  O  O68  1  0.09951066  0.87943182  0.14817664  1
  O  O69  1  0.12056818  0.85182336  0.90048934  1
  O  O70  1  0.85182336  0.90048934  0.12056818  1
  O  O71  1  0.90048934  0.12056818  0.85182336  1
  O  O72  1  0.05997146  0.25038355  0.71917401  1
  O  O73  1  0.25038355  0.71917401  0.05997146  1
  O  O74  1  0.71917401  0.05997146  0.25038355  1
  O  O75  1  0.94002854  0.74961645  0.28082599  1
  O  O76  1  0.74961645  0.28082599  0.94002854  1
  O  O77  1  0.28082599  0.94002854  0.74961645  1
  O  O78  1  0.65372821  0.97548596  0.98506883  1
  O  O79  1  0.97548596  0.98506883  0.65372821  1
  O  O80  1  0.98506883  0.65372821  0.97548596  1
  O  O81  1  0.34627179  0.02451404  0.01493117  1
  O  O82  1  0.02451404  0.01493117  0.34627179  1
  O  O83  1  0.01493117  0.34627179  0.02451404  1
  O  O84  1  0.24977775  0.24977775  0.24977775  1
  O  O85  1  0.75022225  0.75022225  0.75022225  1
