# generated using pymatgen
data_LiSiBO4
_symmetry_space_group_name_H-M   'P 1'
_cell_length_a   4.45434753
_cell_length_b   4.45434753
_cell_length_c   4.66995131
_cell_angle_alpha   118.48416384
_cell_angle_beta   118.48416380
_cell_angle_gamma   89.99999999
_symmetry_Int_Tables_number   1
_chemical_formula_structural   LiSiBO4
_chemical_formula_sum   'Li1 Si1 B1 O4'
_cell_volume   68.41001071
_cell_formula_units_Z   1
loop_
 _symmetry_equiv_pos_site_id
 _symmetry_equiv_pos_as_xyz
  1  'x, y, z'
loop_
 _atom_site_type_symbol
 _atom_site_label
 _atom_site_symmetry_multiplicity
 _atom_site_fract_x
 _atom_site_fract_y
 _atom_site_fract_z
 _atom_site_occupancy
  Li  Li0  1  0.50000000  0.50000000  0.00000000  1
  B  B1  1  0.25000000  0.75000000  0.50000000  1
  O  O2  1  0.14374962  0.71993090  0.74355788  1
  O  O3  1  0.59980826  0.02362698  0.74355788  1
  O  O4  1  0.97637302  0.85625038  0.25644212  1
  O  O5  1  0.28006910  0.40019174  0.25644212  1
  Si  Si6  1  0.00000000  0.00000000  0.00000000  1
