# generated using pymatgen
data_CsNa2Be6(BO3)5
_symmetry_space_group_name_H-M   'P 1'
_cell_length_a   7.34385738
_cell_length_b   7.34385738
_cell_length_c   10.87228960
_cell_angle_alpha   77.62830434
_cell_angle_beta   102.37169566
_cell_angle_gamma   144.72615942
_symmetry_Int_Tables_number   1
_chemical_formula_structural   CsNa2Be6(BO3)5
_chemical_formula_sum   'Cs1 Na2 Be6 B5 O15'
_cell_volume   329.94953629
_cell_formula_units_Z   1
loop_
 _symmetry_equiv_pos_site_id
 _symmetry_equiv_pos_as_xyz
  1  'x, y, z'
loop_
 _atom_site_type_symbol
 _atom_site_label
 _atom_site_symmetry_multiplicity
 _atom_site_fract_x
 _atom_site_fract_y
 _atom_site_fract_z
 _atom_site_occupancy
  Cs  Cs0  1  0.45961867  0.45961867  0.00000000  1
  Na  Na1  1  0.79661129  0.17240841  0.45641885  1
  Na  Na2  1  0.17240841  0.79661229  0.54358215  1
  Be  Be3  1  0.18927836  0.70486784  0.07749641  1
  Be  Be4  1  0.70486684  0.18927836  0.92250359  1
  Be  Be5  1  0.32153967  0.60084206  0.29691900  1
  Be  Be6  1  0.60084306  0.32153867  0.70308100  1
  Be  Be7  1  0.95048367  0.96963878  0.36479716  1
  Be  Be8  1  0.96963978  0.95048267  0.63520284  1
  B  B9  1  0.14667852  0.81160682  0.27526421  1
  B  B10  1  0.81160582  0.14667852  0.72473479  1
  B  B11  1  0.79143806  0.11091133  0.16368178  1
  B  B12  1  0.11091133  0.79143706  0.83631822  1
  B  B13  1  0.45416291  0.45416291  0.50000000  1
  O  O14  1  0.09584169  0.42354372  0.16575658  1
  O  O15  1  0.42354372  0.09584169  0.83424442  1
  O  O16  1  0.57913634  0.00457082  0.06195572  1
  O  O17  1  0.00456982  0.57913634  0.93804528  1
  O  O18  1  0.25333852  0.72598526  0.35519071  1
  O  O19  1  0.72598526  0.25333852  0.64480929  1
  O  O20  1  0.76326384  0.76326384  0.50000000  1
  O  O21  1  0.24303185  0.34837393  0.39804086  1
  O  O22  1  0.34837393  0.24303085  0.60196014  1
  O  O23  1  0.69686512  0.90118450  0.26477183  1
  O  O24  1  0.90118450  0.69686412  0.73522917  1
  O  O25  1  0.11263023  0.80398925  0.14684632  1
  O  O26  1  0.80399025  0.11262923  0.85315468  1
  O  O27  1  0.08211711  0.89759642  0.33583187  1
  O  O28  1  0.89759642  0.08211711  0.66416813  1
