# generated using pymatgen
data_LiCdPO4
_symmetry_space_group_name_H-M   'P 1'
_cell_length_a   4.86349961
_cell_length_b   6.37517698
_cell_length_c   10.93315702
_cell_angle_alpha   90.00000000
_cell_angle_beta   90.00000000
_cell_angle_gamma   90.00000000
_symmetry_Int_Tables_number   1
_chemical_formula_structural   LiCdPO4
_chemical_formula_sum   'Li4 Cd4 P4 O16'
_cell_volume   338.98986688
_cell_formula_units_Z   4
loop_
 _symmetry_equiv_pos_site_id
 _symmetry_equiv_pos_as_xyz
  1  'x, y, z'
loop_
 _atom_site_type_symbol
 _atom_site_label
 _atom_site_symmetry_multiplicity
 _atom_site_fract_x
 _atom_site_fract_y
 _atom_site_fract_z
 _atom_site_occupancy
  Li  Li0  1  0.00000000  0.50000000  0.50000000  1
  Li  Li1  1  0.50000000  0.50000000  0.00000000  1
  Li  Li2  1  0.00000000  0.00000000  0.50000000  1
  Li  Li3  1  0.50000000  0.00000000  0.00000000  1
  O  O4  1  0.73574836  0.05473608  0.34565603  1
  O  O5  1  0.23574836  0.94526392  0.15434397  1
  O  O6  1  0.26425164  0.55473608  0.65434397  1
  O  O7  1  0.76425164  0.44526392  0.84565603  1
  O  O8  1  0.78778498  0.75000000  0.09206224  1
  O  O9  1  0.28778498  0.25000000  0.40793776  1
  O  O10  1  0.21221502  0.25000000  0.90793776  1
  O  O11  1  0.71221502  0.75000000  0.59206224  1
  O  O12  1  0.22601947  0.75000000  0.95636691  1
  O  O13  1  0.72601947  0.25000000  0.54363309  1
  O  O14  1  0.77398053  0.25000000  0.04363309  1
  O  O15  1  0.27398053  0.75000000  0.45636691  1
  O  O16  1  0.23574836  0.55473608  0.15434397  1
  O  O17  1  0.73574836  0.44526392  0.34565603  1
  O  O18  1  0.76425164  0.05473608  0.84565603  1
  O  O19  1  0.26425164  0.94526392  0.65434397  1
  P  P20  1  0.39634632  0.75000000  0.58821132  1
  P  P21  1  0.89634632  0.25000000  0.91178868  1
  P  P22  1  0.60365368  0.25000000  0.41178868  1
  P  P23  1  0.10365368  0.75000000  0.08821132  1
  Cd  Cd24  1  0.54205012  0.75000000  0.28361641  1
  Cd  Cd25  1  0.04205012  0.25000000  0.21638359  1
  Cd  Cd26  1  0.45794988  0.25000000  0.71638359  1
  Cd  Cd27  1  0.95794988  0.75000000  0.78361641  1
