# generated using pymatgen
data_RbVP2S7
_symmetry_space_group_name_H-M   'P 1'
_cell_length_a   6.53877991
_cell_length_b   6.53877990
_cell_length_c   6.82840930
_cell_angle_alpha   95.06274733
_cell_angle_beta   95.06274733
_cell_angle_gamma   96.82281379
_symmetry_Int_Tables_number   1
_chemical_formula_structural   RbVP2S7
_chemical_formula_sum   'Rb1 V1 P2 S7'
_cell_volume   287.31225965
_cell_formula_units_Z   1
loop_
 _symmetry_equiv_pos_site_id
 _symmetry_equiv_pos_as_xyz
  1  'x, y, z'
loop_
 _atom_site_type_symbol
 _atom_site_label
 _atom_site_symmetry_multiplicity
 _atom_site_fract_x
 _atom_site_fract_y
 _atom_site_fract_z
 _atom_site_occupancy
  P  P0  1  0.05197129  0.34632201  0.07882799  1
  P  P1  1  0.65367799  0.94802871  0.92117201  1
  S  S2  1  0.98346306  0.01653694  0.00000000  1
  S  S3  1  0.54242760  0.18326349  0.78922925  1
  S  S4  1  0.31122779  0.36674348  0.26988850  1
  S  S5  1  0.63325652  0.68877221  0.73011150  1
  S  S6  1  0.52641195  0.84680469  0.16416285  1
  S  S7  1  0.15319531  0.47358805  0.83583715  1
  S  S8  1  0.81673651  0.45757240  0.21077075  1
  V  V9  1  0.49839604  0.50160396  0.00000000  1
  Rb  Rb10  1  0.10913594  0.89086406  0.50000000  1
