# generated using pymatgen
data_Er3P4Pd7
_symmetry_space_group_name_H-M   'P 1'
_cell_length_a   3.99115791
_cell_length_b   7.92298224
_cell_length_c   8.20708916
_cell_angle_alpha   71.04605000
_cell_angle_beta   75.92728769
_cell_angle_gamma   75.41167304
_symmetry_Int_Tables_number   1
_chemical_formula_structural   Er3P4Pd7
_chemical_formula_sum   'Er3 P4 Pd7'
_cell_volume   233.81924503
_cell_formula_units_Z   1
loop_
 _symmetry_equiv_pos_site_id
 _symmetry_equiv_pos_as_xyz
  1  'x, y, z'
loop_
 _atom_site_type_symbol
 _atom_site_label
 _atom_site_symmetry_multiplicity
 _atom_site_fract_x
 _atom_site_fract_y
 _atom_site_fract_z
 _atom_site_occupancy
  P  P0  1  0.60630123  0.10758042  0.67981713  1
  P  P1  1  0.39369877  0.89241958  0.32018287  1
  P  P2  1  0.15931001  0.43396849  0.24741149  1
  P  P3  1  0.84068999  0.56603151  0.75258851  1
  Pd  Pd4  1  0.33214854  0.41494441  0.92075851  1
  Pd  Pd5  1  0.99019468  0.23596690  0.78364374  1
  Pd  Pd6  1  0.00980532  0.76403310  0.21635626  1
  Pd  Pd7  1  0.50000000  0.00000000  0.00000000  1
  Pd  Pd8  1  0.80515154  0.85951228  0.53018463  1
  Pd  Pd9  1  0.19484846  0.14048772  0.46981537  1
  Pd  Pd10  1  0.66785146  0.58505559  0.07924149  1
  Er  Er11  1  0.50000000  0.50000000  0.50000000  1
  Er  Er12  1  0.18004957  0.81665637  0.82324449  1
  Er  Er13  1  0.81995043  0.18334363  0.17675551  1
