# generated using pymatgen
data_CsTbS2
_symmetry_space_group_name_H-M   'P 1'
_cell_length_a   4.11950513
_cell_length_b   4.11949943
_cell_length_c   16.08495809
_cell_angle_alpha   89.99982766
_cell_angle_beta   90.00049174
_cell_angle_gamma   119.99952000
_symmetry_Int_Tables_number   1
_chemical_formula_structural   CsTbS2
_chemical_formula_sum   'Cs2 Tb2 S4'
_cell_volume   236.39710880
_cell_formula_units_Z   2
loop_
 _symmetry_equiv_pos_site_id
 _symmetry_equiv_pos_as_xyz
  1  'x, y, z'
loop_
 _atom_site_type_symbol
 _atom_site_label
 _atom_site_symmetry_multiplicity
 _atom_site_fract_x
 _atom_site_fract_y
 _atom_site_fract_z
 _atom_site_occupancy
  Tb  Tb0  1  -0.00000002  0.00000065  0.99999986  1
  Tb  Tb1  1  0.99997196  0.00000179  0.50000005  1
  Cs  Cs2  1  0.33328935  0.66669293  0.24999992  1
  Cs  Cs3  1  0.66669251  0.33330894  0.75000015  1
  S  S4  1  0.33331910  0.66666329  0.59169447  1
  S  S5  1  0.66666553  0.33333996  0.09169410  1
  S  S6  1  0.66662868  0.33333613  0.40830489  1
  S  S7  1  0.33333390  0.66666332  0.90830656  1
