# generated using pymatgen
data_Li10Si(PO6)2
_symmetry_space_group_name_H-M   'P 1'
_cell_length_a   7.03944802
_cell_length_b   7.03944802
_cell_length_c   10.38135490
_cell_angle_alpha   90.00000000
_cell_angle_beta   90.00000000
_cell_angle_gamma   90.00000000
_symmetry_Int_Tables_number   1
_chemical_formula_structural   Li10Si(PO6)2
_chemical_formula_sum   'Li20 Si2 P4 O24'
_cell_volume   514.43587955
_cell_formula_units_Z   2
loop_
 _symmetry_equiv_pos_site_id
 _symmetry_equiv_pos_as_xyz
  1  'x, y, z'
loop_
 _atom_site_type_symbol
 _atom_site_label
 _atom_site_symmetry_multiplicity
 _atom_site_fract_x
 _atom_site_fract_y
 _atom_site_fract_z
 _atom_site_occupancy
  Li  Li0  1  0.22883409  0.76498880  0.29754487  1
  Li  Li1  1  0.77116591  0.23501120  0.29754487  1
  Li  Li2  1  0.26498880  0.27116591  0.79754487  1
  Li  Li3  1  0.73501120  0.72883409  0.79754487  1
  Li  Li4  1  0.22883409  0.23501120  0.29754487  1
  Li  Li5  1  0.77116591  0.76498880  0.29754487  1
  Li  Li6  1  0.26498880  0.72883409  0.79754487  1
  Li  Li7  1  0.73501120  0.27116591  0.79754487  1
  Li  Li8  1  0.00000000  0.50000000  0.92996785  1
  Li  Li9  1  0.00000000  0.50000000  0.42996785  1
  Li  Li10  1  0.50000000  0.00000000  0.56300188  1
  Li  Li11  1  0.50000000  0.00000000  0.06300288  1
  Li  Li12  1  0.24135443  0.19991508  0.04416749  1
  Li  Li13  1  0.75864557  0.80008492  0.04416749  1
  Li  Li14  1  0.30008492  0.74135443  0.54416749  1
  Li  Li15  1  0.69991508  0.25864557  0.54416749  1
  Li  Li16  1  0.30008492  0.25864557  0.54416749  1
  Li  Li17  1  0.69991508  0.74135443  0.54416749  1
  Li  Li18  1  0.24135443  0.80008492  0.04416749  1
  Li  Li19  1  0.75864557  0.19991508  0.04416749  1
  Si  Si20  1  0.50000000  0.00000000  0.80918543  1
  Si  Si21  1  0.50000000  0.00000000  0.30918543  1
  P  P22  1  0.00000000  0.50000000  0.67972715  1
  P  P23  1  0.00000000  0.50000000  0.17972715  1
  P  P24  1  0.00000000  0.00000000  0.49396580  1
  P  P25  1  0.50000000  0.50000000  0.99396580  1
  O  O26  1  0.00000000  0.18627636  0.41016941  1
  O  O27  1  0.00000000  0.81372364  0.41016941  1
  O  O28  1  0.31372364  0.50000000  0.91016941  1
  O  O29  1  0.68627636  0.50000000  0.91016941  1
  O  O30  1  0.50000000  0.68703940  0.07309840  1
  O  O31  1  0.50000000  0.31296060  0.07309840  1
  O  O32  1  0.18703940  0.00000000  0.57309840  1
  O  O33  1  0.81296060  0.00000000  0.57309840  1
  O  O34  1  0.00000000  0.31963928  0.09215333  1
  O  O35  1  0.00000000  0.68036072  0.09215333  1
  O  O36  1  0.18036072  0.50000000  0.59215333  1
  O  O37  1  0.81963928  0.50000000  0.59215333  1
  O  O38  1  0.50000000  0.81122370  0.40578380  1
  O  O39  1  0.50000000  0.18877630  0.40578380  1
  O  O40  1  0.31122370  0.00000000  0.90578380  1
  O  O41  1  0.68877630  0.00000000  0.90578380  1
  O  O42  1  0.00000000  0.67745126  0.76842258  1
  O  O43  1  0.00000000  0.32254874  0.76842258  1
  O  O44  1  0.82254874  0.50000000  0.26842258  1
  O  O45  1  0.17745126  0.50000000  0.26842258  1
  O  O46  1  0.50000000  0.18853636  0.71262371  1
  O  O47  1  0.50000000  0.81146364  0.71262371  1
  O  O48  1  0.68853636  0.00000000  0.21262371  1
  O  O49  1  0.31146364  0.00000000  0.21262371  1
