# generated using pymatgen
data_Ti3Si
_symmetry_space_group_name_H-M   'P 1'
_cell_length_a   10.16444638
_cell_length_b   10.16444638
_cell_length_c   5.02870854
_cell_angle_alpha   90.00000000
_cell_angle_beta   90.00000000
_cell_angle_gamma   90.00000000
_symmetry_Int_Tables_number   1
_chemical_formula_structural   Ti3Si
_chemical_formula_sum   'Ti24 Si8'
_cell_volume   519.54590172
_cell_formula_units_Z   8
loop_
 _symmetry_equiv_pos_site_id
 _symmetry_equiv_pos_as_xyz
  1  'x, y, z'
loop_
 _atom_site_type_symbol
 _atom_site_label
 _atom_site_symmetry_multiplicity
 _atom_site_fract_x
 _atom_site_fract_y
 _atom_site_fract_z
 _atom_site_occupancy
  Ti  Ti0  1  0.53098412  0.43140690  0.25203595  1
  Ti  Ti1  1  0.96901588  0.06859310  0.25203595  1
  Ti  Ti2  1  0.93140690  0.46901588  0.75203595  1
  Ti  Ti3  1  0.56859310  0.03098412  0.75203595  1
  Ti  Ti4  1  0.46901588  0.56859310  0.74796405  1
  Ti  Ti5  1  0.03098412  0.93140690  0.74796405  1
  Ti  Ti6  1  0.06859310  0.53098412  0.24796405  1
  Ti  Ti7  1  0.43140690  0.96901588  0.24796405  1
  Ti  Ti8  1  0.10606813  0.27791310  0.53313097  1
  Ti  Ti9  1  0.39393187  0.22208690  0.53313097  1
  Ti  Ti10  1  0.77791310  0.89393187  0.03313097  1
  Ti  Ti11  1  0.72208690  0.60606813  0.03313097  1
  Ti  Ti12  1  0.89393187  0.72208690  0.46686903  1
  Ti  Ti13  1  0.60606813  0.77791310  0.46686903  1
  Ti  Ti14  1  0.22208690  0.10606813  0.96686903  1
  Ti  Ti15  1  0.27791310  0.39393187  0.96686903  1
  Ti  Ti16  1  0.64490152  0.33303343  0.78554933  1
  Ti  Ti17  1  0.85509848  0.16696657  0.78554933  1
  Ti  Ti18  1  0.83303343  0.35509848  0.28554933  1
  Ti  Ti19  1  0.66696657  0.14490152  0.28554933  1
  Ti  Ti20  1  0.35509848  0.66696657  0.21445067  1
  Ti  Ti21  1  0.14490152  0.83303343  0.21445067  1
  Ti  Ti22  1  0.16696657  0.64490152  0.71445067  1
  Ti  Ti23  1  0.33303343  0.85509848  0.71445067  1
  Si  Si24  1  0.04669891  0.29111889  0.03845582  1
  Si  Si25  1  0.45330109  0.20888111  0.03845582  1
  Si  Si26  1  0.79111889  0.95330109  0.53845582  1
  Si  Si27  1  0.70888111  0.54669891  0.53845582  1
  Si  Si28  1  0.95330109  0.70888111  0.96154418  1
  Si  Si29  1  0.54669891  0.79111889  0.96154418  1
  Si  Si30  1  0.20888111  0.04669891  0.46154418  1
  Si  Si31  1  0.29111889  0.45330109  0.46154418  1
