# generated using pymatgen
data_YbP5
_symmetry_space_group_name_H-M   'P 1'
_cell_length_a   4.71530932
_cell_length_b   5.48618357
_cell_length_c   9.67122522
_cell_angle_alpha   90.00000000
_cell_angle_beta   90.00000000
_cell_angle_gamma   105.68258979
_symmetry_Int_Tables_number   1
_chemical_formula_structural   YbP5
_chemical_formula_sum   'Yb2 P10'
_cell_volume   240.87201224
_cell_formula_units_Z   2
loop_
 _symmetry_equiv_pos_site_id
 _symmetry_equiv_pos_as_xyz
  1  'x, y, z'
loop_
 _atom_site_type_symbol
 _atom_site_label
 _atom_site_symmetry_multiplicity
 _atom_site_fract_x
 _atom_site_fract_y
 _atom_site_fract_z
 _atom_site_occupancy
  P  P0  1  0.27651483  0.92512323  0.25000000  1
  P  P1  1  0.72348517  0.07487677  0.75000000  1
  P  P2  1  0.62751336  0.97385370  0.40735622  1
  P  P3  1  0.37248664  0.02614630  0.90735622  1
  P  P4  1  0.37248664  0.02614630  0.59264378  1
  P  P5  1  0.62751336  0.97385370  0.09264378  1
  P  P6  1  0.69089249  0.59102445  0.44005166  1
  P  P7  1  0.30910751  0.40897555  0.94005166  1
  P  P8  1  0.30910751  0.40897555  0.55994834  1
  P  P9  1  0.69089249  0.59102445  0.05994834  1
  Yb  Yb10  1  0.07015918  0.38039542  0.25000000  1
  Yb  Yb11  1  0.92984082  0.61960458  0.75000000  1
