# generated using pymatgen
data_CoP2O7
_symmetry_space_group_name_H-M   'P 1'
_cell_length_a   5.03689880
_cell_length_b   8.15072694
_cell_length_c   14.06089574
_cell_angle_alpha   90.00000000
_cell_angle_beta   88.89339866
_cell_angle_gamma   90.00000000
_symmetry_Int_Tables_number   1
_chemical_formula_structural   CoP2O7
_chemical_formula_sum   'Co4 P8 O28'
_cell_volume   577.15378863
_cell_formula_units_Z   4
loop_
 _symmetry_equiv_pos_site_id
 _symmetry_equiv_pos_as_xyz
  1  'x, y, z'
loop_
 _atom_site_type_symbol
 _atom_site_label
 _atom_site_symmetry_multiplicity
 _atom_site_fract_x
 _atom_site_fract_y
 _atom_site_fract_z
 _atom_site_occupancy
  Co  Co0  1  0.79733168  0.14967404  0.11237482  1
  Co  Co1  1  0.29733168  0.35032596  0.61237482  1
  Co  Co2  1  0.70266832  0.64967404  0.38762518  1
  Co  Co3  1  0.20266832  0.85032596  0.88762518  1
  P  P4  1  0.68889919  0.79847436  0.02746396  1
  P  P5  1  0.24820336  0.96968132  0.67378787  1
  P  P6  1  0.74820336  0.53031868  0.17378787  1
  P  P7  1  0.18889919  0.70152564  0.52746396  1
  P  P8  1  0.75179664  0.03031868  0.32621213  1
  P  P9  1  0.31110081  0.20152564  0.97253604  1
  P  P10  1  0.25179664  0.46968132  0.82621213  1
  P  P11  1  0.81110081  0.29847436  0.47253604  1
  O  O12  1  0.77620948  0.11817818  0.42800348  1
  O  O13  1  0.53049040  0.95374690  0.71115743  1
  O  O14  1  0.60644380  0.17928617  0.99254659  1
  O  O15  1  0.21338170  0.07917720  0.89681721  1
  O  O16  1  0.65606642  0.35560670  0.15535215  1
  O  O17  1  0.89355620  0.67928617  0.50745341  1
  O  O18  1  0.72379052  0.61817818  0.07199652  1
  O  O19  1  0.35628066  0.70259214  0.43559736  1
  O  O20  1  0.08333133  0.87356831  0.74843515  1
  O  O21  1  0.84393358  0.85560670  0.34464785  1
  O  O22  1  0.78661830  0.92082280  0.10318279  1
  O  O23  1  0.39355620  0.82071383  0.00745341  1
  O  O24  1  0.71338170  0.42082280  0.39681721  1
  O  O25  1  0.28661830  0.57917720  0.60318279  1
  O  O26  1  0.58333133  0.62643169  0.24843515  1
  O  O27  1  0.91666867  0.12643169  0.25156485  1
  O  O28  1  0.14371934  0.20259214  0.06440264  1
  O  O29  1  0.46950960  0.04625310  0.28884257  1
  O  O30  1  0.03049040  0.54625310  0.21115743  1
  O  O31  1  0.96950960  0.45374690  0.78884257  1
  O  O32  1  0.27620948  0.38182182  0.92800348  1
  O  O33  1  0.85628066  0.79740786  0.93559736  1
  O  O34  1  0.22379052  0.88182182  0.57199652  1
  O  O35  1  0.41666867  0.37356831  0.75156485  1
  O  O36  1  0.10644380  0.32071383  0.49254659  1
  O  O37  1  0.15606642  0.14439330  0.65535215  1
  O  O38  1  0.34393358  0.64439330  0.84464785  1
  O  O39  1  0.64371934  0.29740786  0.56440264  1
