# generated using pymatgen
data_Sm2InAg
_symmetry_space_group_name_H-M   'P 1'
_cell_length_a   5.36661991
_cell_length_b   5.36660732
_cell_length_c   5.36660990
_cell_angle_alpha   59.99999965
_cell_angle_beta   59.99994011
_cell_angle_gamma   60.00002833
_symmetry_Int_Tables_number   1
_chemical_formula_structural   Sm2InAg
_chemical_formula_sum   'Sm2 In1 Ag1'
_cell_volume   109.29129729
_cell_formula_units_Z   1
loop_
 _symmetry_equiv_pos_site_id
 _symmetry_equiv_pos_as_xyz
  1  'x, y, z'
loop_
 _atom_site_type_symbol
 _atom_site_label
 _atom_site_symmetry_multiplicity
 _atom_site_fract_x
 _atom_site_fract_y
 _atom_site_fract_z
 _atom_site_occupancy
  Sm  Sm0  1  0.49999986  0.50000027  0.49999994  1
  Sm  Sm1  1  0.00000010  0.99999983  0.99999998  1
  In  In2  1  0.75000008  0.74999991  0.75000010  1
  Ag  Ag3  1  0.24999896  0.24999900  0.24999898  1
