# generated using pymatgen
data_LaH13C3S3O11
_symmetry_space_group_name_H-M   'P 1'
_cell_length_a   5.28868650
_cell_length_b   10.23386907
_cell_length_c   13.17964944
_cell_angle_alpha   98.59634596
_cell_angle_beta   91.44868857
_cell_angle_gamma   104.01709568
_symmetry_Int_Tables_number   1
_chemical_formula_structural   LaH13C3S3O11
_chemical_formula_sum   'La2 H26 C6 S6 O22'
_cell_volume   682.90920671
_cell_formula_units_Z   2
loop_
 _symmetry_equiv_pos_site_id
 _symmetry_equiv_pos_as_xyz
  1  'x, y, z'
loop_
 _atom_site_type_symbol
 _atom_site_label
 _atom_site_symmetry_multiplicity
 _atom_site_fract_x
 _atom_site_fract_y
 _atom_site_fract_z
 _atom_site_occupancy
  La  La0  1  0.97107451  0.42483085  0.25631841  1
  La  La1  1  0.02892549  0.57516915  0.74368159  1
  H  H2  1  0.52100116  0.55334448  0.39060319  1
  H  H3  1  0.47899884  0.44665552  0.60939681  1
  H  H4  1  0.47075256  0.39844018  0.39562567  1
  H  H5  1  0.52924744  0.60155982  0.60437433  1
  H  H6  1  0.76941043  0.33301277  0.01932347  1
  H  H7  1  0.23058957  0.66698723  0.98067653  1
  H  H8  1  0.07079792  0.33711647  0.02494818  1
  H  H9  1  0.92920208  0.66288353  0.97505182  1
  H  H10  1  0.68091089  0.88922303  0.95643157  1
  H  H11  1  0.31908911  0.11077697  0.04356843  1
  H  H12  1  0.91579560  0.02459499  0.91063289  1
  H  H13  1  0.08420440  0.97540501  0.08936711  1
  H  H14  1  0.57894952  0.02625401  0.90848130  1
  H  H15  1  0.42105048  0.97374599  0.09151870  1
  H  H16  1  0.63804742  0.75697888  0.32463198  1
  H  H17  1  0.36195258  0.24302112  0.67536802  1
  H  H18  1  0.88100710  0.84524446  0.24895485  1
  H  H19  1  0.11899290  0.15475554  0.75104515  1
  H  H20  1  0.55162380  0.86668190  0.24427237  1
  H  H21  1  0.44837620  0.13331810  0.75572763  1
  H  H22  1  0.28149960  0.92544731  0.58411813  1
  H  H23  1  0.71850040  0.07455269  0.41588187  1
  H  H24  1  0.24946455  0.92576549  0.44705431  1
  H  H25  1  0.75053545  0.07423451  0.55294569  1
  H  H26  1  0.96251766  0.87734034  0.51871562  1
  H  H27  1  0.03748234  0.12265966  0.48128438  1
  C  C28  1  0.71547572  0.96073646  0.90110440  1
  C  C29  1  0.28452428  0.03926354  0.09889560  1
  C  C30  1  0.67348453  0.79559173  0.25177481  1
  C  C31  1  0.32651547  0.20440827  0.74822519  1
  C  C32  1  0.16849781  0.87696722  0.51166935  1
  C  C33  1  0.83150219  0.12303278  0.48833065  1
  S  S34  1  0.66799872  0.86462416  0.77528669  1
  S  S35  1  0.33200128  0.13537584  0.22471331  1
  S  S36  1  0.57960071  0.65378003  0.15116594  1
  S  S37  1  0.42039929  0.34621997  0.84883406  1
  S  S38  1  0.18452499  0.70449523  0.48870343  1
  S  S39  1  0.81547501  0.29550477  0.51129657  1
  O  O40  1  0.70900726  0.96105714  0.70259052  1
  O  O41  1  0.29099274  0.03894286  0.29740948  1
  O  O42  1  0.60211484  0.22183674  0.23306511  1
  O  O43  1  0.39788516  0.77816326  0.76693489  1
  O  O44  1  0.13990095  0.21942382  0.22888569  1
  O  O45  1  0.86009905  0.78057618  0.77111431  1
  O  O46  1  0.30835583  0.58340089  0.16714429  1
  O  O47  1  0.69164417  0.41659911  0.83285571  1
  O  O48  1  0.76304435  0.56783660  0.16201226  1
  O  O49  1  0.23695565  0.43216340  0.83798774  1
  O  O50  1  0.59835416  0.70498506  0.05211897  1
  O  O51  1  0.40164584  0.29501494  0.94788103  1
  O  O52  1  0.03649072  0.63970417  0.56938795  1
  O  O53  1  0.96350928  0.36029583  0.43061205  1
  O  O54  1  0.46113244  0.69926375  0.49465452  1
  O  O55  1  0.53886756  0.30073625  0.50534548  1
  O  O56  1  0.05666347  0.64734953  0.38473314  1
  O  O57  1  0.94333653  0.35265047  0.61526686  1
  O  O58  1  0.48803754  0.46344565  0.34616180  1
  O  O59  1  0.51196246  0.53655435  0.65383820  1
  O  O60  1  0.91344246  0.32351801  0.06370797  1
  O  O61  1  0.08655754  0.67648199  0.93629203  1
