# generated using pymatgen
data_RbCaBr3
_symmetry_space_group_name_H-M   'P 1'
_cell_length_a   4.41952100
_cell_length_b   9.84674800
_cell_length_c   16.38402500
_cell_angle_alpha   90.00000000
_cell_angle_beta   90.00000000
_cell_angle_gamma   90.00000000
_symmetry_Int_Tables_number   1
_chemical_formula_structural   RbCaBr3
_chemical_formula_sum   'Rb4 Ca4 Br12'
_cell_volume   712.99851831
_cell_formula_units_Z   4
loop_
 _symmetry_equiv_pos_site_id
 _symmetry_equiv_pos_as_xyz
  1  'x, y, z'
loop_
 _atom_site_type_symbol
 _atom_site_label
 _atom_site_symmetry_multiplicity
 _atom_site_fract_x
 _atom_site_fract_y
 _atom_site_fract_z
 _atom_site_occupancy
  Rb  Rb0  1  0.74999800  0.06975000  0.67872300  1
  Rb  Rb1  1  0.24999900  0.93025000  0.32127800  1
  Rb  Rb2  1  0.74999800  0.56975000  0.82127800  1
  Rb  Rb3  1  0.24999900  0.43025100  0.17872300  1
  Ca  Ca4  1  0.24999900  0.16912500  0.94466900  1
  Ca  Ca5  1  0.74999800  0.83087500  0.05533100  1
  Ca  Ca6  1  0.24999900  0.66912500  0.55533100  1
  Ca  Ca7  1  0.74999800  0.33087600  0.44466900  1
  Br  Br8  1  0.74999800  0.33250000  0.00879300  1
  Br  Br9  1  0.24999900  0.66750100  0.99120600  1
  Br  Br10  1  0.74999800  0.83250000  0.49120600  1
  Br  Br11  1  0.24999900  0.16750000  0.50879400  1
  Br  Br12  1  0.24999900  0.01818200  0.10114300  1
  Br  Br13  1  0.74999800  0.98181800  0.89885700  1
  Br  Br14  1  0.24999900  0.51818200  0.39885700  1
  Br  Br15  1  0.74999800  0.48181800  0.60114300  1
  Br  Br16  1  0.24999900  0.29040800  0.78850100  1
  Br  Br17  1  0.74999800  0.70959200  0.21149900  1
  Br  Br18  1  0.24999900  0.79040700  0.71149900  1
  Br  Br19  1  0.74999800  0.20959200  0.28850100  1
