# generated using pymatgen
data_NaMn16O32
_symmetry_space_group_name_H-M   'P 1'
_cell_length_a   5.87949085
_cell_length_b   9.93931681
_cell_length_c   9.93585041
_cell_angle_alpha   89.98168917
_cell_angle_beta   89.99971910
_cell_angle_gamma   90.00024725
_symmetry_Int_Tables_number   1
_chemical_formula_structural   NaMn16O32
_chemical_formula_sum   'Na1 Mn16 O32'
_cell_volume   580.63241113
_cell_formula_units_Z   1
loop_
 _symmetry_equiv_pos_site_id
 _symmetry_equiv_pos_as_xyz
  1  'x, y, z'
loop_
 _atom_site_type_symbol
 _atom_site_label
 _atom_site_symmetry_multiplicity
 _atom_site_fract_x
 _atom_site_fract_y
 _atom_site_fract_z
 _atom_site_occupancy
  Na  Na0  1  0.75000060  0.50001107  0.50004099  1
  Mn  Mn1  1  0.49933664  0.65062579  0.83379027  1
  Mn  Mn2  1  0.00064091  0.65067747  0.83378242  1
  Mn  Mn3  1  0.49947989  0.16596827  0.65065689  1
  Mn  Mn4  1  0.00056686  0.16602925  0.65063076  1
  Mn  Mn5  1  0.00050513  0.83403177  0.34931660  1
  Mn  Mn6  1  0.49945840  0.83405079  0.34939761  1
  Mn  Mn7  1  0.00050406  0.34942830  0.16604850  1
  Mn  Mn8  1  0.49952175  0.34934701  0.16604092  1
  Mn  Mn9  1  0.25003192  0.15188650  0.33305239  1
  Mn  Mn10  1  0.75004333  0.15085894  0.33318882  1
  Mn  Mn11  1  0.24984672  0.66683816  0.15202964  1
  Mn  Mn12  1  0.75001915  0.66681015  0.15098238  1
  Mn  Mn13  1  0.24981435  0.33322730  0.84799090  1
  Mn  Mn14  1  0.75018243  0.33326270  0.84901607  1
  Mn  Mn15  1  0.24983691  0.84802028  0.66706853  1
  Mn  Mn16  1  0.75013113  0.84903890  0.66693952  1
  O  O17  1  0.24999035  0.33745980  0.04223590  1
  O  O18  1  0.75003837  0.33742667  0.04252817  1
  O  O19  1  0.25000232  0.95776543  0.33707531  1
  O  O20  1  0.74997307  0.95748286  0.33705721  1
  O  O21  1  0.25002038  0.04223594  0.66293887  1
  O  O22  1  0.75004607  0.04250478  0.66294580  1
  O  O23  1  0.24998986  0.66252348  0.95776909  1
  O  O24  1  0.74996360  0.66256404  0.95748253  1
  O  O25  1  0.99982565  0.83206623  0.54319759  1
  O  O26  1  0.50025758  0.83206082  0.54317300  1
  O  O27  1  0.99974315  0.45676980  0.83165793  1
  O  O28  1  0.50022285  0.45676712  0.83167125  1
  O  O29  1  0.50020385  0.54320990  0.16835458  1
  O  O30  1  0.99970672  0.54323758  0.16837529  1
  O  O31  1  0.50023250  0.16793619  0.45681334  1
  O  O32  1  0.99983078  0.16793471  0.45679575  1
  O  O33  1  0.50036967  0.15698958  0.20434917  1
  O  O34  1  0.99968963  0.15700537  0.20436001  1
  O  O35  1  0.99965177  0.79548741  0.15682259  1
  O  O36  1  0.50025651  0.79547818  0.15683319  1
  O  O37  1  0.99969725  0.84295976  0.79565800  1
  O  O38  1  0.50035960  0.84295027  0.79565173  1
  O  O39  1  0.50029431  0.20455601  0.84317935  1
  O  O40  1  0.99969359  0.20454676  0.84316383  1
  O  O41  1  0.24998421  0.65481367  0.70418528  1
  O  O42  1  0.75002516  0.65361927  0.70173381  1
  O  O43  1  0.25000796  0.29561489  0.65464297  1
  O  O44  1  0.75001747  0.29803456  0.65349266  1
  O  O45  1  0.25005678  0.34515302  0.29577227  1
  O  O46  1  0.75000850  0.34634720  0.29822133  1
  O  O47  1  0.24993958  0.70441015  0.34537595  1
  O  O48  1  0.74998076  0.70197890  0.34651602  1
