# generated using pymatgen
data_PrGeBO5
_symmetry_space_group_name_H-M   'P 1'
_cell_length_a   7.03802561
_cell_length_b   7.03802561
_cell_length_c   6.85011296
_cell_angle_alpha   90.00000000
_cell_angle_beta   90.00000000
_cell_angle_gamma   119.99999998
_symmetry_Int_Tables_number   1
_chemical_formula_structural   PrGeBO5
_chemical_formula_sum   'Pr3 Ge3 B3 O15'
_cell_volume   293.85294718
_cell_formula_units_Z   3
loop_
 _symmetry_equiv_pos_site_id
 _symmetry_equiv_pos_as_xyz
  1  'x, y, z'
loop_
 _atom_site_type_symbol
 _atom_site_label
 _atom_site_symmetry_multiplicity
 _atom_site_fract_x
 _atom_site_fract_y
 _atom_site_fract_z
 _atom_site_occupancy
  B  B0  1  0.89999177  0.88332159  0.63804104  1
  B  B1  1  0.98332982  0.10000823  0.30470771  1
  B  B2  1  0.11667841  0.01667018  0.97137438  1
  O  O3  1  0.15709863  0.54430355  0.65648742  1
  O  O4  1  0.38720492  0.84290137  0.32315409  1
  O  O5  1  0.45569645  0.61279508  0.98982075  1
  O  O6  1  0.06616097  0.04401503  0.76946003  1
  O  O7  1  0.95598497  0.02214593  0.10279336  1
  O  O8  1  0.97785407  0.93383903  0.43612670  1
  O  O9  1  0.35113737  0.19486182  0.01104007  1
  O  O10  1  0.80513818  0.15627555  0.34437341  1
  O  O11  1  0.84372445  0.64886263  0.67770674  1
  O  O12  1  0.18442201  0.32542776  0.33207805  1
  O  O13  1  0.67457224  0.85899425  0.66541139  1
  O  O14  1  0.14100575  0.81557799  0.99874472  1
  O  O15  1  0.61230093  0.47249491  0.34760671  1
  O  O16  1  0.52750509  0.13980602  0.68094004  1
  O  O17  1  0.86019398  0.38769907  0.01427338  1
  Ge  Ge18  1  0.41686929  0.42291978  0.17064879  1
  Ge  Ge19  1  0.00605049  0.58313071  0.83731546  1
  Ge  Ge20  1  0.57708022  0.99394951  0.50398213  1
  Pr  Pr21  1  0.41614068  0.41333216  0.67060455  1
  Pr  Pr22  1  0.99719148  0.58385932  0.33727121  1
  Pr  Pr23  1  0.58666784  0.00280852  0.00393788  1
