# generated using pymatgen
data_Mg2Co3O8
_symmetry_space_group_name_H-M   'P 1'
_cell_length_a   4.79969928
_cell_length_b   5.65757560
_cell_length_c   5.77893372
_cell_angle_alpha   119.30772164
_cell_angle_beta   107.43043878
_cell_angle_gamma   89.99999732
_symmetry_Int_Tables_number   1
_chemical_formula_structural   Mg2Co3O8
_chemical_formula_sum   'Mg2 Co3 O8'
_cell_volume   128.51198224
_cell_formula_units_Z   1
loop_
 _symmetry_equiv_pos_site_id
 _symmetry_equiv_pos_as_xyz
  1  'x, y, z'
loop_
 _atom_site_type_symbol
 _atom_site_label
 _atom_site_symmetry_multiplicity
 _atom_site_fract_x
 _atom_site_fract_y
 _atom_site_fract_z
 _atom_site_occupancy
  Mg  Mg0  1  0.65729506  0.72539877  0.45079654  1
  Mg  Mg1  1  0.34270394  0.27460223  0.54920346  1
  Co  Co2  1  0.50000000  0.99999900  0.00000000  1
  Co  Co3  1  0.99999900  0.74163028  1.00000000  1
  Co  Co4  1  0.99999900  0.25836972  0.00000000  1
  O  O5  1  0.06894394  0.39653459  0.79307018  1
  O  O6  1  0.93105606  0.60346441  0.20692982  1
  O  O7  1  0.08380840  0.89496335  0.78992669  1
  O  O8  1  0.91619160  0.10503565  0.21007231  1
  O  O9  1  0.40321585  0.33706262  0.22398710  1
  O  O10  1  0.40321585  0.88692448  0.22398710  1
  O  O11  1  0.59678515  0.11307452  0.77601290  1
  O  O12  1  0.59678515  0.66293738  0.77601290  1
