# generated using pymatgen
data_CuH12C5S4N
_symmetry_space_group_name_H-M   'P 1'
_cell_length_a   14.16832792
_cell_length_b   14.16832792
_cell_length_c   11.49021151
_cell_angle_alpha   90.00000000
_cell_angle_beta   90.00000000
_cell_angle_gamma   90.00000000
_symmetry_Int_Tables_number   1
_chemical_formula_structural   CuH12C5S4N
_chemical_formula_sum   'Cu8 H96 C40 S32 N8'
_cell_volume   2306.56247824
_cell_formula_units_Z   8
loop_
 _symmetry_equiv_pos_site_id
 _symmetry_equiv_pos_as_xyz
  1  'x, y, z'
loop_
 _atom_site_type_symbol
 _atom_site_label
 _atom_site_symmetry_multiplicity
 _atom_site_fract_x
 _atom_site_fract_y
 _atom_site_fract_z
 _atom_site_occupancy
  Cu  Cu0  1  0.41497003  0.43994856  0.41657526  1
  Cu  Cu1  1  0.91497003  0.06005144  0.08342474  1
  Cu  Cu2  1  0.58502997  0.56005144  0.41657526  1
  Cu  Cu3  1  0.08502997  0.93994856  0.08342474  1
  Cu  Cu4  1  0.43994856  0.58502997  0.58342474  1
  Cu  Cu5  1  0.06005144  0.08502997  0.91657526  1
  Cu  Cu6  1  0.56005144  0.41497003  0.58342474  1
  Cu  Cu7  1  0.93994856  0.91497003  0.91657526  1
  H  H8  1  0.03882771  0.76609967  0.36382199  1
  H  H9  1  0.53882771  0.73390033  0.13617801  1
  H  H10  1  0.96117229  0.23390033  0.36382199  1
  H  H11  1  0.46117229  0.26609967  0.13617801  1
  H  H12  1  0.76609967  0.96117229  0.63617801  1
  H  H13  1  0.73390033  0.46117229  0.86382199  1
  H  H14  1  0.23390033  0.03882771  0.63617801  1
  H  H15  1  0.26609967  0.53882771  0.86382199  1
  H  H16  1  0.94359983  0.85055143  0.36454001  1
  H  H17  1  0.44359983  0.64944857  0.13545999  1
  H  H18  1  0.05640017  0.14944857  0.36454001  1
  H  H19  1  0.55640017  0.35055143  0.13545999  1
  H  H20  1  0.85055143  0.05640017  0.63545999  1
  H  H21  1  0.64944857  0.55640017  0.86454001  1
  H  H22  1  0.14944857  0.94359983  0.63545999  1
  H  H23  1  0.35055143  0.44359983  0.86454001  1
  H  H24  1  0.00318333  0.82048417  0.49892114  1
  H  H25  1  0.50318333  0.67951583  0.00107886  1
  H  H26  1  0.99681667  0.17951583  0.49892114  1
  H  H27  1  0.49681667  0.32048417  0.00107886  1
  H  H28  1  0.82048417  0.99681667  0.50107886  1
  H  H29  1  0.67951583  0.49681667  0.99892114  1
  H  H30  1  0.17951583  0.00318333  0.50107886  1
  H  H31  1  0.32048417  0.50318333  0.99892114  1
  H  H32  1  0.97895377  0.66946937  0.58875060  1
  H  H33  1  0.47895377  0.83053063  0.91124940  1
  H  H34  1  0.02104623  0.33053063  0.58875060  1
  H  H35  1  0.52104623  0.16946937  0.91124940  1
  H  H36  1  0.66946937  0.02104623  0.41124940  1
  H  H37  1  0.83053063  0.52104623  0.08875060  1
  H  H38  1  0.33053063  0.97895377  0.41124940  1
  H  H39  1  0.16946937  0.47895377  0.08875060  1
  H  H40  1  0.91047342  0.58040197  0.51316975  1
  H  H41  1  0.41047342  0.91959803  0.98683025  1
  H  H42  1  0.08952658  0.41959803  0.51316975  1
  H  H43  1  0.58952658  0.08040197  0.98683025  1
  H  H44  1  0.58040197  0.08952658  0.48683025  1
  H  H45  1  0.91959803  0.58952658  0.01316975  1
  H  H46  1  0.41959803  0.91047342  0.48683025  1
  H  H47  1  0.08040197  0.41047342  0.01316975  1
  H  H48  1  0.02324077  0.61902383  0.45689741  1
  H  H49  1  0.52324077  0.88097617  0.04310259  1
  H  H50  1  0.97675923  0.38097617  0.45689741  1
  H  H51  1  0.47675923  0.11902383  0.04310259  1
  H  H52  1  0.61902383  0.97675923  0.54310259  1
  H  H53  1  0.88097617  0.47675923  0.95689741  1
  H  H54  1  0.38097617  0.02324077  0.54310259  1
  H  H55  1  0.11902383  0.52324077  0.95689741  1
  H  H56  1  0.79340931  0.80812549  0.45653644  1
  H  H57  1  0.29340931  0.69187451  0.04346356  1
  H  H58  1  0.20659069  0.19187451  0.45653644  1
  H  H59  1  0.70659069  0.30812549  0.04346356  1
  H  H60  1  0.80812549  0.20659069  0.54346356  1
  H  H61  1  0.69187451  0.70659069  0.95653644  1
  H  H62  1  0.19187451  0.79340931  0.54346356  1
  H  H63  1  0.30812549  0.29340931  0.95653644  1
  H  H64  1  0.77834290  0.69207675  0.51541873  1
  H  H65  1  0.27834290  0.80792325  0.98458127  1
  H  H66  1  0.22165710  0.30792325  0.51541873  1
  H  H67  1  0.72165710  0.19207675  0.98458127  1
  H  H68  1  0.69207675  0.22165710  0.48458127  1
  H  H69  1  0.80792325  0.72165710  0.01541873  1
  H  H70  1  0.30792325  0.77834290  0.48458127  1
  H  H71  1  0.19207675  0.27834290  0.01541873  1
  H  H72  1  0.85380777  0.77484109  0.58956704  1
  H  H73  1  0.35380777  0.72515891  0.91043296  1
  H  H74  1  0.14619223  0.22515891  0.58956704  1
  H  H75  1  0.64619223  0.27484109  0.91043296  1
  H  H76  1  0.77484109  0.14619223  0.41043296  1
  H  H77  1  0.72515891  0.64619223  0.08956704  1
  H  H78  1  0.22515891  0.85380777  0.41043296  1
  H  H79  1  0.27484109  0.35380777  0.08956704  1
  H  H80  1  0.93418425  0.64223128  0.27708902  1
  H  H81  1  0.43418425  0.85776872  0.22291098  1
  H  H82  1  0.06581575  0.35776872  0.27708902  1
  H  H83  1  0.56581575  0.14223128  0.22291098  1
  H  H84  1  0.64223128  0.06581575  0.72291098  1
  H  H85  1  0.85776872  0.56581575  0.77708902  1
  H  H86  1  0.35776872  0.93418425  0.72291098  1
  H  H87  1  0.14223128  0.43418425  0.77708902  1
  H  H88  1  0.81872210  0.62668192  0.34019671  1
  H  H89  1  0.31872210  0.87331808  0.15980329  1
  H  H90  1  0.18127790  0.37331808  0.34019671  1
  H  H91  1  0.68127790  0.12668192  0.15980329  1
  H  H92  1  0.62668192  0.18127790  0.65980329  1
  H  H93  1  0.87331808  0.68127790  0.84019671  1
  H  H94  1  0.37331808  0.81872210  0.65980329  1
  H  H95  1  0.12668192  0.31872210  0.84019671  1
  H  H96  1  0.84824649  0.73566362  0.26932220  1
  H  H97  1  0.34824649  0.76433638  0.23067780  1
  H  H98  1  0.15175351  0.26433638  0.26932220  1
  H  H99  1  0.65175351  0.23566362  0.23067780  1
  H  H100  1  0.73566362  0.15175351  0.73067780  1
  H  H101  1  0.76433638  0.65175351  0.76932220  1
  H  H102  1  0.26433638  0.84824649  0.73067780  1
  H  H103  1  0.23566362  0.34824649  0.76932220  1
  C  C104  1  0.24927726  0.56911877  0.32197289  1
  C  C105  1  0.74927726  0.93088123  0.17802711  1
  C  C106  1  0.75072274  0.43088123  0.32197289  1
  C  C107  1  0.25072274  0.06911877  0.17802711  1
  C  C108  1  0.56911877  0.75072274  0.67802711  1
  C  C109  1  0.93088123  0.25072274  0.82197289  1
  C  C110  1  0.43088123  0.24927726  0.67802711  1
  C  C111  1  0.06911877  0.74927726  0.82197289  1
  C  C112  1  0.97935136  0.79468230  0.41381786  1
  C  C113  1  0.47935136  0.70531770  0.08618214  1
  C  C114  1  0.02064864  0.20531770  0.41381786  1
  C  C115  1  0.52064864  0.29468230  0.08618214  1
  C  C116  1  0.79468230  0.02064864  0.58618214  1
  C  C117  1  0.70531770  0.52064864  0.91381786  1
  C  C118  1  0.20531770  0.97935136  0.58618214  1
  C  C119  1  0.29468230  0.47935136  0.91381786  1
  C  C120  1  0.95929886  0.63995432  0.50369680  1
  C  C121  1  0.45929886  0.86004568  0.99630320  1
  C  C122  1  0.04070114  0.36004568  0.50369680  1
  C  C123  1  0.54070114  0.13995432  0.99630320  1
  C  C124  1  0.63995432  0.04070114  0.49630320  1
  C  C125  1  0.86004568  0.54070114  0.00369680  1
  C  C126  1  0.36004568  0.95929886  0.49630320  1
  C  C127  1  0.13995432  0.45929886  0.00369680  1
  C  C128  1  0.82780876  0.75100572  0.50476994  1
  C  C129  1  0.32780876  0.74899428  0.99523006  1
  C  C130  1  0.17219124  0.24899428  0.50476994  1
  C  C131  1  0.67219124  0.25100572  0.99523006  1
  C  C132  1  0.75100572  0.17219124  0.49523006  1
  C  C133  1  0.74899428  0.67219124  0.00476994  1
  C  C134  1  0.24899428  0.82780876  0.49523006  1
  C  C135  1  0.25100572  0.32780876  0.00476994  1
  C  C136  1  0.87549968  0.67684829  0.32147448  1
  C  C137  1  0.37549968  0.82315171  0.17852552  1
  C  C138  1  0.12450032  0.32315171  0.32147448  1
  C  C139  1  0.62450032  0.17684829  0.17852552  1
  C  C140  1  0.67684829  0.12450032  0.67852552  1
  C  C141  1  0.82315171  0.62450032  0.82147448  1
  C  C142  1  0.32315171  0.87549968  0.67852552  1
  C  C143  1  0.17684829  0.37549968  0.82147448  1
  S  S144  1  0.34347239  0.50893180  0.26589108  1
  S  S145  1  0.84347239  0.99106820  0.23410892  1
  S  S146  1  0.65652761  0.49106820  0.26589108  1
  S  S147  1  0.15652761  0.00893180  0.23410892  1
  S  S148  1  0.50893180  0.65652761  0.73410892  1
  S  S149  1  0.99106820  0.15652761  0.76589108  1
  S  S150  1  0.49106820  0.34347239  0.73410892  1
  S  S151  1  0.00893180  0.84347239  0.76589108  1
  S  S152  1  0.31750755  0.48741896  0.56274863  1
  S  S153  1  0.81750755  0.01258104  0.93725137  1
  S  S154  1  0.68249245  0.51258104  0.56274863  1
  S  S155  1  0.18249245  0.98741896  0.93725137  1
  S  S156  1  0.48741896  0.68249245  0.43725137  1
  S  S157  1  0.01258104  0.18249245  0.06274863  1
  S  S158  1  0.51258104  0.31750755  0.43725137  1
  S  S159  1  0.98741896  0.81750755  0.06274863  1
  S  S160  1  0.22138792  0.56913786  0.47019371  1
  S  S161  1  0.72138792  0.93086214  0.02980629  1
  S  S162  1  0.77861208  0.43086214  0.47019371  1
  S  S163  1  0.27861208  0.06913786  0.02980629  1
  S  S164  1  0.56913786  0.77861208  0.52980629  1
  S  S165  1  0.93086214  0.27861208  0.97019371  1
  S  S166  1  0.43086214  0.22138792  0.52980629  1
  S  S167  1  0.06913786  0.72138792  0.97019371  1
  S  S168  1  0.17255954  0.63635440  0.24553953  1
  S  S169  1  0.67255954  0.86364560  0.25446047  1
  S  S170  1  0.82744046  0.36364560  0.24553953  1
  S  S171  1  0.32744046  0.13635440  0.25446047  1
  S  S172  1  0.63635440  0.82744046  0.75446047  1
  S  S173  1  0.86364560  0.32744046  0.74553953  1
  S  S174  1  0.36364560  0.17255954  0.75446047  1
  S  S175  1  0.13635440  0.67255954  0.74553953  1
  N  N176  1  0.91056985  0.71589831  0.43547919  1
  N  N177  1  0.41056985  0.78410169  0.06452081  1
  N  N178  1  0.08943015  0.28410169  0.43547919  1
  N  N179  1  0.58943015  0.21589831  0.06452081  1
  N  N180  1  0.71589831  0.08943015  0.56452081  1
  N  N181  1  0.78410169  0.58943015  0.93547919  1
  N  N182  1  0.28410169  0.91056985  0.56452081  1
  N  N183  1  0.21589831  0.41056985  0.93547919  1
