# generated using pymatgen
data_CaBi2O5
_symmetry_space_group_name_H-M   'P 1'
_cell_length_a   5.64716933
_cell_length_b   10.84121288
_cell_length_c   16.48929166
_cell_angle_alpha   90.00000000
_cell_angle_beta   90.00000000
_cell_angle_gamma   90.00000000
_symmetry_Int_Tables_number   1
_chemical_formula_structural   CaBi2O5
_chemical_formula_sum   'Ca8 Bi16 O40'
_cell_volume   1009.51013270
_cell_formula_units_Z   8
loop_
 _symmetry_equiv_pos_site_id
 _symmetry_equiv_pos_as_xyz
  1  'x, y, z'
loop_
 _atom_site_type_symbol
 _atom_site_label
 _atom_site_symmetry_multiplicity
 _atom_site_fract_x
 _atom_site_fract_y
 _atom_site_fract_z
 _atom_site_occupancy
  Ca  Ca0  1  0.53621042  0.36543844  0.42629903  1
  Ca  Ca1  1  0.03621042  0.13456156  0.42629903  1
  Ca  Ca2  1  0.03621042  0.63456156  0.07370097  1
  Ca  Ca3  1  0.96378958  0.36543844  0.92629903  1
  Ca  Ca4  1  0.46378958  0.13456156  0.92629903  1
  Ca  Ca5  1  0.96378958  0.86543844  0.57370097  1
  Ca  Ca6  1  0.46378958  0.63456156  0.57370097  1
  Ca  Ca7  1  0.53621042  0.86543844  0.07370097  1
  Bi  Bi8  1  0.03603921  0.38115842  0.57420069  1
  Bi  Bi9  1  0.46396079  0.88115842  0.42579931  1
  Bi  Bi10  1  0.96396079  0.61884158  0.42579931  1
  Bi  Bi11  1  0.53603921  0.11884158  0.57420069  1
  Bi  Bi12  1  0.96396079  0.11884158  0.07420069  1
  Bi  Bi13  1  0.03603921  0.88115842  0.92579931  1
  Bi  Bi14  1  0.46396079  0.38115842  0.07420069  1
  Bi  Bi15  1  0.53603921  0.61884158  0.92579931  1
  Bi  Bi16  1  0.97029669  0.85121299  0.24141783  1
  Bi  Bi17  1  0.02970331  0.14878701  0.75858217  1
  Bi  Bi18  1  0.52970331  0.35121299  0.75858217  1
  Bi  Bi19  1  0.02970331  0.64878701  0.74141783  1
  Bi  Bi20  1  0.47029669  0.14878701  0.25858217  1
  Bi  Bi21  1  0.47029669  0.64878701  0.24141783  1
  Bi  Bi22  1  0.52970331  0.85121299  0.74141783  1
  Bi  Bi23  1  0.97029669  0.35121299  0.25858217  1
  O  O24  1  0.88358877  0.30948485  0.68341190  1
  O  O25  1  0.22504370  0.99512417  0.02805804  1
  O  O26  1  0.27495630  0.49512417  0.97194196  1
  O  O27  1  0.26281834  0.77327296  0.16454587  1
  O  O28  1  0.23718166  0.27327296  0.83545413  1
  O  O29  1  0.88358877  0.80948485  0.81658810  1
  O  O30  1  0.23718166  0.77327296  0.66454587  1
  O  O31  1  0.61641123  0.80948485  0.31658810  1
  O  O32  1  0.22504370  0.49512417  0.47194196  1
  O  O33  1  0.11641223  0.69051515  0.31658810  1
  O  O34  1  0.61641123  0.30948485  0.18341190  1
  O  O35  1  0.78688650  0.24514608  0.51822938  1
  O  O36  1  0.72504370  0.00487583  0.47194196  1
  O  O37  1  0.73718166  0.72672704  0.66454587  1
  O  O38  1  0.23933726  0.99493786  0.85102318  1
  O  O39  1  0.72504370  0.50487583  0.02805804  1
  O  O40  1  0.11641223  0.19051515  0.18341190  1
  O  O41  1  0.76281834  0.22672704  0.33545413  1
  O  O42  1  0.28688650  0.75485392  0.98177062  1
  O  O43  1  0.27495630  0.99512417  0.52805804  1
  O  O44  1  0.21311350  0.75485392  0.48177062  1
  O  O45  1  0.76066274  0.00506214  0.14897682  1
  O  O46  1  0.73718166  0.22672704  0.83545413  1
  O  O47  1  0.73933726  0.00506214  0.64897682  1
  O  O48  1  0.21311350  0.25485392  0.01822938  1
  O  O49  1  0.28688650  0.25485392  0.51822938  1
  O  O50  1  0.77495630  0.50487583  0.52805804  1
  O  O51  1  0.77495630  0.00487583  0.97194196  1
  O  O52  1  0.73933726  0.50506214  0.85102318  1
  O  O53  1  0.71311350  0.74514608  0.48177062  1
  O  O54  1  0.71311350  0.24514608  0.01822938  1
  O  O55  1  0.78688650  0.74514608  0.98177062  1
  O  O56  1  0.76066274  0.50506214  0.35102318  1
  O  O57  1  0.76281834  0.72672704  0.16454587  1
  O  O58  1  0.26281834  0.27327296  0.33545413  1
  O  O59  1  0.23933726  0.49493786  0.64897682  1
  O  O60  1  0.26066274  0.49493786  0.14897682  1
  O  O61  1  0.38358777  0.19051515  0.68341190  1
  O  O62  1  0.26066274  0.99493786  0.35102318  1
  O  O63  1  0.38358777  0.69051515  0.81658810  1
