# generated using pymatgen
data_Na2SrMg(PO4)2
_symmetry_space_group_name_H-M   'P 1'
_cell_length_a   9.24176074
_cell_length_b   5.33531437
_cell_length_c   13.69312205
_cell_angle_alpha   90.00000000
_cell_angle_beta   90.28098359
_cell_angle_gamma   90.00000000
_symmetry_Int_Tables_number   1
_chemical_formula_structural   Na2SrMg(PO4)2
_chemical_formula_sum   'Na8 Sr4 Mg4 P8 O32'
_cell_volume   675.16822005
_cell_formula_units_Z   4
loop_
 _symmetry_equiv_pos_site_id
 _symmetry_equiv_pos_as_xyz
  1  'x, y, z'
loop_
 _atom_site_type_symbol
 _atom_site_label
 _atom_site_symmetry_multiplicity
 _atom_site_fract_x
 _atom_site_fract_y
 _atom_site_fract_z
 _atom_site_occupancy
  Na  Na0  1  0.08355691  0.22762484  0.90732552  1
  Na  Na1  1  0.91644309  0.72762484  0.59267448  1
  Na  Na2  1  0.91644309  0.77237516  0.09267448  1
  Na  Na3  1  0.08355691  0.27237516  0.40732552  1
  Na  Na4  1  0.41557395  0.23016877  0.58968647  1
  Na  Na5  1  0.58442605  0.73016877  0.91031353  1
  Na  Na6  1  0.58442605  0.76983123  0.41031353  1
  Na  Na7  1  0.41557395  0.26983123  0.08968647  1
  Sr  Sr8  1  0.74645049  0.19394284  0.74997519  1
  Sr  Sr9  1  0.25354951  0.69394284  0.75002481  1
  Sr  Sr10  1  0.25354951  0.80605716  0.25002481  1
  Sr  Sr11  1  0.74645049  0.30605716  0.24997519  1
  Mg  Mg12  1  0.75062371  0.25315528  0.50084731  1
  Mg  Mg13  1  0.24937629  0.75315528  0.99915269  1
  Mg  Mg14  1  0.24937629  0.74684472  0.49915269  1
  Mg  Mg15  1  0.75062371  0.24684472  0.00084731  1
  P  P16  1  0.08285119  0.22886886  0.63173848  1
  P  P17  1  0.91714881  0.72886886  0.86826152  1
  P  P18  1  0.91714881  0.77113114  0.36826152  1
  P  P19  1  0.08285119  0.27113114  0.13173848  1
  P  P20  1  0.41894731  0.23424462  0.86733349  1
  P  P21  1  0.58105269  0.73424462  0.63266651  1
  P  P22  1  0.58105269  0.76575538  0.13266651  1
  P  P23  1  0.41894731  0.26575538  0.36733349  1
  O  O24  1  0.07671710  0.70180634  0.90429123  1
  O  O25  1  0.92328290  0.20180634  0.59570877  1
  O  O26  1  0.92328290  0.29819366  0.09570877  1
  O  O27  1  0.07671710  0.79819366  0.40429123  1
  O  O28  1  0.08738767  0.28827511  0.74124206  1
  O  O29  1  0.91261233  0.78827511  0.75875794  1
  O  O30  1  0.91261233  0.71172489  0.25875794  1
  O  O31  1  0.08738767  0.21172489  0.24124206  1
  O  O32  1  0.16556930  0.98090740  0.60831144  1
  O  O33  1  0.83443070  0.48090740  0.89168856  1
  O  O34  1  0.83443070  0.01909260  0.39168856  1
  O  O35  1  0.16556930  0.51909260  0.10831144  1
  O  O36  1  0.15491562  0.44749022  0.57377070  1
  O  O37  1  0.84508438  0.94749022  0.92622930  1
  O  O38  1  0.84508438  0.55250978  0.42622930  1
  O  O39  1  0.15491562  0.05250978  0.07377070  1
  O  O40  1  0.34936207  0.46125435  0.92195291  1
  O  O41  1  0.65063793  0.96125435  0.57804709  1
  O  O42  1  0.65063793  0.53874565  0.07804709  1
  O  O43  1  0.34936207  0.03874565  0.42195291  1
  O  O44  1  0.42138673  0.28815946  0.75729798  1
  O  O45  1  0.57861327  0.78815946  0.74270202  1
  O  O46  1  0.57861327  0.71184054  0.24270202  1
  O  O47  1  0.42138673  0.21184054  0.25729798  1
  O  O48  1  0.57616151  0.19963792  0.90698822  1
  O  O49  1  0.42383849  0.69963792  0.59301178  1
  O  O50  1  0.42383849  0.80036208  0.09301178  1
  O  O51  1  0.57616151  0.30036208  0.40698822  1
  O  O52  1  0.66973944  0.49343953  0.60910784  1
  O  O53  1  0.33026056  0.99343953  0.89089216  1
  O  O54  1  0.33026056  0.50656047  0.39089216  1
  O  O55  1  0.66973944  0.00656047  0.10910784  1
