# generated using pymatgen
data_MgCuP2O7
_symmetry_space_group_name_H-M   'P 1'
_cell_length_a   5.44204662
_cell_length_b   6.39734294
_cell_length_c   7.50299738
_cell_angle_alpha   81.92139720
_cell_angle_beta   88.84351955
_cell_angle_gamma   71.35772409
_symmetry_Int_Tables_number   1
_chemical_formula_structural   MgCuP2O7
_chemical_formula_sum   'Mg2 Cu2 P4 O14'
_cell_volume   244.96752047
_cell_formula_units_Z   2
loop_
 _symmetry_equiv_pos_site_id
 _symmetry_equiv_pos_as_xyz
  1  'x, y, z'
loop_
 _atom_site_type_symbol
 _atom_site_label
 _atom_site_symmetry_multiplicity
 _atom_site_fract_x
 _atom_site_fract_y
 _atom_site_fract_z
 _atom_site_occupancy
  Mg  Mg0  1  0.33159270  0.66222225  0.64764213  1
  Mg  Mg1  1  0.66840655  0.33777666  0.35236099  1
  Cu  Cu2  1  0.27295400  0.15151341  0.18313496  1
  Cu  Cu3  1  0.72704820  0.84848737  0.81686375  1
  P  P4  1  0.17329723  0.68151488  0.09856598  1
  P  P5  1  0.82670066  0.31848304  0.90143263  1
  P  P6  1  0.22636886  0.20508996  0.61530317  1
  P  P7  1  0.77363231  0.79490837  0.38469732  1
  O  O8  1  0.08839883  0.70219752  0.89962624  1
  O  O9  1  0.91159967  0.29780258  0.10037529  1
  O  O10  1  0.29034785  0.85577425  0.13553161  1
  O  O11  1  0.70965236  0.14422819  0.86446785  1
  O  O12  1  0.35525113  0.44315699  0.16536365  1
  O  O13  1  0.64475051  0.55684268  0.83463646  1
  O  O14  1  0.60866598  0.64461124  0.43825037  1
  O  O15  1  0.39133359  0.35538943  0.56174865  1
  O  O16  1  0.02647165  0.21785201  0.47371589  1
  O  O17  1  0.97352990  0.78214571  0.52628394  1
  O  O18  1  0.09099109  0.29494524  0.79516188  1
  O  O19  1  0.60871065  0.04001962  0.32054811  1
  O  O20  1  0.39128932  0.95998054  0.67945226  1
  O  O21  1  0.90900995  0.70505505  0.20483788  1
