# generated using pymatgen
data_CaCr2P2O9
_symmetry_space_group_name_H-M   'P 1'
_cell_length_a   6.44633951
_cell_length_b   7.44741591
_cell_length_c   14.31877752
_cell_angle_alpha   90.00000000
_cell_angle_beta   90.00000000
_cell_angle_gamma   90.00000000
_symmetry_Int_Tables_number   1
_chemical_formula_structural   CaCr2P2O9
_chemical_formula_sum   'Ca4 Cr8 P8 O36'
_cell_volume   687.42405333
_cell_formula_units_Z   4
loop_
 _symmetry_equiv_pos_site_id
 _symmetry_equiv_pos_as_xyz
  1  'x, y, z'
loop_
 _atom_site_type_symbol
 _atom_site_label
 _atom_site_symmetry_multiplicity
 _atom_site_fract_x
 _atom_site_fract_y
 _atom_site_fract_z
 _atom_site_occupancy
  Ca  Ca0  1  0.75000000  0.89229269  0.77962462  1
  Ca  Ca1  1  0.75000000  0.60770731  0.27962462  1
  Ca  Ca2  1  0.25000100  0.39229169  0.72037538  1
  Ca  Ca3  1  0.25000100  0.10770731  0.22037538  1
  Cr  Cr4  1  0.75000000  0.35104395  0.87827810  1
  Cr  Cr5  1  0.25000100  0.64895605  0.12172190  1
  Cr  Cr6  1  0.25000100  0.85104395  0.62172190  1
  Cr  Cr7  1  0.75000000  0.14895605  0.37827810  1
  Cr  Cr8  1  0.50000000  0.00000000  -0.00000000  1
  Cr  Cr9  1  0.50000000  0.50000000  0.50000000  1
  Cr  Cr10  1  -0.00000000  0.50000000  0.50000000  1
  Cr  Cr11  1  -0.00000000  0.00000000  -0.00000000  1
  P  P12  1  0.25000100  0.36029138  0.93446730  1
  P  P13  1  0.75000000  0.63970862  0.06553370  1
  P  P14  1  0.75000000  0.86029138  0.56553270  1
  P  P15  1  0.25000100  0.13970962  0.43446730  1
  P  P16  1  0.75000000  0.39117635  0.69108019  1
  P  P17  1  0.75000000  0.10882365  0.19108019  1
  P  P18  1  0.25000100  0.89117635  0.80891981  1
  P  P19  1  0.25000100  0.60882265  0.30891981  1
  O  O20  1  0.05223641  0.60400865  0.37039773  1
  O  O21  1  0.55223541  0.39599035  0.62960227  1
  O  O22  1  0.94776359  0.10400865  0.12960227  1
  O  O23  1  0.44776359  0.89599135  0.87039773  1
  O  O24  1  0.94776359  0.39599035  0.62960227  1
  O  O25  1  0.44776359  0.60400865  0.37039773  1
  O  O26  1  0.05223641  0.89599135  0.87039773  1
  O  O27  1  0.55223541  0.10400865  0.12960227  1
  O  O28  1  0.25000100  0.33026450  0.48294433  1
  O  O29  1  0.75000000  0.66973650  0.51705567  1
  O  O30  1  0.75000000  0.83026350  0.01705467  1
  O  O31  1  0.25000100  0.16973650  0.98294433  1
  O  O32  1  0.75000000  0.12429541  0.94393199  1
  O  O33  1  0.25000100  0.87570459  0.05606701  1
  O  O34  1  0.25000100  0.62429541  0.55606701  1
  O  O35  1  0.75000000  0.37570559  0.44393299  1
  O  O36  1  0.75000000  0.21745091  0.75213405  1
  O  O37  1  0.25000100  0.78254909  0.24786695  1
  O  O38  1  0.25000100  0.71745091  0.74786595  1
  O  O39  1  0.75000000  0.28255009  0.25213305  1
  O  O40  1  0.43801480  0.13280323  0.36706804  1
  O  O41  1  0.93801480  0.86719677  0.63293196  1
  O  O42  1  0.56198520  0.63280223  0.13293196  1
  O  O43  1  0.06198520  0.36719677  0.86706804  1
  O  O44  1  0.56198520  0.86719677  0.63293196  1
  O  O45  1  0.06198520  0.13280323  0.36706804  1
  O  O46  1  0.43801480  0.36719677  0.86706804  1
  O  O47  1  0.93801480  0.63280223  0.13293196  1
  O  O48  1  0.75000000  0.49689039  0.99191747  1
  O  O49  1  0.25000100  0.04312266  0.73382591  1
  O  O50  1  0.25000100  0.45687634  0.23382591  1
  O  O51  1  0.75000000  0.54312266  0.76617409  1
  O  O52  1  0.75000000  0.00310961  0.49191747  1
  O  O53  1  0.25000100  0.99689039  0.50808253  1
  O  O54  1  0.25000100  0.50310861  0.00808153  1
  O  O55  1  0.75000000  0.95687734  0.26617409  1
