# generated using pymatgen
data_CaFe2P2O9
_symmetry_space_group_name_H-M   'P 1'
_cell_length_a   6.47724042
_cell_length_b   7.49594353
_cell_length_c   14.39737625
_cell_angle_alpha   90.10177217
_cell_angle_beta   90.00195541
_cell_angle_gamma   90.00429829
_symmetry_Int_Tables_number   1
_chemical_formula_structural   CaFe2P2O9
_chemical_formula_sum   'Ca4 Fe8 P8 O36'
_cell_volume   699.03511279
_cell_formula_units_Z   4
loop_
 _symmetry_equiv_pos_site_id
 _symmetry_equiv_pos_as_xyz
  1  'x, y, z'
loop_
 _atom_site_type_symbol
 _atom_site_label
 _atom_site_symmetry_multiplicity
 _atom_site_fract_x
 _atom_site_fract_y
 _atom_site_fract_z
 _atom_site_occupancy
  Ca  Ca0  1  0.74997347  0.89311017  0.77879001  1
  Ca  Ca1  1  0.74998775  0.60723414  0.27866009  1
  Ca  Ca2  1  0.24997671  0.39299715  0.72188111  1
  Ca  Ca3  1  0.25000542  0.10796056  0.22078443  1
  Fe  Fe4  1  0.74991777  0.35127057  0.88120678  1
  Fe  Fe5  1  0.24988574  0.64889351  0.11879140  1
  Fe  Fe6  1  0.25000186  0.85230133  0.61868463  1
  Fe  Fe7  1  0.75000299  0.14783408  0.38121710  1
  Fe  Fe8  1  0.49989035  0.00004770  0.00008032  1
  Fe  Fe9  1  0.49991233  0.50017468  0.49989268  1
  Fe  Fe10  1  0.00009228  0.50019503  0.49989481  1
  Fe  Fe11  1  -0.00000278  0.00008746  0.00005755  1
  P  P12  1  0.25016016  0.36227387  0.93390773  1
  P  P13  1  0.74988294  0.63845445  0.06659093  1
  P  P14  1  0.75000437  0.86151929  0.56653610  1
  P  P15  1  0.24998943  0.13844313  0.43323674  1
  P  P16  1  0.74997848  0.38950427  0.69188722  1
  P  P17  1  0.74999588  0.11098671  0.19209811  1
  P  P18  1  0.24998944  0.88912417  0.80795565  1
  P  P19  1  0.24998580  0.60824984  0.30760954  1
  O  O20  1  0.05277292  0.60435175  0.36919749  1
  O  O21  1  0.55251333  0.39644458  0.63051107  1
  O  O22  1  0.94714011  0.10368619  0.13059872  1
  O  O23  1  0.44717689  0.89664691  0.86943390  1
  O  O24  1  0.94744814  0.39644851  0.63052208  1
  O  O25  1  0.44723442  0.60430298  0.36918144  1
  O  O26  1  0.05278029  0.89662135  0.86941627  1
  O  O27  1  0.55284390  0.10363999  0.13059256  1
  O  O28  1  0.24998385  0.32681169  0.48140259  1
  O  O29  1  0.74999817  0.67338600  0.51819239  1
  O  O30  1  0.74997789  0.82659818  0.01848028  1
  O  O31  1  0.24992645  0.17465177  0.98248138  1
  O  O32  1  0.74992759  0.12388482  0.94582681  1
  O  O33  1  0.24987290  0.87639156  0.05411042  1
  O  O34  1  0.25000510  0.62481560  0.55388922  1
  O  O35  1  0.75001334  0.37545697  0.44598098  1
  O  O36  1  0.74997639  0.21600970  0.75153502  1
  O  O37  1  0.24996237  0.78052983  0.24686234  1
  O  O38  1  0.25000554  0.71573690  0.74808736  1
  O  O39  1  0.74997756  0.28432948  0.25198911  1
  O  O40  1  0.43783986  0.12835066  0.36709926  1
  O  O41  1  0.93786115  0.87116349  0.63276563  1
  O  O42  1  0.56209892  0.62925709  0.13298080  1
  O  O43  1  0.06202509  0.37187585  0.86785675  1
  O  O44  1  0.56214989  0.87115421  0.63276095  1
  O  O45  1  0.06215344  0.12831924  0.36709028  1
  O  O46  1  0.43791955  0.37149651  0.86761695  1
  O  O47  1  0.93775937  0.62895690  0.13293899  1
  O  O48  1  0.74998256  0.49748173  0.99177834  1
  O  O49  1  0.25000168  0.04146190  0.73430641  1
  O  O50  1  0.24994326  0.45407991  0.23487520  1
  O  O51  1  0.74997528  0.54168885  0.76582081  1
  O  O52  1  0.75000271  0.00247634  0.49169459  1
  O  O53  1  0.24999841  0.99782247  0.50836954  1
  O  O54  1  0.25113270  0.50435755  0.00828652  1
  O  O55  1  0.75000059  0.95864740  0.26570461  1
