# generated using pymatgen
data_Ca2B2O5
_symmetry_space_group_name_H-M   'P 1'
_cell_length_a   3.59287797
_cell_length_b   6.40409452
_cell_length_c   19.42896969
_cell_angle_alpha   90.00000000
_cell_angle_beta   92.49342840
_cell_angle_gamma   90.00000000
_symmetry_Int_Tables_number   1
_chemical_formula_structural   Ca2B2O5
_chemical_formula_sum   'Ca8 B8 O20'
_cell_volume   446.62043892
_cell_formula_units_Z   4
loop_
 _symmetry_equiv_pos_site_id
 _symmetry_equiv_pos_as_xyz
  1  'x, y, z'
loop_
 _atom_site_type_symbol
 _atom_site_label
 _atom_site_symmetry_multiplicity
 _atom_site_fract_x
 _atom_site_fract_y
 _atom_site_fract_z
 _atom_site_occupancy
  Ca  Ca0  1  0.28757934  0.55020724  0.70990732  1
  Ca  Ca1  1  0.71242066  0.05020724  0.79009268  1
  Ca  Ca2  1  0.71242066  0.44979276  0.29009268  1
  Ca  Ca3  1  0.28757934  0.94979276  0.20990732  1
  Ca  Ca4  1  0.75318764  0.30504752  0.56165247  1
  Ca  Ca5  1  0.24681236  0.80504752  0.93834753  1
  Ca  Ca6  1  0.24681236  0.69495248  0.43834753  1
  Ca  Ca7  1  0.75318764  0.19495248  0.06165247  1
  B  B8  1  0.16339333  0.03294932  0.65686916  1
  B  B9  1  0.83660667  0.53294932  0.84313084  1
  B  B10  1  0.83660667  0.96705068  0.34313084  1
  B  B11  1  0.16339333  0.46705068  0.15686916  1
  B  B12  1  0.17692813  0.24756325  0.91750594  1
  B  B13  1  0.82307187  0.74756325  0.58249406  1
  B  B14  1  0.82307187  0.75243675  0.08249406  1
  B  B15  1  0.17692813  0.25243675  0.41750594  1
  O  O16  1  0.75647508  0.69396071  0.51504222  1
  O  O17  1  0.24352492  0.19396071  0.98495778  1
  O  O18  1  0.24352492  0.30603929  0.48495778  1
  O  O19  1  0.75647508  0.80603929  0.01504222  1
  O  O20  1  0.76759276  0.60750467  0.63430701  1
  O  O21  1  0.23240724  0.10750467  0.86569299  1
  O  O22  1  0.23240724  0.39249533  0.36569299  1
  O  O23  1  0.76759276  0.89249533  0.13430701  1
  O  O24  1  0.28595589  0.23321728  0.64764705  1
  O  O25  1  0.71404411  0.73321728  0.85235295  1
  O  O26  1  0.71404411  0.76678272  0.35235295  1
  O  O27  1  0.28595589  0.26678272  0.14764705  1
  O  O28  1  0.96818048  0.95007610  0.59686275  1
  O  O29  1  0.03181952  0.45007610  0.90313725  1
  O  O30  1  0.03181952  0.04992390  0.40313725  1
  O  O31  1  0.96818048  0.54992390  0.09686275  1
  O  O32  1  0.20432082  0.92441828  0.71735022  1
  O  O33  1  0.79567918  0.42441828  0.78264978  1
  O  O34  1  0.79567918  0.07558172  0.28264978  1
  O  O35  1  0.20432082  0.57558172  0.21735022  1
