# generated using pymatgen
data_LaSc3(BO3)4
_symmetry_space_group_name_H-M   'P 1'
_cell_length_a   6.31632800
_cell_length_b   6.31632800
_cell_length_c   6.31632799
_cell_angle_alpha   103.21937811
_cell_angle_beta   103.21937820
_cell_angle_gamma   103.21937813
_symmetry_Int_Tables_number   1
_chemical_formula_structural   LaSc3(BO3)4
_chemical_formula_sum   'La1 Sc3 B4 O12'
_cell_volume   228.08076120
_cell_formula_units_Z   1
loop_
 _symmetry_equiv_pos_site_id
 _symmetry_equiv_pos_as_xyz
  1  'x, y, z'
loop_
 _atom_site_type_symbol
 _atom_site_label
 _atom_site_symmetry_multiplicity
 _atom_site_fract_x
 _atom_site_fract_y
 _atom_site_fract_z
 _atom_site_occupancy
  B  B0  1  0.00000000  0.00000000  0.00000000  1
  B  B1  1  0.45008046  0.00000000  0.54991954  1
  B  B2  1  0.00000000  0.54991954  0.45008046  1
  B  B3  1  0.54991954  0.45008046  0.00000000  1
  O  O4  1  0.85964862  0.00000000  0.14035138  1
  O  O5  1  0.40967129  0.59032871  0.00000000  1
  O  O6  1  0.00000000  0.40967129  0.59032871  1
  O  O7  1  0.59032871  0.00000000  0.40967129  1
  O  O8  1  0.52981772  0.29790435  0.12567316  1
  O  O9  1  0.12567316  0.52981772  0.29790435  1
  O  O10  1  0.29790435  0.12567316  0.52981772  1
  O  O11  1  0.70209565  0.47018228  0.87432684  1
  O  O12  1  0.87432684  0.70209565  0.47018228  1
  O  O13  1  0.47018228  0.87432684  0.70209565  1
  O  O14  1  0.14035138  0.85964862  0.00000000  1
  O  O15  1  0.00000000  0.14035138  0.85964862  1
  Sc  Sc16  1  0.04814019  0.50000000  0.95185981  1
  Sc  Sc17  1  0.50000000  0.95185981  0.04814019  1
  Sc  Sc18  1  0.95185981  0.04814019  0.50000000  1
  La  La19  1  0.50000000  0.50000000  0.50000000  1
