# generated using pymatgen
data_Ba(ReO6)2
_symmetry_space_group_name_H-M   'P 1'
_cell_length_a   7.28623368
_cell_length_b   12.37224368
_cell_length_c   12.36586397
_cell_angle_alpha   90.00000000
_cell_angle_beta   90.00000000
_cell_angle_gamma   91.03827200
_symmetry_Int_Tables_number   1
_chemical_formula_structural   Ba(ReO6)2
_chemical_formula_sum   'Ba4 Re8 O48'
_cell_volume   1114.56323890
_cell_formula_units_Z   4
loop_
 _symmetry_equiv_pos_site_id
 _symmetry_equiv_pos_as_xyz
  1  'x, y, z'
loop_
 _atom_site_type_symbol
 _atom_site_label
 _atom_site_symmetry_multiplicity
 _atom_site_fract_x
 _atom_site_fract_y
 _atom_site_fract_z
 _atom_site_occupancy
  Ba  Ba0  1  0.75248146  0.92247435  0.75262646  1
  Ba  Ba1  1  0.25248146  0.42247435  0.74737354  1
  Ba  Ba2  1  0.24751854  0.07752565  0.24737354  1
  Ba  Ba3  1  0.74751854  0.57752565  0.25262646  1
  Re  Re4  1  0.74796250  0.03496138  0.07194389  1
  Re  Re5  1  0.24796250  0.53496138  0.42805611  1
  Re  Re6  1  0.25203750  0.96503862  0.92805611  1
  Re  Re7  1  0.75203750  0.46503862  0.57194389  1
  Re  Re8  1  0.75409781  0.59072560  0.88689604  1
  Re  Re9  1  0.25409781  0.09072560  0.61310396  1
  Re  Re10  1  0.24590219  0.40927440  0.11310396  1
  Re  Re11  1  0.74590219  0.90927440  0.38689604  1
  O  O12  1  0.80406433  0.05143434  0.93423436  1
  O  O13  1  0.30406433  0.55143434  0.56576564  1
  O  O14  1  0.19593567  0.94856566  0.06576564  1
  O  O15  1  0.69593567  0.44856566  0.43423436  1
  O  O16  1  0.75098523  0.89835702  0.10443874  1
  O  O17  1  0.25098523  0.39835702  0.39556126  1
  O  O18  1  0.24901477  0.10164298  0.89556126  1
  O  O19  1  0.74901477  0.60164298  0.60443874  1
  O  O20  1  0.52920198  0.08817957  0.09710717  1
  O  O21  1  0.02920198  0.58817957  0.40289283  1
  O  O22  1  0.47079802  0.91182043  0.90289283  1
  O  O23  1  0.97079802  0.41182043  0.59710717  1
  O  O24  1  0.90922675  0.10625184  0.15167895  1
  O  O25  1  0.40922675  0.60625184  0.34832105  1
  O  O26  1  0.09077325  0.89374816  0.84832105  1
  O  O27  1  0.59077325  0.39374816  0.65167895  1
  O  O28  1  0.77273114  0.72965005  0.86134294  1
  O  O29  1  0.27273114  0.22965005  0.63865706  1
  O  O30  1  0.22726886  0.27034995  0.13865706  1
  O  O31  1  0.72726886  0.77034995  0.36134294  1
  O  O32  1  0.53585512  0.54315743  0.84716893  1
  O  O33  1  0.03585512  0.04315743  0.65283107  1
  O  O34  1  0.46414488  0.45684257  0.15283107  1
  O  O35  1  0.96414488  0.95684257  0.34716893  1
  O  O36  1  0.78317115  0.56776568  0.02577472  1
  O  O37  1  0.28317115  0.06776568  0.47422528  1
  O  O38  1  0.21682885  0.43223432  0.97422528  1
  O  O39  1  0.71682885  0.93223432  0.52577472  1
  O  O40  1  0.92426428  0.52197223  0.81529592  1
  O  O41  1  0.42426428  0.02197223  0.68470408  1
  O  O42  1  0.07573572  0.47802777  0.18470408  1
  O  O43  1  0.57573572  0.97802777  0.31529592  1
  O  O44  1  0.40880886  0.74776125  0.67513988  1
  O  O45  1  0.90880886  0.24776125  0.82486012  1
  O  O46  1  0.59119114  0.25223875  0.32486012  1
  O  O47  1  0.09119114  0.75223875  0.17513988  1
  O  O48  1  0.09075693  0.77088379  0.60725211  1
  O  O49  1  0.59075693  0.27088379  0.89274789  1
  O  O50  1  0.90924307  0.22911621  0.39274789  1
  O  O51  1  0.40924307  0.72911621  0.10725211  1
  O  O52  1  0.77189408  0.21744947  0.77364865  1
  O  O53  1  0.27189408  0.71744947  0.72635135  1
  O  O54  1  0.22810592  0.78255053  0.22635135  1
  O  O55  1  0.72810592  0.28255053  0.27364865  1
  O  O56  1  0.78402748  0.19616225  0.45192127  1
  O  O57  1  0.28402748  0.69616225  0.04807873  1
  O  O58  1  0.21597252  0.80383775  0.54807873  1
  O  O59  1  0.71597252  0.30383775  0.95192127  1
