# generated using pymatgen
data_SmMnSi2
_symmetry_space_group_name_H-M   'P 1'
_cell_length_a   3.97851320
_cell_length_b   4.00170390
_cell_length_c   8.94214416
_cell_angle_alpha   102.92969482
_cell_angle_beta   90.00000000
_cell_angle_gamma   90.00000000
_symmetry_Int_Tables_number   1
_chemical_formula_structural   SmMnSi2
_chemical_formula_sum   'Sm2 Mn2 Si4'
_cell_volume   138.75672464
_cell_formula_units_Z   2
loop_
 _symmetry_equiv_pos_site_id
 _symmetry_equiv_pos_as_xyz
  1  'x, y, z'
loop_
 _atom_site_type_symbol
 _atom_site_label
 _atom_site_symmetry_multiplicity
 _atom_site_fract_x
 _atom_site_fract_y
 _atom_site_fract_z
 _atom_site_occupancy
  Sm  Sm0  1  0.75000000  0.10113300  0.20226599  1
  Sm  Sm1  1  0.25000000  0.89886700  0.79773401  1
  Mn  Mn2  1  0.75000000  0.74960088  0.49920175  1
  Mn  Mn3  1  0.25000000  0.25039912  0.50079825  1
  Si  Si4  1  0.75000000  0.32359759  0.64719517  1
  Si  Si5  1  0.25000000  0.67640241  0.35280483  1
  Si  Si6  1  0.75000000  0.46407960  0.92815919  1
  Si  Si7  1  0.25000000  0.53592040  0.07184081  1
