# generated using pymatgen
data_Sr16Fe16O41
_symmetry_space_group_name_H-M   'P 1'
_cell_length_a   5.63752966
_cell_length_b   5.61993668
_cell_length_c   44.86440657
_cell_angle_alpha   60.25476158
_cell_angle_beta   59.81135844
_cell_angle_gamma   59.89864567
_symmetry_Int_Tables_number   1
_chemical_formula_structural   Sr16Fe16O41
_chemical_formula_sum   'Sr16 Fe16 O41'
_cell_volume   1004.79365785
_cell_formula_units_Z   1
loop_
 _symmetry_equiv_pos_site_id
 _symmetry_equiv_pos_as_xyz
  1  'x, y, z'
loop_
 _atom_site_type_symbol
 _atom_site_label
 _atom_site_symmetry_multiplicity
 _atom_site_fract_x
 _atom_site_fract_y
 _atom_site_fract_z
 _atom_site_occupancy
  Sr  Sr0  1  0.26006461  0.25783830  0.02784545  1
  Sr  Sr1  1  0.25000000  0.25000000  0.15625000  1
  Sr  Sr2  1  0.74958642  0.75298282  0.09306592  1
  Sr  Sr3  1  0.23993539  0.24216170  0.28465455  1
  Sr  Sr4  1  0.75041358  0.74701718  0.21943408  1
  Sr  Sr5  1  0.25312928  0.25695053  0.40317824  1
  Sr  Sr6  1  0.73541444  0.74314020  0.34682491  1
  Sr  Sr7  1  0.25353218  0.25349167  0.53042404  1
  Sr  Sr8  1  0.75936703  0.75777601  0.46529675  1
  Sr  Sr9  1  0.25000000  0.25000000  0.65625000  1
  Sr  Sr10  1  0.24646782  0.24650833  0.78207596  1
  Sr  Sr11  1  0.75157847  0.75181178  0.59311063  1
  Sr  Sr12  1  0.74842153  0.74818822  0.71938937  1
  Sr  Sr13  1  0.24687072  0.24304947  0.90932176  1
  Sr  Sr14  1  0.74063297  0.74222399  0.84720325  1
  Sr  Sr15  1  0.76458556  0.75685980  0.96567509  1
  Fe  Fe16  1  0.97378799  0.02227610  0.99706987  1
  Fe  Fe17  1  0.98053148  0.02111318  0.12209420  1
  Fe  Fe18  1  0.51999102  0.48221517  0.06448877  1
  Fe  Fe19  1  0.51946852  0.47888682  0.19040580  1
  Fe  Fe20  1  0.98000898  0.01778483  0.24801123  1
  Fe  Fe21  1  0.52621201  0.47772390  0.31543013  1
  Fe  Fe22  1  0.00529734  0.99993859  0.37501351  1
  Fe  Fe23  1  0.52716692  0.52209092  0.43460944  1
  Fe  Fe24  1  0.98170234  0.98182263  0.50194499  1
  Fe  Fe25  1  0.52087096  0.52059799  0.55949235  1
  Fe  Fe26  1  0.98035942  0.98053871  0.62733882  1
  Fe  Fe27  1  0.51964058  0.51946129  0.68516118  1
  Fe  Fe28  1  0.97912904  0.97940201  0.75300765  1
  Fe  Fe29  1  0.97283308  0.97790908  0.87789056  1
  Fe  Fe30  1  0.51829766  0.51817737  0.81055501  1
  Fe  Fe31  1  0.49470266  0.50006141  0.93748649  1
  O  O32  1  0.25152025  0.24776881  0.09400835  1
  O  O33  1  0.74825173  0.25297774  0.03081524  1
  O  O34  1  0.24864594  0.74433926  0.09477197  1
  O  O35  1  0.74703419  0.25030982  0.09387468  1
  O  O36  1  0.24847975  0.25223119  0.21849165  1
  O  O37  1  0.73407164  0.75842649  0.03201213  1
  O  O38  1  0.75000000  0.25000000  0.15625000  1
  O  O39  1  0.25135406  0.75566074  0.21772803  1
  O  O40  1  0.75296581  0.24969018  0.21862532  1
  O  O41  1  0.75000000  0.75000000  0.15625000  1
  O  O42  1  0.23641765  0.27331443  0.34237773  1
  O  O43  1  0.75174827  0.24702226  0.28168476  1
  O  O44  1  0.23875753  0.77794293  0.33743672  1
  O  O45  1  0.74064667  0.25871631  0.34652682  1
  O  O46  1  0.76592836  0.74157351  0.28048787  1
  O  O47  1  0.24798809  0.72637608  0.40781175  1
  O  O48  1  0.71528324  0.22160079  0.41274210  1
  O  O49  1  0.25211538  0.75224439  0.46844836  1
  O  O50  1  0.75096061  0.25839333  0.46962755  1
  O  O51  1  0.77091788  0.74062941  0.40364054  1
  O  O52  1  0.24804588  0.74839139  0.53151119  1
  O  O53  1  0.74929108  0.24346336  0.53234394  1
  O  O54  1  0.24988016  0.74900589  0.59373259  1
  O  O55  1  0.74879681  0.25036895  0.59391569  1
  O  O56  1  0.75154293  0.74999805  0.53152639  1
  O  O57  1  0.25000000  0.75000000  0.65625000  1
  O  O58  1  0.75000000  0.25000000  0.65625000  1
  O  O59  1  0.25011984  0.75099411  0.71876741  1
  O  O60  1  0.25195412  0.75160861  0.78098881  1
  O  O61  1  0.75000000  0.75000000  0.65625000  1
  O  O62  1  0.75120319  0.24963105  0.71858431  1
  O  O63  1  0.75070892  0.25653664  0.78015606  1
  O  O64  1  0.24788462  0.74775561  0.84405164  1
  O  O65  1  0.74845707  0.75000195  0.78097361  1
  O  O66  1  0.25201191  0.77362392  0.90468825  1
  O  O67  1  0.26358235  0.22668557  0.97012227  1
  O  O68  1  0.74903939  0.24160667  0.84287245  1
  O  O69  1  0.78471676  0.27839921  0.89975790  1
  O  O70  1  0.26124247  0.72205707  0.97506328  1
  O  O71  1  0.72908212  0.75937059  0.90885946  1
  O  O72  1  0.75935333  0.24128369  0.96597318  1
