# generated using pymatgen
data_Ba2NdMoO6
_symmetry_space_group_name_H-M   'P 1'
_cell_length_a   6.05896267
_cell_length_b   6.09409438
_cell_length_c   6.15353247
_cell_angle_alpha   59.81965465
_cell_angle_beta   60.08918304
_cell_angle_gamma   89.06374969
_symmetry_Int_Tables_number   1
_chemical_formula_structural   Ba2NdMoO6
_chemical_formula_sum   'Ba2 Nd1 Mo1 O6'
_cell_volume   161.71092326
_cell_formula_units_Z   1
loop_
 _symmetry_equiv_pos_site_id
 _symmetry_equiv_pos_as_xyz
  1  'x, y, z'
loop_
 _atom_site_type_symbol
 _atom_site_label
 _atom_site_symmetry_multiplicity
 _atom_site_fract_x
 _atom_site_fract_y
 _atom_site_fract_z
 _atom_site_occupancy
  Ba  Ba0  1  0.24822805  0.74753253  0.50375831  1
  Ba  Ba1  1  0.75177195  0.25246747  0.49624169  1
  Nd  Nd2  1  -0.00000000  0.00000000  -0.00000000  1
  Mo  Mo3  1  0.50000000  0.50000000  -0.00000000  1
  O  O4  1  0.26081769  0.27401872  0.46721699  1
  O  O5  1  0.73918231  0.72598128  0.53278301  1
  O  O6  1  0.23004279  0.30354854  0.00061372  1
  O  O7  1  0.76995721  0.69645146  0.99938628  1
  O  O8  1  0.68151181  0.22956023  0.01261646  1
  O  O9  1  0.31848819  0.77043977  0.98738354  1
