# generated using pymatgen
data_BaAlBO3F2
_symmetry_space_group_name_H-M   'P 1'
_cell_length_a   4.93672939
_cell_length_b   4.93672939
_cell_length_c   9.63193801
_cell_angle_alpha   90.00000000
_cell_angle_beta   90.00000000
_cell_angle_gamma   120.00000000
_symmetry_Int_Tables_number   1
_chemical_formula_structural   BaAlBO3F2
_chemical_formula_sum   'Ba2 Al2 B2 O6 F4'
_cell_volume   203.29324757
_cell_formula_units_Z   2
loop_
 _symmetry_equiv_pos_site_id
 _symmetry_equiv_pos_as_xyz
  1  'x, y, z'
loop_
 _atom_site_type_symbol
 _atom_site_label
 _atom_site_symmetry_multiplicity
 _atom_site_fract_x
 _atom_site_fract_y
 _atom_site_fract_z
 _atom_site_occupancy
  B  B0  1  0.33333333  0.66666667  0.75000000  1
  B  B1  1  0.66666667  0.33333333  0.25000000  1
  O  O2  1  0.32915035  0.94458100  0.75000000  1
  O  O3  1  0.61543065  0.67084965  0.75000000  1
  O  O4  1  0.94458100  0.61543065  0.25000000  1
  O  O5  1  0.38456935  0.32915035  0.25000000  1
  O  O6  1  0.05541900  0.38456935  0.75000000  1
  O  O7  1  0.67084965  0.05541900  0.25000000  1
  F  F8  1  0.66666667  0.33333333  0.94357206  1
  F  F9  1  0.33333333  0.66666667  0.44357206  1
  F  F10  1  0.66666667  0.33333333  0.55642794  1
  F  F11  1  0.33333333  0.66666667  0.05642794  1
  Al  Al12  1  0.66666667  0.33333333  0.75000000  1
  Al  Al13  1  0.33333333  0.66666667  0.25000000  1
  Ba  Ba14  1  0.00000000  0.00000000  0.50000000  1
  Ba  Ba15  1  0.00000000  0.00000000  0.00000000  1
