# generated using pymatgen
data_SiI3
_symmetry_space_group_name_H-M   'P 1'
_cell_length_a   7.79418068
_cell_length_b   7.79418068
_cell_length_c   9.21986009
_cell_angle_alpha   64.99582386
_cell_angle_beta   64.99582386
_cell_angle_gamma   59.99999249
_symmetry_Int_Tables_number   1
_chemical_formula_structural   SiI3
_chemical_formula_sum   'Si2 I6'
_cell_volume   423.36191202
_cell_formula_units_Z   2
loop_
 _symmetry_equiv_pos_site_id
 _symmetry_equiv_pos_as_xyz
  1  'x, y, z'
loop_
 _atom_site_type_symbol
 _atom_site_label
 _atom_site_symmetry_multiplicity
 _atom_site_fract_x
 _atom_site_fract_y
 _atom_site_fract_z
 _atom_site_occupancy
  Si  Si0  1  0.04908912  0.04908912  0.85273263  1
  Si  Si1  1  0.95091088  0.95091088  0.14726737  1
  I  I2  1  0.08821601  0.77756768  0.75702680  1
  I  I3  1  0.77756768  0.37718952  0.75702680  1
  I  I4  1  0.37718952  0.08821601  0.75702680  1
  I  I5  1  0.91178399  0.22243232  0.24297320  1
  I  I6  1  0.22243232  0.62281048  0.24297320  1
  I  I7  1  0.62281048  0.91178399  0.24297320  1
