# generated using pymatgen
data_Mg2Nb2FeO8
_symmetry_space_group_name_H-M   'P 1'
_cell_length_a   5.20997638
_cell_length_b   6.04796570
_cell_length_c   10.09522323
_cell_angle_alpha   107.37903677
_cell_angle_beta   89.31387253
_cell_angle_gamma   90.02167179
_symmetry_Int_Tables_number   1
_chemical_formula_structural   Mg2Nb2FeO8
_chemical_formula_sum   'Mg4 Nb4 Fe2 O16'
_cell_volume   303.55329476
_cell_formula_units_Z   2
loop_
 _symmetry_equiv_pos_site_id
 _symmetry_equiv_pos_as_xyz
  1  'x, y, z'
loop_
 _atom_site_type_symbol
 _atom_site_label
 _atom_site_symmetry_multiplicity
 _atom_site_fract_x
 _atom_site_fract_y
 _atom_site_fract_z
 _atom_site_occupancy
  Mg  Mg0  1  0.75439009  0.41249695  0.54214581  1
  Mg  Mg1  1  0.74900775  0.86939446  0.45665578  1
  Mg  Mg2  1  0.24906744  0.58738253  0.45611576  1
  Mg  Mg3  1  0.25448403  0.13078074  0.54213824  1
  Nb  Nb4  1  0.74651613  0.28593168  0.23285262  1
  Nb  Nb5  1  0.75710421  0.05334956  0.76580807  1
  Nb  Nb6  1  0.25699816  0.71383436  0.76550600  1
  Nb  Nb7  1  0.24644028  0.94776848  0.23299195  1
  Fe  Fe8  1  0.75119576  0.65462103  0.99936647  1
  Fe  Fe9  1  0.25082934  0.34616022  0.99945235  1
  O  O10  1  0.08439283  0.18234356  0.14304019  1
  O  O11  1  0.41911294  0.03776452  0.85503506  1
  O  O12  1  0.91905286  0.81856245  0.85534023  1
  O  O13  1  0.58424973  0.96208855  0.14324190  1
  O  O14  1  0.59557852  0.43368392  0.11780673  1
  O  O15  1  0.90670150  0.31617408  0.88063901  1
  O  O16  1  0.40621253  0.56599981  0.88075860  1
  O  O17  1  0.09520142  0.68539443  0.11811268  1
  O  O18  1  0.46019328  0.29339893  0.37554744  1
  O  O19  1  0.04299234  0.91768090  0.62298095  1
  O  O20  1  0.38711951  0.83736477  0.38258634  1
  O  O21  1  0.11632891  0.45429662  0.61582516  1
  O  O22  1  0.61633656  0.16276615  0.61588566  1
  O  O23  1  0.88699940  0.54591872  0.38249001  1
  O  O24  1  0.96024093  0.08285621  0.37557951  1
  O  O25  1  0.54311057  0.70641840  0.62274949  1
