# generated using pymatgen
data_RbCuO
_symmetry_space_group_name_H-M   'P 1'
_cell_length_a   5.91555070
_cell_length_b   7.43400124
_cell_length_c   7.43400124
_cell_angle_alpha   80.89167327
_cell_angle_beta   66.55483011
_cell_angle_gamma   66.55483011
_symmetry_Int_Tables_number   1
_chemical_formula_structural   RbCuO
_chemical_formula_sum   'Rb4 Cu4 O4'
_cell_volume   275.16738686
_cell_formula_units_Z   4
loop_
 _symmetry_equiv_pos_site_id
 _symmetry_equiv_pos_as_xyz
  1  'x, y, z'
loop_
 _atom_site_type_symbol
 _atom_site_label
 _atom_site_symmetry_multiplicity
 _atom_site_fract_x
 _atom_site_fract_y
 _atom_site_fract_z
 _atom_site_occupancy
  Rb  Rb0  1  0.25225273  0.19358221  0.80641779  1
  Rb  Rb1  1  0.25225273  0.80641779  0.19358221  1
  Rb  Rb2  1  0.94132948  0.80641779  0.80641779  1
  Rb  Rb3  1  0.55416506  0.19358221  0.19358221  1
  Cu  Cu4  1  0.61470028  0.50000000  0.77059945  1
  Cu  Cu5  1  0.88529972  0.50000000  0.22940055  1
  Cu  Cu6  1  0.61470028  0.77059945  0.50000000  1
  Cu  Cu7  1  0.88529972  0.22940055  0.50000000  1
  O  O8  1  0.74063374  0.76989256  0.23010744  1
  O  O9  1  0.74063374  0.23010744  0.76989256  1
  O  O10  1  0.02925882  0.23010744  0.23010744  1
  O  O11  1  0.48947370  0.76989256  0.76989256  1
