# generated using pymatgen
data_NbTlO3
_symmetry_space_group_name_H-M   'P 1'
_cell_length_a   7.65290318
_cell_length_b   7.65269141
_cell_length_c   13.24973457
_cell_angle_alpha   106.74450244
_cell_angle_beta   89.97301443
_cell_angle_gamma   59.97440820
_symmetry_Int_Tables_number   1
_chemical_formula_structural   NbTlO3
_chemical_formula_sum   'Nb8 Tl8 O24'
_cell_volume   633.48867091
_cell_formula_units_Z   8
loop_
 _symmetry_equiv_pos_site_id
 _symmetry_equiv_pos_as_xyz
  1  'x, y, z'
loop_
 _atom_site_type_symbol
 _atom_site_label
 _atom_site_symmetry_multiplicity
 _atom_site_fract_x
 _atom_site_fract_y
 _atom_site_fract_z
 _atom_site_occupancy
  Nb  Nb0  1  0.99932750  0.50012434  0.00045149  1
  Nb  Nb1  1  0.99874180  0.99986480  0.00065810  1
  Nb  Nb2  1  0.49944573  0.00020734  0.00043241  1
  Nb  Nb3  1  0.74919759  0.00052530  0.25103408  1
  Nb  Nb4  1  0.49977527  0.49988392  0.50043159  1
  Nb  Nb5  1  0.49920235  0.99940171  0.50065399  1
  Nb  Nb6  1  0.99966025  0.99978688  0.50044736  1
  Nb  Nb7  1  0.24949538  0.00022473  0.75103553  1
  Tl  Tl8  1  0.27307382  0.96151719  0.24261267  1
  Tl  Tl9  1  0.27299049  0.50750477  0.24236383  1
  Tl  Tl10  1  0.78501895  0.48426181  0.25355453  1
  Tl  Tl11  1  0.00933346  0.48688238  0.48096986  1
  Tl  Tl12  1  0.76513666  0.51536601  0.74237013  1
  Tl  Tl13  1  0.21889497  0.51569638  0.74262045  1
  Tl  Tl14  1  0.50592244  0.49029987  0.98097056  1
  Tl  Tl15  1  0.73071172  0.03857659  0.75355846  1
  O  O16  1  0.28115943  0.93757240  0.02955150  1
  O  O17  1  0.90685162  0.68946552  0.15538479  1
  O  O18  1  0.96272099  0.94129881  0.34580184  1
  O  O19  1  0.90522143  0.31319238  0.03180561  1
  O  O20  1  0.59629912  0.93723431  0.34460633  1
  O  O21  1  0.28121006  0.31081419  0.02970381  1
  O  O22  1  0.78139657  0.93702781  0.53180575  1
  O  O23  1  0.52990223  0.06323761  0.15669843  1
  O  O24  1  0.90725568  0.05908707  0.15551360  1
  O  O25  1  0.22033996  0.68903936  0.46884868  1
  O  O26  1  0.58803425  0.69123919  0.47072701  1
  O  O27  1  0.59601625  0.31130403  0.34441954  1
  O  O28  1  0.40653873  0.68660832  0.65670465  1
  O  O29  1  0.40802917  0.31069707  0.52954472  1
  O  O30  1  0.09263049  0.94089980  0.84460247  1
  O  O31  1  0.46689273  0.94043462  0.84442213  1
  O  O32  1  0.78112459  0.31089678  0.52970220  1
  O  O33  1  0.22027419  0.05941894  0.46864156  1
  O  O34  1  0.72017398  0.68920296  0.96884751  1
  O  O35  1  0.03408250  0.06222816  0.65537733  1
  O  O36  1  0.40357668  0.06276319  0.65551082  1
  O  O37  1  0.09076430  0.68893187  0.96864309  1
  O  O38  1  0.09550647  0.30851481  0.84579976  1
  O  O39  1  0.72050818  0.05876581  0.97072588  1
