# generated using pymatgen
data_Ni7(PO4)6
_symmetry_space_group_name_H-M   'P 1'
_cell_length_a   8.77775652
_cell_length_b   8.77775669
_cell_length_c   6.57099621
_cell_angle_alpha   80.45166006
_cell_angle_beta   99.54834013
_cell_angle_gamma   71.58233354
_symmetry_Int_Tables_number   1
_chemical_formula_structural   Ni7(PO4)6
_chemical_formula_sum   'Ni7 P6 O24'
_cell_volume   460.62869161
_cell_formula_units_Z   1
loop_
 _symmetry_equiv_pos_site_id
 _symmetry_equiv_pos_as_xyz
  1  'x, y, z'
loop_
 _atom_site_type_symbol
 _atom_site_label
 _atom_site_symmetry_multiplicity
 _atom_site_fract_x
 _atom_site_fract_y
 _atom_site_fract_z
 _atom_site_occupancy
  Ni  Ni0  1  0.00631113  0.35624951  0.19341775  1
  Ni  Ni1  1  0.00286389  0.99713611  0.00147807  1
  Ni  Ni2  1  0.64375049  0.99368887  0.19341775  1
  Ni  Ni3  1  0.36329352  0.99541354  0.81236266  1
  Ni  Ni4  1  0.67983266  0.67097705  0.00358748  1
  Ni  Ni5  1  0.32902295  0.32016734  0.00358748  1
  Ni  Ni6  1  0.00458646  0.63670648  0.81236266  1
  P  P7  1  0.72396046  0.90581414  0.70500877  1
  P  P8  1  0.91708593  0.71640737  0.30018448  1
  P  P9  1  0.33205795  0.66794205  0.07499953  1
  P  P10  1  0.28359263  0.08291407  0.30018448  1
  P  P11  1  0.09418586  0.27603954  0.70500877  1
  P  P12  1  0.67580483  0.32419517  0.93599722  1
  O  O13  1  0.25079042  0.56902818  0.94134094  1
  O  O14  1  0.64983863  0.02288377  0.49057539  1
  O  O15  1  0.39203888  0.03875446  0.13400165  1
  O  O16  1  0.09636973  0.10867539  0.21084696  1
  O  O17  1  0.43097182  0.74920958  0.94134094  1
  O  O18  1  0.26142806  0.27123591  0.28864793  1
  O  O19  1  0.75048243  0.71647188  0.71828096  1
  O  O20  1  0.03479200  0.64704545  0.51468348  1
  O  O21  1  0.96124554  0.60796112  0.13400165  1
  O  O22  1  0.72876409  0.73857194  0.28864793  1
  O  O23  1  0.97711623  0.35016137  0.49057539  1
  O  O24  1  0.55401654  0.44598346  0.73638398  1
  O  O25  1  0.61579731  0.94756055  0.87247404  1
  O  O26  1  0.19916896  0.80083104  0.13549716  1
  O  O27  1  0.90985188  0.88539838  0.79137737  1
  O  O28  1  0.80663760  0.19336240  0.86979328  1
  O  O29  1  0.75874648  0.42204042  0.06959227  1
  O  O30  1  0.11460162  0.09014812  0.79137737  1
  O  O31  1  0.89132461  0.90363027  0.21084696  1
  O  O32  1  0.05243945  0.38420269  0.87247404  1
  O  O33  1  0.35295455  0.96520800  0.51468348  1
  O  O34  1  0.28352812  0.24951757  0.71828096  1
  O  O35  1  0.45192671  0.54807329  0.27563748  1
  O  O36  1  0.57795958  0.24125352  0.06959227  1
