# generated using pymatgen
data_YbWClO4
_symmetry_space_group_name_H-M   'P 1'
_cell_length_a   6.64099983
_cell_length_b   7.04438744
_cell_length_c   7.11921590
_cell_angle_alpha   75.35624301
_cell_angle_beta   78.70827984
_cell_angle_gamma   61.46488069
_symmetry_Int_Tables_number   1
_chemical_formula_structural   YbWClO4
_chemical_formula_sum   'Yb2 W2 Cl2 O8'
_cell_volume   281.98242758
_cell_formula_units_Z   2
loop_
 _symmetry_equiv_pos_site_id
 _symmetry_equiv_pos_as_xyz
  1  'x, y, z'
loop_
 _atom_site_type_symbol
 _atom_site_label
 _atom_site_symmetry_multiplicity
 _atom_site_fract_x
 _atom_site_fract_y
 _atom_site_fract_z
 _atom_site_occupancy
  Yb  Yb0  1  0.29736119  0.26118269  0.84207127  1
  Yb  Yb1  1  0.70263881  0.73881731  0.15792873  1
  W  W2  1  0.37529203  0.35947063  0.25728155  1
  W  W3  1  0.62470797  0.64052937  0.74271845  1
  Cl  Cl4  1  0.01717135  0.01954138  0.12851703  1
  Cl  Cl5  1  0.98282865  0.98045862  0.87148297  1
  O  O6  1  0.35722807  0.27521429  0.51752472  1
  O  O7  1  0.64277193  0.72478571  0.48247528  1
  O  O8  1  0.45176063  0.49270553  0.80700755  1
  O  O9  1  0.54823937  0.50729447  0.19299245  1
  O  O10  1  0.91251791  0.47285514  0.82235724  1
  O  O11  1  0.08748209  0.52714486  0.17764276  1
  O  O12  1  0.49170665  0.11903946  0.13942095  1
  O  O13  1  0.50829335  0.88096054  0.86057905  1
