# generated using pymatgen
data_Yb3Zn11
_symmetry_space_group_name_H-M   'P 1'
_cell_length_a   4.37711911
_cell_length_b   8.22055807
_cell_length_c   8.22055807
_cell_angle_alpha   65.69098653
_cell_angle_beta   74.55994811
_cell_angle_gamma   74.55994811
_symmetry_Int_Tables_number   1
_chemical_formula_structural   Yb3Zn11
_chemical_formula_sum   'Yb3 Zn11'
_cell_volume   255.67655851
_cell_formula_units_Z   1
loop_
 _symmetry_equiv_pos_site_id
 _symmetry_equiv_pos_as_xyz
  1  'x, y, z'
loop_
 _atom_site_type_symbol
 _atom_site_label
 _atom_site_symmetry_multiplicity
 _atom_site_fract_x
 _atom_site_fract_y
 _atom_site_fract_z
 _atom_site_occupancy
  Yb  Yb0  1  0.00000000  -0.00000000  -0.00000000  1
  Yb  Yb1  1  0.29559620  0.70440380  0.70440380  1
  Yb  Yb2  1  0.70440380  0.29559620  0.29559620  1
  Zn  Zn3  1  0.00000000  0.50000000  0.50000000  1
  Zn  Zn4  1  0.50000000  0.31541350  0.68458650  1
  Zn  Zn5  1  0.50000000  0.68458650  0.31541350  1
  Zn  Zn6  1  0.33712963  0.30586449  0.01987626  1
  Zn  Zn7  1  0.66287037  0.69413551  0.98012374  1
  Zn  Zn8  1  0.33712963  0.01987626  0.30586449  1
  Zn  Zn9  1  0.66287037  0.98012374  0.69413551  1
  Zn  Zn10  1  0.13413072  0.57756572  0.15417284  1
  Zn  Zn11  1  0.86586928  0.42243428  0.84582716  1
  Zn  Zn12  1  0.13413072  0.15417284  0.57756572  1
  Zn  Zn13  1  0.86586928  0.84582716  0.42243428  1
