# generated using pymatgen
data_FeCoPO4F
_symmetry_space_group_name_H-M   'P 1'
_cell_length_a   6.50632890
_cell_length_b   7.32744524
_cell_length_c   9.50863790
_cell_angle_alpha   71.00905427
_cell_angle_beta   69.99346284
_cell_angle_gamma   63.64255029
_symmetry_Int_Tables_number   1
_chemical_formula_structural   FeCoPO4F
_chemical_formula_sum   'Fe4 Co4 P4 O16 F4'
_cell_volume   373.48920851
_cell_formula_units_Z   4
loop_
 _symmetry_equiv_pos_site_id
 _symmetry_equiv_pos_as_xyz
  1  'x, y, z'
loop_
 _atom_site_type_symbol
 _atom_site_label
 _atom_site_symmetry_multiplicity
 _atom_site_fract_x
 _atom_site_fract_y
 _atom_site_fract_z
 _atom_site_occupancy
  Fe  Fe0  1  0.91757529  0.22718599  0.35403027  1
  Fe  Fe1  1  0.41967716  0.87632969  0.49788896  1
  Fe  Fe2  1  0.50120844  0.72718599  0.85403027  1
  Fe  Fe3  1  0.20610419  0.37632969  0.99788896  1
  Co  Co4  1  0.34860557  0.45262339  0.37229106  1
  Co  Co5  1  0.89229016  0.78540888  0.21995584  1
  Co  Co6  1  0.10234512  0.28540888  0.71995584  1
  Co  Co7  1  0.82647997  0.95262339  0.87229106  1
  P  P8  1  0.72511100  0.29865350  0.05489058  1
  P  P9  1  0.92134491  0.79865350  0.55489058  1
  P  P10  1  0.57168494  0.38218380  0.66754054  1
  P  P11  1  0.37859071  0.88218380  0.16754054  1
  O  O12  1  0.21138636  0.11455855  0.17194662  1
  O  O13  1  0.78314717  0.06798115  0.06283069  1
  O  O14  1  0.54736423  0.80620445  0.27539002  1
  O  O15  1  0.23013243  0.74486464  0.22469065  1
  O  O16  1  0.76685154  0.82969859  0.71803922  1
  O  O17  1  0.49469449  0.44428294  0.99690895  1
  O  O18  1  0.80031228  0.24486464  0.72469065  1
  O  O19  1  0.52168982  0.86720983  0.00085397  1
  O  O20  1  0.76668731  0.87043292  0.43899072  1
  O  O21  1  0.61024638  0.36720983  0.50085397  1
  O  O22  1  0.37104130  0.30620445  0.77539002  1
  O  O23  1  0.08604099  0.56798115  0.56283069  1
  O  O24  1  0.92388906  0.37043292  0.93899072  1
  O  O25  1  0.50210847  0.61455855  0.67194662  1
  O  O26  1  0.06411361  0.94428294  0.49690895  1
  O  O27  1  0.68541065  0.32969859  0.21803922  1
  F  F28  1  0.01570914  0.67802382  0.00994215  1
  F  F29  1  0.03886853  0.45765785  0.30050975  1
  F  F30  1  0.29632488  0.17802382  0.50994215  1
  F  F31  1  0.20296388  0.95765785  0.80050975  1
