# generated using pymatgen
data_Zr5Sb3Se
_symmetry_space_group_name_H-M   'P 1'
_cell_length_a   6.18073998
_cell_length_b   8.58258980
_cell_length_c   8.56386963
_cell_angle_alpha   120.07234324
_cell_angle_beta   90.00000000
_cell_angle_gamma   90.00000000
_symmetry_Int_Tables_number   1
_chemical_formula_structural   Zr5Sb3Se
_chemical_formula_sum   'Zr10 Sb6 Se2'
_cell_volume   393.13567503
_cell_formula_units_Z   2
loop_
 _symmetry_equiv_pos_site_id
 _symmetry_equiv_pos_as_xyz
  1  'x, y, z'
loop_
 _atom_site_type_symbol
 _atom_site_label
 _atom_site_symmetry_multiplicity
 _atom_site_fract_x
 _atom_site_fract_y
 _atom_site_fract_z
 _atom_site_occupancy
  Zr  Zr0  1  0.75000962  0.26083347  0.00000000  1
  Zr  Zr1  1  0.74999839  0.73901387  0.73914988  1
  Zr  Zr2  1  0.74999839  -0.00013601  0.26085012  1
  Zr  Zr3  1  0.25000962  0.73916653  1.00000000  1
  Zr  Zr4  1  0.24999839  0.26098613  0.26085012  1
  Zr  Zr5  1  0.24999839  0.00013601  0.73914988  1
  Zr  Zr6  1  0.49999905  0.33319660  0.66639352  1
  Zr  Zr7  1  0.49999905  0.66680308  0.33360648  1
  Zr  Zr8  1  0.99999905  0.66680340  0.33360648  1
  Zr  Zr9  1  0.99999905  0.33319692  0.66639352  1
  Sb  Sb10  1  0.74997852  0.60484402  0.00000000  1
  Sb  Sb11  1  0.75000285  0.39535154  0.39512942  1
  Sb  Sb12  1  0.75000285  0.00022212  0.60487058  1
  Sb  Sb13  1  0.24997852  0.39515598  1.00000000  1
  Sb  Sb14  1  0.25000285  0.60464846  0.60487058  1
  Sb  Sb15  1  0.25000285  -0.00022212  0.39512942  1
  Se  Se16  1  0.50001129  0.00000891  -0.00000000  1
  Se  Se17  1  0.00001129  0.99999109  0.00000000  1
