# generated using pymatgen
data_KBe2BO3F2
_symmetry_space_group_name_H-M   'P 1'
_cell_length_a   4.45007803
_cell_length_b   4.45007803
_cell_length_c   13.36701150
_cell_angle_alpha   80.41808812
_cell_angle_beta   80.41808812
_cell_angle_gamma   60.00000903
_symmetry_Int_Tables_number   1
_chemical_formula_structural   KBe2BO3F2
_chemical_formula_sum   'K2 Be4 B2 O6 F4'
_cell_volume   224.97071558
_cell_formula_units_Z   2
loop_
 _symmetry_equiv_pos_site_id
 _symmetry_equiv_pos_as_xyz
  1  'x, y, z'
loop_
 _atom_site_type_symbol
 _atom_site_label
 _atom_site_symmetry_multiplicity
 _atom_site_fract_x
 _atom_site_fract_y
 _atom_site_fract_z
 _atom_site_occupancy
  K  K0  1  0.50000000  0.50000000  0.50000000  1
  K  K1  1  0.00000000  0.00000000  -0.00000000  1
  Be  Be2  1  0.90191863  0.90191763  0.29424611  1
  Be  Be3  1  0.40191863  0.40191763  0.79424611  1
  Be  Be4  1  0.09808137  0.09808237  0.70575389  1
  Be  Be5  1  0.59808137  0.59808237  0.20575389  1
  B  B6  1  0.25000000  0.25000000  0.25000000  1
  B  B7  1  0.75000000  0.75000000  0.75000000  1
  O  O8  1  0.94002453  0.25000000  0.25000000  1
  O  O9  1  0.25000000  0.55997447  0.25000000  1
  O  O10  1  0.55997447  0.94002453  0.25000000  1
  O  O11  1  0.44002453  0.05997447  0.75000000  1
  O  O12  1  0.05997447  0.75000000  0.75000000  1
  O  O13  1  0.75000000  0.44002453  0.75000000  1
  F  F14  1  0.86256199  0.86256099  0.41231602  1
  F  F15  1  0.36256199  0.36256099  0.91231602  1
  F  F16  1  0.13743801  0.13743901  0.58768398  1
  F  F17  1  0.63743801  0.63743901  0.08768398  1
