# generated using pymatgen
data_Dy3Zn11
_symmetry_space_group_name_H-M   'P 1'
_cell_length_a   4.43890335
_cell_length_b   8.14192562
_cell_length_c   8.14192562
_cell_angle_alpha   65.65937133
_cell_angle_beta   74.18123499
_cell_angle_gamma   74.18123499
_symmetry_Int_Tables_number   1
_chemical_formula_structural   Dy3Zn11
_chemical_formula_sum   'Dy3 Zn11'
_cell_volume   253.60307558
_cell_formula_units_Z   1
loop_
 _symmetry_equiv_pos_site_id
 _symmetry_equiv_pos_as_xyz
  1  'x, y, z'
loop_
 _atom_site_type_symbol
 _atom_site_label
 _atom_site_symmetry_multiplicity
 _atom_site_fract_x
 _atom_site_fract_y
 _atom_site_fract_z
 _atom_site_occupancy
  Dy  Dy0  1  0.00000000  0.00000000  -0.00000000  1
  Dy  Dy1  1  0.29377987  0.70622013  0.70622013  1
  Dy  Dy2  1  0.70622013  0.29377987  0.29377987  1
  Zn  Zn3  1  0.00000000  0.50000000  0.50000000  1
  Zn  Zn4  1  0.50000000  0.31795236  0.68204764  1
  Zn  Zn5  1  0.50000000  0.68204764  0.31795236  1
  Zn  Zn6  1  0.34051829  0.30054496  0.01841846  1
  Zn  Zn7  1  0.65948171  0.69945504  0.98158154  1
  Zn  Zn8  1  0.34051829  0.01841846  0.30054496  1
  Zn  Zn9  1  0.65948171  0.98158154  0.69945504  1
  Zn  Zn10  1  0.13794225  0.58202664  0.14208886  1
  Zn  Zn11  1  0.86205775  0.41797336  0.85791114  1
  Zn  Zn12  1  0.13794225  0.14208886  0.58202664  1
  Zn  Zn13  1  0.86205775  0.85791114  0.41797336  1
