# generated using pymatgen
data_B2O3
_symmetry_space_group_name_H-M   'P 1'
_cell_length_a   4.40162513
_cell_length_b   4.40162512
_cell_length_c   8.83099164
_cell_angle_alpha   90.00000000
_cell_angle_beta   90.00000000
_cell_angle_gamma   120.00000203
_symmetry_Int_Tables_number   1
_chemical_formula_structural   B2O3
_chemical_formula_sum   'B6 O9'
_cell_volume   148.17201965
_cell_formula_units_Z   3
loop_
 _symmetry_equiv_pos_site_id
 _symmetry_equiv_pos_as_xyz
  1  'x, y, z'
loop_
 _atom_site_type_symbol
 _atom_site_label
 _atom_site_symmetry_multiplicity
 _atom_site_fract_x
 _atom_site_fract_y
 _atom_site_fract_z
 _atom_site_occupancy
  B  B0  1  0.44605669  0.92706270  0.32688668  1
  B  B1  1  0.07293730  0.51899400  0.66022068  1
  B  B2  1  0.48100600  0.55394331  0.99355368  1
  B  B3  1  0.88361075  0.15171014  0.10861559  1
  B  B4  1  0.84828986  0.73190060  0.44194959  1
  B  B5  1  0.26809940  0.11638925  0.77528259  1
  O  O6  1  0.12977135  0.91721257  0.34685546  1
  O  O7  1  0.08278743  0.21255879  0.68018946  1
  O  O8  1  0.78744121  0.87022865  0.01352246  1
  O  O9  1  0.66860056  0.15676472  0.21974107  1
  O  O10  1  0.84323528  0.51183584  0.55307507  1
  O  O11  1  0.48816416  0.33139944  0.88640807  1
  O  O12  1  0.26143544  0.80176175  0.75456619  1
  O  O13  1  0.19823825  0.45967369  0.08790019  1
  O  O14  1  0.54032631  0.73856456  0.42123319  1
