# generated using pymatgen
data_Ba2Cd2Sb3
_symmetry_space_group_name_H-M   'P 1'
_cell_length_a   4.91948334
_cell_length_b   9.49659402
_cell_length_c   11.26340456
_cell_angle_alpha   81.94387552
_cell_angle_beta   77.38589431
_cell_angle_gamma   74.98849261
_symmetry_Int_Tables_number   1
_chemical_formula_structural   Ba2Cd2Sb3
_chemical_formula_sum   'Ba4 Cd4 Sb6'
_cell_volume   494.02870991
_cell_formula_units_Z   2
loop_
 _symmetry_equiv_pos_site_id
 _symmetry_equiv_pos_as_xyz
  1  'x, y, z'
loop_
 _atom_site_type_symbol
 _atom_site_label
 _atom_site_symmetry_multiplicity
 _atom_site_fract_x
 _atom_site_fract_y
 _atom_site_fract_z
 _atom_site_occupancy
  Ba  Ba0  1  0.26407047  0.13443168  0.33742738  1
  Ba  Ba1  1  0.73592953  0.86556832  0.66257262  1
  Ba  Ba2  1  0.39806599  0.25967029  0.94419773  1
  Ba  Ba3  1  0.60193401  0.74032971  0.05580227  1
  Cd  Cd4  1  0.04120754  0.22814123  0.68944369  1
  Cd  Cd5  1  0.95879246  0.77185877  0.31055631  1
  Cd  Cd6  1  0.40875755  0.52843944  0.65404546  1
  Cd  Cd7  1  0.59124245  0.47156056  0.34595454  1
  Sb  Sb8  1  0.07993114  0.96457211  0.87556560  1
  Sb  Sb9  1  0.92006886  0.03542789  0.12443440  1
  Sb  Sb10  1  0.15577286  0.49322128  0.19523299  1
  Sb  Sb11  1  0.84422714  0.50677872  0.80476701  1
  Sb  Sb12  1  0.38670170  0.76819897  0.45839762  1
  Sb  Sb13  1  0.61329830  0.23180103  0.54160238  1
