# generated using pymatgen
data_SrP2
_symmetry_space_group_name_H-M   'P 1'
_cell_length_a   6.17399764
_cell_length_b   6.26350082
_cell_length_c   11.91229558
_cell_angle_alpha   90.00000000
_cell_angle_beta   90.00000000
_cell_angle_gamma   105.71212018
_symmetry_Int_Tables_number   1
_chemical_formula_structural   SrP2
_chemical_formula_sum   'Sr6 P12'
_cell_volume   443.44572631
_cell_formula_units_Z   6
loop_
 _symmetry_equiv_pos_site_id
 _symmetry_equiv_pos_as_xyz
  1  'x, y, z'
loop_
 _atom_site_type_symbol
 _atom_site_label
 _atom_site_symmetry_multiplicity
 _atom_site_fract_x
 _atom_site_fract_y
 _atom_site_fract_z
 _atom_site_occupancy
  Sr  Sr0  1  0.10293274  0.31508663  0.16652057  1
  Sr  Sr1  1  0.39706726  0.18491337  0.66652057  1
  Sr  Sr2  1  0.89706726  0.68491337  0.83347943  1
  Sr  Sr3  1  0.60293274  0.81508663  0.33347943  1
  Sr  Sr4  1  0.00000000  0.50000000  0.50000000  1
  Sr  Sr5  1  0.50000000  0.00000000  0.00000000  1
  P  P6  1  0.35557132  0.28802015  0.40025986  1
  P  P7  1  0.14442868  0.21197985  0.90025986  1
  P  P8  1  0.64442868  0.71197985  0.59974014  1
  P  P9  1  0.85557132  0.78802015  0.09974014  1
  P  P10  1  0.64072163  0.43937007  0.12912255  1
  P  P11  1  0.85927837  0.06062993  0.62912255  1
  P  P12  1  0.35927837  0.56062993  0.87087745  1
  P  P13  1  0.14072163  0.93937007  0.37087745  1
  P  P14  1  0.67158532  0.33375159  0.30474105  1
  P  P15  1  0.82841468  0.16624841  0.80474105  1
  P  P16  1  0.32841468  0.66624841  0.69525895  1
  P  P17  1  0.17158532  0.83375159  0.19525895  1
