# generated using pymatgen
data_ZrSi
_symmetry_space_group_name_H-M   'P 1'
_cell_length_a   3.77612694
_cell_length_b   3.78647248
_cell_length_c   5.32618775
_cell_angle_alpha   110.82151900
_cell_angle_beta   90.00000000
_cell_angle_gamma   90.00000000
_symmetry_Int_Tables_number   1
_chemical_formula_structural   ZrSi
_chemical_formula_sum   'Zr2 Si2'
_cell_volume   71.18139552
_cell_formula_units_Z   2
loop_
 _symmetry_equiv_pos_site_id
 _symmetry_equiv_pos_as_xyz
  1  'x, y, z'
loop_
 _atom_site_type_symbol
 _atom_site_label
 _atom_site_symmetry_multiplicity
 _atom_site_fract_x
 _atom_site_fract_y
 _atom_site_fract_z
 _atom_site_occupancy
  Si  Si0  1  0.25000000  0.07884551  0.15769102  1
  Si  Si1  1  0.75000000  0.92115449  0.84230898  1
  Zr  Zr2  1  0.25000000  0.35515581  0.71031161  1
  Zr  Zr3  1  0.75000000  0.64484419  0.28968839  1
