# generated using pymatgen
data_LiMn16O32
_symmetry_space_group_name_H-M   'P 1'
_cell_length_a   5.88925788
_cell_length_b   5.78672198
_cell_length_c   23.44169530
_cell_angle_alpha   60.41515113
_cell_angle_beta   58.70389276
_cell_angle_gamma   60.57428430
_symmetry_Int_Tables_number   1
_chemical_formula_structural   LiMn16O32
_chemical_formula_sum   'Li1 Mn16 O32'
_cell_volume   563.21815109
_cell_formula_units_Z   1
loop_
 _symmetry_equiv_pos_site_id
 _symmetry_equiv_pos_as_xyz
  1  'x, y, z'
loop_
 _atom_site_type_symbol
 _atom_site_label
 _atom_site_symmetry_multiplicity
 _atom_site_fract_x
 _atom_site_fract_y
 _atom_site_fract_z
 _atom_site_occupancy
  Li  Li0  1  0.86321821  0.87266851  0.97286119  1
  Mn  Mn1  1  0.48071719  0.49933838  0.00515151  1
  Mn  Mn2  1  0.49874263  0.00562710  0.12387996  1
  Mn  Mn3  1  0.49874263  0.50011042  0.12387996  1
  Mn  Mn4  1  0.49375069  0.00279859  0.37701543  1
  Mn  Mn5  1  0.47160755  0.50367354  0.25526134  1
  Mn  Mn6  1  0.49375069  0.49538901  0.37701543  1
  Mn  Mn7  1  0.00957245  0.49987674  0.62266851  1
  Mn  Mn8  1  0.99838167  0.99778378  0.37651269  1
  Mn  Mn9  1  0.53304969  0.49291643  0.49527936  1
  Mn  Mn10  1  0.50572064  0.99975916  0.62376603  1
  Mn  Mn11  1  0.84935290  0.88711696  0.21910329  1
  Mn  Mn12  1  0.50572064  0.49945609  0.62376603  1
  Mn  Mn13  1  0.99919743  0.50162376  0.87438876  1
  Mn  Mn14  1  0.50341331  0.50116394  0.74856470  1
  Mn  Mn15  1  0.50005859  0.00169188  0.87444858  1
  Mn  Mn16  1  0.50005859  0.50045520  0.87444858  1
  O  O17  1  0.30216882  0.23774615  0.06144306  1
  O  O18  1  0.28816929  0.25274886  0.17658325  1
  O  O19  1  0.30216882  0.71431278  0.06144306  1
  O  O20  1  0.70699160  0.26943849  0.06353286  1
  O  O21  1  0.27107951  0.22241091  0.32062230  1
  O  O22  1  0.27152996  0.74197714  0.18612894  1
  O  O23  1  0.70147239  0.28863753  0.18919975  1
  O  O24  1  0.28765534  0.24584111  0.43016561  1
  O  O25  1  0.71163745  0.74735924  0.07341102  1
  O  O26  1  0.27107951  0.72402038  0.32062230  1
  O  O27  1  0.70147239  0.75309107  0.18919975  1
  O  O28  1  0.71023550  0.25951548  0.31768339  1
  O  O29  1  0.28124312  0.25844689  0.56526171  1
  O  O30  1  0.28984523  0.73562130  0.43472804  1
  O  O31  1  0.72411132  0.74761706  0.32016364  1
  O  O32  1  0.72331381  0.27562901  0.43187207  1
  O  O33  1  0.28124312  0.69926315  0.56526171  1
  O  O34  1  0.26293979  0.26861981  0.67495515  1
  O  O35  1  0.72331381  0.77356889  0.43187207  1
  O  O36  1  0.71685682  0.26354250  0.56401455  1
  O  O37  1  0.29955300  0.73119557  0.68451397  1
  O  O38  1  0.27027644  0.25807287  0.81677248  1
  O  O39  1  0.73481302  0.29677936  0.68202983  1
  O  O40  1  0.74735180  0.73147036  0.57242687  1
  O  O41  1  0.25735366  0.26982895  0.92574711  1
  O  O42  1  0.27027644  0.70456078  0.81677248  1
  O  O43  1  0.70480330  0.26860170  0.81449832  1
  O  O44  1  0.73481302  0.74028831  0.68202983  1
  O  O45  1  0.28745791  0.73598798  0.93514153  1
  O  O46  1  0.74055129  0.73259830  0.82356303  1
  O  O47  1  0.73458352  0.29405017  0.93141447  1
  O  O48  1  0.73458352  0.74570843  0.93141447  1
