# generated using pymatgen
data_Rb2ErAgCl6
_symmetry_space_group_name_H-M   'P 1'
_cell_length_a   7.59013893
_cell_length_b   7.59013926
_cell_length_c   7.59013924
_cell_angle_alpha   59.99999885
_cell_angle_beta   59.99999834
_cell_angle_gamma   59.99999843
_symmetry_Int_Tables_number   1
_chemical_formula_structural   Rb2ErAgCl6
_chemical_formula_sum   'Rb2 Er1 Ag1 Cl6'
_cell_volume   309.19623715
_cell_formula_units_Z   1
loop_
 _symmetry_equiv_pos_site_id
 _symmetry_equiv_pos_as_xyz
  1  'x, y, z'
loop_
 _atom_site_type_symbol
 _atom_site_label
 _atom_site_symmetry_multiplicity
 _atom_site_fract_x
 _atom_site_fract_y
 _atom_site_fract_z
 _atom_site_occupancy
  Rb  Rb0  1  0.25000000  0.25000000  0.25000000  1
  Rb  Rb1  1  0.75000000  0.75000000  0.75000000  1
  Er  Er2  1  0.00000000  -0.00000000  -0.00000000  1
  Ag  Ag3  1  0.50000000  0.50000000  0.50000000  1
  Cl  Cl4  1  0.24344607  0.75655393  0.24344607  1
  Cl  Cl5  1  0.75655393  0.75655393  0.24344607  1
  Cl  Cl6  1  0.75655393  0.24344607  0.75655393  1
  Cl  Cl7  1  0.75655393  0.24344607  0.24344607  1
  Cl  Cl8  1  0.24344607  0.75655393  0.75655393  1
  Cl  Cl9  1  0.24344607  0.24344607  0.75655393  1
