# generated using pymatgen
data_H2
_symmetry_space_group_name_H-M   'P 1'
_cell_length_a   7.19411796
_cell_length_b   7.21549679
_cell_length_c   7.17773918
_cell_angle_alpha   90.00000000
_cell_angle_beta   90.00000000
_cell_angle_gamma   90.00000000
_symmetry_Int_Tables_number   1
_chemical_formula_structural   H2
_chemical_formula_sum   H8
_cell_volume   372.59023243
_cell_formula_units_Z   4
loop_
 _symmetry_equiv_pos_site_id
 _symmetry_equiv_pos_as_xyz
  1  'x, y, z'
loop_
 _atom_site_type_symbol
 _atom_site_label
 _atom_site_symmetry_multiplicity
 _atom_site_fract_x
 _atom_site_fract_y
 _atom_site_fract_z
 _atom_site_occupancy
  H  H0  1  0.72221705  0.64677911  0.36560252  1
  H  H1  1  0.77778295  0.35322089  0.86560252  1
  H  H2  1  0.22221705  0.85322089  0.63439748  1
  H  H3  1  0.27778295  0.14677911  0.13439748  1
  H  H4  1  0.14877623  0.77978885  0.64459115  1
  H  H5  1  0.35122377  0.22021115  0.14459115  1
  H  H6  1  0.64877623  0.72021115  0.35540885  1
  H  H7  1  0.85122377  0.27978885  0.85540885  1
