# generated using pymatgen
data_NdP3(H4O5)3
_symmetry_space_group_name_H-M   'P 1'
_cell_length_a   8.92140713
_cell_length_b   11.61737874
_cell_length_c   12.79237005
_cell_angle_alpha   90.00000000
_cell_angle_beta   94.64434324
_cell_angle_gamma   90.00000000
_symmetry_Int_Tables_number   1
_chemical_formula_structural   NdP3(H4O5)3
_chemical_formula_sum   'Nd4 P12 H48 O60'
_cell_volume   1321.49088953
_cell_formula_units_Z   4
loop_
 _symmetry_equiv_pos_site_id
 _symmetry_equiv_pos_as_xyz
  1  'x, y, z'
loop_
 _atom_site_type_symbol
 _atom_site_label
 _atom_site_symmetry_multiplicity
 _atom_site_fract_x
 _atom_site_fract_y
 _atom_site_fract_z
 _atom_site_occupancy
  Nd  Nd0  1  0.31316265  0.90157527  0.30002778  1
  Nd  Nd1  1  0.68683735  0.40157527  0.19997222  1
  Nd  Nd2  1  0.68683735  0.09842473  0.69997222  1
  Nd  Nd3  1  0.31316265  0.59842473  0.80002778  1
  P  P4  1  0.58559352  0.09448773  0.17844494  1
  P  P5  1  0.41440648  0.59448773  0.32155506  1
  P  P6  1  0.41440648  0.90551227  0.82155506  1
  P  P7  1  0.58559352  0.40551227  0.67844494  1
  P  P8  1  0.53726370  0.21668961  0.97444725  1
  P  P9  1  0.46273630  0.71668961  0.52555275  1
  P  P10  1  0.46273630  0.78331039  0.02555275  1
  P  P11  1  0.53726370  0.28331039  0.47444725  1
  P  P12  1  0.67172347  0.85590388  0.22381980  1
  P  P13  1  0.32827653  0.35590388  0.27618020  1
  P  P14  1  0.32827653  0.14409612  0.77618020  1
  P  P15  1  0.67172347  0.64409612  0.72381980  1
  H  H16  1  0.05304515  0.86562127  0.44605204  1
  H  H17  1  0.94695485  0.36562127  0.05394796  1
  H  H18  1  0.94695485  0.13437873  0.55394796  1
  H  H19  1  0.05304515  0.63437873  0.94605204  1
  H  H20  1  0.96542429  0.83575631  0.33148058  1
  H  H21  1  0.03457571  0.33575631  0.16851942  1
  H  H22  1  0.03457571  0.16424369  0.66851942  1
  H  H23  1  0.96542429  0.66424369  0.83148058  1
  H  H24  1  0.61684884  0.79265245  0.41478762  1
  H  H25  1  0.38315116  0.29265245  0.08521238  1
  H  H26  1  0.38315116  0.20734755  0.58521238  1
  H  H27  1  0.61684884  0.70734755  0.91478762  1
  H  H28  1  0.23212273  0.86279115  0.04498050  1
  H  H29  1  0.76787727  0.36279115  0.45501950  1
  H  H30  1  0.76787727  0.13720885  0.95501950  1
  H  H31  1  0.23212273  0.63720885  0.54498050  1
  H  H32  1  0.31504478  0.11951093  0.45991554  1
  H  H33  1  0.68495522  0.61951093  0.04008446  1
  H  H34  1  0.68495522  0.88048907  0.54008446  1
  H  H35  1  0.31504478  0.38048907  0.95991554  1
  H  H36  1  0.28845752  0.99288903  0.50430421  1
  H  H37  1  0.71154248  0.49288903  0.99569579  1
  H  H38  1  0.71154248  0.00711097  0.49569579  1
  H  H39  1  0.28845752  0.50711097  0.00430421  1
  H  H40  1  0.16838335  0.13638918  0.24200816  1
  H  H41  1  0.83161665  0.63638918  0.25799184  1
  H  H42  1  0.83161665  0.86361082  0.75799184  1
  H  H43  1  0.16838335  0.36361082  0.74200816  1
  H  H44  1  0.07175611  0.06389655  0.15905501  1
  H  H45  1  0.92824389  0.56389655  0.34094499  1
  H  H46  1  0.92824389  0.93610345  0.84094499  1
  H  H47  1  0.07175611  0.43610345  0.65905501  1
  H  H48  1  0.08245679  0.68733904  0.41174248  1
  H  H49  1  0.91754321  0.18733904  0.08825752  1
  H  H50  1  0.91754321  0.31266096  0.58825752  1
  H  H51  1  0.08245679  0.81266096  0.91174248  1
  H  H52  1  0.14348859  0.56049870  0.40369472  1
  H  H53  1  0.85651141  0.06049870  0.09630528  1
  H  H54  1  0.85651141  0.43950130  0.59630528  1
  H  H55  1  0.14348859  0.93950130  0.90369472  1
  H  H56  1  0.99185059  0.08531405  0.36980460  1
  H  H57  1  0.00814941  0.58531405  0.13019540  1
  H  H58  1  0.00814941  0.91468595  0.63019540  1
  H  H59  1  0.99185059  0.41468595  0.86980460  1
  H  H60  1  0.16157155  0.85126998  0.62363134  1
  H  H61  1  0.83842845  0.35126998  0.87636866  1
  H  H62  1  0.83842845  0.14873002  0.37636866  1
  H  H63  1  0.16157155  0.64873002  0.12363134  1
  O  O64  1  0.44887875  0.06381373  0.23320273  1
  O  O65  1  0.55112125  0.56381373  0.26679727  1
  O  O66  1  0.55112125  0.93618627  0.76679727  1
  O  O67  1  0.44887875  0.43618627  0.73320273  1
  O  O68  1  0.68234886  0.19369218  0.21951099  1
  O  O69  1  0.31765114  0.69369218  0.28048901  1
  O  O70  1  0.31765114  0.80630782  0.78048901  1
  O  O71  1  0.68234886  0.30630782  0.71951099  1
  O  O72  1  0.54616390  0.10433859  0.05547701  1
  O  O73  1  0.45383610  0.60433859  0.44452299  1
  O  O74  1  0.45383610  0.89566141  0.94452299  1
  O  O75  1  0.54616390  0.39566141  0.55547701  1
  O  O76  1  0.67844613  0.15266272  0.90576017  1
  O  O77  1  0.32155387  0.65266272  0.59423983  1
  O  O78  1  0.32155387  0.84733728  0.09423983  1
  O  O79  1  0.67844613  0.34733728  0.40576017  1
  O  O80  1  0.63120780  0.31888678  0.01793527  1
  O  O81  1  0.36879220  0.81888678  0.48206473  1
  O  O82  1  0.36879220  0.68111322  0.98206473  1
  O  O83  1  0.63120780  0.18111322  0.51793527  1
  O  O84  1  0.44112014  0.20553309  0.85817871  1
  O  O85  1  0.55887986  0.70553309  0.64182129  1
  O  O86  1  0.55887986  0.79446691  0.14182129  1
  O  O87  1  0.44112014  0.29446691  0.35817871  1
  O  O88  1  0.82045176  0.79642178  0.24095038  1
  O  O89  1  0.17954824  0.29642178  0.25904962  1
  O  O90  1  0.17954824  0.20357822  0.75904962  1
  O  O91  1  0.82045176  0.70357822  0.74095038  1
  O  O92  1  0.58211456  0.87219544  0.31920436  1
  O  O93  1  0.41788544  0.37219544  0.18079564  1
  O  O94  1  0.41788544  0.12780456  0.68079564  1
  O  O95  1  0.58211456  0.62780456  0.81920436  1
  O  O96  1  0.70058418  0.98370836  0.17781715  1
  O  O97  1  0.29941582  0.48370836  0.32218285  1
  O  O98  1  0.29941582  0.01629164  0.82218285  1
  O  O99  1  0.70058418  0.51629164  0.67781715  1
  O  O100  1  0.06515293  0.83769934  0.37327997  1
  O  O101  1  0.93484707  0.33769934  0.12672003  1
  O  O102  1  0.93484707  0.16230066  0.62672003  1
  O  O103  1  0.06515293  0.66230066  0.87327997  1
  O  O104  1  0.63126913  0.74241862  0.98668031  1
  O  O105  1  0.36873087  0.24241862  0.51331969  1
  O  O106  1  0.36873087  0.25758138  0.01331969  1
  O  O107  1  0.63126913  0.75758138  0.48668031  1
  O  O108  1  0.28322357  0.03816741  0.43956278  1
  O  O109  1  0.71677643  0.53816741  0.06043722  1
  O  O110  1  0.71677643  0.96183259  0.56043722  1
  O  O111  1  0.28322357  0.46183259  0.93956278  1
  O  O112  1  0.12828792  0.05734563  0.22917424  1
  O  O113  1  0.87171208  0.55734563  0.27082576  1
  O  O114  1  0.87171208  0.94265437  0.77082576  1
  O  O115  1  0.12828792  0.44265437  0.72917424  1
  O  O116  1  0.07527227  0.60835413  0.44150092  1
  O  O117  1  0.92472773  0.10835413  0.05849908  1
  O  O118  1  0.92472773  0.39164587  0.55849908  1
  O  O119  1  0.07527227  0.89164587  0.94150092  1
  O  O120  1  0.91285968  0.10122713  0.41668391  1
  O  O121  1  0.08714032  0.60122713  0.08331609  1
  O  O122  1  0.08714032  0.89877287  0.58331609  1
  O  O123  1  0.91285968  0.39877287  0.91668391  1
