# generated using pymatgen
data_RhSCl5
_symmetry_space_group_name_H-M   'P 1'
_cell_length_a   7.07664531
_cell_length_b   13.99817163
_cell_length_c   24.30704953
_cell_angle_alpha   87.58509937
_cell_angle_beta   81.52628720
_cell_angle_gamma   75.29422746
_symmetry_Int_Tables_number   1
_chemical_formula_structural   RhSCl5
_chemical_formula_sum   'Rh12 S12 Cl60'
_cell_volume   2303.53015173
_cell_formula_units_Z   12
loop_
 _symmetry_equiv_pos_site_id
 _symmetry_equiv_pos_as_xyz
  1  'x, y, z'
loop_
 _atom_site_type_symbol
 _atom_site_label
 _atom_site_symmetry_multiplicity
 _atom_site_fract_x
 _atom_site_fract_y
 _atom_site_fract_z
 _atom_site_occupancy
  Rh  Rh0  1  0.15723725  0.71838583  0.06198162  1
  Rh  Rh1  1  0.93699795  0.79388489  0.58416198  1
  Rh  Rh2  1  0.68346013  0.29417824  0.08449186  1
  Rh  Rh3  1  0.35983417  0.51091436  0.14725781  1
  Rh  Rh4  1  0.06088757  0.20509773  0.41498574  1
  Rh  Rh5  1  0.93468026  0.78212097  0.43755951  1
  Rh  Rh6  1  0.84377426  0.28223362  0.93788636  1
  Rh  Rh7  1  0.31756680  0.70530903  0.91542822  1
  Rh  Rh8  1  0.01542790  0.98857325  0.35241253  1
  Rh  Rh9  1  0.98312683  0.01020874  0.64713333  1
  Rh  Rh10  1  0.06467925  0.21754184  0.56180046  1
  Rh  Rh11  1  0.64092372  0.48869610  0.85265797  1
  S  S12  1  0.70232562  0.13141081  0.08611664  1
  S  S13  1  0.07907954  0.63103094  0.58526036  1
  S  S14  1  0.45783145  0.51405527  0.78247928  1
  S  S15  1  0.91990744  0.36805129  0.41328648  1
  S  S16  1  0.29716283  0.86818263  0.91288791  1
  S  S17  1  0.86790456  0.74293009  0.11826338  1
  S  S18  1  0.54438123  0.48557642  0.21704947  1
  S  S19  1  0.13295023  0.25768549  0.88144360  1
  S  S20  1  0.24381306  0.01350618  0.28204936  1
  S  S21  1  0.75429907  0.98614898  0.71753222  1
  S  S22  1  0.27282430  0.24196334  0.61807287  1
  S  S23  1  0.72626006  0.75792169  0.38139071  1
  Cl  Cl24  1  0.78399969  0.95674556  0.43230331  1
  Cl  Cl25  1  0.55446879  0.89051735  0.93151955  1
  Cl  Cl26  1  0.68267792  0.08562504  0.16688275  1
  Cl  Cl27  1  0.37733333  0.60999769  0.56648854  1
  Cl  Cl28  1  0.85192939  0.18182700  0.49853218  1
  Cl  Cl29  1  0.62129794  0.38937911  0.43105659  1
  Cl  Cl30  1  0.14330191  0.71266629  0.83989361  1
  Cl  Cl31  1  0.94071949  0.41477380  0.33272004  1
  Cl  Cl32  1  0.46897793  0.68142155  0.99831397  1
  Cl  Cl33  1  0.65893898  0.84274726  0.08177003  1
  Cl  Cl34  1  0.58039159  0.65822830  0.41803387  1
  Cl  Cl35  1  0.85641002  0.15917645  0.35782710  1
  Cl  Cl36  1  0.62484013  0.65893615  0.85780864  1
  Cl  Cl37  1  0.15817167  0.81628082  0.36091869  1
  Cl  Cl38  1  0.82388872  0.45680875  0.93236977  1
  Cl  Cl39  1  0.45282281  0.61110616  0.26447122  1
  Cl  Cl40  1  0.11511719  0.31983471  0.68593526  1
  Cl  Cl41  1  0.84658639  0.11503386  0.94284179  1
  Cl  Cl42  1  0.98486539  0.26412030  0.02162278  1
  Cl  Cl43  1  0.69462784  0.78518603  0.65971242  1
  Cl  Cl44  1  0.21376033  0.04256122  0.56714553  1
  Cl  Cl45  1  0.67777412  0.11126939  0.76521203  1
  Cl  Cl46  1  0.44379202  0.11091894  0.06730262  1
  Cl  Cl47  1  0.06239437  0.58455635  0.66588667  1
  Cl  Cl48  1  0.10886387  0.11046526  0.22675887  1
  Cl  Cl49  1  0.84192069  0.18292015  0.63860897  1
  Cl  Cl50  1  0.66205216  0.31627799  0.86143913  1
  Cl  Cl51  1  0.41839870  0.34181486  0.58158265  1
  Cl  Cl52  1  0.85884485  0.28507062  0.15989346  1
  Cl  Cl53  1  0.14019870  0.83945243  0.64186142  1
  Cl  Cl54  1  0.32806443  0.88696258  0.23530709  1
  Cl  Cl55  1  0.33602327  0.52801964  0.91607044  1
  Cl  Cl56  1  0.90433490  0.38479559  0.55759647  1
  Cl  Cl57  1  0.80181245  0.95698623  0.29451446  1
  Cl  Cl58  1  0.72863007  0.76360482  0.52154565  1
  Cl  Cl59  1  0.15679485  0.88531305  0.05743829  1
  Cl  Cl60  1  0.33832876  0.68338907  0.13855826  1
  Cl  Cl61  1  0.12267756  0.17939714  0.81371914  1
  Cl  Cl62  1  0.45529776  0.38704158  0.27208643  1
  Cl  Cl63  1  0.21789284  0.02759459  0.41550011  1
  Cl  Cl64  1  0.31591488  0.91250496  0.83186150  1
  Cl  Cl65  1  0.53215613  0.31896922  0.00161085  1
  Cl  Cl66  1  0.54766557  0.61304426  0.72788125  1
  Cl  Cl67  1  0.30097535  0.21214348  0.33860750  1
  Cl  Cl68  1  0.17503471  0.54383468  0.06784616  1
  Cl  Cl69  1  0.66478675  0.47149588  0.08398380  1
  Cl  Cl70  1  0.05736095  0.54235985  0.20588672  1
  Cl  Cl71  1  0.26991117  0.23586723  0.47744533  1
  Cl  Cl72  1  0.14611454  0.81867477  0.50099934  1
  Cl  Cl73  1  0.09596741  0.61498378  0.44174675  1
  Cl  Cl74  1  0.87849999  0.82052976  0.18621936  1
  Cl  Cl75  1  0.34147161  0.15801269  0.91818392  1
  Cl  Cl76  1  0.77891029  0.97151886  0.58436728  1
  Cl  Cl77  1  0.55140405  0.38896195  0.73463472  1
  Cl  Cl78  1  0.88351372  0.67988081  0.31356666  1
  Cl  Cl79  1  0.19835994  0.04042480  0.70492028  1
  Cl  Cl80  1  0.88567309  0.88626801  0.77213740  1
  Cl  Cl81  1  0.37627735  0.34046090  0.14226547  1
  Cl  Cl82  1  0.94448123  0.45681062  0.79460841  1
  Cl  Cl83  1  0.01590098  0.73715210  0.97824485  1
