# generated using pymatgen
data_Li3CuS2
_symmetry_space_group_name_H-M   'P 1'
_cell_length_a   6.05299736
_cell_length_b   6.97130473
_cell_length_c   5.69179717
_cell_angle_alpha   65.90627571
_cell_angle_beta   90.00000000
_cell_angle_gamma   64.26963153
_symmetry_Int_Tables_number   1
_chemical_formula_structural   Li3CuS2
_chemical_formula_sum   'Li6 Cu2 S4'
_cell_volume   192.87287584
_cell_formula_units_Z   2
loop_
 _symmetry_equiv_pos_site_id
 _symmetry_equiv_pos_as_xyz
  1  'x, y, z'
loop_
 _atom_site_type_symbol
 _atom_site_label
 _atom_site_symmetry_multiplicity
 _atom_site_fract_x
 _atom_site_fract_y
 _atom_site_fract_z
 _atom_site_occupancy
  Li  Li0  1  0.48253309  0.53493382  0.23253309  1
  Li  Li1  1  0.98253309  0.53493382  0.23253309  1
  Li  Li2  1  0.25000000  0.00000000  0.50000000  1
  Li  Li3  1  0.75000000  0.00000000  0.50000000  1
  Li  Li4  1  0.01746691  0.46506618  0.76746691  1
  Li  Li5  1  0.51746691  0.46506618  0.76746691  1
  Cu  Cu6  1  -0.00000000  -0.00000000  -0.00000000  1
  Cu  Cu7  1  0.50000000  0.00000000  -0.00000000  1
  S  S8  1  0.36576646  0.26846708  0.14100532  1
  S  S9  1  0.86576646  0.26846708  0.59052660  1
  S  S10  1  0.13423354  0.73153292  0.40947340  1
  S  S11  1  0.63423354  0.73153292  0.85899468  1
