# generated using pymatgen
data_H2
_symmetry_space_group_name_H-M   'P 1'
_cell_length_a   6.03940405
_cell_length_b   9.85426644
_cell_length_c   4.37263865
_cell_angle_alpha   90.00000000
_cell_angle_beta   90.00000000
_cell_angle_gamma   90.00000000
_symmetry_Int_Tables_number   1
_chemical_formula_structural   H2
_chemical_formula_sum   H16
_cell_volume   260.23276469
_cell_formula_units_Z   8
loop_
 _symmetry_equiv_pos_site_id
 _symmetry_equiv_pos_as_xyz
  1  'x, y, z'
loop_
 _atom_site_type_symbol
 _atom_site_label
 _atom_site_symmetry_multiplicity
 _atom_site_fract_x
 _atom_site_fract_y
 _atom_site_fract_z
 _atom_site_occupancy
  H  H0  1  0.53531105  0.75000000  0.25670933  1
  H  H1  1  0.03531105  0.75000000  0.24329067  1
  H  H2  1  0.46468895  0.25000000  0.74329067  1
  H  H3  1  0.96468895  0.25000000  0.75670933  1
  H  H4  1  0.60267502  0.75000000  0.40090216  1
  H  H5  1  0.10267502  0.75000000  0.09909784  1
  H  H6  1  0.39732498  0.25000000  0.59909784  1
  H  H7  1  0.89732498  0.25000000  0.90090216  1
  H  H8  1  0.44492073  0.99528245  0.03843023  1
  H  H9  1  0.94492073  0.50471755  0.46156977  1
  H  H10  1  0.55507927  0.49528245  0.96156977  1
  H  H11  1  0.05507927  0.00471755  0.53843023  1
  H  H12  1  0.55507927  0.00471755  0.96156977  1
  H  H13  1  0.05507927  0.49528245  0.53843023  1
  H  H14  1  0.44492073  0.50471755  0.03843023  1
  H  H15  1  0.94492073  0.99528245  0.46156977  1
