# generated using pymatgen
data_Nb6HI11
_symmetry_space_group_name_H-M   'P 1'
_cell_length_a   11.59629883
_cell_length_b   15.97126447
_cell_length_c   13.73478145
_cell_angle_alpha   90.00000000
_cell_angle_beta   90.00000000
_cell_angle_gamma   90.00000000
_symmetry_Int_Tables_number   1
_chemical_formula_structural   Nb6HI11
_chemical_formula_sum   'Nb24 H4 I44'
_cell_volume   2543.78529750
_cell_formula_units_Z   4
loop_
 _symmetry_equiv_pos_site_id
 _symmetry_equiv_pos_as_xyz
  1  'x, y, z'
loop_
 _atom_site_type_symbol
 _atom_site_label
 _atom_site_symmetry_multiplicity
 _atom_site_fract_x
 _atom_site_fract_y
 _atom_site_fract_z
 _atom_site_occupancy
  Nb  Nb0  1  0.08837804  0.39309938  0.72426377  1
  Nb  Nb1  1  0.58837804  0.60690062  0.27573623  1
  Nb  Nb2  1  0.58837804  0.89309938  0.77573623  1
  Nb  Nb3  1  0.08837804  0.10690062  0.22426377  1
  Nb  Nb4  1  0.88389464  0.59902489  0.77348970  1
  Nb  Nb5  1  0.38389464  0.40097511  0.22651030  1
  Nb  Nb6  1  0.38389464  0.09902489  0.72651030  1
  Nb  Nb7  1  0.88389464  0.90097511  0.27348970  1
  Nb  Nb8  1  0.12659031  0.54884774  0.82578450  1
  Nb  Nb9  1  0.62659031  0.45115226  0.17421550  1
  Nb  Nb10  1  0.62659031  0.04884774  0.67421550  1
  Nb  Nb11  1  0.12659031  0.95115226  0.32578450  1
  Nb  Nb12  1  0.85925655  0.45157727  0.66501129  1
  Nb  Nb13  1  0.35925655  0.54842273  0.33498871  1
  Nb  Nb14  1  0.35925655  0.95157727  0.83498871  1
  Nb  Nb15  1  0.85925655  0.04842273  0.16501129  1
  Nb  Nb16  1  0.92163453  0.44879708  0.87218413  1
  Nb  Nb17  1  0.42163453  0.55120292  0.12781587  1
  Nb  Nb18  1  0.42163453  0.94879708  0.62781587  1
  Nb  Nb19  1  0.92163453  0.05120292  0.37218413  1
  Nb  Nb20  1  0.06756097  0.55131261  0.63069606  1
  Nb  Nb21  1  0.56756097  0.44868739  0.36930394  1
  Nb  Nb22  1  0.56756097  0.05131261  0.86930394  1
  Nb  Nb23  1  0.06756097  0.94868739  0.13069606  1
  H  H24  1  0.99033443  0.49830669  0.74736372  1
  H  H25  1  0.49033443  0.50169331  0.25263628  1
  H  H26  1  0.49033443  0.99830669  0.75263628  1
  H  H27  1  0.99033443  0.00169331  0.24736372  1
  I  I28  1  0.14909155  0.38835564  0.92660038  1
  I  I29  1  0.64909155  0.61164436  0.07339962  1
  I  I30  1  0.64909155  0.88835564  0.57339962  1
  I  I31  1  0.14909155  0.11164436  0.42660038  1
  I  I32  1  0.84367558  0.61167745  0.56749936  1
  I  I33  1  0.34367558  0.38832255  0.43250064  1
  I  I34  1  0.34367558  0.11167745  0.93250064  1
  I  I35  1  0.84367558  0.88832255  0.06749936  1
  I  I36  1  0.02281788  0.39811716  0.52114277  1
  I  I37  1  0.52281788  0.60188284  0.47885723  1
  I  I38  1  0.52281788  0.89811716  0.97885723  1
  I  I39  1  0.02281788  0.10188284  0.02114277  1
  I  I40  1  0.96733159  0.60527203  0.97260775  1
  I  I41  1  0.46733159  0.39472797  0.02739225  1
  I  I42  1  0.46733159  0.10527203  0.52739225  1
  I  I43  1  0.96733159  0.89472797  0.47260775  1
  I  I44  1  0.89042616  0.29184317  0.76805160  1
  I  I45  1  0.39042616  0.70815683  0.23194840  1
  I  I46  1  0.39042616  0.79184317  0.73194840  1
  I  I47  1  0.89042616  0.20815683  0.26805160  1
  I  I48  1  0.07481193  0.70929265  0.73527797  1
  I  I49  1  0.57481193  0.29070735  0.26472203  1
  I  I50  1  0.57481193  0.20929265  0.76472203  1
  I  I51  1  0.07481193  0.79070735  0.23527797  1
  I  I52  1  0.29097984  0.48885453  0.68655519  1
  I  I53  1  0.79097984  0.51114547  0.31344481  1
  I  I54  1  0.79097984  0.98885453  0.81344481  1
  I  I55  1  0.29097984  0.01114547  0.18655519  1
  I  I56  1  0.69219965  0.48885223  0.81133485  1
  I  I57  1  0.19219965  0.51114777  0.18866515  1
  I  I58  1  0.19219965  0.98885223  0.68866515  1
  I  I59  1  0.69219965  0.01114777  0.31133485  1
  I  I60  1  0.82785973  0.38136991  0.05888267  1
  I  I61  1  0.32785973  0.61863009  0.94111733  1
  I  I62  1  0.32785973  0.88136991  0.44111733  1
  I  I63  1  0.82785973  0.11863009  0.55888267  1
  I  I64  1  0.17389296  0.62633698  0.45581105  1
  I  I65  1  0.67389296  0.37366302  0.54418895  1
  I  I66  1  0.67389296  0.12633698  0.04418895  1
  I  I67  1  0.17389296  0.87366302  0.95581105  1
  I  I68  1  0.21566367  0.23497117  0.68073307  1
  I  I69  1  0.71566367  0.76502883  0.31926693  1
  I  I70  1  0.71566367  0.73497117  0.81926693  1
  I  I71  1  0.21566367  0.26502883  0.18073307  1
