# generated using pymatgen
data_H2
_symmetry_space_group_name_H-M   'P 1'
_cell_length_a   9.08318275
_cell_length_b   6.06151127
_cell_length_c   6.50749374
_cell_angle_alpha   90.09604335
_cell_angle_beta   90.12725369
_cell_angle_gamma   89.99959566
_symmetry_Int_Tables_number   1
_chemical_formula_structural   H2
_chemical_formula_sum   H16
_cell_volume   358.28699673
_cell_formula_units_Z   8
loop_
 _symmetry_equiv_pos_site_id
 _symmetry_equiv_pos_as_xyz
  1  'x, y, z'
loop_
 _atom_site_type_symbol
 _atom_site_label
 _atom_site_symmetry_multiplicity
 _atom_site_fract_x
 _atom_site_fract_y
 _atom_site_fract_z
 _atom_site_occupancy
  H  H0  1  0.31752124  0.75019062  0.11505388  1
  H  H1  1  0.81785163  0.74975160  0.38655225  1
  H  H2  1  0.68244256  0.24981089  0.88539916  1
  H  H3  1  0.18210444  0.25024343  0.61300141  1
  H  H4  1  0.54890147  0.75026977  0.20504004  1
  H  H5  1  0.04858162  0.74966221  0.29443159  1
  H  H6  1  0.45114377  0.24972795  0.79481047  1
  H  H7  1  0.95146415  0.25033528  0.70571547  1
  H  H8  1  0.54457110  0.90388124  0.20641876  1
  H  H9  1  0.04443700  0.59617450  0.29311843  1
  H  H10  1  0.45562788  0.40447303  0.79251410  1
  H  H11  1  0.95580406  0.09545091  0.70816360  1
  H  H12  1  0.45542555  0.09611569  0.79342541  1
  H  H13  1  0.95556070  0.40383232  0.70704272  1
  H  H14  1  0.54436969  0.59553236  0.20732575  1
  H  H15  1  0.04419313  0.90454820  0.29198696  1
