# generated using pymatgen
data_BH5(NF2)2
_symmetry_space_group_name_H-M   'P 1'
_cell_length_a   7.54063015
_cell_length_b   7.54063015
_cell_length_c   12.45861276
_cell_angle_alpha   68.88251089
_cell_angle_beta   111.11748911
_cell_angle_gamma   138.31386291
_symmetry_Int_Tables_number   1
_chemical_formula_structural   BH5(NF2)2
_chemical_formula_sum   'B4 H20 N8 F16'
_cell_volume   434.71168698
_cell_formula_units_Z   4
loop_
 _symmetry_equiv_pos_site_id
 _symmetry_equiv_pos_as_xyz
  1  'x, y, z'
loop_
 _atom_site_type_symbol
 _atom_site_label
 _atom_site_symmetry_multiplicity
 _atom_site_fract_x
 _atom_site_fract_y
 _atom_site_fract_z
 _atom_site_occupancy
  B  B0  1  0.03641638  0.81998811  0.92187381  1
  B  B1  1  0.81998811  0.03641638  0.57812619  1
  B  B2  1  0.96358362  0.18001189  0.07812619  1
  B  B3  1  0.18001189  0.96358362  0.42187381  1
  H  H4  1  0.77858876  0.61160794  0.62390138  1
  H  H5  1  0.61160794  0.77858876  0.87609862  1
  H  H6  1  0.22141124  0.38839206  0.37609862  1
  H  H7  1  0.38839206  0.22141124  0.12390138  1
  H  H8  1  0.71052919  0.37555282  0.58287241  1
  H  H9  1  0.37555282  0.71052919  0.91712759  1
  H  H10  1  0.28947081  0.62444718  0.41712759  1
  H  H11  1  0.62444718  0.28947081  0.08287241  1
  H  H12  1  0.94945794  0.52046663  0.69819224  1
  H  H13  1  0.52046663  0.94945794  0.80180776  1
  H  H14  1  0.05054206  0.47953337  0.30180776  1
  H  H15  1  0.47953337  0.05054206  0.19819224  1
  H  H16  1  0.38221470  0.17523771  0.68988577  1
  H  H17  1  0.17523771  0.38221470  0.81011423  1
  H  H18  1  0.61778530  0.82476229  0.31011423  1
  H  H19  1  0.82476229  0.61778530  0.18988577  1
  H  H20  1  0.62415913  0.32727991  0.80011732  1
  H  H21  1  0.32727991  0.62415913  0.69988268  1
  H  H22  1  0.37584087  0.67272009  0.19988268  1
  H  H23  1  0.67272009  0.37584087  0.30011732  1
  N  N24  1  0.76221235  0.45316550  0.65391978  1
  N  N25  1  0.45316550  0.76221235  0.84608022  1
  N  N26  1  0.23778765  0.54683450  0.34608022  1
  N  N27  1  0.54683450  0.23778765  0.15391978  1
  N  N28  1  0.56364547  0.23952627  0.73171300  1
  N  N29  1  0.23952627  0.56364547  0.76828700  1
  N  N30  1  0.43635453  0.76047373  0.26828700  1
  N  N31  1  0.76047373  0.43635453  0.23171300  1
  F  F32  1  0.07099109  0.77735313  0.83245549  1
  F  F33  1  0.77735313  0.07099109  0.66754451  1
  F  F34  1  0.92900891  0.22264687  0.16754451  1
  F  F35  1  0.22264687  0.92900891  0.33245549  1
  F  F36  1  0.16616315  0.78813424  0.02961882  1
  F  F37  1  0.78813424  0.16616315  0.47038118  1
  F  F38  1  0.83383685  0.21186576  0.97038118  1
  F  F39  1  0.21186576  0.83383685  0.52961882  1
  F  F40  1  0.75334293  0.62526887  0.92577759  1
  F  F41  1  0.62526887  0.75334293  0.57422241  1
  F  F42  1  0.24665707  0.37473113  0.07422241  1
  F  F43  1  0.37473113  0.24665707  0.42577759  1
  F  F44  1  0.14538090  0.08185124  0.89918737  1
  F  F45  1  0.08185124  0.14538090  0.60081263  1
  F  F46  1  0.85461910  0.91814876  0.10081263  1
  F  F47  1  0.91814876  0.85461910  0.39918737  1
