# generated using pymatgen
data_TeH5O6
_symmetry_space_group_name_H-M   'P 1'
_cell_length_a   6.52801173
_cell_length_b   9.39801437
_cell_length_c   11.43649090
_cell_angle_alpha   90.00000000
_cell_angle_beta   133.70666892
_cell_angle_gamma   90.00000000
_symmetry_Int_Tables_number   1
_chemical_formula_structural   TeH5O6
_chemical_formula_sum   'Te4 H20 O24'
_cell_volume   507.20096341
_cell_formula_units_Z   4
loop_
 _symmetry_equiv_pos_site_id
 _symmetry_equiv_pos_as_xyz
  1  'x, y, z'
loop_
 _atom_site_type_symbol
 _atom_site_label
 _atom_site_symmetry_multiplicity
 _atom_site_fract_x
 _atom_site_fract_y
 _atom_site_fract_z
 _atom_site_occupancy
  Te  Te0  1  0.50000000  0.50000000  0.50000000  1
  Te  Te1  1  0.00000000  0.00000000  0.00000000  1
  Te  Te2  1  0.50000000  0.50000000  0.00000000  1
  Te  Te3  1  0.00000000  0.00000000  0.50000000  1
  H  H4  1  0.26803089  0.78897526  0.03414531  1
  H  H5  1  0.76803089  0.71102474  0.53414531  1
  H  H6  1  0.73196911  0.21102474  0.96585469  1
  H  H7  1  0.23196911  0.28897526  0.46585469  1
  H  H8  1  0.19740052  0.61008927  0.22425350  1
  H  H9  1  0.69740052  0.88991073  0.72425350  1
  H  H10  1  0.80259948  0.38991073  0.77574650  1
  H  H11  1  0.30259948  0.11008927  0.27574650  1
  H  H12  1  0.02751185  0.59033981  0.37484103  1
  H  H13  1  0.52751185  0.90966019  0.87484103  1
  H  H14  1  0.97248815  0.40966019  0.62515897  1
  H  H15  1  0.47248815  0.09033981  0.12515897  1
  H  H16  1  0.55155388  0.54607582  0.23771317  1
  H  H17  1  0.05155388  0.95392418  0.73771317  1
  H  H18  1  0.44844612  0.45392418  0.76228683  1
  H  H19  1  0.94844612  0.04607582  0.26228683  1
  H  H20  1  0.58881999  0.83577045  0.29747541  1
  H  H21  1  0.08881999  0.66422955  0.79747541  1
  H  H22  1  0.41118001  0.16422955  0.70252459  1
  H  H23  1  0.91118001  0.33577045  0.20252459  1
  O  O24  1  0.77601380  0.65648757  0.61248064  1
  O  O25  1  0.27601380  0.84351243  0.11248064  1
  O  O26  1  0.22398620  0.34351243  0.38751936  1
  O  O27  1  0.72398620  0.15648757  0.88751936  1
  O  O28  1  0.37741810  0.55674220  0.29448265  1
  O  O29  1  0.87741810  0.94325780  0.79448265  1
  O  O30  1  0.62258190  0.44325780  0.70551735  1
  O  O31  1  0.12258190  0.05674220  0.20551735  1
  O  O32  1  0.72617156  0.87701173  0.96717184  1
  O  O33  1  0.22617156  0.62298827  0.46717184  1
  O  O34  1  0.27382844  0.12298827  0.03282816  1
  O  O35  1  0.77382844  0.37701173  0.53282816  1
  O  O36  1  0.81046372  0.59355601  0.04096171  1
  O  O37  1  0.31046372  0.90644399  0.54096171  1
  O  O38  1  0.18953628  0.40644399  0.95903829  1
  O  O39  1  0.68953628  0.09355601  0.45903829  1
  O  O40  1  0.17788843  0.94238634  0.71702867  1
  O  O41  1  0.67788843  0.55761366  0.21702867  1
  O  O42  1  0.82211157  0.05761366  0.28297133  1
  O  O43  1  0.32211157  0.44238634  0.78297133  1
  O  O44  1  0.76833023  0.82691468  0.41640241  1
  O  O45  1  0.26833023  0.67308532  0.91640241  1
  O  O46  1  0.23166977  0.17308532  0.58359759  1
  O  O47  1  0.73166977  0.32691468  0.08359759  1
