# generated using pymatgen
data_H20RuC6NO14
_symmetry_space_group_name_H-M   'P 1'
_cell_length_a   6.09784079
_cell_length_b   6.09784079
_cell_length_c   23.40699629
_cell_angle_alpha   90.00000000
_cell_angle_beta   90.00000000
_cell_angle_gamma   77.03605705
_symmetry_Int_Tables_number   1
_chemical_formula_structural   H20RuC6NO14
_chemical_formula_sum   'H40 Ru2 C12 N2 O28'
_cell_volume   848.17367509
_cell_formula_units_Z   2
loop_
 _symmetry_equiv_pos_site_id
 _symmetry_equiv_pos_as_xyz
  1  'x, y, z'
loop_
 _atom_site_type_symbol
 _atom_site_label
 _atom_site_symmetry_multiplicity
 _atom_site_fract_x
 _atom_site_fract_y
 _atom_site_fract_z
 _atom_site_occupancy
  H  H0  1  0.28130365  0.28130365  0.01046243  1
  H  H1  1  0.71869635  0.71869635  0.98953757  1
  H  H2  1  0.28130365  0.28130365  0.48953757  1
  H  H3  1  0.71869635  0.71869635  0.51046243  1
  H  H4  1  0.23694000  0.23694000  0.93812110  1
  H  H5  1  0.76306000  0.76306000  0.06187890  1
  H  H6  1  0.23694000  0.23694000  0.56187890  1
  H  H7  1  0.76306000  0.76306000  0.43812110  1
  H  H8  1  0.59220139  0.80259681  0.14336844  1
  H  H9  1  0.19740319  0.40779861  0.85663156  1
  H  H10  1  0.59220139  0.80259681  0.35663156  1
  H  H11  1  0.19740319  0.40779861  0.64336844  1
  H  H12  1  0.40779861  0.19740319  0.85663156  1
  H  H13  1  0.80259681  0.59220139  0.14336844  1
  H  H14  1  0.40779861  0.19740319  0.64336844  1
  H  H15  1  0.80259681  0.59220139  0.35663156  1
  H  H16  1  0.55169388  0.34187544  0.06383376  1
  H  H17  1  0.65812456  0.44830612  0.93616624  1
  H  H18  1  0.55169388  0.34187544  0.43616624  1
  H  H19  1  0.65812456  0.44830612  0.56383376  1
  H  H20  1  0.44830612  0.65812456  0.93616624  1
  H  H21  1  0.34187544  0.55169388  0.06383376  1
  H  H22  1  0.44830612  0.65812456  0.56383376  1
  H  H23  1  0.34187544  0.55169388  0.43616624  1
  H  H24  1  0.19691817  0.19691817  0.21423763  1
  H  H25  1  0.80308183  0.80308183  0.78576237  1
  H  H26  1  0.19691817  0.19691817  0.28576237  1
  H  H27  1  0.80308183  0.80308183  0.71423763  1
  H  H28  1  0.00359702  0.55619285  0.25000000  1
  H  H29  1  0.44380715  0.99640298  0.75000000  1
  H  H30  1  0.99640298  0.44380715  0.75000000  1
  H  H31  1  0.55619285  0.00359702  0.25000000  1
  H  H32  1  0.25188561  0.57857790  0.21176187  1
  H  H33  1  0.42142210  0.74811439  0.78823813  1
  H  H34  1  0.25188561  0.57857790  0.28823813  1
  H  H35  1  0.42142210  0.74811439  0.71176187  1
  H  H36  1  0.74811439  0.42142210  0.78823813  1
  H  H37  1  0.57857790  0.25188561  0.21176187  1
  H  H38  1  0.74811439  0.42142210  0.71176187  1
  H  H39  1  0.57857790  0.25188561  0.28823813  1
  Ru  Ru40  1  0.00000000  0.00000000  0.00000000  1
  Ru  Ru41  1  0.00000000  0.00000000  0.50000000  1
  C  C42  1  0.18722103  0.51098275  0.25000000  1
  C  C43  1  0.48901725  0.81277897  0.75000000  1
  C  C44  1  0.81277897  0.48901725  0.75000000  1
  C  C45  1  0.51098275  0.18722103  0.25000000  1
  C  C46  1  0.97561008  0.17884070  0.11345692  1
  C  C47  1  0.82115930  0.02438992  0.88654308  1
  C  C48  1  0.97561008  0.17884070  0.38654308  1
  C  C49  1  0.82115930  0.02438992  0.61345692  1
  C  C50  1  0.02438992  0.82115930  0.88654308  1
  C  C51  1  0.17884070  0.97561008  0.11345692  1
  C  C52  1  0.02438992  0.82115930  0.61345692  1
  C  C53  1  0.17884070  0.97561008  0.38654308  1
  N  N54  1  0.26266556  0.26266556  0.25000000  1
  N  N55  1  0.73733444  0.73733444  0.75000000  1
  O  O56  1  0.86483137  0.21414801  0.06566803  1
  O  O57  1  0.78585199  0.13516863  0.93433197  1
  O  O58  1  0.86483137  0.21414801  0.43433197  1
  O  O59  1  0.78585199  0.13516863  0.56566803  1
  O  O60  1  0.13516863  0.78585199  0.93433197  1
  O  O61  1  0.21414801  0.86483137  0.06566803  1
  O  O62  1  0.13516863  0.78585199  0.56566803  1
  O  O63  1  0.21414801  0.86483137  0.43433197  1
  O  O64  1  0.20539174  0.20539174  0.97981777  1
  O  O65  1  0.79460826  0.79460826  0.02018223  1
  O  O66  1  0.20539174  0.20539174  0.52018223  1
  O  O67  1  0.79460826  0.79460826  0.47981777  1
  O  O68  1  0.92917142  0.29626054  0.15725181  1
  O  O69  1  0.70373946  0.07082858  0.84274819  1
  O  O70  1  0.92917142  0.29626054  0.34274819  1
  O  O71  1  0.70373946  0.07082858  0.65725181  1
  O  O72  1  0.07082858  0.70373946  0.84274819  1
  O  O73  1  0.29626054  0.92917142  0.15725181  1
  O  O74  1  0.07082858  0.70373946  0.65725181  1
  O  O75  1  0.29626054  0.92917142  0.34274819  1
  O  O76  1  0.74900131  0.74900131  0.12988817  1
  O  O77  1  0.25099869  0.25099869  0.87011183  1
  O  O78  1  0.74900131  0.74900131  0.37011183  1
  O  O79  1  0.25099869  0.25099869  0.62988817  1
  O  O80  1  0.38584838  0.38584838  0.06273494  1
  O  O81  1  0.61415162  0.61415162  0.93726506  1
  O  O82  1  0.38584838  0.38584838  0.43726506  1
  O  O83  1  0.61415162  0.61415162  0.56273494  1
