# generated using pymatgen
data_MnOs3
_symmetry_space_group_name_H-M   'P 1'
_cell_length_a   5.41875201
_cell_length_b   5.41871604
_cell_length_c   4.26554323
_cell_angle_alpha   89.99792380
_cell_angle_beta   90.00217750
_cell_angle_gamma   120.00018155
_symmetry_Int_Tables_number   1
_chemical_formula_structural   MnOs3
_chemical_formula_sum   'Mn2 Os6'
_cell_volume   108.46755583
_cell_formula_units_Z   2
loop_
 _symmetry_equiv_pos_site_id
 _symmetry_equiv_pos_as_xyz
  1  'x, y, z'
loop_
 _atom_site_type_symbol
 _atom_site_label
 _atom_site_symmetry_multiplicity
 _atom_site_fract_x
 _atom_site_fract_y
 _atom_site_fract_z
 _atom_site_occupancy
  Mn  Mn0  1  0.66667748  0.33332556  0.24997223  1
  Mn  Mn1  1  0.33332459  0.66668081  0.75002843  1
  Os  Os2  1  0.82941250  0.17058639  0.75001659  1
  Os  Os3  1  0.34114942  0.17057857  0.75001762  1
  Os  Os4  1  0.65889133  0.82943754  0.24998139  1
  Os  Os5  1  0.17056396  0.82943284  0.24998200  1
  Os  Os6  1  0.82941888  0.65884859  0.75001766  1
  Os  Os7  1  0.17055884  0.34110569  0.24998007  1
