# generated using pymatgen
data_Sc3Tl
_symmetry_space_group_name_H-M   'P 1'
_cell_length_a   6.43059411
_cell_length_b   6.43059452
_cell_length_c   5.28681715
_cell_angle_alpha   90.00000000
_cell_angle_beta   90.00000000
_cell_angle_gamma   120.00000326
_symmetry_Int_Tables_number   1
_chemical_formula_structural   Sc3Tl
_chemical_formula_sum   'Sc6 Tl2'
_cell_volume   189.33335567
_cell_formula_units_Z   2
loop_
 _symmetry_equiv_pos_site_id
 _symmetry_equiv_pos_as_xyz
  1  'x, y, z'
loop_
 _atom_site_type_symbol
 _atom_site_label
 _atom_site_symmetry_multiplicity
 _atom_site_fract_x
 _atom_site_fract_y
 _atom_site_fract_z
 _atom_site_occupancy
  Sc  Sc0  1  0.16815102  0.33630105  0.25000000  1
  Sc  Sc1  1  0.66369795  0.83184798  0.25000000  1
  Sc  Sc2  1  0.16815102  0.83184798  0.25000000  1
  Sc  Sc3  1  0.83184998  0.66369895  0.75000000  1
  Sc  Sc4  1  0.33630205  0.16815102  0.75000000  1
  Sc  Sc5  1  0.83184998  0.16815102  0.75000000  1
  Tl  Tl6  1  0.33333300  0.66666500  0.75000000  1
  Tl  Tl7  1  0.66666700  0.33333300  0.25000000  1
