# generated using pymatgen
data_FeP2(H4O5)2
_symmetry_space_group_name_H-M   'P 1'
_cell_length_a   7.21891301
_cell_length_b   9.74822073
_cell_length_c   6.06642768
_cell_angle_alpha   90.00000000
_cell_angle_beta   81.90551044
_cell_angle_gamma   90.00000000
_symmetry_Int_Tables_number   1
_chemical_formula_structural   FeP2(H4O5)2
_chemical_formula_sum   'Fe2 P4 H16 O20'
_cell_volume   422.65080667
_cell_formula_units_Z   2
loop_
 _symmetry_equiv_pos_site_id
 _symmetry_equiv_pos_as_xyz
  1  'x, y, z'
loop_
 _atom_site_type_symbol
 _atom_site_label
 _atom_site_symmetry_multiplicity
 _atom_site_fract_x
 _atom_site_fract_y
 _atom_site_fract_z
 _atom_site_occupancy
  Fe  Fe0  1  0.00000000  0.00000000  0.00000000  1
  Fe  Fe1  1  0.50000000  0.50000000  0.50000000  1
  P  P2  1  0.66379820  0.80905778  0.81205415  1
  P  P3  1  0.16379820  0.69094222  0.31205415  1
  P  P4  1  0.33620180  0.19094222  0.18794585  1
  P  P5  1  0.83620180  0.30905778  0.68794585  1
  H  H6  1  0.19429190  0.56330664  0.00308801  1
  H  H7  1  0.69429190  0.93669336  0.50308801  1
  H  H8  1  0.80570810  0.43669336  0.99691199  1
  H  H9  1  0.30570810  0.06330664  0.49691199  1
  H  H10  1  0.53797839  0.37456372  0.20194327  1
  H  H11  1  0.03797839  0.12543628  0.70194327  1
  H  H12  1  0.46202161  0.62543628  0.79805673  1
  H  H13  1  0.96202161  0.87456372  0.29805673  1
  H  H14  1  0.51342353  0.22544337  0.85370390  1
  H  H15  1  0.01342353  0.27455663  0.35370390  1
  H  H16  1  0.48657647  0.77455663  0.14629610  1
  H  H17  1  0.98657647  0.72544337  0.64629610  1
  H  H18  1  0.20606993  0.57278523  0.70700343  1
  H  H19  1  0.70606993  0.92721477  0.20700343  1
  H  H20  1  0.79393007  0.42721477  0.29299657  1
  H  H21  1  0.29393007  0.07278523  0.79299657  1
  O  O22  1  0.87321218  0.82355791  0.81910667  1
  O  O23  1  0.37321218  0.67644209  0.31910667  1
  O  O24  1  0.12678782  0.17644209  0.18089333  1
  O  O25  1  0.62678782  0.32355791  0.68089333  1
  O  O26  1  0.61186441  0.65656827  0.76563963  1
  O  O27  1  0.11186441  0.84343173  0.26563963  1
  O  O28  1  0.38813559  0.34343173  0.23436037  1
  O  O29  1  0.88813559  0.15656827  0.73436037  1
  O  O30  1  0.18528424  0.04038436  0.72441110  1
  O  O31  1  0.68528424  0.45961564  0.22441110  1
  O  O32  1  0.81471576  0.95961564  0.27558890  1
  O  O33  1  0.31471576  0.54038436  0.77558890  1
  O  O34  1  0.04441373  0.64915727  0.53976502  1
  O  O35  1  0.54441373  0.85084273  0.03976502  1
  O  O36  1  0.95558627  0.35084273  0.46023498  1
  O  O37  1  0.45558627  0.14915727  0.96023498  1
  O  O38  1  0.59650984  0.90637010  0.63557150  1
  O  O39  1  0.09650984  0.59362990  0.13557150  1
  O  O40  1  0.40349016  0.09362990  0.36442850  1
  O  O41  1  0.90349016  0.40637010  0.86442850  1
