# generated using pymatgen
data_Ta2Mo2O11
_symmetry_space_group_name_H-M   'P 1'
_cell_length_a   9.26896255
_cell_length_b   9.26896255
_cell_length_c   9.26896295
_cell_angle_alpha   35.88717642
_cell_angle_beta   35.88717642
_cell_angle_gamma   35.88717122
_symmetry_Int_Tables_number   1
_chemical_formula_structural   Ta2Mo2O11
_chemical_formula_sum   'Ta2 Mo2 O11'
_cell_volume   244.69830903
_cell_formula_units_Z   1
loop_
 _symmetry_equiv_pos_site_id
 _symmetry_equiv_pos_as_xyz
  1  'x, y, z'
loop_
 _atom_site_type_symbol
 _atom_site_label
 _atom_site_symmetry_multiplicity
 _atom_site_fract_x
 _atom_site_fract_y
 _atom_site_fract_z
 _atom_site_occupancy
  Ta  Ta0  1  0.37187725  0.37187725  0.37187725  1
  Ta  Ta1  1  0.62812275  0.62812275  0.62812275  1
  Mo  Mo2  1  0.11284546  0.11284546  0.11284546  1
  Mo  Mo3  1  0.88715454  0.88715454  0.88715454  1
  O  O4  1  0.25605052  0.73889980  0.73871784  1
  O  O5  1  0.73871684  0.25605152  0.73890080  1
  O  O6  1  0.73890180  0.73871784  0.25604952  1
  O  O7  1  0.26110020  0.74394948  0.26128116  1
  O  O8  1  0.74394848  0.26128316  0.26109920  1
  O  O9  1  0.26128216  0.26109820  0.74395048  1
  O  O10  1  0.17945528  0.17945528  0.17945528  1
  O  O11  1  0.82054472  0.82054472  0.82054472  1
  O  O12  1  0.49992546  0.50007354  -0.00000000  1
  O  O13  1  1.00000000  0.49992546  0.50007354  1
  O  O14  1  0.50007454  0.00000000  0.49992546  1
