# generated using pymatgen
data_CuP3H16C3NO12
_symmetry_space_group_name_H-M   'P 1'
_cell_length_a   9.25893544
_cell_length_b   9.60485242
_cell_length_c   16.33489906
_cell_angle_alpha   90.00000000
_cell_angle_beta   90.00000000
_cell_angle_gamma   112.28345113
_symmetry_Int_Tables_number   1
_chemical_formula_structural   CuP3H16C3NO12
_chemical_formula_sum   'Cu4 P12 H64 C12 N4 O48'
_cell_volume   1344.18739272
_cell_formula_units_Z   4
loop_
 _symmetry_equiv_pos_site_id
 _symmetry_equiv_pos_as_xyz
  1  'x, y, z'
loop_
 _atom_site_type_symbol
 _atom_site_label
 _atom_site_symmetry_multiplicity
 _atom_site_fract_x
 _atom_site_fract_y
 _atom_site_fract_z
 _atom_site_occupancy
  Cu  Cu0  1  0.53642051  0.16631802  0.20911342  1
  Cu  Cu1  1  0.46357949  0.33368198  0.70911342  1
  Cu  Cu2  1  0.46357949  0.83368198  0.79088658  1
  Cu  Cu3  1  0.53642051  0.66631802  0.29088658  1
  P  P4  1  0.16785154  0.97094862  0.29107545  1
  P  P5  1  0.83214846  0.52905138  0.79107545  1
  P  P6  1  0.83214846  0.02905138  0.70892455  1
  P  P7  1  0.16785154  0.47094862  0.20892455  1
  P  P8  1  0.93897773  0.72578747  0.03586699  1
  P  P9  1  0.06102227  0.77421253  0.53586699  1
  P  P10  1  0.06102227  0.27421253  0.96413301  1
  P  P11  1  0.93897773  0.22578747  0.46413301  1
  P  P12  1  0.52840756  0.87248186  0.12318477  1
  P  P13  1  0.47159244  0.62751814  0.62318477  1
  P  P14  1  0.47159244  0.12751814  0.87681523  1
  P  P15  1  0.52840756  0.37248186  0.37681523  1
  H  H16  1  0.24204655  0.24353508  0.29704906  1
  H  H17  1  0.75795345  0.25646492  0.79704906  1
  H  H18  1  0.75795345  0.75646492  0.70295094  1
  H  H19  1  0.24204655  0.74353508  0.20295094  1
  H  H20  1  0.04528398  0.14153969  0.32771776  1
  H  H21  1  0.95471602  0.35846031  0.82771776  1
  H  H22  1  0.95471602  0.85846031  0.67228224  1
  H  H23  1  0.04528398  0.64153969  0.17228224  1
  H  H24  1  0.20649267  0.89635810  0.07173728  1
  H  H25  1  0.79350733  0.60364190  0.57173728  1
  H  H26  1  0.79350733  0.10364190  0.92826272  1
  H  H27  1  0.20649267  0.39635810  0.42826272  1
  H  H28  1  0.19647096  0.80339061  0.97685515  1
  H  H29  1  0.80352904  0.69660939  0.47685515  1
  H  H30  1  0.80352904  0.19660939  0.02314485  1
  H  H31  1  0.19647096  0.30339061  0.52314485  1
  H  H32  1  0.40420158  0.75210285  0.99785970  1
  H  H33  1  0.59579842  0.74789715  0.49785970  1
  H  H34  1  0.59579842  0.24789715  0.00214030  1
  H  H35  1  0.40420158  0.25210285  0.50214030  1
  H  H36  1  0.40947697  0.61956933  0.07346816  1
  H  H37  1  0.59052303  0.88043067  0.57346816  1
  H  H38  1  0.59052303  0.38043067  0.92653184  1
  H  H39  1  0.40947697  0.11956933  0.42653184  1
  H  H40  1  0.92765278  0.74883763  0.90341985  1
  H  H41  1  0.07234722  0.75116237  0.40341985  1
  H  H42  1  0.07234722  0.25116237  0.09658015  1
  H  H43  1  0.92765278  0.24883763  0.59658015  1
  H  H44  1  0.75814857  0.86372901  0.08729541  1
  H  H45  1  0.24185143  0.63627099  0.58729541  1
  H  H46  1  0.24185143  0.13627099  0.91270459  1
  H  H47  1  0.75814857  0.36372901  0.41270459  1
  H  H48  1  0.02462200  0.91612416  0.17473304  1
  H  H49  1  0.97537800  0.58387584  0.67473304  1
  H  H50  1  0.97537800  0.08387584  0.82526696  1
  H  H51  1  0.02462200  0.41612416  0.32526696  1
  H  H52  1  0.31428765  0.18083615  0.12079417  1
  H  H53  1  0.68571235  0.31916385  0.62079417  1
  H  H54  1  0.68571235  0.81916385  0.87920583  1
  H  H55  1  0.31428765  0.68083615  0.37920583  1
  H  H56  1  0.38206033  0.33774178  0.16772400  1
  H  H57  1  0.61793967  0.16225822  0.66772400  1
  H  H58  1  0.61793967  0.66225822  0.83227600  1
  H  H59  1  0.38206033  0.83774178  0.33227600  1
  H  H60  1  0.78688743  0.43085605  0.10707511  1
  H  H61  1  0.21311257  0.06914395  0.60707511  1
  H  H62  1  0.21311257  0.56914395  0.89292489  1
  H  H63  1  0.78688743  0.93085605  0.39292489  1
  H  H64  1  0.85354913  0.34114344  0.16576977  1
  H  H65  1  0.14645087  0.15885656  0.66576977  1
  H  H66  1  0.14645087  0.65885656  0.83423023  1
  H  H67  1  0.85354913  0.84114344  0.33423023  1
  H  H68  1  0.75504583  0.17092977  0.31408040  1
  H  H69  1  0.24495417  0.32907023  0.81408040  1
  H  H70  1  0.24495417  0.82907023  0.68591960  1
  H  H71  1  0.75504583  0.67092977  0.18591960  1
  H  H72  1  0.68327167  0.00372306  0.27634995  1
  H  H73  1  0.31672833  0.49627694  0.77634995  1
  H  H74  1  0.31672833  0.99627694  0.72365005  1
  H  H75  1  0.68327167  0.50372306  0.22365005  1
  H  H76  1  0.15918723  0.57556403  0.04452185  1
  H  H77  1  0.84081277  0.92443597  0.54452185  1
  H  H78  1  0.84081277  0.42443597  0.95547815  1
  H  H79  1  0.15918723  0.07556403  0.45547815  1
  C  C80  1  0.16559255  0.14765019  0.33321077  1
  C  C81  1  0.83440745  0.35234981  0.83321077  1
  C  C82  1  0.83440745  0.85234981  0.66678923  1
  C  C83  1  0.16559255  0.64765019  0.16678923  1
  C  C84  1  0.15357119  0.78828588  0.04006763  1
  C  C85  1  0.84642881  0.71171412  0.54006763  1
  C  C86  1  0.84642881  0.21171412  0.95993237  1
  C  C87  1  0.15357119  0.28828588  0.45993237  1
  C  C88  1  0.38435265  0.72096615  0.06269420  1
  C  C89  1  0.61564735  0.77903385  0.56269420  1
  C  C90  1  0.61564735  0.27903385  0.93730580  1
  C  C91  1  0.38435265  0.22096615  0.43730580  1
  N  N92  1  0.21173477  0.67692330  0.07841548  1
  N  N93  1  0.78826523  0.82307670  0.57841548  1
  N  N94  1  0.78826523  0.32307670  0.92158452  1
  N  N95  1  0.21173477  0.17692330  0.42158452  1
  O  O96  1  0.33080280  0.97173669  0.29625844  1
  O  O97  1  0.66919720  0.52826331  0.79625844  1
  O  O98  1  0.66919720  0.02826331  0.70374156  1
  O  O99  1  0.33080280  0.47173669  0.20374156  1
  O  O100  1  0.12388723  0.99022200  0.19833891  1
  O  O101  1  0.87611277  0.50977800  0.69833891  1
  O  O102  1  0.87611277  0.00977800  0.80166109  1
  O  O103  1  0.12388723  0.49022200  0.30166109  1
  O  O104  1  0.03903220  0.83813341  0.33116425  1
  O  O105  1  0.96096780  0.66186659  0.83116425  1
  O  O106  1  0.96096780  0.16186659  0.66883575  1
  O  O107  1  0.03903220  0.33813341  0.16883575  1
  O  O108  1  0.87029793  0.55528235  0.03007946  1
  O  O109  1  0.12970207  0.94471765  0.53007946  1
  O  O110  1  0.12970207  0.44471765  0.96992054  1
  O  O111  1  0.87029793  0.05528235  0.46992054  1
  O  O112  1  0.88345669  0.79287702  0.10924029  1
  O  O113  1  0.11654331  0.70712298  0.60924029  1
  O  O114  1  0.11654331  0.20712298  0.89075971  1
  O  O115  1  0.88345669  0.29287702  0.39075971  1
  O  O116  1  0.90970408  0.80198039  0.95523883  1
  O  O117  1  0.09029592  0.69801961  0.45523883  1
  O  O118  1  0.09029592  0.19801961  0.04476117  1
  O  O119  1  0.90970408  0.30198039  0.54476117  1
  O  O120  1  0.48303441  0.00942707  0.12353793  1
  O  O121  1  0.51696559  0.49057293  0.62353793  1
  O  O122  1  0.51696559  0.99057293  0.87646207  1
  O  O123  1  0.48303441  0.50942707  0.37646207  1
  O  O124  1  0.67999828  0.90904906  0.06943283  1
  O  O125  1  0.32000172  0.59095094  0.56943283  1
  O  O126  1  0.32000172  0.09095094  0.93056717  1
  O  O127  1  0.67999828  0.40904906  0.43056717  1
  O  O128  1  0.54885742  0.31509768  0.29310647  1
  O  O129  1  0.45114258  0.18490232  0.79310647  1
  O  O130  1  0.45114258  0.68490232  0.70689353  1
  O  O131  1  0.54885742  0.81509768  0.20689353  1
  O  O132  1  0.41125945  0.25686311  0.14103629  1
  O  O133  1  0.58874055  0.24313689  0.64103629  1
  O  O134  1  0.58874055  0.74313689  0.85896371  1
  O  O135  1  0.41125945  0.75686311  0.35896371  1
  O  O136  1  0.75803706  0.36166305  0.15471377  1
  O  O137  1  0.24196294  0.13833695  0.65471377  1
  O  O138  1  0.24196294  0.63833695  0.84528623  1
  O  O139  1  0.75803706  0.86166305  0.34528623  1
  O  O140  1  0.69832772  0.10976092  0.26673218  1
  O  O141  1  0.30167228  0.39023908  0.76673218  1
  O  O142  1  0.30167228  0.89023908  0.73326782  1
  O  O143  1  0.69832772  0.60976092  0.23326782  1
