# generated using pymatgen
data_SrTcO3
_symmetry_space_group_name_H-M   'P 1'
_cell_length_a   5.65695431
_cell_length_b   5.62177444
_cell_length_c   7.95643208
_cell_angle_alpha   90.00000000
_cell_angle_beta   90.00000000
_cell_angle_gamma   90.00000000
_symmetry_Int_Tables_number   1
_chemical_formula_structural   SrTcO3
_chemical_formula_sum   'Sr4 Tc4 O12'
_cell_volume   253.03141692
_cell_formula_units_Z   4
loop_
 _symmetry_equiv_pos_site_id
 _symmetry_equiv_pos_as_xyz
  1  'x, y, z'
loop_
 _atom_site_type_symbol
 _atom_site_label
 _atom_site_symmetry_multiplicity
 _atom_site_fract_x
 _atom_site_fract_y
 _atom_site_fract_z
 _atom_site_occupancy
  Sr  Sr0  1  0.00233726  0.49551434  0.25000000  1
  Sr  Sr1  1  0.49766274  0.99551434  0.25000000  1
  Sr  Sr2  1  0.99766274  0.50448566  0.75000000  1
  Sr  Sr3  1  0.50233726  0.00448566  0.75000000  1
  Tc  Tc4  1  0.50000000  0.50000000  -0.00000000  1
  Tc  Tc5  1  0.00000000  0.00000000  0.50000000  1
  Tc  Tc6  1  0.50000000  0.50000000  0.50000000  1
  Tc  Tc7  1  0.00000000  0.00000000  0.00000000  1
  O  O8  1  0.95266987  0.00230599  0.25000000  1
  O  O9  1  0.54733013  0.50230599  0.25000000  1
  O  O10  1  0.04733013  0.99769401  0.75000000  1
  O  O11  1  0.45266987  0.49769401  0.75000000  1
  O  O12  1  0.23958870  0.74057994  0.02498746  1
  O  O13  1  0.26041130  0.24057994  0.47501254  1
  O  O14  1  0.76041130  0.25942006  0.52498746  1
  O  O15  1  0.73958870  0.75942006  0.97501254  1
  O  O16  1  0.76041130  0.25942006  0.97501254  1
  O  O17  1  0.73958870  0.75942006  0.52498746  1
  O  O18  1  0.23958870  0.74057994  0.47501254  1
  O  O19  1  0.26041130  0.24057994  0.02498746  1
