# generated using pymatgen
data_Cs3ZnBr5
_symmetry_space_group_name_H-M   'P 1'
_cell_length_a   9.93582214
_cell_length_b   9.93582214
_cell_length_c   10.44902563
_cell_angle_alpha   118.38816632
_cell_angle_beta   118.38816632
_cell_angle_gamma   90.00000000
_symmetry_Int_Tables_number   1
_chemical_formula_structural   Cs3ZnBr5
_chemical_formula_sum   'Cs6 Zn2 Br10'
_cell_volume   763.55013515
_cell_formula_units_Z   2
loop_
 _symmetry_equiv_pos_site_id
 _symmetry_equiv_pos_as_xyz
  1  'x, y, z'
loop_
 _atom_site_type_symbol
 _atom_site_label
 _atom_site_symmetry_multiplicity
 _atom_site_fract_x
 _atom_site_fract_y
 _atom_site_fract_z
 _atom_site_occupancy
  Cs  Cs0  1  0.16466761  0.66466761  0.00000000  1
  Cs  Cs1  1  0.83533239  0.33533239  0.00000000  1
  Cs  Cs2  1  0.33533239  0.16466761  0.00000000  1
  Cs  Cs3  1  0.66466761  0.83533239  0.00000000  1
  Cs  Cs4  1  0.75000000  0.75000000  0.50000000  1
  Cs  Cs5  1  0.25000000  0.25000000  0.50000000  1
  Zn  Zn6  1  0.25000000  0.75000000  0.50000000  1
  Zn  Zn7  1  0.75000000  0.25000000  0.50000000  1
  Br  Br8  1  0.50000000  0.50000000  0.00000000  1
  Br  Br9  1  0.00000000  0.00000000  0.00000000  1
  Br  Br10  1  0.51723614  0.01723614  0.31218946  1
  Br  Br11  1  0.79495332  0.29495332  0.31218946  1
  Br  Br12  1  0.29495332  0.51723614  0.31218946  1
  Br  Br13  1  0.01723614  0.79495332  0.31218946  1
  Br  Br14  1  0.48276386  0.98276386  0.68781054  1
  Br  Br15  1  0.20504668  0.70504668  0.68781054  1
  Br  Br16  1  0.70504668  0.48276386  0.68781054  1
  Br  Br17  1  0.98276386  0.20504668  0.68781054  1
