# generated using pymatgen
data_CoH16C3N8O7
_symmetry_space_group_name_H-M   'P 1'
_cell_length_a   8.24638693
_cell_length_b   8.24638693
_cell_length_c   10.37821699
_cell_angle_alpha   67.63107957
_cell_angle_beta   112.36892043
_cell_angle_gamma   96.37720157
_symmetry_Int_Tables_number   1
_chemical_formula_structural   CoH16C3N8O7
_chemical_formula_sum   'Co2 H32 C6 N16 O14'
_cell_volume   603.06291784
_cell_formula_units_Z   2
loop_
 _symmetry_equiv_pos_site_id
 _symmetry_equiv_pos_as_xyz
  1  'x, y, z'
loop_
 _atom_site_type_symbol
 _atom_site_label
 _atom_site_symmetry_multiplicity
 _atom_site_fract_x
 _atom_site_fract_y
 _atom_site_fract_z
 _atom_site_occupancy
  Co  Co0  1  0.07296428  0.07722571  0.99425009  1
  Co  Co1  1  0.92277429  0.92703572  0.49425009  1
  H  H2  1  0.98537649  0.37832652  0.99798742  1
  H  H3  1  0.62167348  0.01462351  0.49798742  1
  H  H4  1  0.90339719  0.22568338  0.11135441  1
  H  H5  1  0.77431662  0.09660281  0.61135441  1
  H  H6  1  0.65459034  0.35573444  0.89058530  1
  H  H7  1  0.64426556  0.34540966  0.39058530  1
  H  H8  1  0.85956492  0.85894574  0.10674701  1
  H  H9  1  0.14105426  0.14043508  0.60674701  1
  H  H10  1  0.04270225  0.85186579  0.25531211  1
  H  H11  1  0.14813421  0.95729775  0.75531211  1
  H  H12  1  0.98489913  0.58856353  0.17479860  1
  H  H13  1  0.41143647  0.01510087  0.67479860  1
  H  H14  1  0.39440836  0.96755812  0.22098346  1
  H  H15  1  0.03244188  0.60559164  0.72098346  1
  H  H16  1  0.32269968  0.14013896  0.23433705  1
  H  H17  1  0.85986104  0.67730032  0.73433705  1
  H  H18  1  0.53829377  0.24615381  0.12920909  1
  H  H19  1  0.75384619  0.46170623  0.62920909  1
  H  H20  1  0.53077183  0.68095665  0.92433340  1
  H  H21  1  0.31904335  0.46922817  0.42433340  1
  H  H22  1  0.61334634  0.57826090  0.10839194  1
  H  H23  1  0.42173910  0.38665366  0.60839194  1
  H  H24  1  0.39313954  0.64197330  0.02067841  1
  H  H25  1  0.35802670  0.60686046  0.52067841  1
  H  H26  1  0.47173333  0.92927338  0.97407527  1
  H  H27  1  0.07072662  0.52826667  0.47407527  1
  H  H28  1  0.59327538  0.82167699  0.14998671  1
  H  H29  1  0.17832301  0.40672462  0.64998671  1
  H  H30  1  0.74952339  0.85635602  0.82159544  1
  H  H31  1  0.14364398  0.25047661  0.32159544  1
  H  H32  1  0.60550617  0.77271211  0.71642894  1
  H  H33  1  0.22728789  0.39449383  0.21642894  1
  C  C34  1  0.70859821  0.18347257  0.80950770  1
  C  C35  1  0.81652743  0.29140179  0.30950770  1
  C  C36  1  0.13470653  0.71540027  0.04791973  1
  C  C37  1  0.28459973  0.86529347  0.54791973  1
  C  C38  1  0.33651936  0.31218718  0.92598146  1
  C  C39  1  0.68781282  0.66348064  0.42598146  1
  N  N40  1  0.92046421  0.26236751  0.01066974  1
  N  N41  1  0.73763249  0.07953579  0.51066974  1
  N  N42  1  0.75498878  0.28955390  0.89199115  1
  N  N43  1  0.71044610  0.24501122  0.39199115  1
  N  N44  1  0.99502859  0.85464938  0.14699088  1
  N  N45  1  0.14535062  0.00497141  0.64699088  1
  N  N46  1  0.05647195  0.69912672  0.14835074  1
  N  N47  1  0.30087328  0.94352805  0.64835074  1
  N  N48  1  0.32987178  0.08823528  0.15982758  1
  N  N49  1  0.91176472  0.67012822  0.65982758  1
  N  N50  1  0.42471323  0.19967633  0.07321915  1
  N  N51  1  0.80032367  0.57528677  0.57321915  1
  N  N52  1  0.51984203  0.67650160  0.02172014  1
  N  N53  1  0.32349840  0.48015797  0.52172014  1
  N  N54  1  0.57555722  0.84073504  0.04131775  1
  N  N55  1  0.15926496  0.42444278  0.54131775  1
  O  O56  1  0.82647213  0.07826574  0.82615064  1
  O  O57  1  0.92173426  0.17352787  0.32615064  1
  O  O58  1  0.55234776  0.20127628  0.71429029  1
  O  O59  1  0.79872372  0.44765224  0.21429029  1
  O  O60  1  0.16746495  0.86901349  0.96908260  1
  O  O61  1  0.13098651  0.83253505  0.46908260  1
  O  O62  1  0.17714302  0.57342132  0.04308073  1
  O  O63  1  0.42657868  0.82285698  0.54308073  1
  O  O64  1  0.17344799  0.28466628  0.86079137  1
  O  O65  1  0.71533372  0.82655201  0.36079137  1
  O  O66  1  0.42409400  0.42964851  0.86482878  1
  O  O67  1  0.57035149  0.57590600  0.36482878  1
  O  O68  1  0.70828023  0.74244163  0.81285495  1
  O  O69  1  0.25755837  0.29171977  0.31285495  1
