# generated using pymatgen
data_La5Cu4As4(ClO2)2
_symmetry_space_group_name_H-M   'P 1'
_cell_length_a   4.13176026
_cell_length_b   4.13176026
_cell_length_c   21.20790681
_cell_angle_alpha   95.59009360
_cell_angle_beta   95.59009360
_cell_angle_gamma   90.00000000
_symmetry_Int_Tables_number   1
_chemical_formula_structural   La5Cu4As4(ClO2)2
_chemical_formula_sum   'La5 Cu4 As4 Cl2 O4'
_cell_volume   358.59767238
_cell_formula_units_Z   1
loop_
 _symmetry_equiv_pos_site_id
 _symmetry_equiv_pos_as_xyz
  1  'x, y, z'
loop_
 _atom_site_type_symbol
 _atom_site_label
 _atom_site_symmetry_multiplicity
 _atom_site_fract_x
 _atom_site_fract_y
 _atom_site_fract_z
 _atom_site_occupancy
  La  La0  1  0.63858401  0.63858401  0.27716802  1
  La  La1  1  0.36141599  0.36141599  0.72283198  1
  La  La2  1  0.19591341  0.19591341  0.39182683  1
  La  La3  1  0.80408659  0.80408659  0.60817317  1
  La  La4  1  0.00000000  0.00000000  0.00000000  1
  Cu  Cu5  1  0.06454671  0.56454671  0.12909342  1
  Cu  Cu6  1  0.56454671  0.06454671  0.12909342  1
  Cu  Cu7  1  0.93545329  0.43545329  0.87090658  1
  Cu  Cu8  1  0.43545329  0.93545329  0.87090658  1
  As  As9  1  0.53034094  0.53034094  0.06068188  1
  As  As10  1  0.46965906  0.46965906  0.93931812  1
  As  As11  1  0.09584842  0.09584842  0.19169683  1
  As  As12  1  0.90415158  0.90415158  0.80830317  1
  Cl  Cl13  1  0.72839918  0.72839918  0.45679836  1
  Cl  Cl14  1  0.27160082  0.27160082  0.54320164  1
  O  O15  1  0.66722066  0.16722066  0.33444131  1
  O  O16  1  0.16722066  0.66722066  0.33444131  1
  O  O17  1  0.33277934  0.83277934  0.66555869  1
  O  O18  1  0.83277934  0.33277934  0.66555869  1
