# generated using pymatgen
data_H2
_symmetry_space_group_name_H-M   'P 1'
_cell_length_a   5.47736451
_cell_length_b   4.69733740
_cell_length_c   4.95513104
_cell_angle_alpha   90.00000000
_cell_angle_beta   90.00000000
_cell_angle_gamma   90.00000000
_symmetry_Int_Tables_number   1
_chemical_formula_structural   H2
_chemical_formula_sum   H16
_cell_volume   127.49071105
_cell_formula_units_Z   8
loop_
 _symmetry_equiv_pos_site_id
 _symmetry_equiv_pos_as_xyz
  1  'x, y, z'
loop_
 _atom_site_type_symbol
 _atom_site_label
 _atom_site_symmetry_multiplicity
 _atom_site_fract_x
 _atom_site_fract_y
 _atom_site_fract_z
 _atom_site_occupancy
  H  H0  1  0.75000000  0.51555026  0.37663454  1
  H  H1  1  0.75000000  0.98444974  0.87663454  1
  H  H2  1  0.25000000  0.48444974  0.62336546  1
  H  H3  1  0.25000000  0.01555026  0.12336546  1
  H  H4  1  0.75000000  0.45721663  0.51621077  1
  H  H5  1  0.75000000  0.04278337  0.01621077  1
  H  H6  1  0.25000000  0.54278337  0.48378923  1
  H  H7  1  0.25000000  0.95721663  0.98378923  1
  H  H8  1  0.95646872  0.94681627  0.47123800  1
  H  H9  1  0.54353128  0.55318373  0.97123800  1
  H  H10  1  0.45646872  0.05318373  0.52876200  1
  H  H11  1  0.04353128  0.44681627  0.02876200  1
  H  H12  1  0.04353128  0.05318373  0.52876200  1
  H  H13  1  0.45646872  0.44681627  0.02876200  1
  H  H14  1  0.54353128  0.94681627  0.47123800  1
  H  H15  1  0.95646872  0.55318373  0.97123800  1
