# generated using pymatgen
data_Ba2SmInSe5
_symmetry_space_group_name_H-M   'P 1'
_cell_length_a   4.35201349
_cell_length_b   9.82445772
_cell_length_c   13.50479900
_cell_angle_alpha   90.00000000
_cell_angle_beta   90.00000000
_cell_angle_gamma   102.79649184
_symmetry_Int_Tables_number   1
_chemical_formula_structural   Ba2SmInSe5
_chemical_formula_sum   'Ba4 Sm2 In2 Se10'
_cell_volume   563.07224870
_cell_formula_units_Z   2
loop_
 _symmetry_equiv_pos_site_id
 _symmetry_equiv_pos_as_xyz
  1  'x, y, z'
loop_
 _atom_site_type_symbol
 _atom_site_label
 _atom_site_symmetry_multiplicity
 _atom_site_fract_x
 _atom_site_fract_y
 _atom_site_fract_z
 _atom_site_occupancy
  Ba  Ba0  1  0.13120607  0.26241215  0.18549977  1
  Ba  Ba1  1  0.86879393  0.73758785  0.68549977  1
  Ba  Ba2  1  0.11640753  0.23281505  0.81858090  1
  Ba  Ba3  1  0.88359247  0.76718495  0.31858090  1
  Sm  Sm4  1  0.21122362  0.42244723  0.48233186  1
  Sm  Sm5  1  0.78877638  0.57755277  0.98233186  1
  In  In6  1  0.44840485  0.89680970  0.06321969  1
  In  In7  1  0.55159515  0.10319030  0.56321969  1
  Se  Se8  1  0.35827830  0.71655660  0.49946158  1
  Se  Se9  1  0.64172170  0.28344340  0.99946158  1
  Se  Se10  1  0.29099276  0.58198553  0.83966476  1
  Se  Se11  1  0.70900724  0.41801447  0.33966476  1
  Se  Se12  1  0.31443004  0.62886008  0.13304558  1
  Se  Se13  1  0.68556996  0.37113992  0.63304558  1
  Se  Se14  1  0.50508303  0.01016605  0.23453329  1
  Se  Se15  1  0.49491697  0.98983395  0.73453329  1
  Se  Se16  1  0.04837897  0.09675794  0.45042257  1
  Se  Se17  1  0.95162103  0.90324206  0.95042257  1
