# generated using pymatgen
data_Yb2ZnGe
_symmetry_space_group_name_H-M   'P 1'
_cell_length_a   5.08692616
_cell_length_b   5.08692616
_cell_length_c   5.08692616
_cell_angle_alpha   59.96286564
_cell_angle_beta   59.96286564
_cell_angle_gamma   59.96286564
_symmetry_Int_Tables_number   1
_chemical_formula_structural   Yb2ZnGe
_chemical_formula_sum   'Yb2 Zn1 Ge1'
_cell_volume   93.00052896
_cell_formula_units_Z   1
loop_
 _symmetry_equiv_pos_site_id
 _symmetry_equiv_pos_as_xyz
  1  'x, y, z'
loop_
 _atom_site_type_symbol
 _atom_site_label
 _atom_site_symmetry_multiplicity
 _atom_site_fract_x
 _atom_site_fract_y
 _atom_site_fract_z
 _atom_site_occupancy
  Yb  Yb0  1  0.00011483  0.00011483  0.00011483  1
  Yb  Yb1  1  0.49988617  0.49988617  0.49988617  1
  Zn  Zn2  1  0.75000000  0.75000000  0.75000000  1
  Ge  Ge3  1  0.25000000  0.25000000  0.25000000  1
