# generated using pymatgen
data_Zr2InNi2
_symmetry_space_group_name_H-M   'P 1'
_cell_length_a   7.23873300
_cell_length_b   7.23873300
_cell_length_c   6.67060507
_cell_angle_alpha   90.00000000
_cell_angle_beta   90.00000000
_cell_angle_gamma   90.00000000
_symmetry_Int_Tables_number   1
_chemical_formula_structural   Zr2InNi2
_chemical_formula_sum   'Zr8 In4 Ni8'
_cell_volume   349.53473904
_cell_formula_units_Z   4
loop_
 _symmetry_equiv_pos_site_id
 _symmetry_equiv_pos_as_xyz
  1  'x, y, z'
loop_
 _atom_site_type_symbol
 _atom_site_label
 _atom_site_symmetry_multiplicity
 _atom_site_fract_x
 _atom_site_fract_y
 _atom_site_fract_z
 _atom_site_occupancy
  Zr  Zr0  1  0.33871551  0.66128449  0.00000000  1
  Zr  Zr1  1  0.66128449  0.33871551  0.00000000  1
  Zr  Zr2  1  0.83871551  0.83871551  0.50000000  1
  Zr  Zr3  1  0.16128449  0.16128449  0.50000000  1
  Zr  Zr4  1  0.17692019  0.17692019  0.00000000  1
  Zr  Zr5  1  0.82307981  0.82307981  0.00000000  1
  Zr  Zr6  1  0.67692019  0.32307981  0.50000000  1
  Zr  Zr7  1  0.32307981  0.67692019  0.50000000  1
  In  In8  1  0.00000000  0.50000000  0.25000100  1
  In  In9  1  0.50000000  0.00000000  0.25000100  1
  In  In10  1  0.50000000  0.00000000  0.75000000  1
  In  In11  1  0.00000000  0.50000000  0.75000000  1
  Ni  Ni12  1  0.37521825  0.37521825  0.26957721  1
  Ni  Ni13  1  0.62478275  0.62478275  0.26957721  1
  Ni  Ni14  1  0.87521825  0.12478175  0.23042279  1
  Ni  Ni15  1  0.12478175  0.87521825  0.23042279  1
  Ni  Ni16  1  0.62478275  0.62478275  0.73042379  1
  Ni  Ni17  1  0.37521825  0.37521825  0.73042379  1
  Ni  Ni18  1  0.87521825  0.12478175  0.76957621  1
  Ni  Ni19  1  0.12478175  0.87521825  0.76957621  1
