# generated using pymatgen
data_MgCu2GeS4
_symmetry_space_group_name_H-M   'P 1'
_cell_length_a   6.27232494
_cell_length_b   6.54621695
_cell_length_c   7.66311206
_cell_angle_alpha   90.00000000
_cell_angle_beta   90.00000000
_cell_angle_gamma   90.00000000
_symmetry_Int_Tables_number   1
_chemical_formula_structural   MgCu2GeS4
_chemical_formula_sum   'Mg2 Cu4 Ge2 S8'
_cell_volume   314.64737994
_cell_formula_units_Z   2
loop_
 _symmetry_equiv_pos_site_id
 _symmetry_equiv_pos_as_xyz
  1  'x, y, z'
loop_
 _atom_site_type_symbol
 _atom_site_label
 _atom_site_symmetry_multiplicity
 _atom_site_fract_x
 _atom_site_fract_y
 _atom_site_fract_z
 _atom_site_occupancy
  Mg  Mg0  1  0.99741566  0.66019453  0.50000000  1
  Mg  Mg1  1  0.49741566  0.33980547  0.00000000  1
  Cu  Cu2  1  0.00487397  0.17555373  0.24861051  1
  Cu  Cu3  1  0.00487397  0.17555373  0.75138949  1
  Cu  Cu4  1  0.50487397  0.82444627  0.25138949  1
  Cu  Cu5  1  0.50487397  0.82444627  0.74861051  1
  Ge  Ge6  1  0.49879169  0.32446120  0.50000000  1
  Ge  Ge7  1  0.99879169  0.67553880  -0.00000000  1
  S  S8  1  0.37102122  0.15640969  0.26343893  1
  S  S9  1  0.37102122  0.15640969  0.73656107  1
  S  S10  1  0.87102122  0.84359031  0.23656107  1
  S  S11  1  0.87102122  0.84359031  0.76343893  1
  S  S12  1  0.86042933  0.30973118  0.50000000  1
  S  S13  1  0.36042933  0.69026882  0.00000000  1
  S  S14  1  0.39149295  0.65498612  0.50000000  1
  S  S15  1  0.89149295  0.34501388  0.00000000  1
