# generated using pymatgen
data_Mo3H8C4SN2Cl6O7
_symmetry_space_group_name_H-M   'P 1'
_cell_length_a   11.03536964
_cell_length_b   15.30936928
_cell_length_c   12.61107002
_cell_angle_alpha   90.00000000
_cell_angle_beta   90.36081338
_cell_angle_gamma   90.00000000
_symmetry_Int_Tables_number   1
_chemical_formula_structural   Mo3H8C4SN2Cl6O7
_chemical_formula_sum   'Mo12 H32 C16 S4 N8 Cl24 O28'
_cell_volume   2130.52928939
_cell_formula_units_Z   4
loop_
 _symmetry_equiv_pos_site_id
 _symmetry_equiv_pos_as_xyz
  1  'x, y, z'
loop_
 _atom_site_type_symbol
 _atom_site_label
 _atom_site_symmetry_multiplicity
 _atom_site_fract_x
 _atom_site_fract_y
 _atom_site_fract_z
 _atom_site_occupancy
  Mo  Mo0  1  0.35087086  0.68930932  0.57210474  1
  Mo  Mo1  1  0.64912914  0.18930932  0.92789526  1
  Mo  Mo2  1  0.64912914  0.31069068  0.42789526  1
  Mo  Mo3  1  0.35087086  0.81069068  0.07210474  1
  Mo  Mo4  1  0.24168887  0.89227107  0.57108575  1
  Mo  Mo5  1  0.75831113  0.39227107  0.92891425  1
  Mo  Mo6  1  0.75831113  0.10772893  0.42891425  1
  Mo  Mo7  1  0.24168887  0.60772893  0.07108575  1
  Mo  Mo8  1  0.05215068  0.71833144  0.55107834  1
  Mo  Mo9  1  0.94784932  0.21833144  0.94892166  1
  Mo  Mo10  1  0.94784932  0.28166856  0.44892166  1
  Mo  Mo11  1  0.05215068  0.78166856  0.05107834  1
  H  H12  1  0.78930759  0.75594483  0.75386511  1
  H  H13  1  0.21069241  0.25594483  0.74613489  1
  H  H14  1  0.21069241  0.24405517  0.24613489  1
  H  H15  1  0.78930759  0.74405517  0.25386511  1
  H  H16  1  0.77612840  0.76316084  0.89215557  1
  H  H17  1  0.22387160  0.26316084  0.60784443  1
  H  H18  1  0.22387160  0.23683916  0.10784443  1
  H  H19  1  0.77612840  0.73683916  0.39215557  1
  H  H20  1  0.60614693  0.96339158  0.87819728  1
  H  H21  1  0.39385307  0.46339158  0.62180272  1
  H  H22  1  0.39385307  0.03660842  0.12180272  1
  H  H23  1  0.60614693  0.53660842  0.37819728  1
  H  H24  1  0.63833563  0.87480192  0.96176575  1
  H  H25  1  0.36166437  0.37480192  0.53823425  1
  H  H26  1  0.36166437  0.12519808  0.03823425  1
  H  H27  1  0.63833563  0.62519808  0.46176575  1
  H  H28  1  0.54834465  0.85923461  0.39202514  1
  H  H29  1  0.45165535  0.35923461  0.10797486  1
  H  H30  1  0.45165535  0.14076539  0.60797486  1
  H  H31  1  0.54834465  0.64076539  0.89202514  1
  H  H32  1  0.96883220  0.92214964  0.35125604  1
  H  H33  1  0.03116780  0.42214964  0.14874396  1
  H  H34  1  0.03116780  0.07785036  0.64874396  1
  H  H35  1  0.96883220  0.57785036  0.85125604  1
  H  H36  1  0.19330646  0.51948814  0.36687303  1
  H  H37  1  0.80669354  0.01948814  0.13312697  1
  H  H38  1  0.80669354  0.48051186  0.63312697  1
  H  H39  1  0.19330646  0.98051186  0.86687303  1
  H  H40  1  0.80587085  0.90693557  0.66017139  1
  H  H41  1  0.19412915  0.40693557  0.83982861  1
  H  H42  1  0.19412915  0.09306443  0.33982861  1
  H  H43  1  0.80587085  0.59306443  0.16017139  1
  C  C44  1  0.47386526  0.83912383  0.44506533  1
  C  C45  1  0.52613474  0.33912383  0.05493467  1
  C  C46  1  0.52613474  0.16087617  0.55493467  1
  C  C47  1  0.47386526  0.66087617  0.94506533  1
  C  C48  1  0.02332659  0.88698203  0.41134555  1
  C  C49  1  0.97667341  0.38698203  0.08865445  1
  C  C50  1  0.97667341  0.11301797  0.58865445  1
  C  C51  1  0.02332659  0.61301797  0.91134555  1
  C  C52  1  0.19367691  0.57483518  0.42274641  1
  C  C53  1  0.80632309  0.07483518  0.07725359  1
  C  C54  1  0.80632309  0.42516482  0.57725359  1
  C  C55  1  0.19367691  0.92516482  0.92274641  1
  C  C56  1  0.69954218  0.86412115  0.80836068  1
  C  C57  1  0.30045782  0.36412115  0.69163932  1
  C  C58  1  0.30045782  0.13587885  0.19163932  1
  C  C59  1  0.69954218  0.63587885  0.30836068  1
  S  S60  1  0.68684381  0.91572111  0.68381321  1
  S  S61  1  0.31315619  0.41572111  0.81618679  1
  S  S62  1  0.31315619  0.08427889  0.31618679  1
  S  S63  1  0.68684381  0.58427889  0.18381321  1
  N  N64  1  0.75907838  0.78942204  0.81907665  1
  N  N65  1  0.24092162  0.28942204  0.68092335  1
  N  N66  1  0.24092162  0.21057796  0.18092335  1
  N  N67  1  0.75907838  0.71057796  0.31907665  1
  N  N68  1  0.64401028  0.90289422  0.88845841  1
  N  N69  1  0.35598972  0.40289422  0.61154159  1
  N  N70  1  0.35598972  0.09710578  0.11154159  1
  N  N71  1  0.64401028  0.59710578  0.38845841  1
  Cl  Cl72  1  0.05489292  0.84748820  0.67802564  1
  Cl  Cl73  1  0.94510708  0.34748820  0.82197436  1
  Cl  Cl74  1  0.94510708  0.15251180  0.32197436  1
  Cl  Cl75  1  0.05489292  0.65251180  0.17802564  1
  Cl  Cl76  1  0.18197265  0.62849759  0.68351761  1
  Cl  Cl77  1  0.81802735  0.12849759  0.81648239  1
  Cl  Cl78  1  0.81802735  0.37150241  0.31648239  1
  Cl  Cl79  1  0.18197265  0.87150241  0.18351761  1
  Cl  Cl80  1  0.38200065  0.80925726  0.70325910  1
  Cl  Cl81  1  0.61799935  0.30925726  0.79674090  1
  Cl  Cl82  1  0.61799935  0.19074274  0.29674090  1
  Cl  Cl83  1  0.38200065  0.69074274  0.20325910  1
  Cl  Cl84  1  0.50500896  0.59720789  0.64506033  1
  Cl  Cl85  1  0.49499104  0.09720789  0.85493967  1
  Cl  Cl86  1  0.49499104  0.40279211  0.35493967  1
  Cl  Cl87  1  0.50500896  0.90279211  0.14506033  1
  Cl  Cl88  1  0.26526958  0.03542096  0.65004588  1
  Cl  Cl89  1  0.73473042  0.53542096  0.84995412  1
  Cl  Cl90  1  0.73473042  0.96457904  0.34995412  1
  Cl  Cl91  1  0.26526958  0.46457904  0.15004588  1
  Cl  Cl92  1  0.84841515  0.67089355  0.60405343  1
  Cl  Cl93  1  0.15158485  0.17089355  0.89594657  1
  Cl  Cl94  1  0.15158485  0.32910645  0.39594657  1
  Cl  Cl95  1  0.84841515  0.82910645  0.10405343  1
  O  O96  1  0.22492167  0.76443256  0.51613643  1
  O  O97  1  0.77507833  0.26443256  0.98386357  1
  O  O98  1  0.77507833  0.23556744  0.48386357  1
  O  O99  1  0.22492167  0.73556744  0.01613643  1
  O  O100  1  0.47455060  0.75840912  0.47351936  1
  O  O101  1  0.52544940  0.25840912  0.02648064  1
  O  O102  1  0.52544940  0.24159088  0.52648064  1
  O  O103  1  0.47455060  0.74159088  0.97351936  1
  O  O104  1  0.39976855  0.89841102  0.47066956  1
  O  O105  1  0.60023145  0.39841102  0.02933044  1
  O  O106  1  0.60023145  0.10158898  0.52933044  1
  O  O107  1  0.39976855  0.60158898  0.97066956  1
  O  O108  1  0.11467453  0.92787529  0.44898794  1
  O  O109  1  0.88532547  0.42787529  0.05101206  1
  O  O110  1  0.88532547  0.07212471  0.55101206  1
  O  O111  1  0.11467453  0.57212471  0.94898794  1
  O  O112  1  0.98472112  0.81095166  0.43544482  1
  O  O113  1  0.01527888  0.31095166  0.06455518  1
  O  O114  1  0.01527888  0.18904834  0.56455518  1
  O  O115  1  0.98472112  0.68904834  0.93544482  1
  O  O116  1  0.09323367  0.61037856  0.44407872  1
  O  O117  1  0.90676633  0.11037856  0.05592128  1
  O  O118  1  0.90676633  0.38962144  0.55592128  1
  O  O119  1  0.09323367  0.88962144  0.94407872  1
  O  O120  1  0.29967145  0.59560762  0.45910613  1
  O  O121  1  0.70032855  0.09560762  0.04089387  1
  O  O122  1  0.70032855  0.40439238  0.54089387  1
  O  O123  1  0.29967145  0.90439238  0.95910613  1
