# generated using pymatgen
data_Tb2Sn5Rh3
_symmetry_space_group_name_H-M   'P 1'
_cell_length_a   4.46572570
_cell_length_b   7.24213963
_cell_length_c   13.44523673
_cell_angle_alpha   90.00000000
_cell_angle_beta   99.55944999
_cell_angle_gamma   90.00000000
_symmetry_Int_Tables_number   1
_chemical_formula_structural   Tb2Sn5Rh3
_chemical_formula_sum   'Tb4 Sn10 Rh6'
_cell_volume   428.79966269
_cell_formula_units_Z   2
loop_
 _symmetry_equiv_pos_site_id
 _symmetry_equiv_pos_as_xyz
  1  'x, y, z'
loop_
 _atom_site_type_symbol
 _atom_site_label
 _atom_site_symmetry_multiplicity
 _atom_site_fract_x
 _atom_site_fract_y
 _atom_site_fract_z
 _atom_site_occupancy
  Tb  Tb0  1  0.17165505  0.74433222  0.34331010  1
  Tb  Tb1  1  0.82834495  0.24433222  0.65668990  1
  Tb  Tb2  1  0.47646901  0.76556215  0.95293803  1
  Tb  Tb3  1  0.52353099  0.26556215  0.04706197  1
  Sn  Sn4  1  0.87965509  0.76573492  0.75931019  1
  Sn  Sn5  1  0.12034491  0.26573492  0.24068981  1
  Sn  Sn6  1  0.70539502  0.44955894  0.41079004  1
  Sn  Sn7  1  0.29460498  0.94955894  0.58920996  1
  Sn  Sn8  1  0.59691121  0.89035708  0.19382243  1
  Sn  Sn9  1  0.40308879  0.39035708  0.80617757  1
  Sn  Sn10  1  0.95242849  0.09812664  0.90485698  1
  Sn  Sn11  1  0.04757151  0.59812664  0.09514302  1
  Sn  Sn12  1  0.28999799  0.52362306  0.57999598  1
  Sn  Sn13  1  0.71000201  0.02362306  0.42000402  1
  Rh  Rh14  1  0.05008692  0.98159468  0.10017384  1
  Rh  Rh15  1  0.94991308  0.48159468  0.89982616  1
  Rh  Rh16  1  0.77668007  0.73441477  0.55336014  1
  Rh  Rh17  1  0.22331993  0.23441477  0.44663986  1
  Rh  Rh18  1  0.39360809  0.01869554  0.78721618  1
  Rh  Rh19  1  0.60639191  0.51869554  0.21278382  1
