# generated using pymatgen
data_PuB2Ru
_symmetry_space_group_name_H-M   'P 1'
_cell_length_a   5.38502930
_cell_length_b   5.75634793
_cell_length_c   6.43048719
_cell_angle_alpha   90.00000000
_cell_angle_beta   90.00000000
_cell_angle_gamma   90.00000000
_symmetry_Int_Tables_number   1
_chemical_formula_structural   PuB2Ru
_chemical_formula_sum   'Pu4 B8 Ru4'
_cell_volume   199.33289952
_cell_formula_units_Z   4
loop_
 _symmetry_equiv_pos_site_id
 _symmetry_equiv_pos_as_xyz
  1  'x, y, z'
loop_
 _atom_site_type_symbol
 _atom_site_label
 _atom_site_symmetry_multiplicity
 _atom_site_fract_x
 _atom_site_fract_y
 _atom_site_fract_z
 _atom_site_occupancy
  Pu  Pu0  1  0.75000000  0.50050966  0.16270039  1
  Pu  Pu1  1  0.75000000  0.00050966  0.33729961  1
  Pu  Pu2  1  0.25000000  0.49949034  0.83729961  1
  Pu  Pu3  1  0.25000000  0.99949034  0.66270039  1
  B  B4  1  0.91329216  0.12931151  0.96309040  1
  B  B5  1  0.58670784  0.62931151  0.53690960  1
  B  B6  1  0.41329216  0.87068849  0.03690960  1
  B  B7  1  0.08670784  0.37068849  0.46309040  1
  B  B8  1  0.08670784  0.87068849  0.03690960  1
  B  B9  1  0.41329216  0.37068849  0.46309040  1
  B  B10  1  0.58670784  0.12931151  0.96309040  1
  B  B11  1  0.91329216  0.62931151  0.53690960  1
  Ru  Ru12  1  0.75000000  0.30739644  0.68412723  1
  Ru  Ru13  1  0.75000000  0.80739644  0.81587277  1
  Ru  Ru14  1  0.25000000  0.69260356  0.31587277  1
  Ru  Ru15  1  0.25000000  0.19260356  0.18412723  1
