# generated using pymatgen
data_YbAlO3
_symmetry_space_group_name_H-M   'P 1'
_cell_length_a   5.23042891
_cell_length_b   5.26619136
_cell_length_c   7.41470465
_cell_angle_alpha   90.00000000
_cell_angle_beta   90.00000000
_cell_angle_gamma   90.00000000
_symmetry_Int_Tables_number   1
_chemical_formula_structural   YbAlO3
_chemical_formula_sum   'Yb4 Al4 O12'
_cell_volume   204.23388390
_cell_formula_units_Z   4
loop_
 _symmetry_equiv_pos_site_id
 _symmetry_equiv_pos_as_xyz
  1  'x, y, z'
loop_
 _atom_site_type_symbol
 _atom_site_label
 _atom_site_symmetry_multiplicity
 _atom_site_fract_x
 _atom_site_fract_y
 _atom_site_fract_z
 _atom_site_occupancy
  Yb  Yb0  1  0.50556739  0.52505706  0.25000000  1
  Yb  Yb1  1  0.99443261  0.02505706  0.25000000  1
  Yb  Yb2  1  0.49443261  0.47494294  0.75000000  1
  Yb  Yb3  1  0.00556739  0.97494294  0.75000000  1
  Al  Al4  1  0.00000000  0.50000000  0.00000000  1
  Al  Al5  1  0.50000000  -0.00000000  0.50000000  1
  Al  Al6  1  -0.00000000  0.50000000  0.50000000  1
  Al  Al7  1  0.50000000  -0.00000000  -0.00000000  1
  O  O8  1  0.45603356  0.99285993  0.25000000  1
  O  O9  1  0.04396644  0.49285993  0.25000000  1
  O  O10  1  0.54396644  0.00714007  0.75000000  1
  O  O11  1  0.95603356  0.50714007  0.75000000  1
  O  O12  1  0.77808893  0.77637201  0.02333397  1
  O  O13  1  0.72191107  0.27637201  0.47666603  1
  O  O14  1  0.22191107  0.22362799  0.52333397  1
  O  O15  1  0.27808893  0.72362799  0.97666603  1
  O  O16  1  0.22191107  0.22362799  0.97666603  1
  O  O17  1  0.27808893  0.72362799  0.52333397  1
  O  O18  1  0.77808893  0.77637201  0.47666603  1
  O  O19  1  0.72191107  0.27637201  0.02333397  1
