# generated using pymatgen
data_Er6GaNi2
_symmetry_space_group_name_H-M   'P 1'
_cell_length_a   8.24743080
_cell_length_b   8.24743080
_cell_length_c   8.24743080
_cell_angle_alpha   106.83354072
_cell_angle_beta   110.25256126
_cell_angle_gamma   111.36136268
_symmetry_Int_Tables_number   1
_chemical_formula_structural   Er6GaNi2
_chemical_formula_sum   'Er12 Ga2 Ni4'
_cell_volume   431.12634981
_cell_formula_units_Z   2
loop_
 _symmetry_equiv_pos_site_id
 _symmetry_equiv_pos_as_xyz
  1  'x, y, z'
loop_
 _atom_site_type_symbol
 _atom_site_label
 _atom_site_symmetry_multiplicity
 _atom_site_fract_x
 _atom_site_fract_y
 _atom_site_fract_z
 _atom_site_occupancy
  Er  Er0  1  0.69829645  0.26412624  0.96242269  1
  Er  Er1  1  0.30170355  0.73587376  0.03757731  1
  Er  Er2  1  0.69829645  0.73587376  0.43417021  1
  Er  Er3  1  0.30170355  0.26412624  0.56582979  1
  Er  Er4  1  0.80418275  0.12825405  0.32407130  1
  Er  Er5  1  0.80418275  0.48011145  0.67592870  1
  Er  Er6  1  0.19581725  0.87174595  0.67592870  1
  Er  Er7  1  0.19581725  0.51988855  0.32407130  1
  Er  Er8  1  0.60242506  0.78354456  0.81888050  1
  Er  Er9  1  0.96466405  0.78354456  0.18111950  1
  Er  Er10  1  0.03533595  0.21645544  0.81888050  1
  Er  Er11  1  0.39757494  0.21645544  0.18111950  1
  Ga  Ga12  1  0.50000000  0.50000000  0.00000000  1
  Ga  Ga13  1  0.50000000  0.00000000  0.50000000  1
  Ni  Ni14  1  0.85630012  0.50000000  0.35630012  1
  Ni  Ni15  1  0.14369988  0.50000000  0.64369988  1
  Ni  Ni16  1  0.00000000  0.12193296  0.12193296  1
  Ni  Ni17  1  -0.00000000  0.87806704  0.87806704  1
