# generated using pymatgen
data_Zr5SiPb3
_symmetry_space_group_name_H-M   'P 1'
_cell_length_a   6.08557423
_cell_length_b   8.92479454
_cell_length_c   8.92223235
_cell_angle_alpha   120.00950035
_cell_angle_beta   90.00000000
_cell_angle_gamma   90.00000000
_symmetry_Int_Tables_number   1
_chemical_formula_structural   Zr5SiPb3
_chemical_formula_sum   'Zr10 Si2 Pb6'
_cell_volume   419.62597925
_cell_formula_units_Z   2
loop_
 _symmetry_equiv_pos_site_id
 _symmetry_equiv_pos_as_xyz
  1  'x, y, z'
loop_
 _atom_site_type_symbol
 _atom_site_label
 _atom_site_symmetry_multiplicity
 _atom_site_fract_x
 _atom_site_fract_y
 _atom_site_fract_z
 _atom_site_occupancy
  Zr  Zr0  1  0.50000403  0.33344636  0.66680002  1
  Zr  Zr1  1  0.50000403  0.66664633  0.33319998  1
  Zr  Zr2  1  0.00000403  0.66655364  0.33319998  1
  Zr  Zr3  1  0.00000403  0.33335367  0.66680002  1
  Zr  Zr4  1  0.75005623  0.25285801  1.00000000  1
  Zr  Zr5  1  0.75002343  0.74756436  0.74730274  1
  Zr  Zr6  1  0.75002343  0.00026162  0.25269726  1
  Zr  Zr7  1  0.25005623  0.74714199  0.00000000  1
  Zr  Zr8  1  0.25002343  0.25243564  0.25269726  1
  Zr  Zr9  1  0.25002343  0.99973838  0.74730274  1
  Si  Si10  1  0.49991352  0.99994049  0.00000000  1
  Si  Si11  1  -0.00008648  0.00005951  1.00000000  1
  Pb  Pb12  1  0.74992424  0.60536415  1.00000000  1
  Pb  Pb13  1  0.75002555  0.39484907  0.39483652  1
  Pb  Pb14  1  0.75002555  0.00001255  0.60516348  1
  Pb  Pb15  1  0.24992424  0.39463585  0.00000000  1
  Pb  Pb16  1  0.25002555  0.60515093  0.60516348  1
  Pb  Pb17  1  0.25002555  0.99998745  0.39483652  1
