# generated using pymatgen
data_Tb7RuI12
_symmetry_space_group_name_H-M   'P 1'
_cell_length_a   9.81976930
_cell_length_b   9.81976930
_cell_length_c   9.81976937
_cell_angle_alpha   107.13551003
_cell_angle_beta   107.13551003
_cell_angle_gamma   107.13551827
_symmetry_Int_Tables_number   1
_chemical_formula_structural   Tb7RuI12
_chemical_formula_sum   'Tb7 Ru1 I12'
_cell_volume   785.65356673
_cell_formula_units_Z   1
loop_
 _symmetry_equiv_pos_site_id
 _symmetry_equiv_pos_as_xyz
  1  'x, y, z'
loop_
 _atom_site_type_symbol
 _atom_site_label
 _atom_site_symmetry_multiplicity
 _atom_site_fract_x
 _atom_site_fract_y
 _atom_site_fract_z
 _atom_site_occupancy
  Tb  Tb0  1  0.70293548  0.90384983  0.97452331  1
  Tb  Tb1  1  0.90384983  0.97452331  0.70293548  1
  Tb  Tb2  1  0.97452331  0.70293548  0.90384983  1
  Tb  Tb3  1  0.29706452  0.09615017  0.02547669  1
  Tb  Tb4  1  0.09615017  0.02547669  0.29706452  1
  Tb  Tb5  1  0.02547669  0.29706452  0.09615017  1
  Tb  Tb6  1  0.50000000  0.50000000  0.50000000  1
  Ru  Ru7  1  0.00000000  0.00000000  0.00000000  1
  I  I8  1  0.83760515  0.61073398  0.53339973  1
  I  I9  1  0.61073398  0.53339973  0.83760515  1
  I  I10  1  0.53339973  0.83760515  0.61073398  1
  I  I11  1  0.16239485  0.38926602  0.46660027  1
  I  I12  1  0.38926602  0.46660027  0.16239485  1
  I  I13  1  0.46660027  0.16239485  0.38926602  1
  I  I14  1  0.07339114  0.67975263  0.22491626  1
  I  I15  1  0.67975263  0.22491626  0.07339114  1
  I  I16  1  0.22491626  0.07339114  0.67975263  1
  I  I17  1  0.92660886  0.32024737  0.77508374  1
  I  I18  1  0.32024737  0.77508374  0.92660886  1
  I  I19  1  0.77508374  0.92660886  0.32024737  1
