# generated using pymatgen
data_KCr3S5
_symmetry_space_group_name_H-M   'P 1'
_cell_length_a   3.53431238
_cell_length_b   9.82796574
_cell_length_c   10.78059988
_cell_angle_alpha   72.34666948
_cell_angle_beta   80.56549627
_cell_angle_gamma   79.64136651
_symmetry_Int_Tables_number   1
_chemical_formula_structural   KCr3S5
_chemical_formula_sum   'K2 Cr6 S10'
_cell_volume   348.61701378
_cell_formula_units_Z   2
loop_
 _symmetry_equiv_pos_site_id
 _symmetry_equiv_pos_as_xyz
  1  'x, y, z'
loop_
 _atom_site_type_symbol
 _atom_site_label
 _atom_site_symmetry_multiplicity
 _atom_site_fract_x
 _atom_site_fract_y
 _atom_site_fract_z
 _atom_site_occupancy
  K  K0  1  0.25931789  0.65754934  0.82381488  1
  K  K1  1  0.74068211  0.34245066  0.17618512  1
  Cr  Cr2  1  0.50000000  0.00000000  -0.00000000  1
  Cr  Cr3  1  0.50000000  0.50000000  0.50000000  1
  Cr  Cr4  1  0.16507313  0.05822253  0.61163122  1
  Cr  Cr5  1  0.83492687  0.94177747  0.38836878  1
  Cr  Cr6  1  0.98290902  0.26122830  0.77295366  1
  Cr  Cr7  1  0.01709098  0.73877170  0.22704634  1
  S  S8  1  0.07548101  0.00027382  0.84876416  1
  S  S9  1  0.92451899  -0.00027382  0.15123584  1
  S  S10  1  0.40741706  0.26425675  0.92090912  1
  S  S11  1  0.59258294  0.73574325  0.07909088  1
  S  S12  1  0.57528263  0.24068592  0.60874882  1
  S  S13  1  0.42471737  0.75931408  0.39125118  1
  S  S14  1  0.74382820  0.89498291  0.61736070  1
  S  S15  1  0.25617180  0.10501709  0.38263930  1
  S  S16  1  0.92000080  0.50757592  0.65242248  1
  S  S17  1  0.07999920  0.49242408  0.34757752  1
