# generated using pymatgen
data_Th3In5
_symmetry_space_group_name_H-M   'P 1'
_cell_length_a   6.63990077
_cell_length_b   6.63989134
_cell_length_c   10.46498750
_cell_angle_alpha   90.00055235
_cell_angle_beta   89.99932094
_cell_angle_gamma   102.32777106
_symmetry_Int_Tables_number   1
_chemical_formula_structural   Th3In5
_chemical_formula_sum   'Th6 In10'
_cell_volume   450.74419979
_cell_formula_units_Z   2
loop_
 _symmetry_equiv_pos_site_id
 _symmetry_equiv_pos_as_xyz
  1  'x, y, z'
loop_
 _atom_site_type_symbol
 _atom_site_label
 _atom_site_symmetry_multiplicity
 _atom_site_fract_x
 _atom_site_fract_y
 _atom_site_fract_z
 _atom_site_occupancy
  Th  Th0  1  0.63220141  0.63219795  0.25000631  1
  Th  Th1  1  0.36779343  0.36779187  0.74999400  1
  Th  Th2  1  0.79369251  0.20631352  0.49999706  1
  Th  Th3  1  0.79369150  0.20631405  0.00000892  1
  Th  Th4  1  0.20631133  0.79369221  0.49999203  1
  Th  Th5  1  0.20631818  0.79369504  0.00000404  1
  In  In6  1  0.01716345  0.01716336  0.25000149  1
  In  In7  1  0.98283788  0.98283821  0.74999861  1
  In  In8  1  0.30888329  0.30888216  0.05109945  1
  In  In9  1  0.69111225  0.69111548  0.94889958  1
  In  In10  1  0.30888123  0.30888388  0.44890136  1
  In  In11  1  0.69111619  0.69111546  0.55109791  1
  In  In12  1  0.07572579  0.49356036  0.24999920  1
  In  In13  1  0.50643866  0.92427263  0.75000070  1
  In  In14  1  0.92427260  0.50643865  0.75000054  1
  In  In15  1  0.49356030  0.07572515  0.24999879  1
