# generated using pymatgen
data_Ta3FeS6
_symmetry_space_group_name_H-M   'P 1'
_cell_length_a   5.74375725
_cell_length_b   5.74405834
_cell_length_c   11.70018102
_cell_angle_alpha   90.01151216
_cell_angle_beta   90.00000001
_cell_angle_gamma   119.99826999
_symmetry_Int_Tables_number   1
_chemical_formula_structural   Ta3FeS6
_chemical_formula_sum   'Ta6 Fe2 S12'
_cell_volume   334.30716973
_cell_formula_units_Z   2
loop_
 _symmetry_equiv_pos_site_id
 _symmetry_equiv_pos_as_xyz
  1  'x, y, z'
loop_
 _atom_site_type_symbol
 _atom_site_label
 _atom_site_symmetry_multiplicity
 _atom_site_fract_x
 _atom_site_fract_y
 _atom_site_fract_z
 _atom_site_occupancy
  Ta  Ta0  1  0.00001838  1.00000000  0.50000000  1
  Ta  Ta1  1  -0.00001441  1.00000000  0.00000000  1
  Ta  Ta2  1  0.66665701  0.33337996  0.49559403  1
  Ta  Ta3  1  0.33327705  0.66662004  0.50440597  1
  Ta  Ta4  1  0.33333420  0.66664303  0.99559292  1
  Ta  Ta5  1  0.66669116  0.33335697  0.00440708  1
  Fe  Fe6  1  0.66669630  0.33331314  0.75000117  1
  Fe  Fe7  1  0.33338316  0.66668686  0.24999883  1
  S  S8  1  0.66758112  0.00476144  0.86493473  1
  S  S9  1  0.33709556  0.33226821  0.86493715  1
  S  S10  1  -0.00484095  0.66277210  0.86494675  1
  S  S11  1  0.66281968  -0.00476144  0.13506527  1
  S  S12  1  0.00482736  0.66773179  0.13506285  1
  S  S13  1  0.33238695  0.33722790  0.13505325  1
  S  S14  1  0.33237037  -0.00486813  0.36494813  1
  S  S15  1  0.66282965  0.66759129  0.36493877  1
  S  S16  1  0.00481417  0.33711778  0.36493314  1
  S  S17  1  0.33723850  0.00486813  0.63505187  1
  S  S18  1  -0.00476164  0.33240871  0.63506123  1
  S  S19  1  0.66769639  0.66288222  0.63506686  1
