# generated using pymatgen
data_PBr3O
_symmetry_space_group_name_H-M   'P 1'
_cell_length_a   6.56422708
_cell_length_b   10.25191125
_cell_length_c   10.60044364
_cell_angle_alpha   90.00000000
_cell_angle_beta   90.00000000
_cell_angle_gamma   90.00000000
_symmetry_Int_Tables_number   1
_chemical_formula_structural   PBr3O
_chemical_formula_sum   'P4 Br12 O4'
_cell_volume   713.36611370
_cell_formula_units_Z   4
loop_
 _symmetry_equiv_pos_site_id
 _symmetry_equiv_pos_as_xyz
  1  'x, y, z'
loop_
 _atom_site_type_symbol
 _atom_site_label
 _atom_site_symmetry_multiplicity
 _atom_site_fract_x
 _atom_site_fract_y
 _atom_site_fract_z
 _atom_site_occupancy
  P  P0  1  0.88468457  0.18832675  0.74509928  1
  P  P1  1  0.11531543  0.81167325  0.24509928  1
  P  P2  1  0.38468457  0.31167325  0.24509928  1
  P  P3  1  0.61531543  0.68832675  0.74509928  1
  Br  Br4  1  0.68181694  0.15911054  0.90853457  1
  Br  Br5  1  0.31818306  0.84088946  0.40853457  1
  Br  Br6  1  0.18181694  0.34088946  0.40853457  1
  Br  Br7  1  0.81818306  0.65911054  0.90853457  1
  Br  Br8  1  0.10162135  0.02470132  0.74989993  1
  Br  Br9  1  0.89837865  0.97529868  0.24989993  1
  Br  Br10  1  0.60162135  0.47529868  0.24989993  1
  Br  Br11  1  0.39837865  0.52470132  0.74989993  1
  Br  Br12  1  0.68999147  0.15130367  0.57952609  1
  Br  Br13  1  0.31000853  0.84869633  0.07952609  1
  Br  Br14  1  0.18999147  0.34869633  0.07952609  1
  Br  Br15  1  0.81000853  0.65130367  0.57952609  1
  O  O16  1  0.98569778  0.31691359  0.74354014  1
  O  O17  1  0.01430222  0.68308641  0.24354014  1
  O  O18  1  0.48569778  0.18308641  0.24354014  1
  O  O19  1  0.51430222  0.81691359  0.74354014  1
