# generated using pymatgen
data_Hf5Ir3
_symmetry_space_group_name_H-M   'P 1'
_cell_length_a   5.52725609
_cell_length_b   7.98580973
_cell_length_c   7.97342863
_cell_angle_alpha   120.05137607
_cell_angle_beta   90.00000000
_cell_angle_gamma   90.00000000
_symmetry_Int_Tables_number   1
_chemical_formula_structural   Hf5Ir3
_chemical_formula_sum   'Hf10 Ir6'
_cell_volume   304.63459507
_cell_formula_units_Z   2
loop_
 _symmetry_equiv_pos_site_id
 _symmetry_equiv_pos_as_xyz
  1  'x, y, z'
loop_
 _atom_site_type_symbol
 _atom_site_label
 _atom_site_symmetry_multiplicity
 _atom_site_fract_x
 _atom_site_fract_y
 _atom_site_fract_z
 _atom_site_occupancy
  Hf  Hf0  1  0.49999986  0.33332755  0.66669243  1
  Hf  Hf1  1  0.49999986  0.66663512  0.33330757  1
  Hf  Hf2  1  0.99999986  0.66667245  0.33330757  1
  Hf  Hf3  1  0.99999986  0.33336488  0.66669243  1
  Hf  Hf4  1  0.75001139  0.24039608  1.00000000  1
  Hf  Hf5  1  0.74999461  0.75966819  0.75970866  1
  Hf  Hf6  1  0.74999461  0.99995953  0.24029134  1
  Hf  Hf7  1  0.25001139  0.75960392  0.00000000  1
  Hf  Hf8  1  0.24999461  0.24033181  0.24029134  1
  Hf  Hf9  1  0.24999461  0.00004047  0.75970866  1
  Ir  Ir10  1  0.74999067  0.60097029  0.00000000  1
  Ir  Ir11  1  0.75000450  0.39925021  0.39916143  1
  Ir  Ir12  1  0.75000450  0.00008878  0.60083857  1
  Ir  Ir13  1  0.24999067  0.39902971  1.00000000  1
  Ir  Ir14  1  0.25000450  0.60074979  0.60083857  1
  Ir  Ir15  1  0.25000450  0.99991122  0.39916143  1
