# generated using pymatgen
data_Th2Ni7
_symmetry_space_group_name_H-M   'P 1'
_cell_length_a   4.97627845
_cell_length_b   4.97627845
_cell_length_c   12.73928868
_cell_angle_alpha   78.73703587
_cell_angle_beta   78.73703587
_cell_angle_gamma   59.99999746
_symmetry_Int_Tables_number   1
_chemical_formula_structural   Th2Ni7
_chemical_formula_sum   'Th4 Ni14'
_cell_volume   266.16424536
_cell_formula_units_Z   2
loop_
 _symmetry_equiv_pos_site_id
 _symmetry_equiv_pos_as_xyz
  1  'x, y, z'
loop_
 _atom_site_type_symbol
 _atom_site_label
 _atom_site_symmetry_multiplicity
 _atom_site_fract_x
 _atom_site_fract_y
 _atom_site_fract_z
 _atom_site_occupancy
  Th  Th0  1  0.04994224  0.04994224  0.85017328  1
  Th  Th1  1  0.95005776  0.95005776  0.14982672  1
  Th  Th2  1  0.14501444  0.14501444  0.56495668  1
  Th  Th3  1  0.85498556  0.85498556  0.43504332  1
  Ni  Ni4  1  0.10765503  0.61048086  0.67138325  1
  Ni  Ni5  1  0.61048086  0.61048086  0.67138325  1
  Ni  Ni6  1  0.61048086  0.10765503  0.67138325  1
  Ni  Ni7  1  0.89234497  0.38951914  0.32861675  1
  Ni  Ni8  1  0.38951914  0.38951914  0.32861675  1
  Ni  Ni9  1  0.38951914  0.89234497  0.32861675  1
  Ni  Ni10  1  0.50000000  0.50000000  0.00000000  1
  Ni  Ni11  1  0.50000000  -0.00000000  0.00000000  1
  Ni  Ni12  1  -0.00000000  0.50000000  0.00000000  1
  Ni  Ni13  1  0.27845668  0.27845668  0.16462997  1
  Ni  Ni14  1  0.72154332  0.72154332  0.83537003  1
  Ni  Ni15  1  0.38832918  0.38832918  0.83501246  1
  Ni  Ni16  1  0.61167082  0.61167082  0.16498754  1
  Ni  Ni17  1  0.50000000  0.50000000  0.50000000  1
