# generated using pymatgen
data_LiMoH6NO5
_symmetry_space_group_name_H-M   'P 1'
_cell_length_a   8.17452070
_cell_length_b   11.23366307
_cell_length_c   14.20895283
_cell_angle_alpha   90.00000000
_cell_angle_beta   90.00000000
_cell_angle_gamma   90.00000000
_symmetry_Int_Tables_number   1
_chemical_formula_structural   LiMoH6NO5
_chemical_formula_sum   'Li8 Mo8 H48 N8 O40'
_cell_volume   1304.80545719
_cell_formula_units_Z   8
loop_
 _symmetry_equiv_pos_site_id
 _symmetry_equiv_pos_as_xyz
  1  'x, y, z'
loop_
 _atom_site_type_symbol
 _atom_site_label
 _atom_site_symmetry_multiplicity
 _atom_site_fract_x
 _atom_site_fract_y
 _atom_site_fract_z
 _atom_site_occupancy
  Li  Li0  1  0.01580833  0.07331680  0.18046599  1
  Li  Li1  1  0.51580833  0.92668320  0.31953401  1
  Li  Li2  1  0.98419167  0.42668320  0.68046599  1
  Li  Li3  1  0.48419167  0.57331680  0.81953401  1
  Li  Li4  1  0.98419167  0.92668320  0.81953401  1
  Li  Li5  1  0.48419167  0.07331680  0.68046599  1
  Li  Li6  1  0.01580833  0.57331680  0.31953401  1
  Li  Li7  1  0.51580833  0.42668320  0.18046599  1
  Mo  Mo8  1  0.93209945  0.37542189  0.12993296  1
  Mo  Mo9  1  0.43209945  0.62457811  0.37006704  1
  Mo  Mo10  1  0.06790055  0.12457811  0.62993296  1
  Mo  Mo11  1  0.56790055  0.87542189  0.87006704  1
  Mo  Mo12  1  0.06790055  0.62457811  0.87006704  1
  Mo  Mo13  1  0.56790055  0.37542189  0.62993296  1
  Mo  Mo14  1  0.93209945  0.87542189  0.37006704  1
  Mo  Mo15  1  0.43209945  0.12457811  0.12993296  1
  H  H16  1  0.83917044  0.96626149  0.03609209  1
  H  H17  1  0.33917044  0.03373851  0.46390791  1
  H  H18  1  0.16082956  0.53373851  0.53609209  1
  H  H19  1  0.66082956  0.46626149  0.96390791  1
  H  H20  1  0.16082956  0.03373851  0.96390791  1
  H  H21  1  0.66082956  0.96626149  0.53609209  1
  H  H22  1  0.83917044  0.46626149  0.46390791  1
  H  H23  1  0.33917044  0.53373851  0.03609209  1
  H  H24  1  0.74549236  0.97487276  0.13094502  1
  H  H25  1  0.24549236  0.02512724  0.36905498  1
  H  H26  1  0.25450764  0.52512724  0.63094502  1
  H  H27  1  0.75450764  0.47487276  0.86905498  1
  H  H28  1  0.25450764  0.02512724  0.86905498  1
  H  H29  1  0.75450764  0.97487276  0.63094502  1
  H  H30  1  0.74549236  0.47487276  0.36905498  1
  H  H31  1  0.24549236  0.52512724  0.13094502  1
  H  H32  1  0.08510788  0.27223537  0.00057019  1
  H  H33  1  0.58510788  0.72776463  0.49942981  1
  H  H34  1  0.91489212  0.22776463  0.50057019  1
  H  H35  1  0.41489212  0.77223537  0.99942981  1
  H  H36  1  0.91489212  0.72776463  0.99942981  1
  H  H37  1  0.41489212  0.27223537  0.50057019  1
  H  H38  1  0.08510788  0.77223537  0.49942981  1
  H  H39  1  0.58510788  0.22776463  0.00057019  1
  H  H40  1  0.66356210  0.18546751  0.31232841  1
  H  H41  1  0.16356210  0.81453249  0.18767159  1
  H  H42  1  0.33643790  0.31453249  0.81232841  1
  H  H43  1  0.83643790  0.68546751  0.68767159  1
  H  H44  1  0.33643790  0.81453249  0.68767159  1
  H  H45  1  0.83643790  0.18546751  0.81232841  1
  H  H46  1  0.66356210  0.68546751  0.18767159  1
  H  H47  1  0.16356210  0.31453249  0.31232841  1
  H  H48  1  0.74038068  0.14062648  0.90640129  1
  H  H49  1  0.24038068  0.85937352  0.59359871  1
  H  H50  1  0.25961932  0.35937352  0.40640129  1
  H  H51  1  0.75961932  0.64062648  0.09359871  1
  H  H52  1  0.25961932  0.85937352  0.09359871  1
  H  H53  1  0.75961932  0.14062648  0.40640129  1
  H  H54  1  0.74038068  0.64062648  0.59359871  1
  H  H55  1  0.24038068  0.35937352  0.90640129  1
  H  H56  1  0.34403260  0.26311246  0.33595987  1
  H  H57  1  0.84403260  0.73688754  0.16404013  1
  H  H58  1  0.65596740  0.23688754  0.83595987  1
  H  H59  1  0.15596740  0.76311246  0.66404013  1
  H  H60  1  0.65596740  0.73688754  0.66404013  1
  H  H61  1  0.15596740  0.26311246  0.83595987  1
  H  H62  1  0.34403260  0.76311246  0.16404013  1
  H  H63  1  0.84403260  0.23688754  0.33595987  1
  N  N64  1  0.73530795  0.21443092  0.36675136  1
  N  N65  1  0.23530795  0.78556908  0.13324864  1
  N  N66  1  0.26469205  0.28556908  0.86675136  1
  N  N67  1  0.76469205  0.71443092  0.63324864  1
  N  N68  1  0.26469205  0.78556908  0.63324864  1
  N  N69  1  0.76469205  0.21443092  0.86675136  1
  N  N70  1  0.73530795  0.71443092  0.13324864  1
  N  N71  1  0.23530795  0.28556908  0.36675136  1
  O  O72  1  0.02950224  0.48949600  0.19608104  1
  O  O73  1  0.52950224  0.51050400  0.30391896  1
  O  O74  1  0.97049776  0.01050400  0.69608104  1
  O  O75  1  0.47049776  0.98949600  0.80391896  1
  O  O76  1  0.97049776  0.51050400  0.80391896  1
  O  O77  1  0.47049776  0.48949600  0.69608104  1
  O  O78  1  0.02950224  0.98949600  0.30391896  1
  O  O79  1  0.52950224  0.01050400  0.19608104  1
  O  O80  1  0.94662101  0.24157236  0.19265994  1
  O  O81  1  0.44662101  0.75842764  0.30734006  1
  O  O82  1  0.05337899  0.25842764  0.69265994  1
  O  O83  1  0.55337899  0.74157236  0.80734006  1
  O  O84  1  0.05337899  0.75842764  0.80734006  1
  O  O85  1  0.55337899  0.24157236  0.69265994  1
  O  O86  1  0.94662101  0.74157236  0.30734006  1
  O  O87  1  0.44662101  0.25842764  0.19265994  1
  O  O88  1  0.72244928  0.41034409  0.10715876  1
  O  O89  1  0.22244928  0.58965591  0.39284124  1
  O  O90  1  0.27755072  0.08965591  0.60715876  1
  O  O91  1  0.77755072  0.91034409  0.89284124  1
  O  O92  1  0.27755072  0.58965591  0.89284124  1
  O  O93  1  0.77755072  0.41034409  0.60715876  1
  O  O94  1  0.72244928  0.91034409  0.39284124  1
  O  O95  1  0.22244928  0.08965591  0.10715876  1
  O  O96  1  0.04484473  0.35252672  0.01460558  1
  O  O97  1  0.54484473  0.64747328  0.48539442  1
  O  O98  1  0.95515527  0.14747328  0.51460558  1
  O  O99  1  0.45515527  0.85252672  0.98539442  1
  O  O100  1  0.95515527  0.64747328  0.98539442  1
  O  O101  1  0.45515527  0.35252672  0.51460558  1
  O  O102  1  0.04484473  0.85252672  0.48539442  1
  O  O103  1  0.54484473  0.14747328  0.01460558  1
  O  O104  1  0.85140465  0.99281074  0.10096687  1
  O  O105  1  0.35140465  0.00718926  0.39903313  1
  O  O106  1  0.14859535  0.50718926  0.60096687  1
  O  O107  1  0.64859535  0.49281074  0.89903313  1
  O  O108  1  0.14859535  0.00718926  0.89903313  1
  O  O109  1  0.64859535  0.99281074  0.60096687  1
  O  O110  1  0.85140465  0.49281074  0.39903313  1
  O  O111  1  0.35140465  0.50718926  0.10096687  1
