# generated using pymatgen
data_Na2In2GeSe6
_symmetry_space_group_name_H-M   'P 1'
_cell_length_a   7.70550264
_cell_length_b   7.70550264
_cell_length_c   13.06852927
_cell_angle_alpha   74.23722944
_cell_angle_beta   74.23722944
_cell_angle_gamma   65.19203964
_symmetry_Int_Tables_number   1
_chemical_formula_structural   Na2In2GeSe6
_chemical_formula_sum   'Na4 In4 Ge2 Se12'
_cell_volume   666.71707378
_cell_formula_units_Z   2
loop_
 _symmetry_equiv_pos_site_id
 _symmetry_equiv_pos_as_xyz
  1  'x, y, z'
loop_
 _atom_site_type_symbol
 _atom_site_label
 _atom_site_symmetry_multiplicity
 _atom_site_fract_x
 _atom_site_fract_y
 _atom_site_fract_z
 _atom_site_occupancy
  Na  Na0  1  0.18493002  0.33414429  0.00879009  1
  Na  Na1  1  0.33414429  0.18493002  0.50879009  1
  Na  Na2  1  0.35859644  0.72574806  0.16932514  1
  Na  Na3  1  0.72574806  0.35859644  0.66932514  1
  In  In4  1  0.84503804  0.97704518  0.01219690  1
  In  In5  1  0.97704518  0.84503804  0.51219690  1
  In  In6  1  0.65113501  0.80403489  0.81730988  1
  In  In7  1  0.80403489  0.65113501  0.31730988  1
  Ge  Ge8  1  0.19552797  0.74818750  0.76151931  1
  Ge  Ge9  1  0.74818750  0.19552797  0.26151931  1
  Se  Se10  1  0.04541723  0.05510899  0.81652449  1
  Se  Se11  1  0.05510899  0.04541723  0.31652449  1
  Se  Se12  1  0.78969397  0.30249066  0.07070465  1
  Se  Se13  1  0.30249066  0.78969397  0.57070465  1
  Se  Se14  1  0.04175417  0.65361394  0.13084347  1
  Se  Se15  1  0.65361394  0.04175417  0.63084347  1
  Se  Se16  1  0.52215616  0.96793086  0.98762863  1
  Se  Se17  1  0.96793086  0.52215616  0.48762863  1
  Se  Se18  1  0.47199536  0.55771741  0.84901108  1
  Se  Se19  1  0.55771741  0.47199536  0.34901108  1
  Se  Se20  1  0.01235511  0.54523872  0.80791637  1
  Se  Se21  1  0.54523872  0.01235511  0.30791637  1
