# generated using pymatgen
data_GdSiPt2
_symmetry_space_group_name_H-M   'P 1'
_cell_length_a   5.60498031
_cell_length_b   6.93823257
_cell_length_c   7.43427408
_cell_angle_alpha   90.00000000
_cell_angle_beta   90.00000000
_cell_angle_gamma   90.00000000
_symmetry_Int_Tables_number   1
_chemical_formula_structural   GdSiPt2
_chemical_formula_sum   'Gd4 Si4 Pt8'
_cell_volume   289.10893430
_cell_formula_units_Z   4
loop_
 _symmetry_equiv_pos_site_id
 _symmetry_equiv_pos_as_xyz
  1  'x, y, z'
loop_
 _atom_site_type_symbol
 _atom_site_label
 _atom_site_symmetry_multiplicity
 _atom_site_fract_x
 _atom_site_fract_y
 _atom_site_fract_z
 _atom_site_occupancy
  Gd  Gd0  1  0.14101384  0.75000000  0.47127647  1
  Gd  Gd1  1  0.35898616  0.75000000  0.97127647  1
  Gd  Gd2  1  0.85898616  0.25000000  0.52872353  1
  Gd  Gd3  1  0.64101384  0.25000000  0.02872353  1
  Si  Si4  1  0.85752676  0.75000000  0.12281851  1
  Si  Si5  1  0.64247324  0.75000000  0.62281851  1
  Si  Si6  1  0.14247324  0.25000000  0.87718149  1
  Si  Si7  1  0.35752676  0.25000000  0.37718149  1
  Pt  Pt8  1  0.59174303  0.94941682  0.32183215  1
  Pt  Pt9  1  0.90825697  0.55058318  0.82183215  1
  Pt  Pt10  1  0.40825697  0.44941682  0.67816785  1
  Pt  Pt11  1  0.09174303  0.05058318  0.17816785  1
  Pt  Pt12  1  0.40825697  0.05058318  0.67816785  1
  Pt  Pt13  1  0.09174303  0.44941682  0.17816785  1
  Pt  Pt14  1  0.59174303  0.55058318  0.32183215  1
  Pt  Pt15  1  0.90825697  0.94941682  0.82183215  1
