# generated using pymatgen
data_Nd2CoTe2(SO7)2
_symmetry_space_group_name_H-M   'P 1'
_cell_length_a   5.41733194
_cell_length_b   8.08682838
_cell_length_c   8.34212194
_cell_angle_alpha   64.35629345
_cell_angle_beta   72.74115440
_cell_angle_gamma   86.43551799
_symmetry_Int_Tables_number   1
_chemical_formula_structural   Nd2CoTe2(SO7)2
_chemical_formula_sum   'Nd2 Co1 Te2 S2 O14'
_cell_volume   313.69673135
_cell_formula_units_Z   1
loop_
 _symmetry_equiv_pos_site_id
 _symmetry_equiv_pos_as_xyz
  1  'x, y, z'
loop_
 _atom_site_type_symbol
 _atom_site_label
 _atom_site_symmetry_multiplicity
 _atom_site_fract_x
 _atom_site_fract_y
 _atom_site_fract_z
 _atom_site_occupancy
  Nd  Nd0  1  0.90659830  0.74909931  0.98396890  1
  Nd  Nd1  1  0.09340170  0.25090069  0.01603110  1
  Co  Co2  1  0.00000000  -0.00000000  0.50000000  1
  Te  Te3  1  0.47826835  0.73476234  0.65551324  1
  Te  Te4  1  0.52173165  0.26523766  0.34448676  1
  S  S5  1  0.21893153  0.75255907  0.25405152  1
  S  S6  1  0.78106847  0.24744093  0.74594848  1
  O  O7  1  0.07369484  0.59729419  0.26289836  1
  O  O8  1  0.92630516  0.40270581  0.73710164  1
  O  O9  1  0.11937851  0.77844637  0.42602410  1
  O  O10  1  0.88062149  0.22155363  0.57397590  1
  O  O11  1  0.49886271  0.72103500  0.22185377  1
  O  O12  1  0.50113729  0.27896500  0.77814623  1
  O  O13  1  0.17851744  0.91996941  0.08932206  1
  O  O14  1  0.82148256  0.08003059  0.91067794  1
  O  O15  1  0.25226969  0.56862399  0.89006574  1
  O  O16  1  0.74773031  0.43137601  0.10993426  1
  O  O17  1  0.71905409  0.81119806  0.74073555  1
  O  O18  1  0.28094591  0.18880194  0.25926445  1
  O  O19  1  0.24831388  0.92386868  0.66141384  1
  O  O20  1  0.75168612  0.07613132  0.33858616  1
