# generated using pymatgen
data_Ho2CoTe2(SO7)2
_symmetry_space_group_name_H-M   'P 1'
_cell_length_a   5.29257550
_cell_length_b   7.89866521
_cell_length_c   8.17324834
_cell_angle_alpha   64.25701691
_cell_angle_beta   73.04876170
_cell_angle_gamma   85.64113823
_symmetry_Int_Tables_number   1
_chemical_formula_structural   Ho2CoTe2(SO7)2
_chemical_formula_sum   'Ho2 Co1 Te2 S2 O14'
_cell_volume   293.88570506
_cell_formula_units_Z   1
loop_
 _symmetry_equiv_pos_site_id
 _symmetry_equiv_pos_as_xyz
  1  'x, y, z'
loop_
 _atom_site_type_symbol
 _atom_site_label
 _atom_site_symmetry_multiplicity
 _atom_site_fract_x
 _atom_site_fract_y
 _atom_site_fract_z
 _atom_site_occupancy
  Ho  Ho0  1  0.91613051  0.74754583  0.98329928  1
  Ho  Ho1  1  0.08386949  0.25245417  0.01670072  1
  Co  Co2  1  -0.00000000  -0.00000000  0.50000000  1
  Te  Te3  1  0.48299415  0.72642420  0.66361194  1
  Te  Te4  1  0.51700585  0.27357580  0.33638806  1
  S  S5  1  0.23400031  0.75550003  0.24830291  1
  S  S6  1  0.76599969  0.24449997  0.75169709  1
  O  O7  1  0.09714235  0.59494848  0.25289106  1
  O  O8  1  0.90285765  0.40505152  0.74710894  1
  O  O9  1  0.13117946  0.77351410  0.42820746  1
  O  O10  1  0.86882054  0.22648590  0.57179254  1
  O  O11  1  0.52288130  0.73012939  0.21314885  1
  O  O12  1  0.47711870  0.26987061  0.78685115  1
  O  O13  1  0.17617601  0.92567619  0.08654819  1
  O  O14  1  0.82382399  0.07432381  0.91345181  1
  O  O15  1  0.24498000  0.56058742  0.89770719  1
  O  O16  1  0.75502000  0.43941258  0.10229281  1
  O  O17  1  0.72396683  0.80750976  0.75228911  1
  O  O18  1  0.27603317  0.19249024  0.24771089  1
  O  O19  1  0.24682433  0.92156515  0.66994790  1
  O  O20  1  0.75317567  0.07843485  0.33005210  1
