# generated using pymatgen
data_Gd2CoTe2(SO7)2
_symmetry_space_group_name_H-M   'P 1'
_cell_length_a   5.33887195
_cell_length_b   7.97825543
_cell_length_c   8.24400730
_cell_angle_alpha   64.23232350
_cell_angle_beta   73.03655522
_cell_angle_gamma   85.79890155
_symmetry_Int_Tables_number   1
_chemical_formula_structural   Gd2CoTe2(SO7)2
_chemical_formula_sum   'Gd2 Co1 Te2 S2 O14'
_cell_volume   301.89064661
_cell_formula_units_Z   1
loop_
 _symmetry_equiv_pos_site_id
 _symmetry_equiv_pos_as_xyz
  1  'x, y, z'
loop_
 _atom_site_type_symbol
 _atom_site_label
 _atom_site_symmetry_multiplicity
 _atom_site_fract_x
 _atom_site_fract_y
 _atom_site_fract_z
 _atom_site_occupancy
  Gd  Gd0  1  0.91428658  0.74823537  0.98341649  1
  Gd  Gd1  1  0.08571342  0.25176463  0.01658351  1
  Co  Co2  1  -0.00000000  -0.00000000  0.50000000  1
  Te  Te3  1  0.48187160  0.72910752  0.66049938  1
  Te  Te4  1  0.51812840  0.27089248  0.33950062  1
  S  S5  1  0.23107497  0.75406400  0.25120002  1
  S  S6  1  0.76892503  0.24593600  0.74879998  1
  O  O7  1  0.09643102  0.59458804  0.25672908  1
  O  O8  1  0.90356898  0.40541196  0.74327092  1
  O  O9  1  0.12680473  0.77487889  0.42782353  1
  O  O10  1  0.87319527  0.22512111  0.57217647  1
  O  O11  1  0.51706284  0.72962950  0.21745848  1
  O  O12  1  0.48293716  0.27037050  0.78254152  1
  O  O13  1  0.17721139  0.92239432  0.08885466  1
  O  O14  1  0.82278861  0.07760568  0.91114534  1
  O  O15  1  0.24971620  0.56270087  0.89386513  1
  O  O16  1  0.75028380  0.43729913  0.10613487  1
  O  O17  1  0.72293818  0.80847076  0.74727045  1
  O  O18  1  0.27706182  0.19152924  0.25272955  1
  O  O19  1  0.24792301  0.92204904  0.66627741  1
  O  O20  1  0.75207699  0.07795096  0.33372259  1
