# generated using pymatgen
data_Sr2CoGe2O7
_symmetry_space_group_name_H-M   'P 1'
_cell_length_a   5.39553463
_cell_length_b   8.27287270
_cell_length_c   8.27287270
_cell_angle_alpha   90.00000000
_cell_angle_beta   90.00000000
_cell_angle_gamma   90.00000000
_symmetry_Int_Tables_number   1
_chemical_formula_structural   Sr2CoGe2O7
_chemical_formula_sum   'Sr4 Co2 Ge4 O14'
_cell_volume   369.27267083
_cell_formula_units_Z   2
loop_
 _symmetry_equiv_pos_site_id
 _symmetry_equiv_pos_as_xyz
  1  'x, y, z'
loop_
 _atom_site_type_symbol
 _atom_site_label
 _atom_site_symmetry_multiplicity
 _atom_site_fract_x
 _atom_site_fract_y
 _atom_site_fract_z
 _atom_site_occupancy
  Sr  Sr0  1  0.50684564  0.83443887  0.33443887  1
  Sr  Sr1  1  0.49315436  0.66556113  0.83443887  1
  Sr  Sr2  1  0.50684564  0.16556113  0.66556113  1
  Sr  Sr3  1  0.49315436  0.33443887  0.16556113  1
  Co  Co4  1  -0.00000000  0.50000000  0.50000000  1
  Co  Co5  1  -0.00000000  0.00000000  0.00000000  1
  Ge  Ge6  1  0.95101857  0.35728457  0.85728457  1
  Ge  Ge7  1  0.04898143  0.14271543  0.35728457  1
  Ge  Ge8  1  0.95101857  0.64271543  0.14271543  1
  Ge  Ge9  1  0.04898143  0.85728457  0.64271543  1
  O  O10  1  0.18357295  0.00000000  0.50000000  1
  O  O11  1  0.81642705  0.50000000  0.00000000  1
  O  O12  1  0.27369849  0.36145939  0.86145939  1
  O  O13  1  0.72630151  0.13854061  0.36145939  1
  O  O14  1  0.27369849  0.63854061  0.13854061  1
  O  O15  1  0.72630151  0.86145939  0.63854061  1
  O  O16  1  0.20866952  0.32094805  0.41817050  1
  O  O17  1  0.79133048  0.17905195  0.91817050  1
  O  O18  1  0.20866952  0.67905195  0.58182950  1
  O  O19  1  0.79133048  0.82094805  0.08182950  1
  O  O20  1  0.79133048  0.58182950  0.32094805  1
  O  O21  1  0.20866952  0.91817050  0.82094805  1
  O  O22  1  0.79133048  0.41817050  0.67905195  1
  O  O23  1  0.20866952  0.08182950  0.17905195  1
