# generated using pymatgen
data_Nd2CuTe2(SO7)2
_symmetry_space_group_name_H-M   'P 1'
_cell_length_a   5.28220109
_cell_length_b   8.14698030
_cell_length_c   8.40252960
_cell_angle_alpha   61.98369706
_cell_angle_beta   74.24222003
_cell_angle_gamma   85.60162041
_symmetry_Int_Tables_number   1
_chemical_formula_structural   Nd2CuTe2(SO7)2
_chemical_formula_sum   'Nd2 Cu1 Te2 S2 O14'
_cell_volume   306.67252173
_cell_formula_units_Z   1
loop_
 _symmetry_equiv_pos_site_id
 _symmetry_equiv_pos_as_xyz
  1  'x, y, z'
loop_
 _atom_site_type_symbol
 _atom_site_label
 _atom_site_symmetry_multiplicity
 _atom_site_fract_x
 _atom_site_fract_y
 _atom_site_fract_z
 _atom_site_occupancy
  Nd  Nd0  1  0.92559165  0.75015466  0.98293692  1
  Nd  Nd1  1  0.07440835  0.24984534  0.01706308  1
  Cu  Cu2  1  0.00000000  0.00000000  0.50000000  1
  Te  Te3  1  0.48860634  0.73355084  0.64923735  1
  Te  Te4  1  0.51139366  0.26644916  0.35076265  1
  S  S5  1  0.24871013  0.74562913  0.25624818  1
  S  S6  1  0.75128987  0.25437087  0.74375182  1
  O  O7  1  0.14104075  0.58697226  0.24794514  1
  O  O8  1  0.85895925  0.41302774  0.75205486  1
  O  O9  1  0.13262721  0.74882771  0.43444813  1
  O  O10  1  0.86737279  0.25117229  0.56555187  1
  O  O11  1  0.53924565  0.73896803  0.22218595  1
  O  O12  1  0.46075435  0.26103197  0.77781405  1
  O  O13  1  0.17706138  0.91691009  0.09745582  1
  O  O14  1  0.82293862  0.08308991  0.90254418  1
  O  O15  1  0.26067025  0.56477696  0.88366066  1
  O  O16  1  0.73932975  0.43522304  0.11633934  1
  O  O17  1  0.72926777  0.81457596  0.73559248  1
  O  O18  1  0.27073223  0.18542404  0.26440752  1
  O  O19  1  0.25135261  0.92711390  0.65224006  1
  O  O20  1  0.74864739  0.07288610  0.34775994  1
