# generated using pymatgen
data_YPS
_symmetry_space_group_name_H-M   'P 1'
_cell_length_a   5.32408900
_cell_length_b   5.39385054
_cell_length_c   16.79095342
_cell_angle_alpha   90.00000000
_cell_angle_beta   90.00000000
_cell_angle_gamma   90.00000000
_symmetry_Int_Tables_number   1
_chemical_formula_structural   YPS
_chemical_formula_sum   'Y8 P8 S8'
_cell_volume   482.19152379
_cell_formula_units_Z   8
loop_
 _symmetry_equiv_pos_site_id
 _symmetry_equiv_pos_as_xyz
  1  'x, y, z'
loop_
 _atom_site_type_symbol
 _atom_site_label
 _atom_site_symmetry_multiplicity
 _atom_site_fract_x
 _atom_site_fract_y
 _atom_site_fract_z
 _atom_site_occupancy
  Y  Y0  1  0.75000000  0.01608679  0.13754284  1
  Y  Y1  1  0.75000000  0.51608679  0.36245716  1
  Y  Y2  1  0.25000000  0.98391321  0.86245716  1
  Y  Y3  1  0.25000000  0.48391321  0.63754284  1
  Y  Y4  1  0.75000000  0.48537209  0.85384326  1
  Y  Y5  1  0.75000000  0.98537209  0.64615674  1
  Y  Y6  1  0.25000000  0.51462791  0.14615674  1
  Y  Y7  1  0.25000000  0.01462791  0.35384326  1
  P  P8  1  0.96386892  0.20457139  0.50272769  1
  P  P9  1  0.53613108  0.70457139  0.99727231  1
  P  P10  1  0.46386892  0.79542861  0.49727231  1
  P  P11  1  0.03613108  0.29542861  0.00272769  1
  P  P12  1  0.03613108  0.79542861  0.49727231  1
  P  P13  1  0.46386892  0.29542861  0.00272769  1
  P  P14  1  0.53613108  0.20457139  0.50272769  1
  P  P15  1  0.96386892  0.70457139  0.99727231  1
  S  S16  1  0.75000000  0.01531676  0.31087725  1
  S  S17  1  0.75000000  0.51531676  0.18912275  1
  S  S18  1  0.25000000  0.98468324  0.68912275  1
  S  S19  1  0.25000000  0.48468324  0.81087725  1
  S  S20  1  0.75000000  0.48835283  0.68401368  1
  S  S21  1  0.75000000  0.98835283  0.81598632  1
  S  S22  1  0.25000000  0.51164717  0.31598632  1
  S  S23  1  0.25000000  0.01164717  0.18401368  1
