# generated using pymatgen
data_Rb2Ga2Ge3O10
_symmetry_space_group_name_H-M   'P 1'
_cell_length_a   6.84169591
_cell_length_b   9.55747460
_cell_length_c   10.08926125
_cell_angle_alpha   95.91180517
_cell_angle_beta   109.81951513
_cell_angle_gamma   69.02725062
_symmetry_Int_Tables_number   1
_chemical_formula_structural   Rb2Ga2Ge3O10
_chemical_formula_sum   'Rb4 Ga4 Ge6 O20'
_cell_volume   579.40693880
_cell_formula_units_Z   2
loop_
 _symmetry_equiv_pos_site_id
 _symmetry_equiv_pos_as_xyz
  1  'x, y, z'
loop_
 _atom_site_type_symbol
 _atom_site_label
 _atom_site_symmetry_multiplicity
 _atom_site_fract_x
 _atom_site_fract_y
 _atom_site_fract_z
 _atom_site_occupancy
  Rb  Rb0  1  0.04246073  0.38183366  0.16535064  1
  Rb  Rb1  1  0.63484820  0.09849112  0.62308708  1
  Rb  Rb2  1  0.11025125  0.90150888  0.37691292  1
  Rb  Rb3  1  0.25894375  0.61816634  0.83464936  1
  Ga  Ga4  1  0.56747449  0.47483129  0.25961516  1
  Ga  Ga5  1  0.23759224  0.07002688  0.80698875  1
  Ga  Ga6  1  0.50063137  0.92997312  0.19301125  1
  Ga  Ga7  1  0.78269061  0.52516871  0.74038484  1
  Ge  Ge8  1  0.99775300  1.00000000  0.00000000  1
  Ge  Ge9  1  0.55559379  0.19568961  0.06158709  1
  Ge  Ge10  1  0.02682106  0.29062435  0.55283186  1
  Ge  Ge11  1  0.48876568  0.50000000  0.50000000  1
  Ge  Ge12  1  0.76461355  0.70937565  0.44716814  1
  Ge  Ge13  1  0.68969530  0.80431039  0.93841291  1
  O  O14  1  0.85289088  0.11625624  0.11265014  1
  O  O15  1  0.44828831  0.13479475  0.17152915  1
  O  O16  1  0.50386645  0.39204530  0.08869665  1
  O  O17  1  0.71428469  0.35386166  0.44133204  1
  O  O18  1  0.08414895  0.10708573  0.61586442  1
  O  O19  1  0.17645662  0.29137898  0.44968885  1
  O  O20  1  0.31761467  0.55090093  0.32721033  1
  O  O21  1  0.72319789  0.59997771  0.29033143  1
  O  O22  1  0.72958019  0.83509896  0.11821812  1
  O  O23  1  0.01577502  0.12063509  0.88866258  1
  O  O24  1  0.24774754  0.87936491  0.11133742  1
  O  O25  1  0.44646003  0.16490104  0.88178188  1
  O  O26  1  0.03284317  0.40002229  0.70966857  1
  O  O27  1  0.54130527  0.44909907  0.67278967  1
  O  O28  1  0.01814675  0.70862102  0.55031115  1
  O  O29  1  0.57536926  0.89291427  0.38413558  1
  O  O30  1  0.62681431  0.64613834  0.55866796  1
  O  O31  1  0.80721410  0.60795470  0.91130335  1
  O  O32  1  0.41155490  0.86520525  0.82847085  1
  O  O33  1  0.85649698  0.88374376  0.88734986  1
