# generated using pymatgen
data_Ce2Mg17Ru4
_symmetry_space_group_name_H-M   'P 1'
_cell_length_a   8.60343535
_cell_length_b   8.60343535
_cell_length_c   8.60343535
_cell_angle_alpha   108.47691954
_cell_angle_beta   109.97064721
_cell_angle_gamma   109.97064721
_symmetry_Int_Tables_number   1
_chemical_formula_structural   Ce2Mg17Ru4
_chemical_formula_sum   'Ce2 Mg17 Ru4'
_cell_volume   490.11264822
_cell_formula_units_Z   1
loop_
 _symmetry_equiv_pos_site_id
 _symmetry_equiv_pos_as_xyz
  1  'x, y, z'
loop_
 _atom_site_type_symbol
 _atom_site_label
 _atom_site_symmetry_multiplicity
 _atom_site_fract_x
 _atom_site_fract_y
 _atom_site_fract_z
 _atom_site_occupancy
  Ce  Ce0  1  0.00000000  0.35318468  0.35318468  1
  Ce  Ce1  1  -0.00000000  0.64681532  0.64681532  1
  Mg  Mg2  1  0.00000000  -0.00000000  0.00000000  1
  Mg  Mg3  1  0.67585314  0.50000000  0.17585314  1
  Mg  Mg4  1  0.32414686  0.50000000  0.82414686  1
  Mg  Mg5  1  0.32414686  0.82414686  0.50000000  1
  Mg  Mg6  1  0.67585314  0.17585314  0.50000000  1
  Mg  Mg7  1  0.56820961  0.71579733  0.71579733  1
  Mg  Mg8  1  0.43179039  0.14758772  0.14758772  1
  Mg  Mg9  1  -0.00000000  0.28420267  0.85241228  1
  Mg  Mg10  1  -0.00000000  0.85241228  0.28420267  1
  Mg  Mg11  1  0.64730980  0.13668256  0.88929516  1
  Mg  Mg12  1  0.35269020  0.24198537  0.48937276  1
  Mg  Mg13  1  0.75261261  0.86331744  0.51062724  1
  Mg  Mg14  1  0.24738739  0.75801463  0.11070484  1
  Mg  Mg15  1  0.24738739  0.11070484  0.75801463  1
  Mg  Mg16  1  0.75261261  0.51062724  0.86331744  1
  Mg  Mg17  1  0.64730980  0.88929516  0.13668256  1
  Mg  Mg18  1  0.35269020  0.48937276  0.24198537  1
  Ru  Ru19  1  0.33082535  0.83080492  0.83080492  1
  Ru  Ru20  1  0.66917465  0.49997957  0.49997957  1
  Ru  Ru21  1  -0.00000000  0.16919508  0.50002043  1
  Ru  Ru22  1  -0.00000000  0.50002043  0.16919508  1
