# generated using pymatgen
data_Zn3TeP2Pb3O14
_symmetry_space_group_name_H-M   'P 1'
_cell_length_a   5.26432883
_cell_length_b   8.53370680
_cell_length_c   8.53363132
_cell_angle_alpha   119.99982322
_cell_angle_beta   90.00004971
_cell_angle_gamma   89.99851582
_symmetry_Int_Tables_number   1
_chemical_formula_structural   Zn3TeP2Pb3O14
_chemical_formula_sum   'Zn3 Te1 P2 Pb3 O14'
_cell_volume   332.00605752
_cell_formula_units_Z   1
loop_
 _symmetry_equiv_pos_site_id
 _symmetry_equiv_pos_as_xyz
  1  'x, y, z'
loop_
 _atom_site_type_symbol
 _atom_site_label
 _atom_site_symmetry_multiplicity
 _atom_site_fract_x
 _atom_site_fract_y
 _atom_site_fract_z
 _atom_site_occupancy
  Zn  Zn0  1  0.49999890  0.75052642  0.75051994  1
  Zn  Zn1  1  0.50000104  0.24947369  0.99999382  1
  Zn  Zn2  1  0.49999974  0.00000031  0.24948567  1
  Te  Te3  1  -0.00000086  0.00000016  0.00000109  1
  P  P4  1  0.54109288  0.33335932  0.66668024  1
  P  P5  1  0.45890829  0.66664004  0.33332061  1
  Pb  Pb6  1  0.00000014  -0.00000033  0.59424429  1
  Pb  Pb7  1  0.99998205  0.40575529  0.40575564  1
  Pb  Pb8  1  0.00001728  0.59424475  0.00000046  1
  O  O9  1  0.78898268  0.90783468  0.78316355  1
  O  O10  1  0.78897964  0.21683177  0.12466575  1
  O  O11  1  0.78898055  0.87533643  0.09217039  1
  O  O12  1  0.21101710  0.09216571  0.87532908  1
  O  O13  1  0.21101972  0.12466267  0.21683365  1
  O  O14  1  0.21102128  0.78316805  0.90783350  1
  O  O15  1  0.24923448  0.33338664  0.66669481  1
  O  O16  1  0.75076773  0.66661339  0.33330832  1
  O  O17  1  0.65617222  0.27261995  0.79763197  1
  O  O18  1  0.65616061  0.20238337  0.47498800  1
  O  O19  1  0.65619711  0.52502989  0.72739605  1
  O  O20  1  0.34382570  0.72738077  0.52501440  1
  O  O21  1  0.34380218  0.47496871  0.20236397  1
  O  O22  1  0.34383953  0.79761833  0.27260478  1
