# generated using pymatgen
data_PuPO4
_symmetry_space_group_name_H-M   'P 1'
_cell_length_a   6.46633570
_cell_length_b   6.81061948
_cell_length_c   7.06332691
_cell_angle_alpha   90.00000000
_cell_angle_beta   90.00000000
_cell_angle_gamma   103.79383834
_symmetry_Int_Tables_number   1
_chemical_formula_structural   PuPO4
_chemical_formula_sum   'Pu4 P4 O16'
_cell_volume   302.09596468
_cell_formula_units_Z   4
loop_
 _symmetry_equiv_pos_site_id
 _symmetry_equiv_pos_as_xyz
  1  'x, y, z'
loop_
 _atom_site_type_symbol
 _atom_site_label
 _atom_site_symmetry_multiplicity
 _atom_site_fract_x
 _atom_site_fract_y
 _atom_site_fract_z
 _atom_site_occupancy
  Pu  Pu0  1  0.10021008  0.28426602  0.66126347  1
  Pu  Pu1  1  0.60021008  0.78426602  0.83873653  1
  Pu  Pu2  1  0.89978992  0.71573398  0.33873653  1
  Pu  Pu3  1  0.39978992  0.21573398  0.16126347  1
  P  P4  1  0.61217021  0.30152685  0.66470232  1
  P  P5  1  0.11217021  0.80152685  0.83529768  1
  P  P6  1  0.38782979  0.69847315  0.33529768  1
  P  P7  1  0.88782979  0.19847315  0.16470232  1
  O  O8  1  0.06099784  0.25346151  0.00783058  1
  O  O9  1  0.56099784  0.75346151  0.49216942  1
  O  O10  1  0.93900216  0.74653849  0.99216942  1
  O  O11  1  0.43900216  0.24653849  0.50783058  1
  O  O12  1  0.80808956  0.47121637  0.60595614  1
  O  O13  1  0.30808956  0.97121637  0.89404386  1
  O  O14  1  0.19191044  0.52878363  0.39404386  1
  O  O15  1  0.69191044  0.02878363  0.10595614  1
  O  O16  1  0.71399533  0.12367900  0.71455693  1
  O  O17  1  0.21399533  0.62367900  0.78544307  1
  O  O18  1  0.28600467  0.87632100  0.28544307  1
  O  O19  1  0.78600467  0.37632100  0.21455693  1
  O  O20  1  0.49824722  0.37827054  0.83504404  1
  O  O21  1  0.99824722  0.87827054  0.66495596  1
  O  O22  1  0.50175278  0.62172946  0.16495596  1
  O  O23  1  0.00175278  0.12172946  0.33504404  1
