# generated using pymatgen
data_Ce(BIr)4
_symmetry_space_group_name_H-M   'P 1'
_cell_length_a   3.96972836
_cell_length_b   7.74619475
_cell_length_c   7.74619475
_cell_angle_alpha   90.00000000
_cell_angle_beta   90.00000000
_cell_angle_gamma   90.00000000
_symmetry_Int_Tables_number   1
_chemical_formula_structural   Ce(BIr)4
_chemical_formula_sum   'Ce2 B8 Ir8'
_cell_volume   238.19772707
_cell_formula_units_Z   2
loop_
 _symmetry_equiv_pos_site_id
 _symmetry_equiv_pos_as_xyz
  1  'x, y, z'
loop_
 _atom_site_type_symbol
 _atom_site_label
 _atom_site_symmetry_multiplicity
 _atom_site_fract_x
 _atom_site_fract_y
 _atom_site_fract_z
 _atom_site_occupancy
  Ce  Ce0  1  0.25000000  0.25000000  0.25000000  1
  Ce  Ce1  1  0.75000000  0.75000000  0.75000000  1
  B  B2  1  0.36000610  0.90855588  0.02930313  1
  B  B3  1  0.36000610  0.59144412  0.47069687  1
  B  B4  1  0.86000610  0.52930313  0.09144412  1
  B  B5  1  0.86000610  0.97069687  0.40855588  1
  B  B6  1  0.63999390  0.09144412  0.97069687  1
  B  B7  1  0.63999390  0.40855588  0.52930313  1
  B  B8  1  0.13999390  0.47069687  0.90855588  1
  B  B9  1  0.13999390  0.02930313  0.59144412  1
  Ir  Ir10  1  0.13914117  0.41243685  0.64207316  1
  Ir  Ir11  1  0.13914117  0.08756315  0.85792684  1
  Ir  Ir12  1  0.63914117  0.14207316  0.58756315  1
  Ir  Ir13  1  0.63914117  0.35792684  0.91243685  1
  Ir  Ir14  1  0.86085883  0.58756315  0.35792684  1
  Ir  Ir15  1  0.86085883  0.91243685  0.14207316  1
  Ir  Ir16  1  0.36085883  0.85792684  0.41243685  1
  Ir  Ir17  1  0.36085883  0.64207316  0.08756315  1
