# generated using pymatgen
data_Sm3AlNi8
_symmetry_space_group_name_H-M   'P 1'
_cell_length_a   5.11802617
_cell_length_b   5.11802617
_cell_length_c   16.24570814
_cell_angle_alpha   90.00000000
_cell_angle_beta   90.00000000
_cell_angle_gamma   119.97448336
_symmetry_Int_Tables_number   1
_chemical_formula_structural   Sm3AlNi8
_chemical_formula_sum   'Sm6 Al2 Ni16'
_cell_volume   368.62593897
_cell_formula_units_Z   2
loop_
 _symmetry_equiv_pos_site_id
 _symmetry_equiv_pos_as_xyz
  1  'x, y, z'
loop_
 _atom_site_type_symbol
 _atom_site_label
 _atom_site_symmetry_multiplicity
 _atom_site_fract_x
 _atom_site_fract_y
 _atom_site_fract_z
 _atom_site_occupancy
  Sm  Sm0  1  0.66669259  0.33330741  0.04132651  1
  Sm  Sm1  1  0.33330741  0.66669259  0.95867349  1
  Sm  Sm2  1  0.33330741  0.66669259  0.54132651  1
  Sm  Sm3  1  0.66669259  0.33330741  0.45867349  1
  Sm  Sm4  1  0.66668777  0.33331223  0.25000000  1
  Sm  Sm5  1  0.33331223  0.66668777  0.75000000  1
  Al  Al6  1  0.66672067  0.33327933  0.75000000  1
  Al  Al7  1  0.33327933  0.66672067  0.25000000  1
  Ni  Ni8  1  0.83419941  0.66843388  0.62743235  1
  Ni  Ni9  1  0.83421462  0.16578538  0.62742482  1
  Ni  Ni10  1  0.33156612  0.16580059  0.62743235  1
  Ni  Ni11  1  0.16580059  0.33156612  0.37256765  1
  Ni  Ni12  1  0.16578538  0.83421462  0.37257518  1
  Ni  Ni13  1  0.66843388  0.83419941  0.37256765  1
  Ni  Ni14  1  0.16580059  0.33156612  0.12743235  1
  Ni  Ni15  1  0.16578538  0.83421462  0.12742482  1
  Ni  Ni16  1  0.66843388  0.83419941  0.12743235  1
  Ni  Ni17  1  0.83419941  0.66843388  0.87256765  1
  Ni  Ni18  1  0.83421462  0.16578538  0.87257518  1
  Ni  Ni19  1  0.33156612  0.16580059  0.87256765  1
  Ni  Ni20  1  0.00001738  0.99998262  0.75000000  1
  Ni  Ni21  1  0.99998262  0.00001738  0.25000000  1
  Ni  Ni22  1  -0.00000000  -0.00000000  0.50000000  1
  Ni  Ni23  1  -0.00000000  -0.00000000  0.00000000  1
