# generated using pymatgen
data_Ho8Ga3Co
_symmetry_space_group_name_H-M   'P 1'
_cell_length_a   6.84153807
_cell_length_b   9.97663578
_cell_length_c   9.97663578
_cell_angle_alpha   119.99672950
_cell_angle_beta   90.00000000
_cell_angle_gamma   90.00000000
_symmetry_Int_Tables_number   1
_chemical_formula_structural   Ho8Ga3Co
_chemical_formula_sum   'Ho16 Ga6 Co2'
_cell_volume   589.74861095
_cell_formula_units_Z   2
loop_
 _symmetry_equiv_pos_site_id
 _symmetry_equiv_pos_as_xyz
  1  'x, y, z'
loop_
 _atom_site_type_symbol
 _atom_site_label
 _atom_site_symmetry_multiplicity
 _atom_site_fract_x
 _atom_site_fract_y
 _atom_site_fract_z
 _atom_site_occupancy
  Ho  Ho0  1  0.50847147  0.17279427  0.82720573  1
  Ho  Ho1  1  0.50846506  0.65440979  0.82721171  1
  Ho  Ho2  1  0.50846506  0.17278829  0.34559021  1
  Ho  Ho3  1  0.00847147  0.82720573  0.17279427  1
  Ho  Ho4  1  0.00846506  0.34559021  0.17278829  1
  Ho  Ho5  1  0.00846506  0.82721171  0.65440979  1
  Ho  Ho6  1  0.82887853  0.33332116  0.66667884  1
  Ho  Ho7  1  0.32887853  0.66667884  0.33332116  1
  Ho  Ho8  1  0.20828006  0.46418245  0.53581755  1
  Ho  Ho9  1  0.20827807  0.07162077  0.53581113  1
  Ho  Ho10  1  0.20827807  0.46418887  0.92837923  1
  Ho  Ho11  1  0.70828006  0.53581755  0.46418245  1
  Ho  Ho12  1  0.70827807  0.92837923  0.46418887  1
  Ho  Ho13  1  0.70827807  0.53581113  0.07162077  1
  Ho  Ho14  1  0.22860749  -0.00000459  0.00000459  1
  Ho  Ho15  1  0.72860749  0.00000459  -0.00000459  1
  Ga  Ga16  1  0.96203293  0.16357550  0.83642450  1
  Ga  Ga17  1  0.96202991  0.67285768  0.83642285  1
  Ga  Ga18  1  0.96202991  0.16357715  0.32714232  1
  Ga  Ga19  1  0.46203293  0.83642450  0.16357550  1
  Ga  Ga20  1  0.46202991  0.32714232  0.16357715  1
  Ga  Ga21  1  0.46202991  0.83642285  0.67285768  1
  Co  Co22  1  0.44318343  0.33332531  0.66667469  1
  Co  Co23  1  0.94318343  0.66667469  0.33332531  1
