# generated using pymatgen
data_Ca8In3
_symmetry_space_group_name_H-M   'P 1'
_cell_length_a   9.58396588
_cell_length_b   9.68048416
_cell_length_c   9.74081615
_cell_angle_alpha   98.82045942
_cell_angle_beta   100.95961888
_cell_angle_gamma   119.60704452
_symmetry_Int_Tables_number   1
_chemical_formula_structural   Ca8In3
_chemical_formula_sum   'Ca16 In6'
_cell_volume   738.32588975
_cell_formula_units_Z   2
loop_
 _symmetry_equiv_pos_site_id
 _symmetry_equiv_pos_as_xyz
  1  'x, y, z'
loop_
 _atom_site_type_symbol
 _atom_site_label
 _atom_site_symmetry_multiplicity
 _atom_site_fract_x
 _atom_site_fract_y
 _atom_site_fract_z
 _atom_site_occupancy
  Ca  Ca0  1  0.09621956  0.10999123  0.39254512  1
  Ca  Ca1  1  0.87501582  0.83815924  0.60921331  1
  Ca  Ca2  1  0.64239561  0.63775317  0.84973100  1
  Ca  Ca3  1  0.70547904  0.04107672  0.15166806  1
  Ca  Ca4  1  0.29300133  0.93629878  0.85197540  1
  Ca  Ca5  1  0.47245260  0.83880714  0.38938315  1
  Ca  Ca6  1  0.50836738  0.21693031  0.61070862  1
  Ca  Ca7  1  0.25210844  0.56839842  0.60761881  1
  Ca  Ca8  1  0.83994025  0.46086915  0.39139265  1
  Ca  Ca9  1  0.05289430  0.73995603  0.14816680  1
  Ca  Ca10  1  0.63295946  0.63020146  0.20377704  1
  Ca  Ca11  1  0.94781569  0.49315829  0.79914351  1
  Ca  Ca12  1  0.21562322  0.27721658  0.83034493  1
  Ca  Ca13  1  0.13157038  0.39893407  0.17092018  1
  Ca  Ca14  1  0.71737378  0.04935320  0.79777533  1
  Ca  Ca15  1  0.40015331  0.18680887  0.20123439  1
  In  In16  1  0.00018432  0.00058649  0.00061958  1
  In  In17  1  0.85017752  0.17866829  0.52817724  1
  In  In18  1  0.17321484  0.83782626  0.49896656  1
  In  In19  1  0.34662851  0.67594757  0.00031222  1
  In  In20  1  0.67063756  0.33865011  0.99910208  1
  In  In21  1  0.49818708  0.49870860  0.47452403  1
