# generated using pymatgen
data_Mn3ZnO7
_symmetry_space_group_name_H-M   'P 1'
_cell_length_a   6.54324801
_cell_length_b   6.54324801
_cell_length_c   6.54324785
_cell_angle_alpha   72.28602478
_cell_angle_beta   72.28602478
_cell_angle_gamma   72.28601749
_symmetry_Int_Tables_number   1
_chemical_formula_structural   Mn3ZnO7
_chemical_formula_sum   'Mn6 Zn2 O14'
_cell_volume   247.19427391
_cell_formula_units_Z   2
loop_
 _symmetry_equiv_pos_site_id
 _symmetry_equiv_pos_as_xyz
  1  'x, y, z'
loop_
 _atom_site_type_symbol
 _atom_site_label
 _atom_site_symmetry_multiplicity
 _atom_site_fract_x
 _atom_site_fract_y
 _atom_site_fract_z
 _atom_site_occupancy
  Mn  Mn0  1  0.13977435  0.57934295  0.28534446  1
  Mn  Mn1  1  0.57934295  0.28534446  0.13977435  1
  Mn  Mn2  1  0.28534446  0.13977435  0.57934295  1
  Mn  Mn3  1  0.86022565  0.42065705  0.71465554  1
  Mn  Mn4  1  0.42065705  0.71465554  0.86022565  1
  Mn  Mn5  1  0.71465554  0.86022565  0.42065705  1
  Zn  Zn6  1  0.87454976  0.87454976  0.87454976  1
  Zn  Zn7  1  0.12545024  0.12545024  0.12545024  1
  O  O8  1  0.83787296  0.55510440  0.40578694  1
  O  O9  1  0.55510440  0.40578694  0.83787296  1
  O  O10  1  0.40578694  0.83787296  0.55510440  1
  O  O11  1  0.16212704  0.44489560  0.59421306  1
  O  O12  1  0.44489560  0.59421306  0.16212704  1
  O  O13  1  0.59421306  0.16212704  0.44489560  1
  O  O14  1  0.98121654  0.13166016  0.66686687  1
  O  O15  1  0.13166016  0.66686687  0.98121654  1
  O  O16  1  0.66686687  0.98121654  0.13166016  1
  O  O17  1  0.01878346  0.86833984  0.33313313  1
  O  O18  1  0.86833984  0.33313313  0.01878346  1
  O  O19  1  0.33313313  0.01878346  0.86833984  1
  O  O20  1  0.26465226  0.26465226  0.26465226  1
  O  O21  1  0.73534774  0.73534774  0.73534774  1
