# generated using pymatgen
data_Sm3SbO7
_symmetry_space_group_name_H-M   'P 1'
_cell_length_a   6.61911487
_cell_length_b   6.61911487
_cell_length_c   7.67923757
_cell_angle_alpha   90.00000000
_cell_angle_beta   90.00000000
_cell_angle_gamma   109.53878603
_symmetry_Int_Tables_number   1
_chemical_formula_structural   Sm3SbO7
_chemical_formula_sum   'Sm6 Sb2 O14'
_cell_volume   317.07373677
_cell_formula_units_Z   2
loop_
 _symmetry_equiv_pos_site_id
 _symmetry_equiv_pos_as_xyz
  1  'x, y, z'
loop_
 _atom_site_type_symbol
 _atom_site_label
 _atom_site_symmetry_multiplicity
 _atom_site_fract_x
 _atom_site_fract_y
 _atom_site_fract_z
 _atom_site_occupancy
  Sm  Sm0  1  0.50570191  0.50570191  0.25000000  1
  Sm  Sm1  1  0.49429809  0.49429809  0.75000000  1
  Sm  Sm2  1  0.00058529  0.46783281  0.50084607  1
  Sm  Sm3  1  0.53216719  0.99941471  0.49915393  1
  Sm  Sm4  1  0.99941471  0.53216719  0.00084607  1
  Sm  Sm5  1  0.46783281  0.00058529  0.99915393  1
  Sb  Sb6  1  0.00152180  0.00152180  0.25000000  1
  Sb  Sb7  1  0.99847820  0.99847820  0.75000000  1
  O  O8  1  0.07007185  0.31809857  0.22273622  1
  O  O9  1  0.68190143  0.92992815  0.77726378  1
  O  O10  1  0.92992815  0.68190143  0.72273622  1
  O  O11  1  0.31809857  0.07007185  0.27726378  1
  O  O12  1  0.68375405  0.92945471  0.22086441  1
  O  O13  1  0.07054529  0.31624595  0.77913559  1
  O  O14  1  0.31624595  0.07054529  0.72086441  1
  O  O15  1  0.92945471  0.68375405  0.27913559  1
  O  O16  1  0.37062868  0.62937132  0.50000000  1
  O  O17  1  0.62937132  0.37062868  0.00000000  1
  O  O18  1  0.36396032  0.63603968  -0.00000000  1
  O  O19  1  0.63603968  0.36396032  0.50000000  1
  O  O20  1  0.93454883  0.06545117  0.50000000  1
  O  O21  1  0.06545117  0.93454883  -0.00000000  1
