# generated using pymatgen
data_TaIn3O7
_symmetry_space_group_name_H-M   'P 1'
_cell_length_a   6.43051650
_cell_length_b   6.43051650
_cell_length_c   7.31652518
_cell_angle_alpha   90.00000000
_cell_angle_beta   90.00000000
_cell_angle_gamma   108.47602639
_symmetry_Int_Tables_number   1
_chemical_formula_structural   TaIn3O7
_chemical_formula_sum   'Ta2 In6 O14'
_cell_volume   286.95508697
_cell_formula_units_Z   2
loop_
 _symmetry_equiv_pos_site_id
 _symmetry_equiv_pos_as_xyz
  1  'x, y, z'
loop_
 _atom_site_type_symbol
 _atom_site_label
 _atom_site_symmetry_multiplicity
 _atom_site_fract_x
 _atom_site_fract_y
 _atom_site_fract_z
 _atom_site_occupancy
  Ta  Ta0  1  0.00964758  0.00964758  0.25000000  1
  Ta  Ta1  1  0.99035242  0.99035242  0.75000000  1
  In  In2  1  0.00107298  0.47872370  0.49407476  1
  In  In3  1  0.52127630  0.99892702  0.50592524  1
  In  In4  1  0.45514207  0.45514207  0.75000000  1
  In  In5  1  0.54485793  0.54485793  0.25000000  1
  In  In6  1  0.99892702  0.52127630  0.99407476  1
  In  In7  1  0.47872370  0.00107298  0.00592524  1
  O  O8  1  0.05602104  0.94397896  0.00000000  1
  O  O9  1  0.35752879  0.64247121  0.00000000  1
  O  O10  1  0.04785429  0.31771180  0.21667877  1
  O  O11  1  0.68228820  0.95214571  0.78332123  1
  O  O12  1  0.37252035  0.62747965  0.50000000  1
  O  O13  1  0.66864300  0.91972566  0.23068471  1
  O  O14  1  0.08027434  0.33135700  0.76931529  1
  O  O15  1  0.33135700  0.08027434  0.73068471  1
  O  O16  1  0.91972566  0.66864300  0.26931529  1
  O  O17  1  0.62747965  0.37252035  0.00000000  1
  O  O18  1  0.95214571  0.68228820  0.71667877  1
  O  O19  1  0.31771180  0.04785429  0.28332123  1
  O  O20  1  0.64247121  0.35752879  0.50000000  1
  O  O21  1  0.94397896  0.05602104  0.50000000  1
