# generated using pymatgen
data_FeRe2(H2O3)4
_symmetry_space_group_name_H-M   'P 1'
_cell_length_a   7.03268988
_cell_length_b   7.17982182
_cell_length_c   7.57087539
_cell_angle_alpha   61.28661168
_cell_angle_beta   66.83640890
_cell_angle_gamma   69.25236492
_symmetry_Int_Tables_number   1
_chemical_formula_structural   FeRe2(H2O3)4
_chemical_formula_sum   'Fe1 Re2 H8 O12'
_cell_volume   301.70002421
_cell_formula_units_Z   1
loop_
 _symmetry_equiv_pos_site_id
 _symmetry_equiv_pos_as_xyz
  1  'x, y, z'
loop_
 _atom_site_type_symbol
 _atom_site_label
 _atom_site_symmetry_multiplicity
 _atom_site_fract_x
 _atom_site_fract_y
 _atom_site_fract_z
 _atom_site_occupancy
  Fe  Fe0  1  0.50000000  0.00000000  0.00000000  1
  Re  Re1  1  0.92441093  0.66437040  0.70187231  1
  Re  Re2  1  0.07558907  0.33562960  0.29812769  1
  H  H3  1  0.75434615  0.18667576  0.03915072  1
  H  H4  1  0.24565385  0.81332424  0.96084928  1
  H  H5  1  0.76282649  0.94689388  0.22145099  1
  H  H6  1  0.23717351  0.05310612  0.77854901  1
  H  H7  1  0.60594562  0.57236995  0.27451382  1
  H  H8  1  0.39405438  0.42763005  0.72548618  1
  H  H9  1  0.37765214  0.68357688  0.37716550  1
  H  H10  1  0.62234786  0.31642312  0.62283450  1
  O  O11  1  0.19997733  0.64700940  0.62553465  1
  O  O12  1  0.80002267  0.35299060  0.37446535  1
  O  O13  1  0.84363699  0.73009966  0.48447138  1
  O  O14  1  0.15636301  0.26990034  0.51552862  1
  O  O15  1  0.86430366  0.41694108  0.89885537  1
  O  O16  1  0.13569634  0.58305892  0.10114463  1
  O  O17  1  0.79434670  0.86920679  0.79902735  1
  O  O18  1  0.20565330  0.13079321  0.20097265  1
  O  O19  1  0.68776496  0.05867443  0.11776086  1
  O  O20  1  0.31223504  0.94132557  0.88223914  1
  O  O21  1  0.48382598  0.69195761  0.24235549  1
  O  O22  1  0.51617402  0.30804239  0.75764451  1
