# generated using pymatgen
data_Ce2Co12P7
_symmetry_space_group_name_H-M   'P 1'
_cell_length_a   3.63282815
_cell_length_b   9.02012843
_cell_length_c   9.01919496
_cell_angle_alpha   120.00118485
_cell_angle_beta   90.00000000
_cell_angle_gamma   90.00000000
_symmetry_Int_Tables_number   1
_chemical_formula_structural   Ce2Co12P7
_chemical_formula_sum   'Ce2 Co12 P7'
_cell_volume   255.94744369
_cell_formula_units_Z   1
loop_
 _symmetry_equiv_pos_site_id
 _symmetry_equiv_pos_as_xyz
  1  'x, y, z'
loop_
 _atom_site_type_symbol
 _atom_site_label
 _atom_site_symmetry_multiplicity
 _atom_site_fract_x
 _atom_site_fract_y
 _atom_site_fract_z
 _atom_site_occupancy
  Ce  Ce0  1  -0.00000000  0.66662206  0.33322778  1
  Ce  Ce1  1  0.50000000  0.33326389  0.66665902  1
  Co  Co2  1  0.00000000  0.37226606  0.93801132  1
  Co  Co3  1  -0.00000000  0.06179060  0.43395027  1
  Co  Co4  1  0.00000000  0.56610514  0.62816254  1
  Co  Co5  1  -0.00000000  0.88073727  0.72737026  1
  Co  Co6  1  -0.00000000  0.27273023  0.15350862  1
  Co  Co7  1  -0.00000000  0.84673038  0.11924370  1
  Co  Co8  1  0.50000000  0.94738510  0.56566982  1
  Co  Co9  1  0.50000000  0.43441792  0.38181514  1
  Co  Co10  1  0.50000000  0.61830137  0.05277137  1
  Co  Co11  1  0.50000000  0.12386112  0.90116737  1
  Co  Co12  1  0.50000000  0.09855025  0.22258657  1
  Co  Co13  1  0.50000000  0.77704686  0.87576034  1
  P  P14  1  -0.00000000  0.10859628  0.70484466  1
  P  P15  1  -0.00000000  0.29520965  0.40380301  1
  P  P16  1  -0.00000000  0.59630576  0.89157599  1
  P  P17  1  0.50000000  0.70940568  0.60339597  1
  P  P18  1  0.50000000  0.39638562  0.10579988  1
  P  P19  1  0.50000000  0.89413658  0.29060583  1
  P  P20  1  -0.00000000  0.00015218  0.00007054  1
