# generated using pymatgen
data_Eu2Si3Ag
_symmetry_space_group_name_H-M   'P 1'
_cell_length_a   8.39621673
_cell_length_b   8.39740137
_cell_length_c   9.80690824
_cell_angle_alpha   77.64265984
_cell_angle_beta   64.65444195
_cell_angle_gamma   60.00467003
_symmetry_Int_Tables_number   1
_chemical_formula_structural   Eu2Si3Ag
_chemical_formula_sum   'Eu8 Si12 Ag4'
_cell_volume   541.19828934
_cell_formula_units_Z   4
loop_
 _symmetry_equiv_pos_site_id
 _symmetry_equiv_pos_as_xyz
  1  'x, y, z'
loop_
 _atom_site_type_symbol
 _atom_site_label
 _atom_site_symmetry_multiplicity
 _atom_site_fract_x
 _atom_site_fract_y
 _atom_site_fract_z
 _atom_site_occupancy
  Eu  Eu0  1  0.24829060  0.25000000  0.50341880  1
  Eu  Eu1  1  0.00170940  0.25000000  0.99658120  1
  Eu  Eu2  1  0.75170940  0.75000000  0.49658120  1
  Eu  Eu3  1  0.99829060  0.75000000  0.00341880  1
  Eu  Eu4  1  0.74940744  0.25000000  0.50118512  1
  Eu  Eu5  1  0.50059256  0.25000000  0.99881488  1
  Eu  Eu6  1  0.25059256  0.75000000  0.49881488  1
  Eu  Eu7  1  0.49940744  0.75000000  0.00118512  1
  Si  Si8  1  0.28664141  0.92671717  0.75000000  1
  Si  Si9  1  0.96335859  0.57328283  0.75000000  1
  Si  Si10  1  0.71335859  0.07328283  0.25000000  1
  Si  Si11  1  0.03664141  0.42671717  0.25000000  1
  Si  Si12  1  0.96614363  0.08844464  0.74584666  1
  Si  Si13  1  0.80043493  0.41155536  0.75415334  1
  Si  Si14  1  0.44541173  0.08844464  0.75415334  1
  Si  Si15  1  0.28800971  0.41155536  0.74584666  1
  Si  Si16  1  0.03385637  0.91155536  0.25415334  1
  Si  Si17  1  0.19956507  0.58844464  0.24584666  1
  Si  Si18  1  0.55458827  0.91155536  0.24584666  1
  Si  Si19  1  0.71199029  0.58844464  0.25415334  1
  Ag  Ag20  1  0.45808375  0.58383250  0.75000000  1
  Ag  Ag21  1  0.79191625  0.91616750  0.75000000  1
  Ag  Ag22  1  0.54191625  0.41616750  0.25000000  1
  Ag  Ag23  1  0.20808375  0.08383250  0.25000000  1
