# generated using pymatgen
data_Yb(TmS2)2
_symmetry_space_group_name_H-M   'P 1'
_cell_length_a   3.83858039
_cell_length_b   12.81630425
_cell_length_c   13.01214346
_cell_angle_alpha   90.00000000
_cell_angle_beta   90.00000000
_cell_angle_gamma   90.00000000
_symmetry_Int_Tables_number   1
_chemical_formula_structural   Yb(TmS2)2
_chemical_formula_sum   'Yb4 Tm8 S16'
_cell_volume   640.15079885
_cell_formula_units_Z   4
loop_
 _symmetry_equiv_pos_site_id
 _symmetry_equiv_pos_as_xyz
  1  'x, y, z'
loop_
 _atom_site_type_symbol
 _atom_site_label
 _atom_site_symmetry_multiplicity
 _atom_site_fract_x
 _atom_site_fract_y
 _atom_site_fract_z
 _atom_site_occupancy
  Yb  Yb0  1  0.75000000  0.13139148  0.91631274  1
  Yb  Yb1  1  0.75000000  0.63139148  0.58368726  1
  Yb  Yb2  1  0.25000000  0.86860852  0.08368726  1
  Yb  Yb3  1  0.25000000  0.36860852  0.41631274  1
  Tm  Tm4  1  0.75000000  0.39264679  0.08330063  1
  Tm  Tm5  1  0.75000000  0.89264679  0.41669937  1
  Tm  Tm6  1  0.25000000  0.60735321  0.91669937  1
  Tm  Tm7  1  0.25000000  0.10735321  0.58330063  1
  Tm  Tm8  1  0.75000000  0.35315843  0.70250483  1
  Tm  Tm9  1  0.75000000  0.85315843  0.79749517  1
  Tm  Tm10  1  0.25000000  0.64684157  0.29749517  1
  Tm  Tm11  1  0.25000000  0.14684157  0.20250483  1
  S  S12  1  0.75000000  0.28333159  0.26294875  1
  S  S13  1  0.75000000  0.78333159  0.23705125  1
  S  S14  1  0.25000000  0.71666841  0.73705125  1
  S  S15  1  0.25000000  0.21666841  0.76294875  1
  S  S16  1  0.75000000  0.24244087  0.52587176  1
  S  S17  1  0.75000000  0.74244087  0.97412824  1
  S  S18  1  0.25000000  0.75755913  0.47412824  1
  S  S19  1  0.25000000  0.25755913  0.02587176  1
  S  S20  1  0.75000000  0.03021342  0.11724410  1
  S  S21  1  0.75000000  0.53021342  0.38275590  1
  S  S22  1  0.25000000  0.96978658  0.88275590  1
  S  S23  1  0.25000000  0.46978658  0.61724410  1
  S  S24  1  0.75000000  0.46627601  0.88193932  1
  S  S25  1  0.75000000  0.96627601  0.61806068  1
  S  S26  1  0.25000000  0.53372399  0.11806068  1
  S  S27  1  0.25000000  0.03372399  0.38193932  1
