# generated using pymatgen
data_K(SnAs)3
_symmetry_space_group_name_H-M   'P 1'
_cell_length_a   4.17402100
_cell_length_b   10.40672616
_cell_length_c   19.62097764
_cell_angle_alpha   90.00000000
_cell_angle_beta   90.00000000
_cell_angle_gamma   90.00000000
_symmetry_Int_Tables_number   1
_chemical_formula_structural   K(SnAs)3
_chemical_formula_sum   'K4 Sn12 As12'
_cell_volume   852.29393774
_cell_formula_units_Z   4
loop_
 _symmetry_equiv_pos_site_id
 _symmetry_equiv_pos_as_xyz
  1  'x, y, z'
loop_
 _atom_site_type_symbol
 _atom_site_label
 _atom_site_symmetry_multiplicity
 _atom_site_fract_x
 _atom_site_fract_y
 _atom_site_fract_z
 _atom_site_occupancy
  K  K0  1  0.75000000  0.28500948  0.95863386  1
  K  K1  1  0.75000000  0.78500948  0.54136614  1
  K  K2  1  0.25000000  0.71499052  0.04136614  1
  K  K3  1  0.25000000  0.21499052  0.45863386  1
  Sn  Sn4  1  0.75000000  0.17131145  0.64883425  1
  Sn  Sn5  1  0.75000000  0.67131145  0.85116575  1
  Sn  Sn6  1  0.25000000  0.82868855  0.35116575  1
  Sn  Sn7  1  0.25000000  0.32868855  0.14883425  1
  Sn  Sn8  1  0.75000000  0.11018241  0.25828472  1
  Sn  Sn9  1  0.75000000  0.61018241  0.24171528  1
  Sn  Sn10  1  0.25000000  0.88981759  0.74171528  1
  Sn  Sn11  1  0.25000000  0.38981759  0.75828472  1
  Sn  Sn12  1  0.75000000  0.98235169  0.12168722  1
  Sn  Sn13  1  0.75000000  0.48235169  0.37831278  1
  Sn  Sn14  1  0.25000000  0.01764831  0.87831278  1
  Sn  Sn15  1  0.25000000  0.51764831  0.62168722  1
  As  As16  1  0.75000000  0.48437675  0.12069771  1
  As  As17  1  0.75000000  0.98437675  0.37930229  1
  As  As18  1  0.25000000  0.51562325  0.87930229  1
  As  As19  1  0.25000000  0.01562325  0.62069771  1
  As  As20  1  0.75000000  0.37376532  0.56817339  1
  As  As21  1  0.75000000  0.87376532  0.93182661  1
  As  As22  1  0.25000000  0.62623468  0.43182661  1
  As  As23  1  0.25000000  0.12623468  0.06817339  1
  As  As24  1  0.75000000  0.22642447  0.78115628  1
  As  As25  1  0.75000000  0.72642447  0.71884372  1
  As  As26  1  0.25000000  0.77357553  0.21884372  1
  As  As27  1  0.25000000  0.27357553  0.28115628  1
