# generated using pymatgen
data_Na2PtF6
_symmetry_space_group_name_H-M   'P 1'
_cell_length_a   5.19504737
_cell_length_b   9.44804479
_cell_length_c   9.44804977
_cell_angle_alpha   120.00002157
_cell_angle_beta   89.99999998
_cell_angle_gamma   90.00009925
_symmetry_Int_Tables_number   1
_chemical_formula_structural   Na2PtF6
_chemical_formula_sum   'Na6 Pt3 F18'
_cell_volume   401.60967354
_cell_formula_units_Z   3
loop_
 _symmetry_equiv_pos_site_id
 _symmetry_equiv_pos_as_xyz
  1  'x, y, z'
loop_
 _atom_site_type_symbol
 _atom_site_label
 _atom_site_symmetry_multiplicity
 _atom_site_fract_x
 _atom_site_fract_y
 _atom_site_fract_z
 _atom_site_occupancy
  Na  Na0  1  0.50000000  1.00000000  0.63031752  1
  Na  Na1  1  0.50000667  0.36968212  0.36968240  1
  Na  Na2  1  0.49999333  0.63031788  0.00000028  1
  Na  Na3  1  -0.00000387  0.70380052  0.70380248  1
  Na  Na4  1  0.00000387  0.29619948  0.00000197  1
  Na  Na5  1  0.00000000  1.00000000  0.29619908  1
  Pt  Pt6  1  0.50000000  0.00000000  -0.00000161  1
  Pt  Pt7  1  0.99612274  0.66654471  0.33327307  1
  Pt  Pt8  1  0.00387726  0.33345529  0.66672836  1
  F  F9  1  0.70895880  0.90578883  0.79900426  1
  F  F10  1  0.70896235  0.20099214  0.10678130  1
  F  F11  1  0.70896261  0.89321930  0.09421432  1
  F  F12  1  0.29104120  0.09421117  0.89321543  1
  F  F13  1  0.29103739  0.10678070  0.20099502  1
  F  F14  1  0.29103765  0.79900786  0.90578915  1
  F  F15  1  0.21026030  0.77962669  0.53283291  1
  F  F16  1  0.21023249  0.46719488  0.24680038  1
  F  F17  1  0.21025432  0.75321256  0.22038096  1
  F  F18  1  0.78973970  0.22037331  0.75320622  1
  F  F19  1  0.78974568  0.24678744  0.46716840  1
  F  F20  1  0.78976751  0.53280512  0.77960549  1
  F  F21  1  0.78219262  0.58597084  0.45069418  1
  F  F22  1  0.78219647  0.54930930  0.13527819  1
  F  F23  1  0.78216699  0.86475369  0.41404585  1
  F  F24  1  0.21780738  0.41402916  0.86472334  1
  F  F25  1  0.21783301  0.13524631  0.54929216  1
  F  F26  1  0.21780353  0.45069070  0.58596889  1
