# generated using pymatgen
data_Ba4Ta2O9
_symmetry_space_group_name_H-M   'P 1'
_cell_length_a   6.13481213
_cell_length_b   6.13491838
_cell_length_c   16.90896447
_cell_angle_alpha   90.00000000
_cell_angle_beta   90.00000000
_cell_angle_gamma   119.99985641
_symmetry_Int_Tables_number   1
_chemical_formula_structural   Ba4Ta2O9
_chemical_formula_sum   'Ba8 Ta4 O18'
_cell_volume   551.13542697
_cell_formula_units_Z   2
loop_
 _symmetry_equiv_pos_site_id
 _symmetry_equiv_pos_as_xyz
  1  'x, y, z'
loop_
 _atom_site_type_symbol
 _atom_site_label
 _atom_site_symmetry_multiplicity
 _atom_site_fract_x
 _atom_site_fract_y
 _atom_site_fract_z
 _atom_site_occupancy
  Ba  Ba0  1  0.99999156  0.00000030  0.75000000  1
  Ba  Ba1  1  0.00000844  -0.00000030  0.25000000  1
  Ba  Ba2  1  0.66666424  0.33333270  0.63624540  1
  Ba  Ba3  1  0.33333576  0.66666730  0.13624540  1
  Ba  Ba4  1  0.33333576  0.66666730  0.36375460  1
  Ba  Ba5  1  0.66666424  0.33333270  0.86375460  1
  Ba  Ba6  1  0.00000000  -0.00000000  0.50000000  1
  Ba  Ba7  1  0.00000000  -0.00000000  -0.00000000  1
  Ta  Ta8  1  0.66663582  0.33332118  0.33924338  1
  Ta  Ta9  1  0.33336418  0.66667882  0.83924338  1
  Ta  Ta10  1  0.33336418  0.66667882  0.66075662  1
  Ta  Ta11  1  0.66663582  0.33332118  0.16075662  1
  O  O12  1  0.51646195  0.95637354  0.75000000  1
  O  O13  1  0.04362863  0.56009355  0.75000000  1
  O  O14  1  0.43990332  0.48353468  0.75000000  1
  O  O15  1  0.48353805  0.04362646  0.25000000  1
  O  O16  1  0.95637137  0.43990645  0.25000000  1
  O  O17  1  0.56009668  0.51646532  0.25000000  1
  O  O18  1  0.11585753  0.35362124  0.61004931  1
  O  O19  1  0.64635873  0.76223132  0.61005242  1
  O  O20  1  0.23776729  0.88414195  0.61004880  1
  O  O21  1  0.88414247  0.64637876  0.11004931  1
  O  O22  1  0.35364127  0.23776868  0.11005242  1
  O  O23  1  0.76223271  0.11585805  0.11004880  1
  O  O24  1  0.88414247  0.64637876  0.38995069  1
  O  O25  1  0.35364127  0.23776868  0.38994758  1
  O  O26  1  0.76223271  0.11585805  0.38995120  1
  O  O27  1  0.11585753  0.35362124  0.88995069  1
  O  O28  1  0.64635873  0.76223132  0.88994758  1
  O  O29  1  0.23776729  0.88414195  0.88995120  1
