# generated using pymatgen
data_Ho8In3Co
_symmetry_space_group_name_H-M   'P 1'
_cell_length_a   6.93267822
_cell_length_b   10.31873213
_cell_length_c   10.31873213
_cell_angle_alpha   120.00035370
_cell_angle_beta   90.00000000
_cell_angle_gamma   90.00000000
_symmetry_Int_Tables_number   1
_chemical_formula_structural   Ho8In3Co
_chemical_formula_sum   'Ho16 In6 Co2'
_cell_volume   639.26776143
_cell_formula_units_Z   2
loop_
 _symmetry_equiv_pos_site_id
 _symmetry_equiv_pos_as_xyz
  1  'x, y, z'
loop_
 _atom_site_type_symbol
 _atom_site_label
 _atom_site_symmetry_multiplicity
 _atom_site_fract_x
 _atom_site_fract_y
 _atom_site_fract_z
 _atom_site_occupancy
  Ho  Ho0  1  0.49519532  0.46554722  0.53445278  1
  Ho  Ho1  1  0.49519883  0.06890439  0.53445506  1
  Ho  Ho2  1  0.49519883  0.46554494  0.93109561  1
  Ho  Ho3  1  0.99519532  0.53445278  0.46554722  1
  Ho  Ho4  1  0.99519883  0.93109561  0.46554494  1
  Ho  Ho5  1  0.99519883  0.53445506  0.06890439  1
  Ho  Ho6  1  0.28676464  0.82134141  0.17865859  1
  Ho  Ho7  1  0.28677961  0.35732705  0.17866017  1
  Ho  Ho8  1  0.28677961  0.82133983  0.64267295  1
  Ho  Ho9  1  0.78676464  0.17865859  0.82134141  1
  Ho  Ho10  1  0.78677961  0.64267295  0.82133983  1
  Ho  Ho11  1  0.78677961  0.17866017  0.35732705  1
  Ho  Ho12  1  0.10447107  0.33331982  0.66668018  1
  Ho  Ho13  1  0.60447107  0.66668018  0.33331982  1
  Ho  Ho14  1  0.50393740  0.00000125  -0.00000125  1
  Ho  Ho15  1  0.00393740  -0.00000125  0.00000125  1
  In  In16  1  0.25053349  0.16264981  0.83735019  1
  In  In17  1  0.25052478  0.67469499  0.83734083  1
  In  In18  1  0.25052478  0.16265917  0.32530501  1
  In  In19  1  0.75053349  0.83735019  0.16264981  1
  In  In20  1  0.75052478  0.32530501  0.16265917  1
  In  In21  1  0.75052478  0.83734083  0.67469499  1
  Co  Co22  1  0.71509164  0.33331645  0.66668355  1
  Co  Co23  1  0.21509164  0.66668355  0.33331645  1
