# generated using pymatgen
data_Nd8Ga3Co
_symmetry_space_group_name_H-M   'P 1'
_cell_length_a   7.01412750
_cell_length_b   10.45122357
_cell_length_c   10.45122357
_cell_angle_alpha   120.00330053
_cell_angle_beta   90.00000000
_cell_angle_gamma   90.00000000
_symmetry_Int_Tables_number   1
_chemical_formula_structural   Nd8Ga3Co
_chemical_formula_sum   'Nd16 Ga6 Co2'
_cell_volume   663.47432183
_cell_formula_units_Z   2
loop_
 _symmetry_equiv_pos_site_id
 _symmetry_equiv_pos_as_xyz
  1  'x, y, z'
loop_
 _atom_site_type_symbol
 _atom_site_label
 _atom_site_symmetry_multiplicity
 _atom_site_fract_x
 _atom_site_fract_y
 _atom_site_fract_z
 _atom_site_occupancy
  Nd  Nd0  1  0.50513245  0.17143202  0.82856798  1
  Nd  Nd1  1  0.50509433  0.65710236  0.82852562  1
  Nd  Nd2  1  0.50509433  0.17147438  0.34289764  1
  Nd  Nd3  1  0.00513245  0.82856798  0.17143202  1
  Nd  Nd4  1  0.00509433  0.34289764  0.17147438  1
  Nd  Nd5  1  0.00509433  0.82852562  0.65710236  1
  Nd  Nd6  1  0.82756281  0.33330777  0.66669223  1
  Nd  Nd7  1  0.32756281  0.66669223  0.33330777  1
  Nd  Nd8  1  0.21050594  0.46313437  0.53686563  1
  Nd  Nd9  1  0.21055663  0.07366209  0.53682496  1
  Nd  Nd10  1  0.21055663  0.46317504  0.92633791  1
  Nd  Nd11  1  0.71050594  0.53686563  0.46313437  1
  Nd  Nd12  1  0.71055663  0.92633791  0.46317504  1
  Nd  Nd13  1  0.71055663  0.53682496  0.07366209  1
  Nd  Nd14  1  0.22226766  -0.00000127  0.00000127  1
  Nd  Nd15  1  0.72226766  0.00000127  -0.00000127  1
  Ga  Ga16  1  0.96521767  0.16433034  0.83566966  1
  Ga  Ga17  1  0.96526588  0.67139376  0.83568848  1
  Ga  Ga18  1  0.96526588  0.16431152  0.32860624  1
  Ga  Ga19  1  0.46521767  0.83566966  0.16433034  1
  Ga  Ga20  1  0.46526588  0.32860624  0.16431152  1
  Ga  Ga21  1  0.46526588  0.83568848  0.67139376  1
  Co  Co22  1  0.44447978  0.33334533  0.66665467  1
  Co  Co23  1  0.94447978  0.66665467  0.33334533  1
