# generated using pymatgen
data_Tm8In3Co
_symmetry_space_group_name_H-M   'P 1'
_cell_length_a   6.90668212
_cell_length_b   10.24902284
_cell_length_c   10.24902284
_cell_angle_alpha   120.00168983
_cell_angle_beta   90.00000000
_cell_angle_gamma   90.00000000
_symmetry_Int_Tables_number   1
_chemical_formula_structural   Tm8In3Co
_chemical_formula_sum   'Tm16 In6 Co2'
_cell_volume   628.28635260
_cell_formula_units_Z   2
loop_
 _symmetry_equiv_pos_site_id
 _symmetry_equiv_pos_as_xyz
  1  'x, y, z'
loop_
 _atom_site_type_symbol
 _atom_site_label
 _atom_site_symmetry_multiplicity
 _atom_site_fract_x
 _atom_site_fract_y
 _atom_site_fract_z
 _atom_site_occupancy
  Tm  Tm0  1  0.48680289  0.46615272  0.53384728  1
  Tm  Tm1  1  0.48679345  0.06769061  0.53384519  1
  Tm  Tm2  1  0.48679345  0.46615481  0.93230939  1
  Tm  Tm3  1  0.98680289  0.53384728  0.46615272  1
  Tm  Tm4  1  0.98679345  0.93230939  0.46615481  1
  Tm  Tm5  1  0.98679345  0.53384519  0.06769061  1
  Tm  Tm6  1  0.27800422  0.82152121  0.17847879  1
  Tm  Tm7  1  0.27801804  0.35697271  0.17848435  1
  Tm  Tm8  1  0.27801804  0.82151565  0.64302729  1
  Tm  Tm9  1  0.77800422  0.17847879  0.82152121  1
  Tm  Tm10  1  0.77801804  0.64302729  0.82151565  1
  Tm  Tm11  1  0.77801804  0.17848435  0.35697271  1
  Tm  Tm12  1  0.09770459  0.33331921  0.66668079  1
  Tm  Tm13  1  0.59770459  0.66668079  0.33331921  1
  Tm  Tm14  1  0.49922921  -0.00000037  0.00000037  1
  Tm  Tm15  1  0.99922921  0.00000037  -0.00000037  1
  In  In16  1  0.23968714  0.16306098  0.83693902  1
  In  In17  1  0.23968330  0.67387077  0.83693075  1
  In  In18  1  0.23968330  0.16306925  0.32612923  1
  In  In19  1  0.73968714  0.83693902  0.16306098  1
  In  In20  1  0.73968330  0.32612923  0.16306925  1
  In  In21  1  0.73968330  0.83693075  0.67387077  1
  Co  Co22  1  0.71058236  0.33331914  0.66668086  1
  Co  Co23  1  0.21058236  0.66668086  0.33331914  1
