# generated using pymatgen
data_Hf2N2O
_symmetry_space_group_name_H-M   'P 1'
_cell_length_a   5.88479951
_cell_length_b   3.09200221
_cell_length_c   12.22619753
_cell_angle_alpha   90.00000000
_cell_angle_beta   90.00000000
_cell_angle_gamma   90.00000000
_symmetry_Int_Tables_number   1
_chemical_formula_structural   Hf2N2O
_chemical_formula_sum   'Hf8 N8 O4'
_cell_volume   222.46560506
_cell_formula_units_Z   4
loop_
 _symmetry_equiv_pos_site_id
 _symmetry_equiv_pos_as_xyz
  1  'x, y, z'
loop_
 _atom_site_type_symbol
 _atom_site_label
 _atom_site_symmetry_multiplicity
 _atom_site_fract_x
 _atom_site_fract_y
 _atom_site_fract_z
 _atom_site_occupancy
  Hf  Hf0  1  0.14554246  0.25000000  0.20636456  1
  Hf  Hf1  1  0.25515247  0.75000000  0.45594557  1
  Hf  Hf2  1  0.24484753  0.25000000  0.95594557  1
  Hf  Hf3  1  0.35445754  0.75000000  0.70636456  1
  Hf  Hf4  1  0.64554246  0.25000000  0.29363544  1
  Hf  Hf5  1  0.75515247  0.75000000  0.04405443  1
  Hf  Hf6  1  0.74484753  0.25000000  0.54405443  1
  Hf  Hf7  1  0.85445754  0.75000000  0.79363544  1
  N  N8  1  0.13646928  0.75000000  0.06752937  1
  N  N9  1  0.14732684  0.25000000  0.78078756  1
  N  N10  1  0.35267316  0.75000000  0.28078756  1
  N  N11  1  0.36353072  0.25000000  0.56752937  1
  N  N12  1  0.63646928  0.75000000  0.43247063  1
  N  N13  1  0.64732684  0.25000000  0.71921244  1
  N  N14  1  0.85267316  0.75000000  0.21921244  1
  N  N15  1  0.86353072  0.25000000  0.93247063  1
  O  O16  1  0.02972585  0.25000000  0.39885359  1
  O  O17  1  0.47027415  0.75000000  0.89885359  1
  O  O18  1  0.52972585  0.25000000  0.10114641  1
  O  O19  1  0.97027415  0.75000000  0.60114641  1
