# generated using pymatgen
data_K3Pr(PO4)2
_symmetry_space_group_name_H-M   'P 1'
_cell_length_a   5.72290262
_cell_length_b   7.56797261
_cell_length_c   9.67745863
_cell_angle_alpha   90.89363589
_cell_angle_beta   90.00000000
_cell_angle_gamma   90.00000000
_symmetry_Int_Tables_number   1
_chemical_formula_structural   K3Pr(PO4)2
_chemical_formula_sum   'K6 Pr2 P4 O16'
_cell_volume   419.08720806
_cell_formula_units_Z   2
loop_
 _symmetry_equiv_pos_site_id
 _symmetry_equiv_pos_as_xyz
  1  'x, y, z'
loop_
 _atom_site_type_symbol
 _atom_site_label
 _atom_site_symmetry_multiplicity
 _atom_site_fract_x
 _atom_site_fract_y
 _atom_site_fract_z
 _atom_site_occupancy
  K  K0  1  0.75000000  0.20405285  0.08297352  1
  K  K1  1  0.25000000  0.79594715  0.91702648  1
  K  K2  1  0.75000000  0.63885931  0.40602007  1
  K  K3  1  0.25000000  0.36114069  0.59397993  1
  K  K4  1  0.75000000  0.49239685  0.80910664  1
  K  K5  1  0.25000000  0.50760315  0.19089336  1
  Pr  Pr6  1  0.75000000  0.99322157  0.70752932  1
  Pr  Pr7  1  0.25000000  0.00677843  0.29247068  1
  P  P8  1  0.75000000  0.19812431  0.42570473  1
  P  P9  1  0.25000000  0.80187569  0.57429527  1
  P  P10  1  0.25000000  0.23524039  0.91437693  1
  P  P11  1  0.75000000  0.76475961  0.08562307  1
  O  O12  1  0.75000000  0.99477009  0.44459895  1
  O  O13  1  0.25000000  0.00522991  0.55540105  1
  O  O14  1  0.75000000  0.28358476  0.57381957  1
  O  O15  1  0.25000000  0.71641524  0.42618043  1
  O  O16  1  0.52741312  0.25542312  0.34534168  1
  O  O17  1  0.02741312  0.74457688  0.65465832  1
  O  O18  1  0.47258688  0.74457688  0.65465832  1
  O  O19  1  0.97258688  0.25542312  0.34534168  1
  O  O20  1  0.47204188  0.15621280  0.84204302  1
  O  O21  1  0.97204188  0.84378720  0.15795698  1
  O  O22  1  0.52795812  0.84378720  0.15795698  1
  O  O23  1  0.02795812  0.15621280  0.84204302  1
  O  O24  1  0.25000000  0.18034240  0.06926108  1
  O  O25  1  0.75000000  0.81965760  0.93073892  1
  O  O26  1  0.25000000  0.43710144  0.90025672  1
  O  O27  1  0.75000000  0.56289856  0.09974328  1
