# generated using pymatgen
data_LiGaH4
_symmetry_space_group_name_H-M   'P 1'
_cell_length_a   4.88314788
_cell_length_b   7.61252176
_cell_length_c   7.83664038
_cell_angle_alpha   90.00000000
_cell_angle_beta   90.00000000
_cell_angle_gamma   103.48881359
_symmetry_Int_Tables_number   1
_chemical_formula_structural   LiGaH4
_chemical_formula_sum   'Li4 Ga4 H16'
_cell_volume   283.27627613
_cell_formula_units_Z   4
loop_
 _symmetry_equiv_pos_site_id
 _symmetry_equiv_pos_as_xyz
  1  'x, y, z'
loop_
 _atom_site_type_symbol
 _atom_site_label
 _atom_site_symmetry_multiplicity
 _atom_site_fract_x
 _atom_site_fract_y
 _atom_site_fract_z
 _atom_site_occupancy
  Li  Li0  1  0.74333855  0.32250364  0.46003280  1
  Li  Li1  1  0.75666145  0.17749636  0.96003280  1
  Li  Li2  1  0.25666145  0.67749636  0.53996720  1
  Li  Li3  1  0.24333855  0.82250364  0.03996720  1
  Ga  Ga4  1  0.72626534  0.56711553  0.79430774  1
  Ga  Ga5  1  0.77373466  0.93288447  0.29430774  1
  Ga  Ga6  1  0.27373466  0.43288447  0.20569226  1
  Ga  Ga7  1  0.22626534  0.06711553  0.70569226  1
  H  H8  1  0.07474642  0.27073403  0.10506330  1
  H  H9  1  0.42525358  0.22926597  0.60506330  1
  H  H10  1  0.92525358  0.72926597  0.89493670  1
  H  H11  1  0.57474642  0.77073403  0.39493670  1
  H  H12  1  0.11202558  0.47625361  0.37613929  1
  H  H13  1  0.38797442  0.02374639  0.87613929  1
  H  H14  1  0.88797442  0.52374639  0.62386071  1
  H  H15  1  0.61202558  0.97625361  0.12386071  1
  H  H16  1  0.65203886  0.38993099  0.90827086  1
  H  H17  1  0.84796114  0.11006901  0.40827086  1
  H  H18  1  0.34796114  0.61006901  0.09172914  1
  H  H19  1  0.15203886  0.88993099  0.59172914  1
  H  H20  1  0.44617648  0.62326947  0.73496739  1
  H  H21  1  0.05382352  0.87673053  0.23496739  1
  H  H22  1  0.55382352  0.37673053  0.26503261  1
  H  H23  1  0.94617648  0.12326947  0.76503261  1
