# generated using pymatgen
data_Cs3FeO3
_symmetry_space_group_name_H-M   'P 1'
_cell_length_a   7.40713889
_cell_length_b   7.84926088
_cell_length_c   12.38167794
_cell_angle_alpha   90.00004981
_cell_angle_beta   90.00019414
_cell_angle_gamma   104.46119165
_symmetry_Int_Tables_number   1
_chemical_formula_structural   Cs3FeO3
_chemical_formula_sum   'Cs12 Fe4 O12'
_cell_volume   697.06987709
_cell_formula_units_Z   4
loop_
 _symmetry_equiv_pos_site_id
 _symmetry_equiv_pos_as_xyz
  1  'x, y, z'
loop_
 _atom_site_type_symbol
 _atom_site_label
 _atom_site_symmetry_multiplicity
 _atom_site_fract_x
 _atom_site_fract_y
 _atom_site_fract_z
 _atom_site_occupancy
  Cs  Cs0  1  0.45517954  0.49657969  0.70655163  1
  Cs  Cs1  1  0.54481484  0.00341021  0.20654510  1
  Cs  Cs2  1  0.54481226  0.50342150  0.29345316  1
  Cs  Cs3  1  0.45519080  0.99658645  0.79345810  1
  Cs  Cs4  1  0.66380225  0.36755274  0.99165444  1
  Cs  Cs5  1  0.33619288  0.13245357  0.49164682  1
  Cs  Cs6  1  0.33620174  0.63245870  0.00834980  1
  Cs  Cs7  1  0.66380339  0.86754882  0.50834142  1
  Cs  Cs8  1  0.97999574  0.08774064  0.74335006  1
  Cs  Cs9  1  0.02001669  0.41228098  0.24333828  1
  Cs  Cs10  1  0.02000313  0.91226172  0.25665377  1
  Cs  Cs11  1  0.97998988  0.58771868  0.75666825  1
  Fe  Fe12  1  0.84438718  0.34982434  0.50804001  1
  Fe  Fe13  1  0.15561810  0.15014291  0.00805023  1
  Fe  Fe14  1  0.15559908  0.65016654  0.49195445  1
  Fe  Fe15  1  0.84440635  0.84984342  0.99195160  1
  O  O16  1  0.88063028  0.10301394  0.03220850  1
  O  O17  1  0.11938191  0.39697461  0.53220418  1
  O  O18  1  0.11937498  0.89698655  0.96779354  1
  O  O19  1  0.88061406  0.60303036  0.46778758  1
  O  O20  1  0.70579562  0.27117010  0.63424702  1
  O  O21  1  0.29419915  0.22881654  0.13424466  1
  O  O22  1  0.29420484  0.72882521  0.36575108  1
  O  O23  1  0.70578811  0.77116927  0.86575798  1
  O  O24  1  0.25059149  0.29636673  0.88891437  1
  O  O25  1  0.74940200  0.20364134  0.38891243  1
  O  O26  1  0.74941210  0.70364908  0.11108941  1
  O  O27  1  0.25059160  0.79636536  0.61108215  1
