# generated using pymatgen
data_BiBPbO4
_symmetry_space_group_name_H-M   'P 1'
_cell_length_a   7.57766349
_cell_length_b   7.71329771
_cell_length_c   7.71329771
_cell_angle_alpha   92.82030254
_cell_angle_beta   90.00000000
_cell_angle_gamma   90.00000000
_symmetry_Int_Tables_number   1
_chemical_formula_structural   BiBPbO4
_chemical_formula_sum   'Bi4 B4 Pb4 O16'
_cell_volume   450.28673374
_cell_formula_units_Z   4
loop_
 _symmetry_equiv_pos_site_id
 _symmetry_equiv_pos_as_xyz
  1  'x, y, z'
loop_
 _atom_site_type_symbol
 _atom_site_label
 _atom_site_symmetry_multiplicity
 _atom_site_fract_x
 _atom_site_fract_y
 _atom_site_fract_z
 _atom_site_occupancy
  Bi  Bi0  1  0.50000000  0.34168816  0.65831184  1
  Bi  Bi1  1  0.00000000  0.84168816  0.15831184  1
  Bi  Bi2  1  0.50000000  0.65831184  0.34168816  1
  Bi  Bi3  1  -0.00000000  0.15831184  0.84168816  1
  B  B4  1  0.25000000  0.01200963  0.51200963  1
  B  B5  1  0.75000000  0.48799037  0.98799037  1
  B  B6  1  0.75000000  0.98799037  0.48799037  1
  B  B7  1  0.25000000  0.51200963  0.01200963  1
  Pb  Pb8  1  0.39119693  0.18321459  0.18321459  1
  Pb  Pb9  1  0.60880307  0.81678541  0.81678541  1
  Pb  Pb10  1  0.89119693  0.31678541  0.31678541  1
  Pb  Pb11  1  0.10880307  0.68321459  0.68321459  1
  O  O12  1  0.29438372  0.18237327  0.47458501  1
  O  O13  1  0.70561628  0.52541499  0.81762673  1
  O  O14  1  0.79438372  0.02541499  0.31762673  1
  O  O15  1  0.20561628  0.68237327  0.97458501  1
  O  O16  1  0.70561628  0.81762673  0.52541499  1
  O  O17  1  0.29438372  0.47458501  0.18237327  1
  O  O18  1  0.20561628  0.97458501  0.68237327  1
  O  O19  1  0.79438372  0.31762673  0.02541499  1
  O  O20  1  0.60567816  0.39853292  0.39853292  1
  O  O21  1  0.39432184  0.60146708  0.60146708  1
  O  O22  1  0.10567816  0.10146708  0.10146708  1
  O  O23  1  0.89432184  0.89853292  0.89853292  1
  O  O24  1  0.25000000  0.88255932  0.38255932  1
  O  O25  1  0.75000000  0.61744068  0.11744068  1
  O  O26  1  0.75000000  0.11744068  0.61744068  1
  O  O27  1  0.25000000  0.38255932  0.88255932  1
