# generated using pymatgen
data_NaGa5O8
_symmetry_space_group_name_H-M   'P 1'
_cell_length_a   5.99963749
_cell_length_b   11.72757395
_cell_length_c   5.99982793
_cell_angle_alpha   104.81141679
_cell_angle_beta   59.99904088
_cell_angle_gamma   104.81097915
_symmetry_Int_Tables_number   1
_chemical_formula_structural   NaGa5O8
_chemical_formula_sum   'Na2 Ga10 O16'
_cell_volume   349.30321160
_cell_formula_units_Z   2
loop_
 _symmetry_equiv_pos_site_id
 _symmetry_equiv_pos_as_xyz
  1  'x, y, z'
loop_
 _atom_site_type_symbol
 _atom_site_label
 _atom_site_symmetry_multiplicity
 _atom_site_fract_x
 _atom_site_fract_y
 _atom_site_fract_z
 _atom_site_occupancy
  Na  Na0  1  0.34521355  0.03568199  0.34514898  1
  Na  Na1  1  0.82530921  0.47592596  0.82533805  1
  Ga  Ga2  1  0.09269972  0.77293933  0.09274845  1
  Ga  Ga3  1  0.00427948  0.01300633  0.00422315  1
  Ga  Ga4  1  0.09272992  0.77296308  0.58757010  1
  Ga  Ga5  1  0.58757391  0.77296940  0.09276327  1
  Ga  Ga6  1  0.65263775  0.95793719  0.65260271  1
  Ga  Ga7  1  0.43124616  0.29340393  0.43118477  1
  Ga  Ga8  1  0.55678432  0.67003143  0.55668884  1
  Ga  Ga9  1  0.39752906  0.22845754  0.91549539  1
  Ga  Ga10  1  0.91551022  0.22845025  0.39752905  1
  Ga  Ga11  1  0.91553470  0.22855853  0.91548895  1
  O  O12  1  0.28382364  0.85157800  0.28382703  1
  O  O13  1  0.10699106  0.32085919  0.10698355  1
  O  O14  1  0.28109778  0.89246856  0.80557531  1
  O  O15  1  0.19078476  0.12296592  0.19075562  1
  O  O16  1  0.38774874  0.67689928  0.38776211  1
  O  O17  1  0.09250534  0.31983751  0.61363277  1
  O  O18  1  0.61367119  0.31984135  0.09244070  1
  O  O19  1  0.80557968  0.89247275  0.28107906  1
  O  O20  1  0.19084612  0.12306368  0.74121788  1
  O  O21  1  0.38770853  0.67689996  0.90163086  1
  O  O22  1  0.90146909  0.67689771  0.38779695  1
  O  O23  1  0.61377437  0.31984164  0.61375439  1
  O  O24  1  0.74126365  0.12307105  0.19080699  1
  O  O25  1  0.80563293  0.89243496  0.80561377  1
  O  O26  1  0.89863926  0.69579256  0.89863858  1
  O  O27  1  0.70805889  0.12421991  0.70803973  1
