# generated using pymatgen
data_CsVOF4
_symmetry_space_group_name_H-M   'P 1'
_cell_length_a   5.65371310
_cell_length_b   6.47473975
_cell_length_c   14.91406196
_cell_angle_alpha   90.00000000
_cell_angle_beta   90.00000000
_cell_angle_gamma   90.00000000
_symmetry_Int_Tables_number   1
_chemical_formula_structural   CsVOF4
_chemical_formula_sum   'Cs4 V4 O4 F16'
_cell_volume   545.94893868
_cell_formula_units_Z   4
loop_
 _symmetry_equiv_pos_site_id
 _symmetry_equiv_pos_as_xyz
  1  'x, y, z'
loop_
 _atom_site_type_symbol
 _atom_site_label
 _atom_site_symmetry_multiplicity
 _atom_site_fract_x
 _atom_site_fract_y
 _atom_site_fract_z
 _atom_site_occupancy
  Cs  Cs0  1  0.53257006  0.75000000  0.37209097  1
  Cs  Cs1  1  0.03257006  0.75000000  0.12790903  1
  Cs  Cs2  1  0.46742994  0.25000000  0.62790903  1
  Cs  Cs3  1  0.96742994  0.25000000  0.87209097  1
  V  V4  1  0.01069484  0.25000000  0.35905433  1
  V  V5  1  0.51069484  0.25000000  0.14094567  1
  V  V6  1  0.98930516  0.75000000  0.64094567  1
  V  V7  1  0.48930516  0.75000000  0.85905433  1
  O  O8  1  0.81333929  0.25000000  0.43708299  1
  O  O9  1  0.31333929  0.25000000  0.06291701  1
  O  O10  1  0.18666071  0.75000000  0.56291701  1
  O  O11  1  0.68666071  0.75000000  0.93708299  1
  F  F12  1  0.05326493  0.97164458  0.33755164  1
  F  F13  1  0.55326493  0.52835542  0.16244836  1
  F  F14  1  0.94673507  0.47164458  0.66244836  1
  F  F15  1  0.44673507  0.02835542  0.83755164  1
  F  F16  1  0.94673507  0.02835542  0.66244836  1
  F  F17  1  0.44673507  0.47164458  0.83755164  1
  F  F18  1  0.05326493  0.52835542  0.33755164  1
  F  F19  1  0.55326493  0.97164458  0.16244836  1
  F  F20  1  0.82209971  0.25000000  0.25759118  1
  F  F21  1  0.32209971  0.25000000  0.24240882  1
  F  F22  1  0.17790029  0.75000000  0.74240882  1
  F  F23  1  0.67790029  0.75000000  0.75759118  1
  F  F24  1  0.28659909  0.25000000  0.42366091  1
  F  F25  1  0.78659909  0.25000000  0.07633909  1
  F  F26  1  0.71340091  0.75000000  0.57633909  1
  F  F27  1  0.21340091  0.75000000  0.92366091  1
