# generated using pymatgen
data_LuFeO3
_symmetry_space_group_name_H-M   'P 1'
_cell_length_a   6.03011524
_cell_length_b   6.03021392
_cell_length_c   11.74142920
_cell_angle_alpha   90.00000000
_cell_angle_beta   90.00000000
_cell_angle_gamma   119.99945572
_symmetry_Int_Tables_number   1
_chemical_formula_structural   LuFeO3
_chemical_formula_sum   'Lu6 Fe6 O18'
_cell_volume   369.75351239
_cell_formula_units_Z   6
loop_
 _symmetry_equiv_pos_site_id
 _symmetry_equiv_pos_as_xyz
  1  'x, y, z'
loop_
 _atom_site_type_symbol
 _atom_site_label
 _atom_site_symmetry_multiplicity
 _atom_site_fract_x
 _atom_site_fract_y
 _atom_site_fract_z
 _atom_site_occupancy
  Lu  Lu0  1  0.00001619  0.00000000  0.22347330  1
  Lu  Lu1  1  0.99998381  1.00000000  0.72347330  1
  Lu  Lu2  1  0.66667700  0.33333071  0.26680715  1
  Lu  Lu3  1  0.33334630  0.66666929  0.26680715  1
  Lu  Lu4  1  0.33332300  0.66666929  0.76680715  1
  Lu  Lu5  1  0.66665370  0.33333071  0.76680715  1
  Fe  Fe6  1  0.66602304  1.00000000  0.49882112  1
  Fe  Fe7  1  0.33400721  0.33398777  0.49882722  1
  Fe  Fe8  1  0.00001945  0.66601223  0.49882722  1
  Fe  Fe9  1  0.33397696  0.00000000  0.99882112  1
  Fe  Fe10  1  0.66599279  0.66601223  0.99882722  1
  Fe  Fe11  1  0.99998055  0.33398777  0.99882722  1
  O  O12  1  0.69526607  0.00000000  0.33187151  1
  O  O13  1  0.30476068  0.30475042  0.33187215  1
  O  O14  1  0.00001026  0.69524958  0.33187215  1
  O  O15  1  0.30473393  1.00000000  0.83187151  1
  O  O16  1  0.69523932  0.69524958  0.83187215  1
  O  O17  1  0.99998974  0.30475042  0.83187215  1
  O  O18  1  0.36186394  0.00000000  0.16389392  1
  O  O19  1  0.63814685  0.63814515  0.16389564  1
  O  O20  1  0.00000170  0.36185485  0.16389564  1
  O  O21  1  0.63813606  1.00000000  0.66389392  1
  O  O22  1  0.36185315  0.36185485  0.66389564  1
  O  O23  1  0.99999830  0.63814515  0.66389564  1
  O  O24  1  0.99999215  0.00000000  0.02499456  1
  O  O25  1  0.00000785  1.00000000  0.52499456  1
  O  O26  1  0.66668791  0.33333010  0.47657063  1
  O  O27  1  0.33335781  0.66666990  0.47657063  1
  O  O28  1  0.33331209  0.66666990  0.97657063  1
  O  O29  1  0.66664219  0.33333010  0.97657063  1
