# generated using pymatgen
data_TiPb2Se2ClO7F
_symmetry_space_group_name_H-M   'P 1'
_cell_length_a   5.45695196
_cell_length_b   8.47679655
_cell_length_c   10.95060593
_cell_angle_alpha   111.60531344
_cell_angle_beta   90.00000000
_cell_angle_gamma   90.00000000
_symmetry_Int_Tables_number   1
_chemical_formula_structural   TiPb2Se2ClO7F
_chemical_formula_sum   'Ti2 Pb4 Se4 Cl2 O14 F2'
_cell_volume   470.95851275
_cell_formula_units_Z   2
loop_
 _symmetry_equiv_pos_site_id
 _symmetry_equiv_pos_as_xyz
  1  'x, y, z'
loop_
 _atom_site_type_symbol
 _atom_site_label
 _atom_site_symmetry_multiplicity
 _atom_site_fract_x
 _atom_site_fract_y
 _atom_site_fract_z
 _atom_site_occupancy
  Ti  Ti0  1  0.02081595  0.65087231  0.04280331  1
  Ti  Ti1  1  0.52081595  0.34912769  0.95719669  1
  Pb  Pb2  1  0.56323377  0.83283521  0.80999963  1
  Pb  Pb3  1  0.06323377  0.16716479  0.19000037  1
  Pb  Pb4  1  0.51954526  0.29190968  0.50371903  1
  Pb  Pb5  1  0.01954526  0.70809032  0.49628097  1
  Se  Se6  1  0.02326666  0.12628441  0.80904100  1
  Se  Se7  1  0.52326666  0.87371559  0.19095900  1
  Se  Se8  1  0.01509845  0.50893646  0.72159169  1
  Se  Se9  1  0.51509845  0.49106354  0.27840831  1
  Cl  Cl10  1  0.49860877  0.87468582  0.54968824  1
  Cl  Cl11  1  0.99860877  0.12531418  0.45031176  1
  O  O12  1  0.79681790  0.16766247  0.93124299  1
  O  O13  1  0.29681790  0.83233753  0.06875701  1
  O  O14  1  0.28928654  0.12172454  0.89568515  1
  O  O15  1  0.78928654  0.87827546  0.10431485  1
  O  O16  1  0.96907287  0.91231846  0.73324881  1
  O  O17  1  0.46907287  0.08768154  0.26675119  1
  O  O18  1  0.78892255  0.55937576  0.62983905  1
  O  O19  1  0.28892255  0.44062424  0.37016095  1
  O  O20  1  0.26683540  0.57932085  0.66254270  1
  O  O21  1  0.76683540  0.42067915  0.33745730  1
  O  O22  1  0.95317494  0.67626645  0.87087323  1
  O  O23  1  0.45317494  0.32373355  0.12912677  1
  O  O24  1  0.22429181  0.47317233  0.96808282  1
  O  O25  1  0.72429181  0.52682767  0.03191718  1
  F  F26  1  0.06817916  0.67843105  0.22244254  1
  F  F27  1  0.56817916  0.32156895  0.77755746  1
