# generated using pymatgen
data_Zr6Al16Pt7
_symmetry_space_group_name_H-M   'P 1'
_cell_length_a   8.79885208
_cell_length_b   8.79885208
_cell_length_c   8.79885208
_cell_angle_alpha   60.00000000
_cell_angle_beta   60.00000000
_cell_angle_gamma   60.00000000
_symmetry_Int_Tables_number   1
_chemical_formula_structural   Zr6Al16Pt7
_chemical_formula_sum   'Zr6 Al16 Pt7'
_cell_volume   481.68492181
_cell_formula_units_Z   1
loop_
 _symmetry_equiv_pos_site_id
 _symmetry_equiv_pos_as_xyz
  1  'x, y, z'
loop_
 _atom_site_type_symbol
 _atom_site_label
 _atom_site_symmetry_multiplicity
 _atom_site_fract_x
 _atom_site_fract_y
 _atom_site_fract_z
 _atom_site_occupancy
  Zr  Zr0  1  0.68599533  0.31400467  0.31400467  1
  Zr  Zr1  1  0.68599533  0.31400467  0.68599533  1
  Zr  Zr2  1  0.68599533  0.68599533  0.31400467  1
  Zr  Zr3  1  0.31400467  0.68599533  0.68599533  1
  Zr  Zr4  1  0.31400467  0.68599533  0.31400467  1
  Zr  Zr5  1  0.31400467  0.31400467  0.68599533  1
  Al  Al6  1  0.63923492  0.12025503  0.12025503  1
  Al  Al7  1  0.12025503  0.63923492  0.12025503  1
  Al  Al8  1  0.12025503  0.12025503  0.63923492  1
  Al  Al9  1  0.12025503  0.12025503  0.12025503  1
  Al  Al10  1  0.36076508  0.87974497  0.87974497  1
  Al  Al11  1  0.87974497  0.36076508  0.87974497  1
  Al  Al12  1  0.87974497  0.87974497  0.36076508  1
  Al  Al13  1  0.87974497  0.87974497  0.87974497  1
  Al  Al14  1  0.99614795  0.33461735  0.33461735  1
  Al  Al15  1  0.33461735  0.99614795  0.33461735  1
  Al  Al16  1  0.33461735  0.33461735  0.99614795  1
  Al  Al17  1  0.33461735  0.33461735  0.33461735  1
  Al  Al18  1  0.00385205  0.66538265  0.66538265  1
  Al  Al19  1  0.66538265  0.00385205  0.66538265  1
  Al  Al20  1  0.66538265  0.66538265  0.00385205  1
  Al  Al21  1  0.66538265  0.66538265  0.66538265  1
  Pt  Pt22  1  0.00000000  0.00000000  -0.00000000  1
  Pt  Pt23  1  0.50000000  0.00000000  -0.00000000  1
  Pt  Pt24  1  0.50000000  0.00000000  0.50000000  1
  Pt  Pt25  1  0.50000000  0.50000000  -0.00000000  1
  Pt  Pt26  1  0.00000000  0.50000000  0.50000000  1
  Pt  Pt27  1  0.00000000  0.50000000  -0.00000000  1
  Pt  Pt28  1  0.00000000  0.00000000  0.50000000  1
