# generated using pymatgen
data_Te2Pb3(BrO3)2
_symmetry_space_group_name_H-M   'P 1'
_cell_length_a   5.77373495
_cell_length_b   9.08830191
_cell_length_c   11.25645607
_cell_angle_alpha   104.23225932
_cell_angle_beta   90.00000000
_cell_angle_gamma   108.52065591
_symmetry_Int_Tables_number   1
_chemical_formula_structural   Te2Pb3(BrO3)2
_chemical_formula_sum   'Te4 Pb6 Br4 O12'
_cell_volume   540.92049095
_cell_formula_units_Z   2
loop_
 _symmetry_equiv_pos_site_id
 _symmetry_equiv_pos_as_xyz
  1  'x, y, z'
loop_
 _atom_site_type_symbol
 _atom_site_label
 _atom_site_symmetry_multiplicity
 _atom_site_fract_x
 _atom_site_fract_y
 _atom_site_fract_z
 _atom_site_occupancy
  Te  Te0  1  0.60077915  0.20155829  0.05206809  1
  Te  Te1  1  0.39922085  0.79844171  0.94793191  1
  Te  Te2  1  0.86995666  0.73991333  0.41501066  1
  Te  Te3  1  0.13004334  0.26008667  0.58498934  1
  Pb  Pb4  1  0.26012149  0.52024299  0.20910171  1
  Pb  Pb5  1  0.73987851  0.47975701  0.79089829  1
  Pb  Pb6  1  0.02554481  0.05108962  0.19758723  1
  Pb  Pb7  1  0.97445519  0.94891038  0.80241277  1
  Pb  Pb8  1  0.66464311  0.32928623  0.39034556  1
  Pb  Pb9  1  0.33535689  0.67071377  0.60965444  1
  Br  Br10  1  0.81840619  0.63681237  0.09974103  1
  Br  Br11  1  0.18159381  0.36318763  0.90025897  1
  Br  Br12  1  0.46020791  0.92041581  0.30951640  1
  Br  Br13  1  0.53979209  0.07958419  0.69048360  1
  O  O14  1  0.86318534  0.26423128  0.18348567  1
  O  O15  1  0.40104594  0.26423128  0.18348567  1
  O  O16  1  0.13681466  0.73576872  0.81651433  1
  O  O17  1  0.59895406  0.73576872  0.81651433  1
  O  O18  1  0.71345736  -0.00000000  -0.00000000  1
  O  O19  1  0.28654264  -0.00000000  -0.00000000  1
  O  O20  1  0.88880683  0.77761367  0.58761617  1
  O  O21  1  0.11119317  0.22238633  0.41238383  1
  O  O22  1  0.02843740  0.58074847  0.38811460  1
  O  O23  1  0.55231107  0.58074847  0.38811460  1
  O  O24  1  0.97156260  0.41925153  0.61188540  1
  O  O25  1  0.44768893  0.41925153  0.61188540  1
