# generated using pymatgen
data_Li2Co(SO4)2
_symmetry_space_group_name_H-M   'P 1'
_cell_length_a   5.02383368
_cell_length_b   7.58502962
_cell_length_c   8.20624037
_cell_angle_alpha   90.00000000
_cell_angle_beta   90.00000000
_cell_angle_gamma   92.49003167
_symmetry_Int_Tables_number   1
_chemical_formula_structural   Li2Co(SO4)2
_chemical_formula_sum   'Li4 Co2 S4 O16'
_cell_volume   312.41114005
_cell_formula_units_Z   2
loop_
 _symmetry_equiv_pos_site_id
 _symmetry_equiv_pos_as_xyz
  1  'x, y, z'
loop_
 _atom_site_type_symbol
 _atom_site_label
 _atom_site_symmetry_multiplicity
 _atom_site_fract_x
 _atom_site_fract_y
 _atom_site_fract_z
 _atom_site_occupancy
  Li  Li0  1  0.41132290  0.39842000  0.86498299  1
  Li  Li1  1  0.08867710  0.10158000  0.36498299  1
  Li  Li2  1  0.58867710  0.60158000  0.13501701  1
  Li  Li3  1  0.91132290  0.89842000  0.63501701  1
  Co  Co4  1  0.50000000  0.50000000  0.50000000  1
  Co  Co5  1  -0.00000000  -0.00000000  -0.00000000  1
  S  S6  1  0.53283003  0.19826084  0.19578287  1
  S  S7  1  0.96716997  0.30173916  0.69578287  1
  S  S8  1  0.46716997  0.80173916  0.80421713  1
  S  S9  1  0.03283003  0.69826084  0.30421713  1
  O  O10  1  0.52999623  0.34775424  0.08234820  1
  O  O11  1  0.97000377  0.15224576  0.58234820  1
  O  O12  1  0.47000377  0.65224576  0.91765180  1
  O  O13  1  0.02999623  0.84775424  0.41765180  1
  O  O14  1  0.45824302  0.25379647  0.36452673  1
  O  O15  1  0.04175698  0.24620353  0.86452673  1
  O  O16  1  0.54175698  0.74620353  0.63547327  1
  O  O17  1  0.95824302  0.75379647  0.13547327  1
  O  O18  1  0.33540176  0.05452860  0.14820019  1
  O  O19  1  0.16459824  0.44547140  0.64820019  1
  O  O20  1  0.66459824  0.94547140  0.85179981  1
  O  O21  1  0.83540176  0.55452860  0.35179981  1
  O  O22  1  0.80445599  0.12395671  0.19733144  1
  O  O23  1  0.69554401  0.37604329  0.69733144  1
  O  O24  1  0.19554401  0.87604329  0.80266856  1
  O  O25  1  0.30445599  0.62395671  0.30266856  1
