# generated using pymatgen
data_Li3SbS3
_symmetry_space_group_name_H-M   'P 1'
_cell_length_a   6.84638624
_cell_length_b   7.99900126
_cell_length_c   10.15862018
_cell_angle_alpha   90.00000000
_cell_angle_beta   90.00000000
_cell_angle_gamma   90.00000000
_symmetry_Int_Tables_number   1
_chemical_formula_structural   Li3SbS3
_chemical_formula_sum   'Li12 Sb4 S12'
_cell_volume   556.32923714
_cell_formula_units_Z   4
loop_
 _symmetry_equiv_pos_site_id
 _symmetry_equiv_pos_as_xyz
  1  'x, y, z'
loop_
 _atom_site_type_symbol
 _atom_site_label
 _atom_site_symmetry_multiplicity
 _atom_site_fract_x
 _atom_site_fract_y
 _atom_site_fract_z
 _atom_site_occupancy
  Li  Li0  1  0.45923901  0.44400419  0.22454733  1
  Li  Li1  1  0.54076099  0.55599581  0.72454733  1
  Li  Li2  1  0.95923901  0.05599581  0.72454733  1
  Li  Li3  1  0.04076099  0.94400419  0.22454733  1
  Li  Li4  1  0.84511732  0.58870811  0.18266936  1
  Li  Li5  1  0.15488268  0.41129189  0.68266936  1
  Li  Li6  1  0.34511732  0.91129189  0.68266936  1
  Li  Li7  1  0.65488268  0.08870811  0.18266936  1
  Li  Li8  1  0.87433207  0.73952085  0.88537290  1
  Li  Li9  1  0.12566793  0.26047915  0.38537290  1
  Li  Li10  1  0.37433207  0.76047915  0.38537290  1
  Li  Li11  1  0.62566793  0.23952085  0.88537290  1
  Sb  Sb12  1  0.39457823  0.76536755  0.00030688  1
  Sb  Sb13  1  0.60542177  0.23463245  0.50030688  1
  Sb  Sb14  1  0.89457823  0.73463245  0.50030688  1
  Sb  Sb15  1  0.10542177  0.26536755  0.00030688  1
  S  S16  1  0.19486107  0.66223221  0.18360971  1
  S  S17  1  0.80513893  0.33776779  0.68360971  1
  S  S18  1  0.69486107  0.83776779  0.68360971  1
  S  S19  1  0.30513893  0.16223221  0.18360971  1
  S  S20  1  0.63780998  0.53502683  0.99131647  1
  S  S21  1  0.36219002  0.46497317  0.49131647  1
  S  S22  1  0.13780998  0.96497317  0.49131647  1
  S  S23  1  0.86219002  0.03502683  0.99131647  1
  S  S24  1  0.20332339  0.67891123  0.80647734  1
  S  S25  1  0.79667661  0.32108877  0.30647734  1
  S  S26  1  0.70332339  0.82108877  0.30647734  1
  S  S27  1  0.29667661  0.17891123  0.80647734  1
