# generated using pymatgen
data_Ba(DySe2)2
_symmetry_space_group_name_H-M   'P 1'
_cell_length_a   4.21784058
_cell_length_b   12.88317342
_cell_length_c   15.18619907
_cell_angle_alpha   90.00000000
_cell_angle_beta   90.00000000
_cell_angle_gamma   90.00000000
_symmetry_Int_Tables_number   1
_chemical_formula_structural   Ba(DySe2)2
_chemical_formula_sum   'Ba4 Dy8 Se16'
_cell_volume   825.20547798
_cell_formula_units_Z   4
loop_
 _symmetry_equiv_pos_site_id
 _symmetry_equiv_pos_as_xyz
  1  'x, y, z'
loop_
 _atom_site_type_symbol
 _atom_site_label
 _atom_site_symmetry_multiplicity
 _atom_site_fract_x
 _atom_site_fract_y
 _atom_site_fract_z
 _atom_site_occupancy
  Ba  Ba0  1  0.75000000  0.74348444  0.16291376  1
  Ba  Ba1  1  0.75000000  0.24348444  0.33708624  1
  Ba  Ba2  1  0.25000000  0.25651556  0.83708624  1
  Ba  Ba3  1  0.25000000  0.75651556  0.66291376  1
  Dy  Dy4  1  0.75000000  0.06626736  0.10973945  1
  Dy  Dy5  1  0.75000000  0.56626736  0.39026055  1
  Dy  Dy6  1  0.25000000  0.93373264  0.89026055  1
  Dy  Dy7  1  0.25000000  0.43373264  0.60973945  1
  Dy  Dy8  1  0.75000000  0.07939946  0.59983501  1
  Dy  Dy9  1  0.75000000  0.57939946  0.90016499  1
  Dy  Dy10  1  0.25000000  0.92060054  0.40016499  1
  Dy  Dy11  1  0.25000000  0.42060054  0.09983501  1
  Se  Se12  1  0.75000000  0.29300277  0.66617342  1
  Se  Se13  1  0.75000000  0.79300277  0.83382658  1
  Se  Se14  1  0.25000000  0.70699723  0.33382658  1
  Se  Se15  1  0.25000000  0.20699723  0.16617342  1
  Se  Se16  1  0.75000000  0.37381543  0.97524471  1
  Se  Se17  1  0.75000000  0.87381543  0.52475529  1
  Se  Se18  1  0.25000000  0.62618457  0.02475529  1
  Se  Se19  1  0.25000000  0.12618457  0.47524471  1
  Se  Se20  1  0.75000000  0.97587829  0.28360572  1
  Se  Se21  1  0.75000000  0.47587829  0.21639428  1
  Se  Se22  1  0.25000000  0.02412171  0.71639428  1
  Se  Se23  1  0.25000000  0.52412171  0.78360572  1
  Se  Se24  1  0.75000000  0.08199379  0.92318302  1
  Se  Se25  1  0.75000000  0.58199379  0.57681698  1
  Se  Se26  1  0.25000000  0.91800621  0.07681698  1
  Se  Se27  1  0.25000000  0.41800621  0.42318302  1
