# generated using pymatgen
data_Pr(Sn2Rh)2
_symmetry_space_group_name_H-M   'P 1'
_cell_length_a   4.56244796
_cell_length_b   7.21997206
_cell_length_c   18.74161225
_cell_angle_alpha   90.00000000
_cell_angle_beta   90.00000000
_cell_angle_gamma   90.00000000
_symmetry_Int_Tables_number   1
_chemical_formula_structural   Pr(Sn2Rh)2
_chemical_formula_sum   'Pr4 Sn16 Rh8'
_cell_volume   617.36270368
_cell_formula_units_Z   4
loop_
 _symmetry_equiv_pos_site_id
 _symmetry_equiv_pos_as_xyz
  1  'x, y, z'
loop_
 _atom_site_type_symbol
 _atom_site_label
 _atom_site_symmetry_multiplicity
 _atom_site_fract_x
 _atom_site_fract_y
 _atom_site_fract_z
 _atom_site_occupancy
  Pr  Pr0  1  0.25000000  0.99906885  0.85817757  1
  Pr  Pr1  1  0.25000000  0.50093115  0.35817757  1
  Pr  Pr2  1  0.75000000  0.00093115  0.14182243  1
  Pr  Pr3  1  0.75000000  0.49906885  0.64182243  1
  Sn  Sn4  1  0.25000000  0.30268256  0.18182839  1
  Sn  Sn5  1  0.25000000  0.19731744  0.68182839  1
  Sn  Sn6  1  0.75000000  0.69731744  0.81817161  1
  Sn  Sn7  1  0.75000000  0.80268256  0.31817161  1
  Sn  Sn8  1  0.25000000  0.72191391  0.19455869  1
  Sn  Sn9  1  0.25000000  0.77808609  0.69455869  1
  Sn  Sn10  1  0.75000000  0.27808609  0.80544131  1
  Sn  Sn11  1  0.75000000  0.22191391  0.30544131  1
  Sn  Sn12  1  0.25000000  0.86409777  0.03115623  1
  Sn  Sn13  1  0.25000000  0.63590223  0.53115623  1
  Sn  Sn14  1  0.75000000  0.13590223  0.96884377  1
  Sn  Sn15  1  0.75000000  0.36409777  0.46884377  1
  Sn  Sn16  1  0.25000000  0.51720687  0.93184925  1
  Sn  Sn17  1  0.25000000  0.98279313  0.43184925  1
  Sn  Sn18  1  0.75000000  0.48279313  0.06815075  1
  Sn  Sn19  1  0.75000000  0.01720687  0.56815075  1
  Rh  Rh20  1  0.25000000  0.25059591  0.03453509  1
  Rh  Rh21  1  0.25000000  0.24940409  0.53453509  1
  Rh  Rh22  1  0.75000000  0.74940409  0.96546491  1
  Rh  Rh23  1  0.75000000  0.75059591  0.46546491  1
  Rh  Rh24  1  0.25000000  0.01784183  0.28675439  1
  Rh  Rh25  1  0.25000000  0.48215817  0.78675439  1
  Rh  Rh26  1  0.75000000  0.98215817  0.71324561  1
  Rh  Rh27  1  0.75000000  0.51784183  0.21324561  1
