# generated using pymatgen
data_La3SiN4F
_symmetry_space_group_name_H-M   'P 1'
_cell_length_a   6.93997859
_cell_length_b   7.73826685
_cell_length_c   9.97053420
_cell_angle_alpha   90.00000000
_cell_angle_beta   90.00000000
_cell_angle_gamma   90.00000000
_symmetry_Int_Tables_number   1
_chemical_formula_structural   La3SiN4F
_chemical_formula_sum   'La12 Si4 N16 F4'
_cell_volume   535.45164880
_cell_formula_units_Z   4
loop_
 _symmetry_equiv_pos_site_id
 _symmetry_equiv_pos_as_xyz
  1  'x, y, z'
loop_
 _atom_site_type_symbol
 _atom_site_label
 _atom_site_symmetry_multiplicity
 _atom_site_fract_x
 _atom_site_fract_y
 _atom_site_fract_z
 _atom_site_occupancy
  La  La0  1  0.59789055  0.97468129  0.16287862  1
  La  La1  1  0.90210945  0.52531871  0.66287862  1
  La  La2  1  0.40210945  0.47468129  0.83712138  1
  La  La3  1  0.09789055  0.02531871  0.33712138  1
  La  La4  1  0.40210945  0.02531871  0.83712138  1
  La  La5  1  0.09789055  0.47468129  0.33712138  1
  La  La6  1  0.59789055  0.52531871  0.16287862  1
  La  La7  1  0.90210945  0.97468129  0.66287862  1
  La  La8  1  0.08417873  0.75000000  0.03372715  1
  La  La9  1  0.41582127  0.75000000  0.53372715  1
  La  La10  1  0.91582127  0.25000000  0.96627285  1
  La  La11  1  0.58417873  0.25000000  0.46627285  1
  Si  Si12  1  0.80881481  0.75000000  0.39525331  1
  Si  Si13  1  0.69118519  0.75000000  0.89525331  1
  Si  Si14  1  0.19118519  0.25000000  0.60474669  1
  Si  Si15  1  0.30881481  0.25000000  0.10474669  1
  N  N16  1  0.69025856  0.94424263  0.42459303  1
  N  N17  1  0.80974144  0.55575737  0.92459303  1
  N  N18  1  0.30974144  0.44424263  0.57540697  1
  N  N19  1  0.19025856  0.05575737  0.07540697  1
  N  N20  1  0.30974144  0.05575737  0.57540697  1
  N  N21  1  0.19025856  0.44424263  0.07540697  1
  N  N22  1  0.69025856  0.55575737  0.42459303  1
  N  N23  1  0.80974144  0.94424263  0.92459303  1
  N  N24  1  0.02103614  0.75000000  0.49333924  1
  N  N25  1  0.47896386  0.75000000  0.99333924  1
  N  N26  1  0.97896386  0.25000000  0.50666076  1
  N  N27  1  0.52103614  0.25000000  0.00666076  1
  N  N28  1  0.87315663  0.75000000  0.22437753  1
  N  N29  1  0.62684337  0.75000000  0.72437753  1
  N  N30  1  0.12684337  0.25000000  0.77562247  1
  N  N31  1  0.37315663  0.25000000  0.27562247  1
  F  F32  1  0.33880243  0.75000000  0.27492141  1
  F  F33  1  0.16119757  0.75000000  0.77492141  1
  F  F34  1  0.66119757  0.25000000  0.72507859  1
  F  F35  1  0.83880243  0.25000000  0.22507859  1
