# generated using pymatgen
data_Mn4SiTeCl2O7
_symmetry_space_group_name_H-M   'P 1'
_cell_length_a   5.56791013
_cell_length_b   6.54732412
_cell_length_c   12.80470365
_cell_angle_alpha   90.00000000
_cell_angle_beta   94.05349591
_cell_angle_gamma   90.00000000
_symmetry_Int_Tables_number   1
_chemical_formula_structural   Mn4SiTeCl2O7
_chemical_formula_sum   'Mn8 Si2 Te2 Cl4 O14'
_cell_volume   465.62665586
_cell_formula_units_Z   2
loop_
 _symmetry_equiv_pos_site_id
 _symmetry_equiv_pos_as_xyz
  1  'x, y, z'
loop_
 _atom_site_type_symbol
 _atom_site_label
 _atom_site_symmetry_multiplicity
 _atom_site_fract_x
 _atom_site_fract_y
 _atom_site_fract_z
 _atom_site_occupancy
  Mn  Mn0  1  0.98226062  0.25000000  0.16844500  1
  Mn  Mn1  1  0.01773938  0.75000000  0.83155500  1
  Mn  Mn2  1  0.64012473  0.00478591  0.35983347  1
  Mn  Mn3  1  0.35987527  0.50478591  0.64016653  1
  Mn  Mn4  1  0.35987527  0.99521409  0.64016653  1
  Mn  Mn5  1  0.64012473  0.49521409  0.35983347  1
  Mn  Mn6  1  0.14513259  0.75000000  0.33201701  1
  Mn  Mn7  1  0.85486741  0.25000000  0.66798299  1
  Si  Si8  1  0.15521171  0.25000000  0.43838007  1
  Si  Si9  1  0.84478829  0.75000000  0.56161993  1
  Te  Te10  1  0.70234186  0.75000000  0.14447681  1
  Te  Te11  1  0.29765814  0.25000000  0.85552319  1
  Cl  Cl12  1  0.42567772  0.25000000  0.17779890  1
  Cl  Cl13  1  0.57432228  0.75000000  0.82220110  1
  Cl  Cl14  1  0.85226554  0.25000000  0.98385776  1
  Cl  Cl15  1  0.14773446  0.75000000  0.01614224  1
  O  O16  1  0.29109448  0.03733637  0.40537153  1
  O  O17  1  0.70890552  0.53733637  0.59462847  1
  O  O18  1  0.70890552  0.96266363  0.59462847  1
  O  O19  1  0.29109448  0.46266363  0.40537153  1
  O  O20  1  0.48454687  0.75000000  0.25589126  1
  O  O21  1  0.51545313  0.25000000  0.74410874  1
  O  O22  1  0.15984972  0.25000000  0.56882495  1
  O  O23  1  0.84015028  0.75000000  0.43117505  1
  O  O24  1  0.89242708  0.95434559  0.21960957  1
  O  O25  1  0.10757292  0.45434559  0.78039043  1
  O  O26  1  0.10757292  0.04565441  0.78039043  1
  O  O27  1  0.89242708  0.54565441  0.21960957  1
  O  O28  1  0.87468341  0.25000000  0.38593501  1
  O  O29  1  0.12531659  0.75000000  0.61406499  1
