# generated using pymatgen
data_Pr3(GeRu)2
_symmetry_space_group_name_H-M   'P 1'
_cell_length_a   5.80823642
_cell_length_b   8.06007642
_cell_length_c   13.75538692
_cell_angle_alpha   90.00000000
_cell_angle_beta   90.00000000
_cell_angle_gamma   90.00000000
_symmetry_Int_Tables_number   1
_chemical_formula_structural   Pr3(GeRu)2
_chemical_formula_sum   'Pr12 Ge8 Ru8'
_cell_volume   643.95609214
_cell_formula_units_Z   4
loop_
 _symmetry_equiv_pos_site_id
 _symmetry_equiv_pos_as_xyz
  1  'x, y, z'
loop_
 _atom_site_type_symbol
 _atom_site_label
 _atom_site_symmetry_multiplicity
 _atom_site_fract_x
 _atom_site_fract_y
 _atom_site_fract_z
 _atom_site_occupancy
  Pr  Pr0  1  0.14724941  0.89668437  0.59829015  1
  Pr  Pr1  1  0.85275059  0.10331563  0.09829015  1
  Pr  Pr2  1  0.14724941  0.60331563  0.40170985  1
  Pr  Pr3  1  0.85275059  0.39668437  0.90170985  1
  Pr  Pr4  1  0.85275059  0.10331563  0.40170985  1
  Pr  Pr5  1  0.14724941  0.89668437  0.90170985  1
  Pr  Pr6  1  0.85275059  0.39668437  0.59829015  1
  Pr  Pr7  1  0.14724941  0.60331563  0.09829015  1
  Pr  Pr8  1  0.36843283  0.25302565  0.75000000  1
  Pr  Pr9  1  0.63156717  0.74697435  0.25000000  1
  Pr  Pr10  1  0.36843283  0.24697435  0.25000000  1
  Pr  Pr11  1  0.63156717  0.75302565  0.75000000  1
  Ge  Ge12  1  0.85707941  0.10256290  0.75000000  1
  Ge  Ge13  1  0.14292059  0.89743710  0.25000000  1
  Ge  Ge14  1  0.85707941  0.39743710  0.25000000  1
  Ge  Ge15  1  0.14292059  0.60256290  0.75000000  1
  Ge  Ge16  1  0.38546802  0.25000000  0.50000000  1
  Ge  Ge17  1  0.61453198  0.75000000  -0.00000000  1
  Ge  Ge18  1  0.61453198  0.75000000  0.50000000  1
  Ge  Ge19  1  0.38546802  0.25000000  -0.00000000  1
  Ru  Ru20  1  0.64270191  0.03110675  0.58995679  1
  Ru  Ru21  1  0.35729809  0.96889325  0.08995679  1
  Ru  Ru22  1  0.64270191  0.46889325  0.41004321  1
  Ru  Ru23  1  0.35729809  0.53110675  0.91004321  1
  Ru  Ru24  1  0.35729809  0.96889325  0.41004321  1
  Ru  Ru25  1  0.64270191  0.03110675  0.91004321  1
  Ru  Ru26  1  0.35729809  0.53110675  0.58995679  1
  Ru  Ru27  1  0.64270191  0.46889325  0.08995679  1
