# generated using pymatgen
data_Cs3Fe2F9
_symmetry_space_group_name_H-M   'P 1'
_cell_length_a   6.43751957
_cell_length_b   6.43755481
_cell_length_c   15.43840439
_cell_angle_alpha   89.99897343
_cell_angle_beta   90.00012132
_cell_angle_gamma   120.00136428
_symmetry_Int_Tables_number   1
_chemical_formula_structural   Cs3Fe2F9
_chemical_formula_sum   'Cs6 Fe4 F18'
_cell_volume   554.07247447
_cell_formula_units_Z   2
loop_
 _symmetry_equiv_pos_site_id
 _symmetry_equiv_pos_as_xyz
  1  'x, y, z'
loop_
 _atom_site_type_symbol
 _atom_site_label
 _atom_site_symmetry_multiplicity
 _atom_site_fract_x
 _atom_site_fract_y
 _atom_site_fract_z
 _atom_site_occupancy
  Cs  Cs0  1  0.33330977  0.66666985  0.24999962  1
  Cs  Cs1  1  0.66664181  0.33333735  0.75000273  1
  Cs  Cs2  1  0.33330560  0.66667483  0.56481538  1
  Cs  Cs3  1  0.33330532  0.66667514  0.93518437  1
  Cs  Cs4  1  0.66663561  0.33333214  0.06481608  1
  Cs  Cs5  1  0.66663574  0.33332820  0.43518543  1
  Fe  Fe6  1  0.99998995  0.00000120  0.15535980  1
  Fe  Fe7  1  0.99999727  0.00000051  0.34464277  1
  Fe  Fe8  1  0.99999438  -0.00000855  0.65535568  1
  Fe  Fe9  1  0.00000374  0.00000103  0.84463600  1
  F  F10  1  0.26464529  0.13564655  0.25000001  1
  F  F11  1  0.87098789  0.73535447  0.25000090  1
  F  F12  1  0.86435590  0.12900385  0.25000168  1
  F  F13  1  0.12899228  0.86436070  0.74999991  1
  F  F14  1  0.13564499  0.26464117  0.74999896  1
  F  F15  1  0.73534958  0.87099378  0.74999918  1
  F  F16  1  0.29950867  0.13843295  0.59752809  1
  F  F17  1  0.83890947  0.70048746  0.59752636  1
  F  F18  1  0.86157329  0.16110011  0.59752501  1
  F  F19  1  0.29951031  0.13842431  0.90247122  1
  F  F20  1  0.83889904  0.70048701  0.90247237  1
  F  F21  1  0.86156954  0.16109261  0.90247342  1
  F  F22  1  0.16107712  0.86156395  0.09752425  1
  F  F23  1  0.13842324  0.29951584  0.09752733  1
  F  F24  1  0.70045916  0.83889403  0.09752850  1
  F  F25  1  0.16108586  0.86156940  0.40247287  1
  F  F26  1  0.13842711  0.29952300  0.40247569  1
  F  F27  1  0.70046206  0.83889712  0.40247637  1
