# generated using pymatgen
data_Eu11(ZnAs2)6
_symmetry_space_group_name_H-M   'P 1'
_cell_length_a   4.30966296
_cell_length_b   11.67101968
_cell_length_c   15.21337337
_cell_angle_alpha   109.53895791
_cell_angle_beta   98.14279406
_cell_angle_gamma   90.00000000
_symmetry_Int_Tables_number   1
_chemical_formula_structural   Eu11(ZnAs2)6
_chemical_formula_sum   'Eu11 Zn6 As12'
_cell_volume   712.94851724
_cell_formula_units_Z   1
loop_
 _symmetry_equiv_pos_site_id
 _symmetry_equiv_pos_as_xyz
  1  'x, y, z'
loop_
 _atom_site_type_symbol
 _atom_site_label
 _atom_site_symmetry_multiplicity
 _atom_site_fract_x
 _atom_site_fract_y
 _atom_site_fract_z
 _atom_site_occupancy
  Eu  Eu0  1  0.98328937  0.32242518  0.96657873  1
  Eu  Eu1  1  0.01671063  0.67757482  0.03342127  1
  Eu  Eu2  1  0.88730736  0.48779289  0.77461473  1
  Eu  Eu3  1  0.11269264  0.51220711  0.22538527  1
  Eu  Eu4  1  0.87374561  0.97924636  0.74749122  1
  Eu  Eu5  1  0.12625439  0.02075364  0.25250878  1
  Eu  Eu6  1  0.80114457  0.65225658  0.60228915  1
  Eu  Eu7  1  0.19885543  0.34774342  0.39771085  1
  Eu  Eu8  1  0.71789271  0.86374108  0.43578542  1
  Eu  Eu9  1  0.28210729  0.13625892  0.56421458  1
  Eu  Eu10  1  -0.00000000  0.00000000  0.00000000  1
  Zn  Zn11  1  0.78101325  0.33062473  0.56202650  1
  Zn  Zn12  1  0.21898675  0.66937527  0.43797350  1
  Zn  Zn13  1  0.59910269  0.75144205  0.19820538  1
  Zn  Zn14  1  0.40089731  0.24855795  0.80179462  1
  Zn  Zn15  1  0.45247959  0.76420069  0.90495919  1
  Zn  Zn16  1  0.54752041  0.23579931  0.09504081  1
  As  As17  1  0.91363547  0.76225111  0.82727093  1
  As  As18  1  0.08636453  0.23774889  0.17272907  1
  As  As19  1  0.85515879  0.21679045  0.71031758  1
  As  As20  1  0.14484121  0.78320955  0.28968242  1
  As  As21  1  0.69311213  0.54644333  0.38622425  1
  As  As22  1  0.30688787  0.45355667  0.61377575  1
  As  As23  1  0.54493650  0.87910983  0.08987299  1
  As  As24  1  0.45506350  0.12089017  0.91012701  1
  As  As25  1  0.54243333  0.50980476  0.08486666  1
  As  As26  1  0.45756667  0.49019524  0.91513334  1
  As  As27  1  0.29239944  0.85422019  0.58479889  1
  As  As28  1  0.70760056  0.14577981  0.41520111  1
