# generated using pymatgen
data_W5I16
_symmetry_space_group_name_H-M   'P 1'
_cell_length_a   10.75933418
_cell_length_b   10.82271525
_cell_length_c   30.27008747
_cell_angle_alpha   90.00000000
_cell_angle_beta   90.00000000
_cell_angle_gamma   90.00000000
_symmetry_Int_Tables_number   1
_chemical_formula_structural   W5I16
_chemical_formula_sum   'W20 I64'
_cell_volume   3524.80669548
_cell_formula_units_Z   4
loop_
 _symmetry_equiv_pos_site_id
 _symmetry_equiv_pos_as_xyz
  1  'x, y, z'
loop_
 _atom_site_type_symbol
 _atom_site_label
 _atom_site_symmetry_multiplicity
 _atom_site_fract_x
 _atom_site_fract_y
 _atom_site_fract_z
 _atom_site_occupancy
  W  W0  1  0.57952549  0.32479492  0.37651763  1
  W  W1  1  0.07952549  0.67520508  0.62348237  1
  W  W2  1  0.07952549  0.82479492  0.12348237  1
  W  W3  1  0.57952549  0.17520508  0.87651763  1
  W  W4  1  0.75742777  0.16787990  0.40392063  1
  W  W5  1  0.25742777  0.83212010  0.59607937  1
  W  W6  1  0.25742777  0.66787990  0.09607937  1
  W  W7  1  0.75742777  0.33212010  0.90392063  1
  W  W8  1  0.76028389  0.25666246  0.32140545  1
  W  W9  1  0.26028389  0.74333754  0.67859455  1
  W  W10  1  0.26028389  0.75666246  0.17859455  1
  W  W11  1  0.76028389  0.24333754  0.82140545  1
  W  W12  1  0.75643692  0.48567836  0.35236093  1
  W  W13  1  0.25643692  0.51432164  0.64763907  1
  W  W14  1  0.25643692  0.98567836  0.14763907  1
  W  W15  1  0.75643692  0.01432164  0.85236093  1
  W  W16  1  0.75569655  0.39954468  0.43392674  1
  W  W17  1  0.25569655  0.60045532  0.56607326  1
  W  W18  1  0.25569655  0.89954468  0.06607326  1
  W  W19  1  0.75569655  0.10045532  0.93392674  1
  I  I20  1  0.57641932  0.07984277  0.34429655  1
  I  I21  1  0.07641932  0.92015723  0.65570345  1
  I  I22  1  0.07641932  0.57984277  0.15570345  1
  I  I23  1  0.57641932  0.42015723  0.84429655  1
  I  I24  1  0.57603510  0.42250557  0.29000775  1
  I  I25  1  0.07603510  0.57749443  0.70999225  1
  I  I26  1  0.07603510  0.92250557  0.20999225  1
  I  I27  1  0.57603510  0.07749443  0.79000775  1
  I  I28  1  0.56532061  0.56804179  0.40898796  1
  I  I29  1  0.06532061  0.43195821  0.59101204  1
  I  I30  1  0.06532061  0.06804179  0.09101204  1
  I  I31  1  0.56532061  0.93195821  0.90898796  1
  I  I32  1  0.56777102  0.23654743  0.46360468  1
  I  I33  1  0.06777102  0.76345257  0.53639532  1
  I  I34  1  0.06777102  0.73654743  0.03639532  1
  I  I35  1  0.56777102  0.26345257  0.96360468  1
  I  I36  1  0.94508655  0.09301273  0.34717675  1
  I  I37  1  0.44508655  0.90698727  0.65282325  1
  I  I38  1  0.44508655  0.59301273  0.15282325  1
  I  I39  1  0.94508655  0.40698727  0.84717675  1
  I  I40  1  0.94496210  0.41958278  0.29502236  1
  I  I41  1  0.44496210  0.58041722  0.70497764  1
  I  I42  1  0.44496210  0.91958278  0.20497764  1
  I  I43  1  0.94496210  0.08041722  0.79502236  1
  I  I44  1  0.94247546  0.56272295  0.40916599  1
  I  I45  1  0.44247546  0.43727705  0.59083401  1
  I  I46  1  0.44247546  0.06272295  0.09083401  1
  I  I47  1  0.94247546  0.93727705  0.90916599  1
  I  I48  1  0.94563847  0.24324359  0.45940802  1
  I  I49  1  0.44563847  0.75675641  0.54059198  1
  I  I50  1  0.44563847  0.74324359  0.04059198  1
  I  I51  1  0.94563847  0.25675641  0.95940802  1
  I  I52  1  0.30957732  0.31328674  0.37257630  1
  I  I53  1  0.80957732  0.68671326  0.62742370  1
  I  I54  1  0.80957732  0.81328674  0.12742370  1
  I  I55  1  0.30957732  0.18671326  0.87257630  1
  I  I56  1  0.75782560  0.93600977  0.44663559  1
  I  I57  1  0.25782560  0.06399023  0.55336441  1
  I  I58  1  0.25782560  0.43600977  0.05336441  1
  I  I59  1  0.75782560  0.56399023  0.94663559  1
  I  I60  1  0.76442868  0.15021854  0.23548249  1
  I  I61  1  0.26442868  0.84978146  0.76451751  1
  I  I62  1  0.26442868  0.65021854  0.26451751  1
  I  I63  1  0.76442868  0.34978146  0.73548249  1
  I  I64  1  0.76037480  0.73311228  0.31899094  1
  I  I65  1  0.26037480  0.26688772  0.68100906  1
  I  I66  1  0.26037480  0.23311228  0.18100906  1
  I  I67  1  0.76037480  0.76688772  0.81899094  1
  I  I68  1  0.75678498  0.50965631  0.51758743  1
  I  I69  1  0.25678498  0.49034369  0.48241257  1
  I  I70  1  0.25678498  0.00965631  0.98241257  1
  I  I71  1  0.75678498  0.99034369  0.01758743  1
  I  I72  1  0.27481917  0.24518917  0.27852671  1
  I  I73  1  0.77481917  0.75481083  0.72147329  1
  I  I74  1  0.77481917  0.74518917  0.22147329  1
  I  I75  1  0.27481917  0.25481083  0.77852671  1
  I  I76  1  0.76238976  0.32184292  0.14500286  1
  I  I77  1  0.26238976  0.67815708  0.85499714  1
  I  I78  1  0.26238976  0.82184292  0.35499714  1
  I  I79  1  0.76238976  0.17815708  0.64500286  1
  I  I80  1  0.76061044  0.05780785  0.56226870  1
  I  I81  1  0.26061044  0.94219215  0.43773130  1
  I  I82  1  0.26061044  0.55780785  0.93773130  1
  I  I83  1  0.76061044  0.44219215  0.06226870  1
