# generated using pymatgen
data_CdH2SO5
_symmetry_space_group_name_H-M   'P 1'
_cell_length_a   7.52993022
_cell_length_b   7.91249602
_cell_length_c   7.72754604
_cell_angle_alpha   65.72428171
_cell_angle_beta   90.00000000
_cell_angle_gamma   90.00000000
_symmetry_Int_Tables_number   1
_chemical_formula_structural   CdH2SO5
_chemical_formula_sum   'Cd4 H8 S4 O20'
_cell_volume   419.70070515
_cell_formula_units_Z   4
loop_
 _symmetry_equiv_pos_site_id
 _symmetry_equiv_pos_as_xyz
  1  'x, y, z'
loop_
 _atom_site_type_symbol
 _atom_site_label
 _atom_site_symmetry_multiplicity
 _atom_site_fract_x
 _atom_site_fract_y
 _atom_site_fract_z
 _atom_site_occupancy
  Cd  Cd0  1  0.76155536  0.53717320  0.24045191  1
  Cd  Cd1  1  0.26155536  0.96282680  0.25954809  1
  Cd  Cd2  1  0.23844464  0.46282680  0.75954809  1
  Cd  Cd3  1  0.73844464  0.03717320  0.74045191  1
  H  H4  1  0.57255631  0.20086257  0.37573559  1
  H  H5  1  0.07255631  0.29913743  0.12426441  1
  H  H6  1  0.42744369  0.79913743  0.62426441  1
  H  H7  1  0.92744369  0.70086257  0.87573559  1
  H  H8  1  0.48244000  0.30343149  0.49130933  1
  H  H9  1  0.98244000  0.19656851  0.00869067  1
  H  H10  1  0.51756000  0.69656851  0.50869067  1
  H  H11  1  0.01756000  0.80343149  0.99130933  1
  S  S12  1  0.11641903  0.25531553  0.48671079  1
  S  S13  1  0.61641903  0.24468447  0.01328921  1
  S  S14  1  0.88358097  0.74468447  0.51328921  1
  S  S15  1  0.38358097  0.75531553  0.98671079  1
  O  O16  1  0.99698182  0.20359086  0.65361096  1
  O  O17  1  0.49698182  0.29640914  0.84638904  1
  O  O18  1  0.00301818  0.79640914  0.34638904  1
  O  O19  1  0.50301818  0.70359086  0.15361096  1
  O  O20  1  0.25963344  0.37747094  0.50974784  1
  O  O21  1  0.75963344  0.12252906  0.99025216  1
  O  O22  1  0.74036656  0.62252906  0.49025216  1
  O  O23  1  0.24036656  0.87747094  0.00974784  1
  O  O24  1  0.01445630  0.36175285  0.30655157  1
  O  O25  1  0.51445630  0.13824715  0.19344843  1
  O  O26  1  0.98554370  0.63824715  0.69344843  1
  O  O27  1  0.48554370  0.86175285  0.80655157  1
  O  O28  1  0.19917686  0.09322786  0.47236900  1
  O  O29  1  0.69917686  0.40677214  0.02763100  1
  O  O30  1  0.80082314  0.90677214  0.52763100  1
  O  O31  1  0.30082314  0.59322786  0.97236900  1
  O  O32  1  0.60010442  0.26179208  0.46323838  1
  O  O33  1  0.10010442  0.23820792  0.03676162  1
  O  O34  1  0.39989558  0.73820792  0.53676162  1
  O  O35  1  0.89989558  0.76179208  0.96323838  1
