# generated using pymatgen
data_BaFe3(PO4)3
_symmetry_space_group_name_H-M   'P 1'
_cell_length_a   6.72255016
_cell_length_b   9.29547497
_cell_length_c   9.29547497
_cell_angle_alpha   70.18440622
_cell_angle_beta   68.80129938
_cell_angle_gamma   68.80129938
_symmetry_Int_Tables_number   1
_chemical_formula_structural   BaFe3(PO4)3
_chemical_formula_sum   'Ba2 Fe6 P6 O24'
_cell_volume   490.21265686
_cell_formula_units_Z   2
loop_
 _symmetry_equiv_pos_site_id
 _symmetry_equiv_pos_as_xyz
  1  'x, y, z'
loop_
 _atom_site_type_symbol
 _atom_site_label
 _atom_site_symmetry_multiplicity
 _atom_site_fract_x
 _atom_site_fract_y
 _atom_site_fract_z
 _atom_site_occupancy
  Ba  Ba0  1  0.85933691  0.75000000  0.75000000  1
  Ba  Ba1  1  0.14066309  0.25000000  0.25000000  1
  Fe  Fe2  1  0.00000000  -0.00000000  0.00000000  1
  Fe  Fe3  1  0.50000000  0.50000000  0.50000000  1
  Fe  Fe4  1  0.38205005  0.11794995  0.61794995  1
  Fe  Fe5  1  0.61794995  0.38205005  0.88205005  1
  Fe  Fe6  1  0.38205005  0.61794995  0.11794995  1
  Fe  Fe7  1  0.61794995  0.88205005  0.38205005  1
  P  P8  1  0.17796797  0.32203203  0.82203203  1
  P  P9  1  0.82203203  0.17796797  0.67796797  1
  P  P10  1  0.17796797  0.82203203  0.32203203  1
  P  P11  1  0.82203203  0.67796797  0.17796797  1
  P  P12  1  0.35423877  0.75000000  0.75000000  1
  P  P13  1  0.64576123  0.25000000  0.25000000  1
  O  O14  1  0.49223272  0.86721874  0.63278126  1
  O  O15  1  0.50776728  0.36721874  0.13278126  1
  O  O16  1  0.50776728  0.13278126  0.36721874  1
  O  O17  1  0.49223272  0.63278126  0.86721874  1
  O  O18  1  0.86961534  0.15640640  0.15640640  1
  O  O19  1  0.13038466  0.84359360  0.84359360  1
  O  O20  1  0.31757185  0.65640640  0.65640640  1
  O  O21  1  0.68242815  0.34359360  0.34359360  1
  O  O22  1  0.20695786  0.13682401  0.86136473  1
  O  O23  1  0.79304214  0.13863527  0.86317599  1
  O  O24  1  0.29485340  0.63682401  0.36136473  1
  O  O25  1  0.70514660  0.63863527  0.36317599  1
  O  O26  1  0.79304214  0.86317599  0.13863527  1
  O  O27  1  0.20695786  0.86136473  0.13682401  1
  O  O28  1  0.70514660  0.36317599  0.63863527  1
  O  O29  1  0.29485340  0.36136473  0.63682401  1
  O  O30  1  0.93301947  0.41824450  0.85038611  1
  O  O31  1  0.06698053  0.14961389  0.58175550  1
  O  O32  1  0.29834991  0.91824450  0.35038611  1
  O  O33  1  0.70165009  0.64961389  0.08175550  1
  O  O34  1  0.06698053  0.58175550  0.14961389  1
  O  O35  1  0.93301947  0.85038611  0.41824450  1
  O  O36  1  0.70165009  0.08175550  0.64961389  1
  O  O37  1  0.29834991  0.35038611  0.91824450  1
