# generated using pymatgen
data_Sr(In4Ir)2
_symmetry_space_group_name_H-M   'P 1'
_cell_length_a   4.49545937
_cell_length_b   14.15501853
_cell_length_c   16.23174788
_cell_angle_alpha   90.00000000
_cell_angle_beta   90.00000000
_cell_angle_gamma   90.00000000
_symmetry_Int_Tables_number   1
_chemical_formula_structural   Sr(In4Ir)2
_chemical_formula_sum   'Sr4 In32 Ir8'
_cell_volume   1032.87985578
_cell_formula_units_Z   4
loop_
 _symmetry_equiv_pos_site_id
 _symmetry_equiv_pos_as_xyz
  1  'x, y, z'
loop_
 _atom_site_type_symbol
 _atom_site_label
 _atom_site_symmetry_multiplicity
 _atom_site_fract_x
 _atom_site_fract_y
 _atom_site_fract_z
 _atom_site_occupancy
  Sr  Sr0  1  -0.00000000  0.84194586  0.18085447  1
  Sr  Sr1  1  -0.00000000  0.15805414  0.81914553  1
  Sr  Sr2  1  0.00000000  0.34194586  0.31914553  1
  Sr  Sr3  1  -0.00000000  0.65805414  0.68085447  1
  In  In4  1  0.50000000  0.51980235  0.36627369  1
  In  In5  1  0.50000000  0.48019765  0.63372631  1
  In  In6  1  0.50000000  0.01980235  0.13372631  1
  In  In7  1  0.50000000  0.98019765  0.86627369  1
  In  In8  1  0.50000000  0.66648924  0.12213592  1
  In  In9  1  0.50000000  0.33351076  0.87786408  1
  In  In10  1  0.50000000  0.16648924  0.37786408  1
  In  In11  1  0.50000000  0.83351076  0.62213592  1
  In  In12  1  0.50000000  0.73967407  0.32330813  1
  In  In13  1  0.50000000  0.26032593  0.67669187  1
  In  In14  1  0.50000000  0.23967407  0.17669187  1
  In  In15  1  0.50000000  0.76032593  0.82330813  1
  In  In16  1  0.50000000  0.82984367  0.01035325  1
  In  In17  1  0.50000000  0.17015633  0.98964675  1
  In  In18  1  0.50000000  0.32984367  0.48964675  1
  In  In19  1  0.50000000  0.67015633  0.51035325  1
  In  In20  1  0.50000000  0.94906884  0.31746428  1
  In  In21  1  0.50000000  0.05093116  0.68253572  1
  In  In22  1  0.50000000  0.44906884  0.18253572  1
  In  In23  1  0.50000000  0.55093116  0.81746428  1
  In  In24  1  0.00000000  0.59975848  0.24697844  1
  In  In25  1  0.00000000  0.40024152  0.75302156  1
  In  In26  1  -0.00000000  0.09975848  0.25302156  1
  In  In27  1  0.00000000  0.90024152  0.74697844  1
  In  In28  1  -0.00000000  0.83991110  0.45601124  1
  In  In29  1  -0.00000000  0.16008890  0.54398876  1
  In  In30  1  0.00000000  0.33991110  0.04398876  1
  In  In31  1  0.00000000  0.66008890  0.95601124  1
  In  In32  1  0.50000000  0.50000000  -0.00000000  1
  In  In33  1  0.50000000  -0.00000000  0.50000000  1
  In  In34  1  -0.00000000  0.50000000  0.50000000  1
  In  In35  1  -0.00000000  -0.00000000  -0.00000000  1
  Ir  Ir36  1  -0.00000000  0.53554269  0.09505799  1
  Ir  Ir37  1  -0.00000000  0.46445731  0.90494201  1
  Ir  Ir38  1  -0.00000000  0.03554269  0.40494201  1
  Ir  Ir39  1  -0.00000000  0.96445731  0.59505799  1
  Ir  Ir40  1  -0.00000000  0.65455764  0.40386330  1
  Ir  Ir41  1  -0.00000000  0.34544236  0.59613670  1
  Ir  Ir42  1  -0.00000000  0.15455764  0.09613670  1
  Ir  Ir43  1  -0.00000000  0.84544236  0.90386330  1
