# generated using pymatgen
data_Na2Dy2B2TeO10
_symmetry_space_group_name_H-M   'P 1'
_cell_length_a   6.36846262
_cell_length_b   6.79913032
_cell_length_c   10.05989009
_cell_angle_alpha   90.00000000
_cell_angle_beta   90.00000000
_cell_angle_gamma   104.21181390
_symmetry_Int_Tables_number   1
_chemical_formula_structural   Na2Dy2B2TeO10
_chemical_formula_sum   'Na4 Dy4 B4 Te2 O20'
_cell_volume   422.26187189
_cell_formula_units_Z   2
loop_
 _symmetry_equiv_pos_site_id
 _symmetry_equiv_pos_as_xyz
  1  'x, y, z'
loop_
 _atom_site_type_symbol
 _atom_site_label
 _atom_site_symmetry_multiplicity
 _atom_site_fract_x
 _atom_site_fract_y
 _atom_site_fract_z
 _atom_site_occupancy
  Na  Na0  1  0.41479610  0.33563902  0.11105609  1
  Na  Na1  1  0.58520390  0.16436098  0.61105609  1
  Na  Na2  1  0.58520390  0.66436098  0.88894391  1
  Na  Na3  1  0.41479610  0.83563902  0.38894391  1
  Dy  Dy4  1  0.87309887  0.47645518  0.33376104  1
  Dy  Dy5  1  0.12690113  0.02354482  0.83376104  1
  Dy  Dy6  1  0.12690113  0.52354482  0.66623896  1
  Dy  Dy7  1  0.87309887  0.97645518  0.16623896  1
  B  B8  1  0.66346365  0.12699594  0.90026339  1
  B  B9  1  0.33653635  0.37300406  0.40026339  1
  B  B10  1  0.33653635  0.87300406  0.09973661  1
  B  B11  1  0.66346365  0.62699594  0.59973661  1
  Te  Te12  1  -0.00000000  0.50000000  0.00000000  1
  Te  Te13  1  -0.00000000  0.00000000  0.50000000  1
  O  O14  1  0.51875669  0.44320837  0.32722454  1
  O  O15  1  0.48124331  0.05679163  0.82722454  1
  O  O16  1  0.48124331  0.55679163  0.67277546  1
  O  O17  1  0.51875669  0.94320837  0.17277546  1
  O  O18  1  0.00620625  0.32261361  0.15026248  1
  O  O19  1  0.99379375  0.17738639  0.65026248  1
  O  O20  1  0.99379375  0.67738639  0.84973752  1
  O  O21  1  0.00620625  0.82261361  0.34973752  1
  O  O22  1  0.70896946  0.33475693  0.93919796  1
  O  O23  1  0.29103054  0.16524307  0.43919796  1
  O  O24  1  0.29103054  0.66524307  0.06080204  1
  O  O25  1  0.70896946  0.83475693  0.56080204  1
  O  O26  1  0.20036543  0.49225298  0.43832172  1
  O  O27  1  0.79963457  0.00774702  0.93832172  1
  O  O28  1  0.79963457  0.50774702  0.56167828  1
  O  O29  1  0.20036543  0.99225298  0.06167828  1
  O  O30  1  0.16155876  0.36486612  0.88381838  1
  O  O31  1  0.83844124  0.13513388  0.38381838  1
  O  O32  1  0.83844124  0.63513388  0.11618162  1
  O  O33  1  0.16155876  0.86486612  0.61618162  1
