# generated using pymatgen
data_CaH24(IN4)2
_symmetry_space_group_name_H-M   'P 1'
_cell_length_a   8.18200401
_cell_length_b   13.02398805
_cell_length_c   17.19217029
_cell_angle_alpha   90.00000000
_cell_angle_beta   90.00000000
_cell_angle_gamma   90.00000000
_symmetry_Int_Tables_number   1
_chemical_formula_structural   CaH24(IN4)2
_chemical_formula_sum   'Ca4 H96 I8 N32'
_cell_volume   1832.03759408
_cell_formula_units_Z   4
loop_
 _symmetry_equiv_pos_site_id
 _symmetry_equiv_pos_as_xyz
  1  'x, y, z'
loop_
 _atom_site_type_symbol
 _atom_site_label
 _atom_site_symmetry_multiplicity
 _atom_site_fract_x
 _atom_site_fract_y
 _atom_site_fract_z
 _atom_site_occupancy
  Ca  Ca0  1  0.75000000  0.76373154  0.86141970  1
  Ca  Ca1  1  0.75000000  0.26373154  0.63858030  1
  Ca  Ca2  1  0.25000000  0.23626846  0.13858030  1
  Ca  Ca3  1  0.25000000  0.73626846  0.36141970  1
  H  H4  1  0.06290447  0.87814962  0.91415975  1
  H  H5  1  0.43709553  0.37814962  0.58584025  1
  H  H6  1  0.56290447  0.12185038  0.08584025  1
  H  H7  1  0.93709553  0.62185038  0.41415975  1
  H  H8  1  0.93709553  0.12185038  0.08584025  1
  H  H9  1  0.56290447  0.62185038  0.41415975  1
  H  H10  1  0.43709553  0.87814962  0.91415975  1
  H  H11  1  0.06290447  0.37814962  0.58584025  1
  H  H12  1  0.05030093  0.90530628  0.82074032  1
  H  H13  1  0.44969907  0.40530628  0.67925968  1
  H  H14  1  0.55030093  0.09469372  0.17925968  1
  H  H15  1  0.94969907  0.59469372  0.32074032  1
  H  H16  1  0.94969907  0.09469372  0.17925968  1
  H  H17  1  0.55030093  0.59469372  0.32074032  1
  H  H18  1  0.44969907  0.90530628  0.82074032  1
  H  H19  1  0.05030093  0.40530628  0.67925968  1
  H  H20  1  0.93646130  0.96686495  0.88430177  1
  H  H21  1  0.56353870  0.46686495  0.61569823  1
  H  H22  1  0.43646130  0.03313505  0.11569823  1
  H  H23  1  0.06353870  0.53313505  0.38430177  1
  H  H24  1  0.06353870  0.03313505  0.11569823  1
  H  H25  1  0.43646130  0.53313505  0.38430177  1
  H  H26  1  0.56353870  0.96686495  0.88430177  1
  H  H27  1  0.93646130  0.46686495  0.61569823  1
  H  H28  1  0.02293867  0.61284727  0.78449235  1
  H  H29  1  0.47706133  0.11284727  0.71550765  1
  H  H30  1  0.52293867  0.38715273  0.21550765  1
  H  H31  1  0.97706133  0.88715273  0.28449235  1
  H  H32  1  0.97706133  0.38715273  0.21550765  1
  H  H33  1  0.52293867  0.88715273  0.28449235  1
  H  H34  1  0.47706133  0.61284727  0.78449235  1
  H  H35  1  0.02293867  0.11284727  0.71550765  1
  H  H36  1  0.90707015  0.65779892  0.71434165  1
  H  H37  1  0.59292985  0.15779892  0.78565835  1
  H  H38  1  0.40707015  0.34220108  0.28565835  1
  H  H39  1  0.09292985  0.84220108  0.21434165  1
  H  H40  1  0.09292985  0.34220108  0.28565835  1
  H  H41  1  0.40707015  0.84220108  0.21434165  1
  H  H42  1  0.59292985  0.65779892  0.71434165  1
  H  H43  1  0.90707015  0.15779892  0.78565835  1
  H  H44  1  0.04630790  0.73046873  0.75310733  1
  H  H45  1  0.45369210  0.23046873  0.74689267  1
  H  H46  1  0.54630790  0.26953127  0.24689267  1
  H  H47  1  0.95369210  0.76953127  0.25310733  1
  H  H48  1  0.95369210  0.26953127  0.24689267  1
  H  H49  1  0.54630790  0.76953127  0.25310733  1
  H  H50  1  0.45369210  0.73046873  0.75310733  1
  H  H51  1  0.04630790  0.23046873  0.74689267  1
  H  H52  1  0.04716600  0.68337823  0.95912191  1
  H  H53  1  0.45283400  0.18337823  0.54087809  1
  H  H54  1  0.54716600  0.31662177  0.04087809  1
  H  H55  1  0.95283400  0.81662177  0.45912191  1
  H  H56  1  0.95283400  0.31662177  0.04087809  1
  H  H57  1  0.54716600  0.81662177  0.45912191  1
  H  H58  1  0.45283400  0.68337823  0.95912191  1
  H  H59  1  0.04716600  0.18337823  0.54087809  1
  H  H60  1  0.89408421  0.61790240  0.99349390  1
  H  H61  1  0.60591579  0.11790240  0.50650610  1
  H  H62  1  0.39408421  0.38209760  0.00650610  1
  H  H63  1  0.10591579  0.88209760  0.49349390  1
  H  H64  1  0.10591579  0.38209760  0.00650610  1
  H  H65  1  0.39408421  0.88209760  0.49349390  1
  H  H66  1  0.60591579  0.61790240  0.99349390  1
  H  H67  1  0.89408421  0.11790240  0.50650610  1
  H  H68  1  0.98897585  0.57822609  0.91502996  1
  H  H69  1  0.51102415  0.07822609  0.58497004  1
  H  H70  1  0.48897585  0.42177391  0.08497004  1
  H  H71  1  0.01102415  0.92177391  0.41502996  1
  H  H72  1  0.01102415  0.42177391  0.08497004  1
  H  H73  1  0.48897585  0.92177391  0.41502996  1
  H  H74  1  0.51102415  0.57822609  0.91502996  1
  H  H75  1  0.98897585  0.07822609  0.58497004  1
  H  H76  1  0.85046590  0.82324196  0.03408265  1
  H  H77  1  0.64953410  0.32324196  0.46591735  1
  H  H78  1  0.35046590  0.17675804  0.96591735  1
  H  H79  1  0.14953410  0.67675804  0.53408265  1
  H  H80  1  0.14953410  0.17675804  0.96591735  1
  H  H81  1  0.35046590  0.67675804  0.53408265  1
  H  H82  1  0.64953410  0.82324196  0.03408265  1
  H  H83  1  0.85046590  0.32324196  0.46591735  1
  H  H84  1  0.75000000  0.92197360  0.99941053  1
  H  H85  1  0.75000000  0.42197360  0.50058947  1
  H  H86  1  0.25000000  0.07802640  0.00058947  1
  H  H87  1  0.25000000  0.57802640  0.49941053  1
  H  H88  1  0.85043304  0.91520465  0.71585447  1
  H  H89  1  0.64956696  0.41520465  0.78414553  1
  H  H90  1  0.35043304  0.08479535  0.28414553  1
  H  H91  1  0.14956696  0.58479535  0.21585447  1
  H  H92  1  0.14956696  0.08479535  0.28414553  1
  H  H93  1  0.35043304  0.58479535  0.21585447  1
  H  H94  1  0.64956696  0.91520465  0.71585447  1
  H  H95  1  0.85043304  0.41520465  0.78414553  1
  H  H96  1  0.75000000  0.81951921  0.67805340  1
  H  H97  1  0.75000000  0.31951921  0.82194660  1
  H  H98  1  0.25000000  0.18048079  0.32194660  1
  H  H99  1  0.25000000  0.68048079  0.17805340  1
  I  I100  1  0.75000000  0.15415345  0.94252151  1
  I  I101  1  0.75000000  0.65415345  0.55747849  1
  I  I102  1  0.25000000  0.84584655  0.05747849  1
  I  I103  1  0.25000000  0.34584655  0.44252151  1
  I  I104  1  0.75000000  0.57601400  0.17040072  1
  I  I105  1  0.75000000  0.07601400  0.32959928  1
  I  I106  1  0.25000000  0.42398600  0.82959928  1
  I  I107  1  0.25000000  0.92398600  0.67040072  1
  N  N108  1  0.98232183  0.89576484  0.87038723  1
  N  N109  1  0.51767817  0.39576484  0.62961277  1
  N  N110  1  0.48232183  0.10423516  0.12961277  1
  N  N111  1  0.01767817  0.60423516  0.37038723  1
  N  N112  1  0.01767817  0.10423516  0.12961277  1
  N  N113  1  0.48232183  0.60423516  0.37038723  1
  N  N114  1  0.51767817  0.89576484  0.87038723  1
  N  N115  1  0.98232183  0.39576484  0.62961277  1
  N  N116  1  0.95936111  0.67662703  0.76659956  1
  N  N117  1  0.54063889  0.17662703  0.73340044  1
  N  N118  1  0.45936111  0.32337297  0.23340044  1
  N  N119  1  0.04063889  0.82337297  0.26659956  1
  N  N120  1  0.04063889  0.32337297  0.23340044  1
  N  N121  1  0.45936111  0.82337297  0.26659956  1
  N  N122  1  0.54063889  0.67662703  0.76659956  1
  N  N123  1  0.95936111  0.17662703  0.73340044  1
  N  N124  1  0.94570829  0.64259366  0.94256760  1
  N  N125  1  0.55429171  0.14259366  0.55743240  1
  N  N126  1  0.44570829  0.35740634  0.05743240  1
  N  N127  1  0.05429171  0.85740634  0.44256760  1
  N  N128  1  0.05429171  0.35740634  0.05743240  1
  N  N129  1  0.44570829  0.85740634  0.44256760  1
  N  N130  1  0.55429171  0.64259366  0.94256760  1
  N  N131  1  0.94570829  0.14259366  0.55743240  1
  N  N132  1  0.75000000  0.84335144  0.00202170  1
  N  N133  1  0.75000000  0.34335144  0.49797830  1
  N  N134  1  0.25000000  0.15664856  0.99797830  1
  N  N135  1  0.25000000  0.65664856  0.50202170  1
  N  N136  1  0.75000000  0.86939116  0.72412486  1
  N  N137  1  0.75000000  0.36939116  0.77587514  1
  N  N138  1  0.25000000  0.13060884  0.27587514  1
  N  N139  1  0.25000000  0.63060884  0.22412486  1
