# generated using pymatgen
data_CaAl6H12(SO7)4
_symmetry_space_group_name_H-M   'P 1'
_cell_length_a   7.05747198
_cell_length_b   7.05747198
_cell_length_c   12.02255412
_cell_angle_alpha   72.93180752
_cell_angle_beta   72.93180752
_cell_angle_gamma   60.00000110
_symmetry_Int_Tables_number   1
_chemical_formula_structural   CaAl6H12(SO7)4
_chemical_formula_sum   'Ca1 Al6 H12 S4 O28'
_cell_volume   487.89989840
_cell_formula_units_Z   1
loop_
 _symmetry_equiv_pos_site_id
 _symmetry_equiv_pos_as_xyz
  1  'x, y, z'
loop_
 _atom_site_type_symbol
 _atom_site_label
 _atom_site_symmetry_multiplicity
 _atom_site_fract_x
 _atom_site_fract_y
 _atom_site_fract_z
 _atom_site_occupancy
  Ca  Ca0  1  0.50000000  0.50000000  0.50000000  1
  Al  Al1  1  0.24636613  0.75074327  0.25214733  1
  Al  Al2  1  0.75074327  0.75074327  0.25214733  1
  Al  Al3  1  0.75074327  0.24636613  0.25214733  1
  Al  Al4  1  0.75363387  0.24925673  0.74785267  1
  Al  Al5  1  0.24925673  0.24925673  0.74785267  1
  Al  Al6  1  0.24925673  0.75363387  0.74785267  1
  H  H7  1  0.57572960  0.13403299  0.15620441  1
  H  H8  1  0.13403299  0.13403299  0.15620441  1
  H  H9  1  0.13403299  0.57572960  0.15620441  1
  H  H10  1  0.42427040  0.86596701  0.84379559  1
  H  H11  1  0.86596701  0.86596701  0.84379559  1
  H  H12  1  0.86596701  0.42427040  0.84379559  1
  H  H13  1  0.04724615  0.64196319  0.66882747  1
  H  H14  1  0.64196319  0.64196319  0.66882747  1
  H  H15  1  0.64196319  0.04724615  0.66882747  1
  H  H16  1  0.95275385  0.35803681  0.33117253  1
  H  H17  1  0.35803681  0.35803681  0.33117253  1
  H  H18  1  0.35803681  0.95275385  0.33117253  1
  S  S19  1  0.84485492  0.84485492  0.46543523  1
  S  S20  1  0.15514508  0.15514508  0.53456477  1
  S  S21  1  0.34968015  0.34968015  0.95095954  1
  S  S22  1  0.65031985  0.65031985  0.04904046  1
  O  O23  1  0.80164398  0.80164398  0.59506806  1
  O  O24  1  0.19835602  0.19835602  0.40493194  1
  O  O25  1  0.30657852  0.30657852  0.08026444  1
  O  O26  1  0.69342148  0.69342148  0.91973556  1
  O  O27  1  0.59492760  0.24935465  0.90636309  1
  O  O28  1  0.24935465  0.24935465  0.90636309  1
  O  O29  1  0.24935465  0.59492760  0.90636309  1
  O  O30  1  0.40507240  0.75064535  0.09363691  1
  O  O31  1  0.75064535  0.75064535  0.09363691  1
  O  O32  1  0.75064535  0.40507240  0.09363691  1
  O  O33  1  0.09001527  0.74467745  0.42062983  1
  O  O34  1  0.74467745  0.74467745  0.42062983  1
  O  O35  1  0.74467745  0.09001527  0.42062983  1
  O  O36  1  0.90998473  0.25532255  0.57937017  1
  O  O37  1  0.25532255  0.25532255  0.57937017  1
  O  O38  1  0.25532255  0.90998473  0.57937017  1
  O  O39  1  0.66802926  0.05685627  0.21825820  1
  O  O40  1  0.05685627  0.05685627  0.21825820  1
  O  O41  1  0.05685627  0.66802926  0.21825820  1
  O  O42  1  0.33197074  0.94314373  0.78174180  1
  O  O43  1  0.94314373  0.94314373  0.78174180  1
  O  O44  1  0.94314373  0.33197074  0.78174180  1
  O  O45  1  0.19299935  0.55656556  0.69386952  1
  O  O46  1  0.55656556  0.55656556  0.69386952  1
  O  O47  1  0.55656556  0.19299935  0.69386952  1
  O  O48  1  0.80700065  0.44343444  0.30613048  1
  O  O49  1  0.44343444  0.44343444  0.30613048  1
  O  O50  1  0.44343444  0.80700065  0.30613048  1
