# generated using pymatgen
data_Cd2Ni6Te3PbO18
_symmetry_space_group_name_H-M   'P 1'
_cell_length_a   9.03425061
_cell_length_b   9.49125487
_cell_length_c   9.49125487
_cell_angle_alpha   120.00000037
_cell_angle_beta   90.00000000
_cell_angle_gamma   90.00000000
_symmetry_Int_Tables_number   1
_chemical_formula_structural   Cd2Ni6Te3PbO18
_chemical_formula_sum   'Cd4 Ni12 Te6 Pb2 O36'
_cell_volume   704.80671894
_cell_formula_units_Z   2
loop_
 _symmetry_equiv_pos_site_id
 _symmetry_equiv_pos_as_xyz
  1  'x, y, z'
loop_
 _atom_site_type_symbol
 _atom_site_label
 _atom_site_symmetry_multiplicity
 _atom_site_fract_x
 _atom_site_fract_y
 _atom_site_fract_z
 _atom_site_occupancy
  Cd  Cd0  1  0.56465211  0.66666600  0.33333300  1
  Cd  Cd1  1  0.06465211  0.33333400  0.66666700  1
  Cd  Cd2  1  0.43534789  0.33333400  0.66666700  1
  Cd  Cd3  1  0.93534789  0.66666600  0.33333300  1
  Ni  Ni4  1  0.41187355  0.64260945  0.64956793  1
  Ni  Ni5  1  0.41187355  0.35043207  0.99304152  1
  Ni  Ni6  1  0.41187355  0.00695848  0.35739055  1
  Ni  Ni7  1  0.91187355  0.35739055  0.35043207  1
  Ni  Ni8  1  0.91187355  0.64956793  0.00695848  1
  Ni  Ni9  1  0.91187355  0.99304152  0.64260945  1
  Ni  Ni10  1  0.58812645  0.35739055  0.35043207  1
  Ni  Ni11  1  0.58812645  0.64956793  0.00695848  1
  Ni  Ni12  1  0.58812645  0.99304152  0.64260945  1
  Ni  Ni13  1  0.08812645  0.64260945  0.64956793  1
  Ni  Ni14  1  0.08812645  0.35043207  0.99304152  1
  Ni  Ni15  1  0.08812645  0.00695848  0.35739055  1
  Te  Te16  1  0.75000000  0.33563618  0.97712781  1
  Te  Te17  1  0.75000000  0.02287219  0.35850837  1
  Te  Te18  1  0.75000000  0.64149163  0.66436382  1
  Te  Te19  1  0.25000000  0.66436382  0.02287219  1
  Te  Te20  1  0.25000000  0.97712781  0.64149163  1
  Te  Te21  1  0.25000000  0.35850837  0.33563618  1
  Pb  Pb22  1  0.50000000  -0.00000000  -0.00000000  1
  Pb  Pb23  1  0.00000000  -0.00000000  -0.00000000  1
  O  O24  1  0.59191091  0.79761719  0.69585281  1
  O  O25  1  0.59191091  0.30414719  0.10176438  1
  O  O26  1  0.59191091  0.89823562  0.20238281  1
  O  O27  1  0.09191091  0.20238281  0.30414719  1
  O  O28  1  0.09191091  0.69585281  0.89823562  1
  O  O29  1  0.09191091  0.10176438  0.79761719  1
  O  O30  1  0.40808909  0.20238281  0.30414719  1
  O  O31  1  0.40808909  0.69585281  0.89823562  1
  O  O32  1  0.40808909  0.10176438  0.79761719  1
  O  O33  1  0.90808909  0.79761719  0.69585281  1
  O  O34  1  0.90808909  0.30414719  0.10176438  1
  O  O35  1  0.90808909  0.89823562  0.20238281  1
  O  O36  1  0.41112930  0.51648657  0.39348478  1
  O  O37  1  0.41112930  0.60651522  0.12300178  1
  O  O38  1  0.41112930  0.87699822  0.48351343  1
  O  O39  1  0.91112930  0.48351343  0.60651522  1
  O  O40  1  0.91112930  0.39348478  0.87699822  1
  O  O41  1  0.91112930  0.12300178  0.51648657  1
  O  O42  1  0.58887070  0.48351343  0.60651522  1
  O  O43  1  0.58887070  0.39348478  0.87699822  1
  O  O44  1  0.58887070  0.12300178  0.51648657  1
  O  O45  1  0.08887070  0.51648657  0.39348478  1
  O  O46  1  0.08887070  0.60651522  0.12300178  1
  O  O47  1  0.08887070  0.87699822  0.48351343  1
  O  O48  1  0.75000000  0.87255712  0.45278327  1
  O  O49  1  0.75000000  0.54721673  0.41977386  1
  O  O50  1  0.75000000  0.58022614  0.12744288  1
  O  O51  1  0.25000000  0.12744288  0.54721673  1
  O  O52  1  0.25000000  0.45278327  0.58022614  1
  O  O53  1  0.25000000  0.41977386  0.87255712  1
  O  O54  1  0.75000000  0.10680229  0.81439800  1
  O  O55  1  0.75000000  0.18560200  0.29240430  1
  O  O56  1  0.75000000  0.70759570  0.89319771  1
  O  O57  1  0.25000000  0.89319771  0.18560200  1
  O  O58  1  0.25000000  0.81439800  0.70759570  1
  O  O59  1  0.25000000  0.29240430  0.10680229  1
