# generated using pymatgen
data_UPCl5O2
_symmetry_space_group_name_H-M   'P 1'
_cell_length_a   8.58825004
_cell_length_b   9.23929859
_cell_length_c   24.71595097
_cell_angle_alpha   90.00000000
_cell_angle_beta   90.00000000
_cell_angle_gamma   90.00000000
_symmetry_Int_Tables_number   1
_chemical_formula_structural   UPCl5O2
_chemical_formula_sum   'U8 P8 Cl40 O16'
_cell_volume   1961.19604019
_cell_formula_units_Z   8
loop_
 _symmetry_equiv_pos_site_id
 _symmetry_equiv_pos_as_xyz
  1  'x, y, z'
loop_
 _atom_site_type_symbol
 _atom_site_label
 _atom_site_symmetry_multiplicity
 _atom_site_fract_x
 _atom_site_fract_y
 _atom_site_fract_z
 _atom_site_occupancy
  U  U0  1  0.50000000  0.60586236  0.38787206  1
  U  U1  1  0.50000000  0.39413764  0.61212794  1
  U  U2  1  0.50000000  0.10586236  0.11212794  1
  U  U3  1  0.50000000  0.89413764  0.88787206  1
  U  U4  1  -0.00000000  0.73938864  0.35802350  1
  U  U5  1  -0.00000000  0.26061136  0.64197650  1
  U  U6  1  -0.00000000  0.23938864  0.14197650  1
  U  U7  1  -0.00000000  0.76061136  0.85802350  1
  P  P8  1  0.50000000  0.76031284  0.02790656  1
  P  P9  1  0.50000000  0.23968716  0.97209344  1
  P  P10  1  0.50000000  0.26031284  0.47209344  1
  P  P11  1  0.50000000  0.73968716  0.52790656  1
  P  P12  1  -0.00000000  0.59194292  0.22068552  1
  P  P13  1  -0.00000000  0.40805708  0.77931448  1
  P  P14  1  -0.00000000  0.09194292  0.27931448  1
  P  P15  1  -0.00000000  0.90805708  0.72068552  1
  Cl  Cl16  1  0.19017541  0.53706459  0.40908798  1
  Cl  Cl17  1  0.19017541  0.46293541  0.59091202  1
  Cl  Cl18  1  0.80982459  0.03706459  0.09091202  1
  Cl  Cl19  1  0.80982459  0.96293541  0.90908798  1
  Cl  Cl20  1  0.80982459  0.46293541  0.59091202  1
  Cl  Cl21  1  0.80982459  0.53706459  0.40908798  1
  Cl  Cl22  1  0.19017541  0.96293541  0.90908798  1
  Cl  Cl23  1  0.19017541  0.03706459  0.09091202  1
  Cl  Cl24  1  0.31563835  0.64402256  0.05016134  1
  Cl  Cl25  1  0.31563835  0.35597744  0.94983866  1
  Cl  Cl26  1  0.68436165  0.14402256  0.44983866  1
  Cl  Cl27  1  0.68436165  0.85597744  0.55016134  1
  Cl  Cl28  1  0.68436165  0.35597744  0.94983866  1
  Cl  Cl29  1  0.68436165  0.64402256  0.05016134  1
  Cl  Cl30  1  0.31563835  0.85597744  0.55016134  1
  Cl  Cl31  1  0.31563835  0.14402256  0.44983866  1
  Cl  Cl32  1  0.18463677  0.69839514  0.19237463  1
  Cl  Cl33  1  0.18463677  0.30160486  0.80762537  1
  Cl  Cl34  1  0.81536323  0.19839514  0.30762537  1
  Cl  Cl35  1  0.81536323  0.80160486  0.69237463  1
  Cl  Cl36  1  0.81536323  0.30160486  0.80762537  1
  Cl  Cl37  1  0.81536323  0.69839514  0.19237463  1
  Cl  Cl38  1  0.18463677  0.80160486  0.69237463  1
  Cl  Cl39  1  0.18463677  0.19839514  0.30762537  1
  Cl  Cl40  1  0.30949155  0.81338962  0.34049208  1
  Cl  Cl41  1  0.30949155  0.18661038  0.65950792  1
  Cl  Cl42  1  0.69050845  0.31338962  0.15950792  1
  Cl  Cl43  1  0.69050845  0.68661038  0.84049208  1
  Cl  Cl44  1  0.69050845  0.18661038  0.65950792  1
  Cl  Cl45  1  0.69050845  0.81338962  0.34049208  1
  Cl  Cl46  1  0.30949155  0.68661038  0.84049208  1
  Cl  Cl47  1  0.30949155  0.31338962  0.15950792  1
  Cl  Cl48  1  0.50000000  0.95334866  0.19723243  1
  Cl  Cl49  1  0.50000000  0.04665134  0.80276757  1
  Cl  Cl50  1  0.50000000  0.45334866  0.30276757  1
  Cl  Cl51  1  0.50000000  0.54665134  0.69723243  1
  Cl  Cl52  1  -0.00000000  0.90761737  0.43875938  1
  Cl  Cl53  1  -0.00000000  0.09238263  0.56124062  1
  Cl  Cl54  1  -0.00000000  0.40761737  0.06124062  1
  Cl  Cl55  1  -0.00000000  0.59238263  0.93875938  1
  O  O56  1  0.50000000  0.72847167  0.46628673  1
  O  O57  1  0.50000000  0.27152833  0.53371327  1
  O  O58  1  0.50000000  0.22847167  0.03371327  1
  O  O59  1  0.50000000  0.77152833  0.96628673  1
  O  O60  1  0.50000000  0.90296260  0.05782093  1
  O  O61  1  0.50000000  0.09703740  0.94217907  1
  O  O62  1  0.50000000  0.40296260  0.44217907  1
  O  O63  1  0.50000000  0.59703740  0.55782093  1
  O  O64  1  -0.00000000  0.60640945  0.28234784  1
  O  O65  1  -0.00000000  0.39359055  0.71765216  1
  O  O66  1  -0.00000000  0.10640945  0.21765216  1
  O  O67  1  -0.00000000  0.89359055  0.78234784  1
  O  O68  1  -0.00000000  0.93765147  0.29966152  1
  O  O69  1  -0.00000000  0.06234853  0.70033848  1
  O  O70  1  -0.00000000  0.43765147  0.20033848  1
  O  O71  1  -0.00000000  0.56234853  0.79966152  1
