# generated using pymatgen
data_SmTl2P2S7
_symmetry_space_group_name_H-M   'P 1'
_cell_length_a   6.79133527
_cell_length_b   12.03435262
_cell_length_c   16.67464118
_cell_angle_alpha   81.01347511
_cell_angle_beta   78.24994732
_cell_angle_gamma   73.61056344
_symmetry_Int_Tables_number   1
_chemical_formula_structural   SmTl2P2S7
_chemical_formula_sum   'Sm4 Tl8 P8 S28'
_cell_volume   1272.94115981
_cell_formula_units_Z   4
loop_
 _symmetry_equiv_pos_site_id
 _symmetry_equiv_pos_as_xyz
  1  'x, y, z'
loop_
 _atom_site_type_symbol
 _atom_site_label
 _atom_site_symmetry_multiplicity
 _atom_site_fract_x
 _atom_site_fract_y
 _atom_site_fract_z
 _atom_site_occupancy
  Sm  Sm0  1  0.88326797  0.57444410  0.73517588  1
  Sm  Sm1  1  0.19288795  0.92555590  0.76482412  1
  Sm  Sm2  1  0.11673203  0.42555590  0.26482412  1
  Sm  Sm3  1  0.80711205  0.07444410  0.23517588  1
  Tl  Tl4  1  0.81887378  0.83862719  0.52606663  1
  Tl  Tl5  1  0.18356760  0.66137281  0.97393337  1
  Tl  Tl6  1  0.18112622  0.16137281  0.47393337  1
  Tl  Tl7  1  0.81643240  0.33862719  0.02606663  1
  Tl  Tl8  1  0.53564822  0.35857887  0.61929990  1
  Tl  Tl9  1  0.51352699  0.14142113  0.88070010  1
  Tl  Tl10  1  0.46435178  0.64142113  0.38070010  1
  Tl  Tl11  1  0.48647301  0.85857887  0.11929990  1
  P  P12  1  0.33098018  0.69629493  0.63745697  1
  P  P13  1  0.66473208  0.80370507  0.86254303  1
  P  P14  1  0.66901982  0.30370507  0.36254303  1
  P  P15  1  0.33526792  0.19629493  0.13745697  1
  P  P16  1  0.97373453  0.28595802  0.81073246  1
  P  P17  1  0.07042500  0.21404198  0.68926754  1
  P  P18  1  0.02626547  0.71404198  0.18926754  1
  P  P19  1  0.92957500  0.78595802  0.31073246  1
  S  S20  1  0.00091444  0.14325287  0.89346841  1
  S  S21  1  0.03763571  0.35674713  0.60653159  1
  S  S22  1  0.99908556  0.85674713  0.10653159  1
  S  S23  1  0.96236429  0.64325287  0.39346841  1
  S  S24  1  0.16334581  0.61863755  0.58445998  1
  S  S25  1  0.36644334  0.88136245  0.91554002  1
  S  S26  1  0.83665419  0.38136245  0.41554002  1
  S  S27  1  0.63355666  0.11863755  0.08445998  1
  S  S28  1  0.16944465  0.38636735  0.81272870  1
  S  S29  1  0.36854069  0.11363265  0.68727130  1
  S  S30  1  0.83055535  0.61363265  0.18727130  1
  S  S31  1  0.63145931  0.88636735  0.31272870  1
  S  S32  1  0.22090062  0.67805404  0.76265557  1
  S  S33  1  0.66161023  0.82194596  0.73734443  1
  S  S34  1  0.77909938  0.32194596  0.23734443  1
  S  S35  1  0.33838977  0.17805404  0.26265557  1
  S  S36  1  0.74780338  0.62988614  0.90150018  1
  S  S37  1  0.27918970  0.87011386  0.59849982  1
  S  S38  1  0.25219662  0.37011386  0.09849982  1
  S  S39  1  0.72081030  0.12988614  0.40150018  1
  S  S40  1  0.85535552  0.88874077  0.89514668  1
  S  S41  1  0.63924296  0.61125923  0.60485332  1
  S  S42  1  0.14464448  0.11125923  0.10485332  1
  S  S43  1  0.36075704  0.38874077  0.39514668  1
  S  S44  1  0.88261092  0.10852576  0.68915629  1
  S  S45  1  0.68029297  0.39147424  0.81084371  1
  S  S46  1  0.11738908  0.89147424  0.31084371  1
  S  S47  1  0.31970703  0.60852576  0.18915629  1
