# generated using pymatgen
data_BaNd(SnS3)2
_symmetry_space_group_name_H-M   'P 1'
_cell_length_a   4.04884528
_cell_length_b   12.08185633
_cell_length_c   20.24638868
_cell_angle_alpha   90.00000000
_cell_angle_beta   90.00000000
_cell_angle_gamma   90.00000000
_symmetry_Int_Tables_number   1
_chemical_formula_structural   BaNd(SnS3)2
_chemical_formula_sum   'Ba4 Nd4 Sn8 S24'
_cell_volume   990.40407426
_cell_formula_units_Z   4
loop_
 _symmetry_equiv_pos_site_id
 _symmetry_equiv_pos_as_xyz
  1  'x, y, z'
loop_
 _atom_site_type_symbol
 _atom_site_label
 _atom_site_symmetry_multiplicity
 _atom_site_fract_x
 _atom_site_fract_y
 _atom_site_fract_z
 _atom_site_occupancy
  Ba  Ba0  1  0.50000000  0.31821624  0.92150693  1
  Ba  Ba1  1  0.50000000  0.81821624  0.07849307  1
  Ba  Ba2  1  0.50000000  0.75311370  0.63812381  1
  Ba  Ba3  1  0.50000000  0.25311370  0.36187619  1
  Nd  Nd4  1  0.50000000  0.68374109  0.87977650  1
  Nd  Nd5  1  0.50000000  0.18374109  0.12022350  1
  Nd  Nd6  1  0.50000000  0.87432531  0.41893215  1
  Nd  Nd7  1  0.50000000  0.37432531  0.58106785  1
  Sn  Sn8  1  0.50000000  0.10209731  0.74515246  1
  Sn  Sn9  1  0.50000000  0.60209731  0.25484754  1
  Sn  Sn10  1  0.00000000  0.99397463  0.90703953  1
  Sn  Sn11  1  -0.00000000  0.49397463  0.09296047  1
  Sn  Sn12  1  -0.00000000  0.50071263  0.75191771  1
  Sn  Sn13  1  -0.00000000  0.00071263  0.24808229  1
  Sn  Sn14  1  -0.00000000  0.54809090  0.42449304  1
  Sn  Sn15  1  0.00000000  0.04809090  0.57550696  1
  S  S16  1  0.50000000  0.06015959  0.98360074  1
  S  S17  1  0.50000000  0.56015959  0.01639926  1
  S  S18  1  0.50000000  0.92094449  0.83289232  1
  S  S19  1  0.50000000  0.42094449  0.16710768  1
  S  S20  1  0.50000000  0.59614713  0.49295283  1
  S  S21  1  0.50000000  0.09614713  0.50704717  1
  S  S22  1  0.50000000  0.87862916  0.25839241  1
  S  S23  1  0.50000000  0.37862916  0.74160759  1
  S  S24  1  -0.00000000  0.79657705  0.95667897  1
  S  S25  1  -0.00000000  0.29657705  0.04332103  1
  S  S26  1  -0.00000000  0.50605914  0.87900066  1
  S  S27  1  -0.00000000  0.00605914  0.12099934  1
  S  S28  1  -0.00000000  0.16900041  0.83823335  1
  S  S29  1  -0.00000000  0.66900041  0.16176665  1
  S  S30  1  -0.00000000  0.70353190  0.76957557  1
  S  S31  1  -0.00000000  0.20353190  0.23042443  1
  S  S32  1  0.00000000  0.95220088  0.68236074  1
  S  S33  1  -0.00000000  0.45220088  0.31763926  1
  S  S34  1  0.00000000  0.53544268  0.62787804  1
  S  S35  1  0.00000000  0.03544268  0.37212196  1
  S  S36  1  -0.00000000  0.85245529  0.52290581  1
  S  S37  1  -0.00000000  0.35245529  0.47709419  1
  S  S38  1  -0.00000000  0.73071045  0.36286377  1
  S  S39  1  -0.00000000  0.23071045  0.63713623  1
