# generated using pymatgen
data_CsNa2Mn3P4ClO14
_symmetry_space_group_name_H-M   'P 1'
_cell_length_a   5.34991403
_cell_length_b   11.13027224
_cell_length_c   13.31141076
_cell_angle_alpha   69.65309759
_cell_angle_beta   78.40735456
_cell_angle_gamma   76.09388288
_symmetry_Int_Tables_number   1
_chemical_formula_structural   CsNa2Mn3P4ClO14
_chemical_formula_sum   'Cs2 Na4 Mn6 P8 Cl2 O28'
_cell_volume   715.37623986
_cell_formula_units_Z   2
loop_
 _symmetry_equiv_pos_site_id
 _symmetry_equiv_pos_as_xyz
  1  'x, y, z'
loop_
 _atom_site_type_symbol
 _atom_site_label
 _atom_site_symmetry_multiplicity
 _atom_site_fract_x
 _atom_site_fract_y
 _atom_site_fract_z
 _atom_site_occupancy
  Cs  Cs0  1  0.50000000  0.50000000  0.50000000  1
  Cs  Cs1  1  0.50000000  0.00000000  -0.00000000  1
  Na  Na2  1  0.25537751  0.78831945  0.65275206  1
  Na  Na3  1  0.69644901  0.71168055  0.84724794  1
  Na  Na4  1  0.74462249  0.21168055  0.34724794  1
  Na  Na5  1  0.30355099  0.28831945  0.15275206  1
  Mn  Mn6  1  0.67672752  0.02948745  0.65226556  1
  Mn  Mn7  1  0.35848053  0.47051255  0.84773444  1
  Mn  Mn8  1  0.32327248  0.97051255  0.34773444  1
  Mn  Mn9  1  0.64151947  0.52948745  0.15226556  1
  Mn  Mn10  1  0.94104811  0.25000000  0.75000000  1
  Mn  Mn11  1  0.05895189  0.75000000  0.25000000  1
  P  P12  1  0.17429213  0.17762778  0.50581540  1
  P  P13  1  0.85773531  0.32237222  0.99418460  1
  P  P14  1  0.82570787  0.82237222  0.49418460  1
  P  P15  1  0.14226469  0.67762778  0.00581540  1
  P  P16  1  0.87392950  0.56677750  0.67561566  1
  P  P17  1  0.11632267  0.93322250  0.82438434  1
  P  P18  1  0.12607050  0.43322250  0.32438434  1
  P  P19  1  0.88367733  0.06677750  0.17561566  1
  Cl  Cl20  1  0.46301403  0.25000000  0.75000000  1
  Cl  Cl21  1  0.53698597  0.75000000  0.25000000  1
  O  O22  1  0.94726266  0.43645248  0.65306441  1
  O  O23  1  0.03677955  0.06354752  0.84693559  1
  O  O24  1  0.05273734  0.56354752  0.34693559  1
  O  O25  1  0.96322045  0.93645248  0.15306441  1
  O  O26  1  0.07675421  0.33351561  0.44711739  1
  O  O27  1  0.85738721  0.16648439  0.05288261  1
  O  O28  1  0.92324579  0.66648439  0.55288261  1
  O  O29  1  0.14261279  0.83351561  0.94711739  1
  O  O30  1  0.90659109  0.89720275  0.78252271  1
  O  O31  1  0.58631656  0.60279725  0.71747729  1
  O  O32  1  0.09340891  0.10279725  0.21747729  1
  O  O33  1  0.41368344  0.39720275  0.28252271  1
  O  O34  1  0.98258048  0.15040354  0.61107681  1
  O  O35  1  0.74406083  0.34959646  0.88892319  1
  O  O36  1  0.01741952  0.84959646  0.38892319  1
  O  O37  1  0.25593917  0.65040354  0.11107681  1
  O  O38  1  0.45705433  0.15878049  0.52448165  1
  O  O39  1  0.14031647  0.34121951  0.97551835  1
  O  O40  1  0.54294567  0.84121951  0.47551835  1
  O  O41  1  0.85968353  0.65878049  0.02448165  1
  O  O42  1  0.05345922  0.58662365  0.74305055  1
  O  O43  1  0.38313343  0.91337635  0.75694945  1
  O  O44  1  0.94654078  0.41337635  0.25694945  1
  O  O45  1  0.61686657  0.08662365  0.24305055  1
  O  O46  1  0.85792069  0.88973219  0.57153434  1
  O  O47  1  0.31918722  0.61026781  0.92846566  1
  O  O48  1  0.14207931  0.11026781  0.42846566  1
  O  O49  1  0.68081278  0.38973219  0.07153434  1
