# generated using pymatgen
data_Rb2U(Si2O5)3
_symmetry_space_group_name_H-M   'P 1'
_cell_length_a   7.25172183
_cell_length_b   12.88650674
_cell_length_c   17.52946137
_cell_angle_alpha   96.65214751
_cell_angle_beta   90.00000000
_cell_angle_gamma   106.34191369
_symmetry_Int_Tables_number   1
_chemical_formula_structural   Rb2U(Si2O5)3
_chemical_formula_sum   'Rb8 U4 Si24 O60'
_cell_volume   1560.44072519
_cell_formula_units_Z   4
loop_
 _symmetry_equiv_pos_site_id
 _symmetry_equiv_pos_as_xyz
  1  'x, y, z'
loop_
 _atom_site_type_symbol
 _atom_site_label
 _atom_site_symmetry_multiplicity
 _atom_site_fract_x
 _atom_site_fract_y
 _atom_site_fract_z
 _atom_site_occupancy
  Rb  Rb0  1  0.65200832  0.21333678  0.25290734  1
  Rb  Rb1  1  0.43867154  0.78666322  0.24709266  1
  Rb  Rb2  1  0.34799168  0.78666322  0.74709266  1
  Rb  Rb3  1  0.56132846  0.21333678  0.75290734  1
  Rb  Rb4  1  0.67357146  0.31274120  0.49221657  1
  Rb  Rb5  1  0.36083026  0.68725880  0.00778343  1
  Rb  Rb6  1  0.32642854  0.68725880  0.50778343  1
  Rb  Rb7  1  0.63916974  0.31274120  0.99221657  1
  U  U8  1  0.15483314  0.24392967  0.37428461  1
  U  U9  1  0.91090347  0.75607033  0.12571539  1
  U  U10  1  0.84516686  0.75607033  0.62571539  1
  U  U11  1  0.08909653  0.24392967  0.87428461  1
  Si  Si12  1  0.03978365  0.15605044  0.66353054  1
  Si  Si13  1  0.88373321  0.84394956  0.83646946  1
  Si  Si14  1  0.96021635  0.84394956  0.33646946  1
  Si  Si15  1  0.11626679  0.15605044  0.16353054  1
  Si  Si16  1  0.75436488  0.00867349  0.42527404  1
  Si  Si17  1  0.74569139  0.99132651  0.07472596  1
  Si  Si18  1  0.24563512  0.99132651  0.57472596  1
  Si  Si19  1  0.25430861  0.00867349  0.92527404  1
  Si  Si20  1  0.20524535  0.35812769  0.58184848  1
  Si  Si21  1  0.84711767  0.64187231  0.91815152  1
  Si  Si22  1  0.79475465  0.64187231  0.41815152  1
  Si  Si23  1  0.15288233  0.35812769  0.08184848  1
  Si  Si24  1  0.34042077  0.01424665  0.39511765  1
  Si  Si25  1  0.32617413  0.98575335  0.10488235  1
  Si  Si26  1  0.65957923  0.98575335  0.60488235  1
  Si  Si27  1  0.67382587  0.01424665  0.89511765  1
  Si  Si28  1  0.41441025  0.50358212  0.32235692  1
  Si  Si29  1  0.91082813  0.49641788  0.17764308  1
  Si  Si30  1  0.58558975  0.49641788  0.67764308  1
  Si  Si31  1  0.08917187  0.50358212  0.82235692  1
  Si  Si32  1  0.99247262  0.47568377  0.35252547  1
  Si  Si33  1  0.51678885  0.52431623  0.14747453  1
  Si  Si34  1  0.00752738  0.52431623  0.64747453  1
  Si  Si35  1  0.48321115  0.47568377  0.85252547  1
  O  O36  1  0.95494110  0.35139656  0.37011246  1
  O  O37  1  0.60354454  0.64860344  0.12988754  1
  O  O38  1  0.04505890  0.64860344  0.62988754  1
  O  O39  1  0.39645546  0.35139656  0.87011246  1
  O  O40  1  0.22443538  0.54035962  0.35565291  1
  O  O41  1  0.68407576  0.45964038  0.14434709  1
  O  O42  1  0.77556462  0.45964038  0.64434709  1
  O  O43  1  0.31592424  0.54035962  0.85565291  1
  O  O44  1  0.54551653  0.98555242  0.37915209  1
  O  O45  1  0.55996411  0.01444758  0.12084791  1
  O  O46  1  0.45448347  0.01444758  0.62084791  1
  O  O47  1  0.44003589  0.98555242  0.87915209  1
  O  O48  1  0.10832857  0.45984427  0.58068152  1
  O  O49  1  0.64848430  0.54015573  0.91931848  1
  O  O50  1  0.89167143  0.54015573  0.41931848  1
  O  O51  1  0.35151570  0.45984427  0.08068152  1
  O  O52  1  0.59522553  0.60018688  0.36470111  1
  O  O53  1  0.99503865  0.39981312  0.13529889  1
  O  O54  1  0.40477447  0.39981312  0.63529889  1
  O  O55  1  0.00496135  0.60018688  0.86470111  1
  O  O56  1  0.35457931  0.13519875  0.37443699  1
  O  O57  1  0.21938056  0.86480125  0.12556301  1
  O  O58  1  0.64542069  0.86480125  0.62556301  1
  O  O59  1  0.78061944  0.13519875  0.87443699  1
  O  O60  1  0.18676614  0.91667885  0.33958583  1
  O  O61  1  0.27008729  0.08332115  0.16041417  1
  O  O62  1  0.81323386  0.08332115  0.66041417  1
  O  O63  1  0.72991271  0.91667885  0.83958583  1
  O  O64  1  0.40272266  0.38091488  0.33819612  1
  O  O65  1  0.02180778  0.61908512  0.16180388  1
  O  O66  1  0.59727734  0.61908512  0.66180388  1
  O  O67  1  0.97819222  0.38091488  0.83819612  1
  O  O68  1  0.25178370  0.31518332  0.49629363  1
  O  O69  1  0.93660038  0.68481668  0.00370637  1
  O  O70  1  0.74821630  0.68481668  0.50370637  1
  O  O71  1  0.06339962  0.31518332  0.99629363  1
  O  O72  1  0.89606959  0.48016304  0.26901650  1
  O  O73  1  0.41590655  0.51983696  0.23098350  1
  O  O74  1  0.10393041  0.51983696  0.73098350  1
  O  O75  1  0.58409345  0.48016304  0.76901650  1
  O  O76  1  0.06193474  0.18476088  0.25083862  1
  O  O77  1  0.87717386  0.81523912  0.24916138  1
  O  O78  1  0.93806526  0.81523912  0.74916138  1
  O  O79  1  0.12282614  0.18476088  0.75083862  1
  O  O80  1  0.04581935  0.26624734  0.62335676  1
  O  O81  1  0.77957200  0.73375266  0.87664324  1
  O  O82  1  0.95418065  0.73375266  0.37664324  1
  O  O83  1  0.22042800  0.26624734  0.12335676  1
  O  O84  1  0.28750590  0.00248479  0.48449604  1
  O  O85  1  0.28502111  0.99751521  0.01550396  1
  O  O86  1  0.71249410  0.99751521  0.51550396  1
  O  O87  1  0.71497889  0.00248479  0.98449604  1
  O  O88  1  0.89507739  0.12682609  0.41352675  1
  O  O89  1  0.76825130  0.87317391  0.08647325  1
  O  O90  1  0.10492261  0.87317391  0.58647325  1
  O  O91  1  0.23174870  0.12682609  0.91352675  1
  O  O92  1  0.83445223  0.90799584  0.39058960  1
  O  O93  1  0.92645638  0.09200416  0.10941040  1
  O  O94  1  0.16554777  0.09200416  0.60941040  1
  O  O95  1  0.07354362  0.90799584  0.89058960  1
