# generated using pymatgen
data_BaTe3O7
_symmetry_space_group_name_H-M   'P 1'
_cell_length_a   5.36352008
_cell_length_b   10.46983039
_cell_length_c   13.84980966
_cell_angle_alpha   99.71040510
_cell_angle_beta   90.00000000
_cell_angle_gamma   90.00000000
_symmetry_Int_Tables_number   1
_chemical_formula_structural   BaTe3O7
_chemical_formula_sum   'Ba4 Te12 O28'
_cell_volume   766.59531098
_cell_formula_units_Z   4
loop_
 _symmetry_equiv_pos_site_id
 _symmetry_equiv_pos_as_xyz
  1  'x, y, z'
loop_
 _atom_site_type_symbol
 _atom_site_label
 _atom_site_symmetry_multiplicity
 _atom_site_fract_x
 _atom_site_fract_y
 _atom_site_fract_z
 _atom_site_occupancy
  Ba  Ba0  1  0.26005603  0.18497020  0.60403188  1
  Ba  Ba1  1  0.23994397  0.68497020  0.10403188  1
  Ba  Ba2  1  0.73994397  0.81502980  0.39596812  1
  Ba  Ba3  1  0.76005603  0.31502980  0.89596812  1
  Te  Te4  1  0.77503867  0.97211018  0.70787789  1
  Te  Te5  1  0.72496133  0.47211018  0.20787789  1
  Te  Te6  1  0.22496133  0.02788982  0.29212211  1
  Te  Te7  1  0.27503867  0.52788982  0.79212211  1
  Te  Te8  1  0.26274743  0.79496883  0.60641613  1
  Te  Te9  1  0.23725257  0.29496883  0.10641613  1
  Te  Te10  1  0.73725257  0.20503117  0.39358387  1
  Te  Te11  1  0.76274743  0.70503117  0.89358387  1
  Te  Te12  1  0.69147624  0.51707602  0.59270684  1
  Te  Te13  1  0.80852376  0.01707602  0.09270684  1
  Te  Te14  1  0.30852376  0.48292398  0.40729316  1
  Te  Te15  1  0.19147624  0.98292398  0.90729316  1
  O  O16  1  0.71914536  0.14800532  0.71208783  1
  O  O17  1  0.78085464  0.64800532  0.21208783  1
  O  O18  1  0.28085464  0.85199468  0.28791217  1
  O  O19  1  0.21914536  0.35199468  0.78791217  1
  O  O20  1  0.97377538  0.92990473  0.58884838  1
  O  O21  1  0.52622462  0.42990473  0.08884838  1
  O  O22  1  0.02622462  0.07009527  0.41115162  1
  O  O23  1  0.47377538  0.57009527  0.91115162  1
  O  O24  1  0.13039415  0.00847536  0.76901565  1
  O  O25  1  0.36960585  0.50847536  0.26901565  1
  O  O26  1  0.86960585  0.99152464  0.23098435  1
  O  O27  1  0.63039415  0.49152464  0.73098435  1
  O  O28  1  0.47880188  0.93780824  0.59574231  1
  O  O29  1  0.02119812  0.43780824  0.09574231  1
  O  O30  1  0.52119812  0.06219176  0.40425769  1
  O  O31  1  0.97880188  0.56219176  0.90425769  1
  O  O32  1  0.22704000  0.72863206  0.47285858  1
  O  O33  1  0.27296000  0.22863206  0.97285858  1
  O  O34  1  0.77296000  0.27136794  0.52714142  1
  O  O35  1  0.72704000  0.77136794  0.02714142  1
  O  O36  1  0.61927331  0.70159578  0.61982760  1
  O  O37  1  0.88072669  0.20159578  0.11982760  1
  O  O38  1  0.38072669  0.29840422  0.38017240  1
  O  O39  1  0.11927331  0.79840422  0.88017240  1
  O  O40  1  0.35173567  0.46262577  0.56649785  1
  O  O41  1  0.14826433  0.96262577  0.06649785  1
  O  O42  1  0.64826433  0.53737423  0.43350215  1
  O  O43  1  0.85173567  0.03737423  0.93350215  1
