# generated using pymatgen
data_Sr2Al5Pd4
_symmetry_space_group_name_H-M   'P 1'
_cell_length_a   4.32168150
_cell_length_b   11.13856082
_cell_length_c   18.30957407
_cell_angle_alpha   90.00000000
_cell_angle_beta   90.00000000
_cell_angle_gamma   90.00000000
_symmetry_Int_Tables_number   1
_chemical_formula_structural   Sr2Al5Pd4
_chemical_formula_sum   'Sr8 Al20 Pd16'
_cell_volume   881.37368385
_cell_formula_units_Z   4
loop_
 _symmetry_equiv_pos_site_id
 _symmetry_equiv_pos_as_xyz
  1  'x, y, z'
loop_
 _atom_site_type_symbol
 _atom_site_label
 _atom_site_symmetry_multiplicity
 _atom_site_fract_x
 _atom_site_fract_y
 _atom_site_fract_z
 _atom_site_occupancy
  Sr  Sr0  1  0.25000000  0.16617169  0.80653944  1
  Sr  Sr1  1  0.25000000  0.33382831  0.30653944  1
  Sr  Sr2  1  0.75000000  0.83382831  0.19346056  1
  Sr  Sr3  1  0.75000000  0.66617169  0.69346056  1
  Sr  Sr4  1  0.25000000  0.73932680  0.50773078  1
  Sr  Sr5  1  0.25000000  0.76067320  0.00773078  1
  Sr  Sr6  1  0.75000000  0.26067320  0.49226922  1
  Sr  Sr7  1  0.75000000  0.23932680  0.99226922  1
  Al  Al8  1  0.25000000  0.85796583  0.82664767  1
  Al  Al9  1  0.25000000  0.64203417  0.32664767  1
  Al  Al10  1  0.75000000  0.14203417  0.17335233  1
  Al  Al11  1  0.75000000  0.35796583  0.67335233  1
  Al  Al12  1  0.25000000  0.04437246  0.54654778  1
  Al  Al13  1  0.25000000  0.45562754  0.04654778  1
  Al  Al14  1  0.75000000  0.95562754  0.45345222  1
  Al  Al15  1  0.75000000  0.54437246  0.95345222  1
  Al  Al16  1  0.25000000  0.92876737  0.67756009  1
  Al  Al17  1  0.25000000  0.57123263  0.17756009  1
  Al  Al18  1  0.75000000  0.07123263  0.32243991  1
  Al  Al19  1  0.75000000  0.42876737  0.82243991  1
  Al  Al20  1  0.25000000  0.45252672  0.60115018  1
  Al  Al21  1  0.25000000  0.04747328  0.10115018  1
  Al  Al22  1  0.75000000  0.54747328  0.39884982  1
  Al  Al23  1  0.75000000  0.95252672  0.89884982  1
  Al  Al24  1  0.25000000  0.60898881  0.83727219  1
  Al  Al25  1  0.25000000  0.89101119  0.33727219  1
  Al  Al26  1  0.75000000  0.39101119  0.16272781  1
  Al  Al27  1  0.75000000  0.10898881  0.66272781  1
  Pd  Pd28  1  0.25000000  0.43530407  0.74432073  1
  Pd  Pd29  1  0.25000000  0.06469593  0.24432073  1
  Pd  Pd30  1  0.75000000  0.56469593  0.25567927  1
  Pd  Pd31  1  0.75000000  0.93530407  0.75567927  1
  Pd  Pd32  1  0.25000000  0.41994806  0.90922284  1
  Pd  Pd33  1  0.25000000  0.08005194  0.40922284  1
  Pd  Pd34  1  0.75000000  0.58005194  0.09077716  1
  Pd  Pd35  1  0.75000000  0.91994806  0.59077716  1
  Pd  Pd36  1  0.25000000  0.22498910  0.63588744  1
  Pd  Pd37  1  0.25000000  0.27501090  0.13588744  1
  Pd  Pd38  1  0.75000000  0.77501090  0.36411256  1
  Pd  Pd39  1  0.75000000  0.72498910  0.86411256  1
  Pd  Pd40  1  0.25000000  0.01507671  0.95154167  1
  Pd  Pd41  1  0.25000000  0.48492329  0.45154167  1
  Pd  Pd42  1  0.75000000  0.98492329  0.04845833  1
  Pd  Pd43  1  0.75000000  0.51507671  0.54845833  1
