# generated using pymatgen
data_RbNbV2O8
_symmetry_space_group_name_H-M   'P 1'
_cell_length_a   5.69328850
_cell_length_b   9.21428107
_cell_length_c   15.23257523
_cell_angle_alpha   90.00000000
_cell_angle_beta   90.00000000
_cell_angle_gamma   90.00000000
_symmetry_Int_Tables_number   1
_chemical_formula_structural   RbNbV2O8
_chemical_formula_sum   'Rb4 Nb4 V8 O32'
_cell_volume   799.09420111
_cell_formula_units_Z   4
loop_
 _symmetry_equiv_pos_site_id
 _symmetry_equiv_pos_as_xyz
  1  'x, y, z'
loop_
 _atom_site_type_symbol
 _atom_site_label
 _atom_site_symmetry_multiplicity
 _atom_site_fract_x
 _atom_site_fract_y
 _atom_site_fract_z
 _atom_site_occupancy
  Rb  Rb0  1  0.25000000  0.44812077  0.61580729  1
  Rb  Rb1  1  0.25000000  0.05187923  0.11580729  1
  Rb  Rb2  1  0.75000000  0.55187923  0.38419271  1
  Rb  Rb3  1  0.75000000  0.94812077  0.88419271  1
  Nb  Nb4  1  0.25000000  0.99553347  0.65985401  1
  Nb  Nb5  1  0.25000000  0.50446653  0.15985401  1
  Nb  Nb6  1  0.75000000  0.00446653  0.34014599  1
  Nb  Nb7  1  0.75000000  0.49553347  0.84014599  1
  V  V8  1  0.25000000  0.24566608  0.83953395  1
  V  V9  1  0.25000000  0.25433392  0.33953395  1
  V  V10  1  0.75000000  0.75433392  0.16046605  1
  V  V11  1  0.75000000  0.74566608  0.66046605  1
  V  V12  1  0.25000000  0.81926973  0.43840609  1
  V  V13  1  0.25000000  0.68073027  0.93840609  1
  V  V14  1  0.75000000  0.18073027  0.56159391  1
  V  V15  1  0.75000000  0.31926973  0.06159391  1
  O  O16  1  0.99784058  0.34708642  0.80943272  1
  O  O17  1  0.50215942  0.15291358  0.30943272  1
  O  O18  1  0.49784058  0.65291358  0.19056728  1
  O  O19  1  0.00215942  0.84708642  0.69056728  1
  O  O20  1  0.00215942  0.65291358  0.19056728  1
  O  O21  1  0.49784058  0.84708642  0.69056728  1
  O  O22  1  0.50215942  0.34708642  0.80943272  1
  O  O23  1  0.99784058  0.15291358  0.30943272  1
  O  O24  1  0.99692675  0.86261618  0.37443779  1
  O  O25  1  0.50307325  0.63738382  0.87443779  1
  O  O26  1  0.49692675  0.13738382  0.62556221  1
  O  O27  1  0.00307325  0.36261618  0.12556221  1
  O  O28  1  0.00307325  0.13738382  0.62556221  1
  O  O29  1  0.49692675  0.36261618  0.12556221  1
  O  O30  1  0.50307325  0.86261618  0.37443779  1
  O  O31  1  0.99692675  0.63738382  0.87443779  1
  O  O32  1  0.25000000  0.07511740  0.78194712  1
  O  O33  1  0.25000000  0.42488260  0.28194712  1
  O  O34  1  0.75000000  0.92488260  0.21805288  1
  O  O35  1  0.75000000  0.57511740  0.71805288  1
  O  O36  1  0.25000000  0.91927204  0.53650421  1
  O  O37  1  0.25000000  0.58072796  0.03650421  1
  O  O38  1  0.75000000  0.08072796  0.46349579  1
  O  O39  1  0.75000000  0.41927204  0.96349579  1
  O  O40  1  0.25000000  0.21505583  0.94582523  1
  O  O41  1  0.25000000  0.28494417  0.44582523  1
  O  O42  1  0.75000000  0.78494417  0.05417477  1
  O  O43  1  0.75000000  0.71505583  0.55417477  1
  O  O44  1  0.25000000  0.64286690  0.45837954  1
  O  O45  1  0.25000000  0.85713310  0.95837954  1
  O  O46  1  0.75000000  0.35713310  0.54162046  1
  O  O47  1  0.75000000  0.14286690  0.04162046  1
