# generated using pymatgen
data_Nd2ZrSe5
_symmetry_space_group_name_H-M   'P 1'
_cell_length_a   7.75625683
_cell_length_b   8.39742277
_cell_length_c   12.18186849
_cell_angle_alpha   90.00000000
_cell_angle_beta   90.00000000
_cell_angle_gamma   90.00000000
_symmetry_Int_Tables_number   1
_chemical_formula_structural   Nd2ZrSe5
_chemical_formula_sum   'Nd8 Zr4 Se20'
_cell_volume   793.43637431
_cell_formula_units_Z   4
loop_
 _symmetry_equiv_pos_site_id
 _symmetry_equiv_pos_as_xyz
  1  'x, y, z'
loop_
 _atom_site_type_symbol
 _atom_site_label
 _atom_site_symmetry_multiplicity
 _atom_site_fract_x
 _atom_site_fract_y
 _atom_site_fract_z
 _atom_site_occupancy
  Nd  Nd0  1  0.04016248  0.00276224  0.32361513  1
  Nd  Nd1  1  0.45983752  0.49723776  0.82361513  1
  Nd  Nd2  1  0.95983752  0.50276224  0.67638487  1
  Nd  Nd3  1  0.54016248  0.99723776  0.17638487  1
  Nd  Nd4  1  0.95983752  0.99723776  0.67638487  1
  Nd  Nd5  1  0.54016248  0.50276224  0.17638487  1
  Nd  Nd6  1  0.04016248  0.49723776  0.32361513  1
  Nd  Nd7  1  0.45983752  0.00276224  0.82361513  1
  Zr  Zr8  1  0.57820029  0.75000000  0.49124789  1
  Zr  Zr9  1  0.92179971  0.75000000  0.99124789  1
  Zr  Zr10  1  0.42179971  0.25000000  0.50875211  1
  Zr  Zr11  1  0.07820029  0.25000000  0.00875211  1
  Se  Se12  1  0.34385359  0.75000000  0.31430691  1
  Se  Se13  1  0.15614641  0.75000000  0.81430691  1
  Se  Se14  1  0.65614641  0.25000000  0.68569309  1
  Se  Se15  1  0.84385359  0.25000000  0.18569309  1
  Se  Se16  1  0.82472275  0.75000000  0.20843916  1
  Se  Se17  1  0.67527725  0.75000000  0.70843916  1
  Se  Se18  1  0.17527725  0.25000000  0.79156084  1
  Se  Se19  1  0.32472275  0.25000000  0.29156084  1
  Se  Se20  1  0.94666505  0.75000000  0.49584694  1
  Se  Se21  1  0.55333495  0.75000000  0.99584694  1
  Se  Se22  1  0.05333495  0.25000000  0.50415306  1
  Se  Se23  1  0.44666505  0.25000000  0.00415306  1
  Se  Se24  1  0.66954441  0.03751402  0.41608431  1
  Se  Se25  1  0.83045559  0.46248598  0.91608431  1
  Se  Se26  1  0.33045559  0.53751402  0.58391569  1
  Se  Se27  1  0.16954441  0.96248598  0.08391569  1
  Se  Se28  1  0.33045559  0.96248598  0.58391569  1
  Se  Se29  1  0.16954441  0.53751402  0.08391569  1
  Se  Se30  1  0.66954441  0.46248598  0.41608431  1
  Se  Se31  1  0.83045559  0.03751402  0.91608431  1
