# generated using pymatgen
data_SrTiCu4P4O17
_symmetry_space_group_name_H-M   'P 1'
_cell_length_a   7.12910063
_cell_length_b   9.64085306
_cell_length_c   9.64085306
_cell_angle_alpha   90.00000000
_cell_angle_beta   90.00000000
_cell_angle_gamma   90.00000000
_symmetry_Int_Tables_number   1
_chemical_formula_structural   SrTiCu4P4O17
_chemical_formula_sum   'Sr2 Ti2 Cu8 P8 O34'
_cell_volume   662.62172739
_cell_formula_units_Z   2
loop_
 _symmetry_equiv_pos_site_id
 _symmetry_equiv_pos_as_xyz
  1  'x, y, z'
loop_
 _atom_site_type_symbol
 _atom_site_label
 _atom_site_symmetry_multiplicity
 _atom_site_fract_x
 _atom_site_fract_y
 _atom_site_fract_z
 _atom_site_occupancy
  Sr  Sr0  1  -0.00000000  0.50000000  0.50000000  1
  Sr  Sr1  1  -0.00000000  0.00000000  -0.00000000  1
  Ti  Ti2  1  0.98120861  0.50000000  0.00000000  1
  Ti  Ti3  1  0.01879139  0.00000000  0.50000000  1
  Cu  Cu4  1  0.40184833  0.51952228  0.76635757  1
  Cu  Cu5  1  0.40184833  0.48047772  0.23364243  1
  Cu  Cu6  1  0.59815167  0.01952228  0.73364243  1
  Cu  Cu7  1  0.59815167  0.98047772  0.26635757  1
  Cu  Cu8  1  0.59815167  0.76635757  0.51952228  1
  Cu  Cu9  1  0.59815167  0.23364243  0.48047772  1
  Cu  Cu10  1  0.40184833  0.73364243  0.01952228  1
  Cu  Cu11  1  0.40184833  0.26635757  0.98047772  1
  P  P12  1  0.74196482  0.31562035  0.77344126  1
  P  P13  1  0.74196482  0.68437965  0.22655874  1
  P  P14  1  0.25803518  0.81562035  0.72655874  1
  P  P15  1  0.25803518  0.18437965  0.27344126  1
  P  P16  1  0.25803518  0.77344126  0.31562035  1
  P  P17  1  0.25803518  0.22655874  0.68437965  1
  P  P18  1  0.74196482  0.72655874  0.81562035  1
  P  P19  1  0.74196482  0.27344126  0.18437965  1
  O  O20  1  0.55387855  0.36875814  0.84218366  1
  O  O21  1  0.55387855  0.63124186  0.15781634  1
  O  O22  1  0.44612145  0.86875814  0.65781634  1
  O  O23  1  0.44612145  0.13124186  0.34218366  1
  O  O24  1  0.44612145  0.84218366  0.36875814  1
  O  O25  1  0.44612145  0.15781634  0.63124186  1
  O  O26  1  0.55387855  0.65781634  0.86875814  1
  O  O27  1  0.55387855  0.34218366  0.13124186  1
  O  O28  1  0.73729107  0.34571115  0.61541497  1
  O  O29  1  0.73729107  0.65428885  0.38458503  1
  O  O30  1  0.26270893  0.84571115  0.88458503  1
  O  O31  1  0.26270893  0.15428885  0.11541497  1
  O  O32  1  0.26270893  0.61541497  0.34571115  1
  O  O33  1  0.26270893  0.38458503  0.65428885  1
  O  O34  1  0.73729107  0.88458503  0.84571115  1
  O  O35  1  0.73729107  0.11541497  0.15428885  1
  O  O36  1  0.90784923  0.40119175  0.82915069  1
  O  O37  1  0.90784923  0.59880825  0.17084931  1
  O  O38  1  0.09215077  0.90119175  0.67084931  1
  O  O39  1  0.09215077  0.09880825  0.32915069  1
  O  O40  1  0.09215077  0.82915069  0.40119175  1
  O  O41  1  0.09215077  0.17084931  0.59880825  1
  O  O42  1  0.90784923  0.67084931  0.90119175  1
  O  O43  1  0.90784923  0.32915069  0.09880825  1
  O  O44  1  0.22046994  0.50000000  0.00000000  1
  O  O45  1  0.77953006  0.00000000  0.50000000  1
  O  O46  1  0.76291689  0.16114741  0.81321296  1
  O  O47  1  0.76291689  0.83885259  0.18678704  1
  O  O48  1  0.23708311  0.66114741  0.68678704  1
  O  O49  1  0.23708311  0.33885259  0.31321296  1
  O  O50  1  0.23708311  0.81321296  0.16114741  1
  O  O51  1  0.23708311  0.18678704  0.83885259  1
  O  O52  1  0.76291689  0.68678704  0.66114741  1
  O  O53  1  0.76291689  0.31321296  0.33885259  1
