# generated using pymatgen
data_Ba4SiSb2Se11
_symmetry_space_group_name_H-M   'P 1'
_cell_length_a   8.92694749
_cell_length_b   9.55969597
_cell_length_c   13.86976477
_cell_angle_alpha   110.15882155
_cell_angle_beta   90.00000000
_cell_angle_gamma   90.00000000
_symmetry_Int_Tables_number   1
_chemical_formula_structural   Ba4SiSb2Se11
_chemical_formula_sum   'Ba8 Si2 Sb4 Se22'
_cell_volume   1111.12243720
_cell_formula_units_Z   2
loop_
 _symmetry_equiv_pos_site_id
 _symmetry_equiv_pos_as_xyz
  1  'x, y, z'
loop_
 _atom_site_type_symbol
 _atom_site_label
 _atom_site_symmetry_multiplicity
 _atom_site_fract_x
 _atom_site_fract_y
 _atom_site_fract_z
 _atom_site_occupancy
  Ba  Ba0  1  0.99923100  0.54258740  0.58006515  1
  Ba  Ba1  1  0.99923100  0.03747775  0.58006515  1
  Ba  Ba2  1  0.49923100  0.45741260  0.41993485  1
  Ba  Ba3  1  0.49923100  0.96252225  0.41993485  1
  Ba  Ba4  1  0.23918037  0.70653338  0.91988331  1
  Ba  Ba5  1  0.23918037  0.21334993  0.91988331  1
  Ba  Ba6  1  0.73918037  0.29346662  0.08011669  1
  Ba  Ba7  1  0.73918037  0.78665007  0.08011669  1
  Si  Si8  1  0.40724832  0.07950615  0.15901230  1
  Si  Si9  1  0.90724832  0.92049385  0.84098770  1
  Sb  Sb10  1  0.06883700  0.64893879  0.29787759  1
  Sb  Sb11  1  0.56883700  0.35106121  0.70212241  1
  Sb  Sb12  1  0.06964975  0.14424255  0.28848510  1
  Sb  Sb13  1  0.56964975  0.85575745  0.71151490  1
  Se  Se14  1  0.09507248  0.38300688  0.76601376  1
  Se  Se15  1  0.59507248  0.61699312  0.23398624  1
  Se  Se16  1  0.89327647  0.44445061  0.88890121  1
  Se  Se17  1  0.39327647  0.55554939  0.11109879  1
  Se  Se18  1  0.52221953  0.47299570  0.94599141  1
  Se  Se19  1  0.02221953  0.52700430  0.05400859  1
  Se  Se20  1  0.72597682  0.26653734  0.53307467  1
  Se  Se21  1  0.22597682  0.73346266  0.46692533  1
  Se  Se22  1  0.39492586  0.55209151  0.67096037  1
  Se  Se23  1  0.39492586  0.11886886  0.67096037  1
  Se  Se24  1  0.89492586  0.44790849  0.32903963  1
  Se  Se25  1  0.89492586  0.88113114  0.32903963  1
  Se  Se26  1  0.20778954  0.23117310  0.46234620  1
  Se  Se27  1  0.70778954  0.76882690  0.53765380  1
  Se  Se28  1  0.75975145  0.71060444  0.80124453  1
  Se  Se29  1  0.75975145  0.09064009  0.80124453  1
  Se  Se30  1  0.25975145  0.28939556  0.19875547  1
  Se  Se31  1  0.25975145  0.90935991  0.19875547  1
  Se  Se32  1  0.62525690  0.12480146  0.24960293  1
  Se  Se33  1  0.12525690  0.87519854  0.75039707  1
  Se  Se34  1  0.48209583  0.99523906  0.99047811  1
  Se  Se35  1  0.98209583  0.00476094  0.00952189  1
