# generated using pymatgen
data_TbH7C4O11
_symmetry_space_group_name_H-M   'P 1'
_cell_length_a   8.83878538
_cell_length_b   8.83878538
_cell_length_c   13.00876798
_cell_angle_alpha   90.00000000
_cell_angle_beta   90.00000000
_cell_angle_gamma   90.00000000
_symmetry_Int_Tables_number   1
_chemical_formula_structural   TbH7C4O11
_chemical_formula_sum   'Tb4 H28 C16 O44'
_cell_volume   1016.29864170
_cell_formula_units_Z   4
loop_
 _symmetry_equiv_pos_site_id
 _symmetry_equiv_pos_as_xyz
  1  'x, y, z'
loop_
 _atom_site_type_symbol
 _atom_site_label
 _atom_site_symmetry_multiplicity
 _atom_site_fract_x
 _atom_site_fract_y
 _atom_site_fract_z
 _atom_site_occupancy
  Tb  Tb0  1  0.25000000  0.75000000  0.21488289  1
  Tb  Tb1  1  0.25000000  0.75000000  0.71488289  1
  Tb  Tb2  1  0.75000000  0.25000000  0.78511711  1
  Tb  Tb3  1  0.75000000  0.25000000  0.28511711  1
  H  H4  1  0.25000000  0.25000000  0.98579130  1
  H  H5  1  0.75000000  0.75000000  0.48579130  1
  H  H6  1  0.75000000  0.75000000  0.01420870  1
  H  H7  1  0.25000000  0.25000000  0.51420870  1
  H  H8  1  0.27384158  0.44696597  0.93252994  1
  H  H9  1  0.22615842  0.05303403  0.93252994  1
  H  H10  1  0.94696597  0.72615842  0.43252994  1
  H  H11  1  0.55303403  0.77384158  0.43252994  1
  H  H12  1  0.72615842  0.55303403  0.06747006  1
  H  H13  1  0.77384158  0.94696597  0.06747006  1
  H  H14  1  0.05303403  0.27384158  0.56747006  1
  H  H15  1  0.44696597  0.22615842  0.56747006  1
  H  H16  1  0.18570330  0.43701420  0.04555637  1
  H  H17  1  0.31429670  0.06298580  0.04555637  1
  H  H18  1  0.93701420  0.81429670  0.54555637  1
  H  H19  1  0.56298580  0.68570330  0.54555637  1
  H  H20  1  0.81429670  0.56298580  0.95444363  1
  H  H21  1  0.68570330  0.93701420  0.95444363  1
  H  H22  1  0.06298580  0.18570330  0.45444363  1
  H  H23  1  0.43701420  0.31429670  0.45444363  1
  H  H24  1  0.33872732  0.76215240  0.98160710  1
  H  H25  1  0.16127268  0.73784760  0.98160710  1
  H  H26  1  0.26215240  0.66127268  0.48160710  1
  H  H27  1  0.23784760  0.83872732  0.48160710  1
  H  H28  1  0.66127268  0.23784760  0.01839290  1
  H  H29  1  0.83872732  0.26215240  0.01839290  1
  H  H30  1  0.73784760  0.33872732  0.51839290  1
  H  H31  1  0.76215240  0.16127268  0.51839290  1
  C  C32  1  0.53239796  0.52453716  0.20115651  1
  C  C33  1  0.96760204  0.97546284  0.20115651  1
  C  C34  1  0.02453716  0.46760204  0.70115651  1
  C  C35  1  0.47546284  0.03239796  0.70115651  1
  C  C36  1  0.46760204  0.47546284  0.79884349  1
  C  C37  1  0.03239796  0.02453716  0.79884349  1
  C  C38  1  0.97546284  0.53239796  0.29884349  1
  C  C39  1  0.52453716  0.96760204  0.29884349  1
  C  C40  1  0.45656450  0.47596884  0.30313607  1
  C  C41  1  0.04343550  0.02403116  0.30313607  1
  C  C42  1  0.97596884  0.54343550  0.80313607  1
  C  C43  1  0.52403116  0.95656450  0.80313607  1
  C  C44  1  0.54343550  0.52403116  0.69686393  1
  C  C45  1  0.95656450  0.97596884  0.69686393  1
  C  C46  1  0.02403116  0.45656450  0.19686393  1
  C  C47  1  0.47596884  0.04343550  0.19686393  1
  O  O48  1  0.21466649  0.38155338  0.98051426  1
  O  O49  1  0.28533351  0.11844662  0.98051426  1
  O  O50  1  0.88155338  0.78533351  0.48051426  1
  O  O51  1  0.61844662  0.71466649  0.48051426  1
  O  O52  1  0.78533351  0.61844662  0.01948574  1
  O  O53  1  0.71466649  0.88155338  0.01948574  1
  O  O54  1  0.11844662  0.21466649  0.51948574  1
  O  O55  1  0.38155338  0.28533351  0.51948574  1
  O  O56  1  0.25000000  0.75000000  0.02580615  1
  O  O57  1  0.25000000  0.75000000  0.52580615  1
  O  O58  1  0.75000000  0.25000000  0.97419385  1
  O  O59  1  0.75000000  0.25000000  0.47419385  1
  O  O60  1  0.46939031  0.62817017  0.15057609  1
  O  O61  1  0.03060969  0.87182983  0.15057609  1
  O  O62  1  0.12817017  0.53060969  0.65057609  1
  O  O63  1  0.37182983  0.96939031  0.65057609  1
  O  O64  1  0.53060969  0.37182983  0.84942391  1
  O  O65  1  0.96939031  0.12817017  0.84942391  1
  O  O66  1  0.87182983  0.46939031  0.34942391  1
  O  O67  1  0.62817017  0.03060969  0.34942391  1
  O  O68  1  0.65443059  0.45694386  0.17611092  1
  O  O69  1  0.84556941  0.04305614  0.17611092  1
  O  O70  1  0.95694386  0.34556941  0.67611092  1
  O  O71  1  0.54305614  0.15443059  0.67611092  1
  O  O72  1  0.34556941  0.54305614  0.82388908  1
  O  O73  1  0.15443059  0.95694386  0.82388908  1
  O  O74  1  0.04305614  0.65443059  0.32388908  1
  O  O75  1  0.45694386  0.84556941  0.32388908  1
  O  O76  1  0.51846280  0.36538862  0.35036016  1
  O  O77  1  0.98153720  0.13461138  0.35036016  1
  O  O78  1  0.86538862  0.48153720  0.85036016  1
  O  O79  1  0.63461138  0.01846280  0.85036016  1
  O  O80  1  0.48153720  0.63461138  0.64963984  1
  O  O81  1  0.01846280  0.86538862  0.64963984  1
  O  O82  1  0.13461138  0.51846280  0.14963984  1
  O  O83  1  0.36538862  0.98153720  0.14963984  1
  O  O84  1  0.34093930  0.54792235  0.33157645  1
  O  O85  1  0.15906070  0.95207765  0.33157645  1
  O  O86  1  0.04792235  0.65906070  0.83157645  1
  O  O87  1  0.45207765  0.84093930  0.83157645  1
  O  O88  1  0.65906070  0.45207765  0.66842355  1
  O  O89  1  0.84093930  0.04792235  0.66842355  1
  O  O90  1  0.95207765  0.34093930  0.16842355  1
  O  O91  1  0.54792235  0.15906070  0.16842355  1
