# generated using pymatgen
data_Cs4Co3F10
_symmetry_space_group_name_H-M   'P 1'
_cell_length_a   6.29713060
_cell_length_b   7.98636724
_cell_length_c   14.07332065
_cell_angle_alpha   90.00000000
_cell_angle_beta   90.00000000
_cell_angle_gamma   113.21873420
_symmetry_Int_Tables_number   1
_chemical_formula_structural   Cs4Co3F10
_chemical_formula_sum   'Cs8 Co6 F20'
_cell_volume   650.43983984
_cell_formula_units_Z   2
loop_
 _symmetry_equiv_pos_site_id
 _symmetry_equiv_pos_as_xyz
  1  'x, y, z'
loop_
 _atom_site_type_symbol
 _atom_site_label
 _atom_site_symmetry_multiplicity
 _atom_site_fract_x
 _atom_site_fract_y
 _atom_site_fract_z
 _atom_site_occupancy
  Cs  Cs0  1  0.95541106  0.91082213  0.63923969  1
  Cs  Cs1  1  0.04458894  0.08917787  0.36076031  1
  Cs  Cs2  1  0.54458894  0.08917787  0.13923969  1
  Cs  Cs3  1  0.45541106  0.91082213  0.86076031  1
  Cs  Cs4  1  0.25586705  0.51173409  0.60916249  1
  Cs  Cs5  1  0.74413295  0.48826591  0.39083751  1
  Cs  Cs6  1  0.24413295  0.48826591  0.10916249  1
  Cs  Cs7  1  0.75586705  0.51173409  0.89083751  1
  Co  Co8  1  0.50000000  0.00000000  0.50000000  1
  Co  Co9  1  0.00000000  0.00000000  0.00000000  1
  Co  Co10  1  0.62085056  0.24170112  0.65319909  1
  Co  Co11  1  0.37914944  0.75829888  0.34680091  1
  Co  Co12  1  0.87914944  0.75829888  0.15319909  1
  Co  Co13  1  0.12085056  0.24170112  0.84680091  1
  F  F14  1  0.86486528  0.22973056  0.75000000  1
  F  F15  1  0.63513472  0.77026944  0.25000000  1
  F  F16  1  0.13513472  0.77026944  0.25000000  1
  F  F17  1  0.36486528  0.22973056  0.75000000  1
  F  F18  1  0.75484532  0.50969063  0.64719285  1
  F  F19  1  0.24515468  0.49030937  0.35280715  1
  F  F20  1  0.74515468  0.49030937  0.14719285  1
  F  F21  1  0.25484532  0.50969063  0.85280715  1
  F  F22  1  0.47446488  0.94892977  0.64557473  1
  F  F23  1  0.52553512  0.05107023  0.35442527  1
  F  F24  1  0.02553512  0.05107023  0.14557473  1
  F  F25  1  0.97446488  0.94892977  0.85442527  1
  F  F26  1  0.81575547  0.20005914  0.53739423  1
  F  F27  1  0.61569633  0.79994086  0.46260577  1
  F  F28  1  0.11569633  0.79994086  0.03739423  1
  F  F29  1  0.31575547  0.20005914  0.96260577  1
  F  F30  1  0.18424453  0.79994086  0.46260577  1
  F  F31  1  0.38430367  0.20005914  0.53739423  1
  F  F32  1  0.88430367  0.20005914  0.96260577  1
  F  F33  1  0.68424453  0.79994086  0.03739423  1
