# generated using pymatgen
data_Cs2Th(Si2O5)3
_symmetry_space_group_name_H-M   'P 1'
_cell_length_a   7.43140013
_cell_length_b   9.17101668
_cell_length_c   13.80555523
_cell_angle_alpha   90.00000000
_cell_angle_beta   90.00000000
_cell_angle_gamma   113.90095226
_symmetry_Int_Tables_number   1
_chemical_formula_structural   Cs2Th(Si2O5)3
_chemical_formula_sum   'Cs4 Th2 Si12 O30'
_cell_volume   860.21231507
_cell_formula_units_Z   2
loop_
 _symmetry_equiv_pos_site_id
 _symmetry_equiv_pos_as_xyz
  1  'x, y, z'
loop_
 _atom_site_type_symbol
 _atom_site_label
 _atom_site_symmetry_multiplicity
 _atom_site_fract_x
 _atom_site_fract_y
 _atom_site_fract_z
 _atom_site_occupancy
  Cs  Cs0  1  0.61322668  0.22645335  0.53421839  1
  Cs  Cs1  1  0.38677332  0.77354665  0.03421839  1
  Cs  Cs2  1  0.72347880  0.44695761  0.84384037  1
  Cs  Cs3  1  0.27652120  0.55304239  0.34384037  1
  Th  Th4  1  0.13082733  0.26165466  0.69191301  1
  Th  Th5  1  0.86917267  0.73834534  0.19191301  1
  Si  Si6  1  0.14119940  0.28239879  0.96211565  1
  Si  Si7  1  0.85880060  0.71760121  0.46211565  1
  Si  Si8  1  0.11123343  0.63317071  0.61794982  1
  Si  Si9  1  0.52193729  0.63317071  0.61794982  1
  Si  Si10  1  0.88876657  0.36682929  0.11794982  1
  Si  Si11  1  0.47806271  0.36682929  0.11794982  1
  Si  Si12  1  0.04705720  0.09411440  0.43705628  1
  Si  Si13  1  0.95294280  0.90588560  0.93705628  1
  Si  Si14  1  0.67185587  0.91382102  0.76791711  1
  Si  Si15  1  0.24196516  0.91382102  0.76791711  1
  Si  Si16  1  0.32814413  0.08617898  0.26791711  1
  Si  Si17  1  0.75803484  0.08617898  0.26791711  1
  O  O18  1  0.00969158  0.45554449  0.66176658  1
  O  O19  1  0.44585291  0.45554449  0.66176658  1
  O  O20  1  0.99030842  0.54445551  0.16176658  1
  O  O21  1  0.55414709  0.54445551  0.16176658  1
  O  O22  1  0.80901824  0.08497671  0.72347067  1
  O  O23  1  0.27595847  0.08497671  0.72347067  1
  O  O24  1  0.19098176  0.91502329  0.22347067  1
  O  O25  1  0.72404153  0.91502329  0.22347067  1
  O  O26  1  0.10795205  0.21590409  0.52659301  1
  O  O27  1  0.89204795  0.78409591  0.02659301  1
  O  O28  1  0.16926097  0.33852193  0.85104812  1
  O  O29  1  0.83073903  0.66147807  0.35104812  1
  O  O30  1  0.10962232  0.76667234  0.69618130  1
  O  O31  1  0.65705002  0.76667234  0.69618130  1
  O  O32  1  0.89037768  0.23332766  0.19618130  1
  O  O33  1  0.34294998  0.23332766  0.19618130  1
  O  O34  1  0.34023059  0.68046117  0.58314833  1
  O  O35  1  0.65976941  0.31953883  0.08314833  1
  O  O36  1  0.00127289  0.64624575  0.51735844  1
  O  O37  1  0.64497287  0.64624575  0.51735844  1
  O  O38  1  0.99872711  0.35375425  0.01735844  1
  O  O39  1  0.35502713  0.35375425  0.01735844  1
  O  O40  1  0.87924630  0.12362778  0.37151171  1
  O  O41  1  0.24438148  0.12362778  0.37151171  1
  O  O42  1  0.12075370  0.87637222  0.87151171  1
  O  O43  1  0.75561852  0.87637222  0.87151171  1
  O  O44  1  0.95527689  0.91055379  0.47500460  1
  O  O45  1  0.04472311  0.08944621  0.97500460  1
  O  O46  1  0.44793396  0.89586791  0.79516099  1
  O  O47  1  0.55206604  0.10413209  0.29516099  1
