# generated using pymatgen
data_Yb11AlSb9
_symmetry_space_group_name_H-M   'P 1'
_cell_length_a   11.80252540
_cell_length_b   12.01074579
_cell_length_c   12.01074579
_cell_angle_alpha   62.31277320
_cell_angle_beta   60.57183803
_cell_angle_gamma   60.57183803
_symmetry_Int_Tables_number   1
_chemical_formula_structural   Yb11AlSb9
_chemical_formula_sum   'Yb22 Al2 Sb18'
_cell_volume   1234.39524148
_cell_formula_units_Z   2
loop_
 _symmetry_equiv_pos_site_id
 _symmetry_equiv_pos_as_xyz
  1  'x, y, z'
loop_
 _atom_site_type_symbol
 _atom_site_label
 _atom_site_symmetry_multiplicity
 _atom_site_fract_x
 _atom_site_fract_y
 _atom_site_fract_z
 _atom_site_occupancy
  Yb  Yb0  1  0.71162530  0.16337601  0.04380632  1
  Yb  Yb1  1  0.08119237  0.04380632  0.16337601  1
  Yb  Yb2  1  0.58119237  0.66337601  0.54380632  1
  Yb  Yb3  1  0.21162530  0.54380632  0.66337601  1
  Yb  Yb4  1  0.46948523  0.29412805  0.40040693  1
  Yb  Yb5  1  0.83597979  0.40040693  0.29412805  1
  Yb  Yb6  1  0.33597979  0.79412805  0.90040693  1
  Yb  Yb7  1  0.96948523  0.90040693  0.79412805  1
  Yb  Yb8  1  0.36179560  0.14869494  0.80256852  1
  Yb  Yb9  1  0.68694093  0.80256852  0.14869494  1
  Yb  Yb10  1  0.18694093  0.64869494  0.30256852  1
  Yb  Yb11  1  0.86179560  0.30256852  0.64869494  1
  Yb  Yb12  1  0.45485182  0.40798711  0.86165082  1
  Yb  Yb13  1  0.27551025  0.86165082  0.40798711  1
  Yb  Yb14  1  0.77551025  0.90798711  0.36165082  1
  Yb  Yb15  1  0.95485182  0.36165082  0.90798711  1
  Yb  Yb16  1  0.75458127  0.09154734  0.53901900  1
  Yb  Yb17  1  0.61485240  0.53901900  0.09154734  1
  Yb  Yb18  1  0.11485240  0.59154734  0.03901900  1
  Yb  Yb19  1  0.25458127  0.03901900  0.59154734  1
  Yb  Yb20  1  0.20208004  0.29791996  0.29791996  1
  Yb  Yb21  1  0.70208004  0.79791996  0.79791996  1
  Al  Al22  1  0.91960206  0.58039794  0.58039794  1
  Al  Al23  1  0.41960206  0.08039794  0.08039794  1
  Sb  Sb24  1  0.77675022  0.22324978  0.22324978  1
  Sb  Sb25  1  0.27675022  0.72324978  0.72324978  1
  Sb  Sb26  1  0.15648426  0.35734049  0.58696937  1
  Sb  Sb27  1  0.89920588  0.58696937  0.35734049  1
  Sb  Sb28  1  0.39920588  0.85734049  0.08696937  1
  Sb  Sb29  1  0.65648426  0.08696937  0.85734049  1
  Sb  Sb30  1  0.55809751  0.36756052  0.58750388  1
  Sb  Sb31  1  0.48683810  0.58750388  0.36756052  1
  Sb  Sb32  1  0.98683810  0.86756052  0.08750388  1
  Sb  Sb33  1  0.05809751  0.08750388  0.86756052  1
  Sb  Sb34  1  0.19008216  0.30042603  0.02728142  1
  Sb  Sb35  1  0.48221038  0.02728142  0.30042603  1
  Sb  Sb36  1  0.98221038  0.80042603  0.52728142  1
  Sb  Sb37  1  0.69008216  0.52728142  0.80042603  1
  Sb  Sb38  1  0.02839203  0.11532655  0.47034902  1
  Sb  Sb39  1  0.38593240  0.47034902  0.11532655  1
  Sb  Sb40  1  0.88593240  0.61532655  0.97034902  1
  Sb  Sb41  1  0.52839203  0.97034902  0.61532655  1
