# generated using pymatgen
data_Er11Sn10
_symmetry_space_group_name_H-M   'P 1'
_cell_length_a   11.56736892
_cell_length_b   11.56736892
_cell_length_c   11.76964425
_cell_angle_alpha   119.43309541
_cell_angle_beta   119.43309541
_cell_angle_gamma   90.00000000
_symmetry_Int_Tables_number   1
_chemical_formula_structural   Er11Sn10
_chemical_formula_sum   'Er22 Sn20'
_cell_volume   1132.38459820
_cell_formula_units_Z   2
loop_
 _symmetry_equiv_pos_site_id
 _symmetry_equiv_pos_as_xyz
  1  'x, y, z'
loop_
 _atom_site_type_symbol
 _atom_site_label
 _atom_site_symmetry_multiplicity
 _atom_site_fract_x
 _atom_site_fract_y
 _atom_site_fract_z
 _atom_site_occupancy
  Er  Er0  1  0.93637217  0.18854473  0.37708946  1
  Er  Er1  1  0.44071729  0.18854473  0.37708946  1
  Er  Er2  1  0.18854473  0.44071729  0.37708946  1
  Er  Er3  1  0.18854473  0.93637217  0.37708946  1
  Er  Er4  1  0.06362783  0.81145527  0.62291054  1
  Er  Er5  1  0.55928271  0.81145527  0.62291054  1
  Er  Er6  1  0.81145527  0.55928271  0.62291054  1
  Er  Er7  1  0.81145527  0.06362783  0.62291054  1
  Er  Er8  1  0.82521709  0.17478291  0.00000000  1
  Er  Er9  1  0.17478291  0.82521709  0.00000000  1
  Er  Er10  1  0.17478291  0.17478291  0.00000000  1
  Er  Er11  1  0.82521709  0.82521709  0.00000000  1
  Er  Er12  1  0.33592031  0.33592031  0.67184062  1
  Er  Er13  1  0.66407969  0.66407969  0.32815938  1
  Er  Er14  1  0.06824023  0.39778741  0.79557482  1
  Er  Er15  1  0.72733459  0.39778741  0.79557482  1
  Er  Er16  1  0.39778741  0.72733459  0.79557482  1
  Er  Er17  1  0.39778741  0.06824023  0.79557482  1
  Er  Er18  1  0.93175977  0.60221259  0.20442518  1
  Er  Er19  1  0.27266541  0.60221259  0.20442518  1
  Er  Er20  1  0.60221259  0.27266541  0.20442518  1
  Er  Er21  1  0.60221259  0.93175977  0.20442518  1
  Sn  Sn22  1  -0.00000000  0.35610530  0.00000000  1
  Sn  Sn23  1  -0.00000000  0.64389470  0.00000000  1
  Sn  Sn24  1  0.35610530  0.00000000  0.00000000  1
  Sn  Sn25  1  0.64389470  0.00000000  0.00000000  1
  Sn  Sn26  1  0.11270186  0.11270186  0.22540373  1
  Sn  Sn27  1  0.88729814  0.88729814  0.77459627  1
  Sn  Sn28  1  0.62949945  0.37050055  0.00000000  1
  Sn  Sn29  1  0.37050055  0.62949945  0.00000000  1
  Sn  Sn30  1  0.37050055  0.37050055  0.00000000  1
  Sn  Sn31  1  0.62949945  0.62949945  0.00000000  1
  Sn  Sn32  1  0.75000000  0.25000000  0.50000000  1
  Sn  Sn33  1  0.25000000  0.75000000  0.50000000  1
  Sn  Sn34  1  0.11805039  0.53101831  0.64906870  1
  Sn  Sn35  1  0.53101831  0.11805039  0.64906870  1
  Sn  Sn36  1  0.53101831  0.53101831  0.64906870  1
  Sn  Sn37  1  0.11805039  0.11805039  0.64906870  1
  Sn  Sn38  1  0.88194961  0.46898169  0.35093130  1
  Sn  Sn39  1  0.46898169  0.88194961  0.35093130  1
  Sn  Sn40  1  0.46898169  0.46898169  0.35093130  1
  Sn  Sn41  1  0.88194961  0.88194961  0.35093130  1
