# generated using pymatgen
data_CuP4S3Br
_symmetry_space_group_name_H-M   'P 1'
_cell_length_a   6.52396925
_cell_length_b   9.40309827
_cell_length_c   15.83625308
_cell_angle_alpha   97.52357407
_cell_angle_beta   97.94722066
_cell_angle_gamma   106.91925775
_symmetry_Int_Tables_number   1
_chemical_formula_structural   CuP4S3Br
_chemical_formula_sum   'Cu4 P16 S12 Br4'
_cell_volume   905.36219566
_cell_formula_units_Z   4
loop_
 _symmetry_equiv_pos_site_id
 _symmetry_equiv_pos_as_xyz
  1  'x, y, z'
loop_
 _atom_site_type_symbol
 _atom_site_label
 _atom_site_symmetry_multiplicity
 _atom_site_fract_x
 _atom_site_fract_y
 _atom_site_fract_z
 _atom_site_occupancy
  Cu  Cu0  1  0.99985186  0.10804152  0.79287322  1
  Cu  Cu1  1  0.00014814  0.89195848  0.20712678  1
  Cu  Cu2  1  0.64860396  0.34122480  0.91727382  1
  Cu  Cu3  1  0.35139604  0.65877520  0.08272618  1
  P  P4  1  0.14052293  0.35891794  0.50740438  1
  P  P5  1  0.85947707  0.64108206  0.49259562  1
  P  P6  1  0.46113263  0.34183986  0.68458595  1
  P  P7  1  0.53886737  0.65816014  0.31541405  1
  P  P8  1  0.34751019  0.11590628  0.59299087  1
  P  P9  1  0.65248981  0.88409372  0.40700913  1
  P  P10  1  0.12136474  0.18425381  0.67369363  1
  P  P11  1  0.87863526  0.81574619  0.32630637  1
  P  P12  1  0.98652678  0.11626969  0.17605875  1
  P  P13  1  0.01347322  0.88373031  0.82394125  1
  P  P14  1  0.80850166  0.31553047  0.04970426  1
  P  P15  1  0.19149834  0.68446953  0.95029574  1
  P  P16  1  0.14788445  0.44540741  0.11998016  1
  P  P17  1  0.85211555  0.55459259  0.88001984  1
  P  P18  1  0.86440440  0.43333666  0.19074494  1
  P  P19  1  0.13559560  0.56666334  0.80925506  1
  S  S20  1  0.40898566  0.49384924  0.60469270  1
  S  S21  1  0.59101434  0.50615076  0.39530730  1
  S  S22  1  0.25133288  0.17165407  0.47321730  1
  S  S23  1  0.74866712  0.82834593  0.52678270  1
  S  S24  1  0.92519530  0.26646213  0.58917216  1
  S  S25  1  0.07480470  0.73353787  0.41082784  1
  S  S26  1  0.78181891  0.09083368  0.05585559  1
  S  S27  1  0.21818109  0.90916632  0.94414441  1
  S  S28  1  0.27479264  0.27834657  0.15872674  1
  S  S29  1  0.72520736  0.72165343  0.84127326  1
  S  S30  1  0.86639382  0.25622033  0.25848411  1
  S  S31  1  0.13360618  0.74377967  0.74151589  1
  Br  Br32  1  0.63565695  0.11936932  0.80813470  1
  Br  Br33  1  0.36434305  0.88063068  0.19186530  1
  Br  Br34  1  0.25609589  0.30307977  0.91443292  1
  Br  Br35  1  0.74390411  0.69692023  0.08556708  1
