# generated using pymatgen
data_Tb2Co14B
_symmetry_space_group_name_H-M   'P 1'
_cell_length_a   8.57662282
_cell_length_b   8.57662282
_cell_length_c   11.66528349
_cell_angle_alpha   90.00000000
_cell_angle_beta   90.00000000
_cell_angle_gamma   90.00000000
_symmetry_Int_Tables_number   1
_chemical_formula_structural   Tb2Co14B
_chemical_formula_sum   'Tb8 Co56 B4'
_cell_volume   858.08027728
_cell_formula_units_Z   4
loop_
 _symmetry_equiv_pos_site_id
 _symmetry_equiv_pos_as_xyz
  1  'x, y, z'
loop_
 _atom_site_type_symbol
 _atom_site_label
 _atom_site_symmetry_multiplicity
 _atom_site_fract_x
 _atom_site_fract_y
 _atom_site_fract_z
 _atom_site_occupancy
  Tb  Tb0  1  0.22394323  0.77605677  0.50000000  1
  Tb  Tb1  1  0.77605677  0.22394323  0.50000000  1
  Tb  Tb2  1  0.27605677  0.27605677  -0.00000000  1
  Tb  Tb3  1  0.72394323  0.72394323  -0.00000000  1
  Tb  Tb4  1  0.64619321  0.64619321  0.50000000  1
  Tb  Tb5  1  0.35380679  0.35380679  0.50000000  1
  Tb  Tb6  1  0.85380679  0.14619321  -0.00000000  1
  Tb  Tb7  1  0.14619321  0.85380679  -0.00000000  1
  Co  Co8  1  -0.00000000  0.50000000  0.50000000  1
  Co  Co9  1  0.50000000  -0.00000000  -0.00000000  1
  Co  Co10  1  0.50000000  -0.00000000  0.50000000  1
  Co  Co11  1  -0.00000000  0.50000000  -0.00000000  1
  Co  Co12  1  0.50000000  0.50000000  0.11668275  1
  Co  Co13  1  -0.00000000  -0.00000000  0.61668275  1
  Co  Co14  1  0.50000000  0.50000000  0.88331725  1
  Co  Co15  1  -0.00000000  -0.00000000  0.38331725  1
  Co  Co16  1  0.18206923  0.81793077  0.25376706  1
  Co  Co17  1  0.81793077  0.18206923  0.25376706  1
  Co  Co18  1  0.31793077  0.31793077  0.75376706  1
  Co  Co19  1  0.68206923  0.68206923  0.75376706  1
  Co  Co20  1  0.81793077  0.18206923  0.74623294  1
  Co  Co21  1  0.18206923  0.81793077  0.74623294  1
  Co  Co22  1  0.68206923  0.68206923  0.24623294  1
  Co  Co23  1  0.31793077  0.31793077  0.24623294  1
  Co  Co24  1  0.40181590  0.59818410  0.29820930  1
  Co  Co25  1  0.59818410  0.40181590  0.29820930  1
  Co  Co26  1  0.09818410  0.09818410  0.79820930  1
  Co  Co27  1  0.90181590  0.90181590  0.79820930  1
  Co  Co28  1  0.59818410  0.40181590  0.70179070  1
  Co  Co29  1  0.40181590  0.59818410  0.70179070  1
  Co  Co30  1  0.90181590  0.90181590  0.20179070  1
  Co  Co31  1  0.09818410  0.09818410  0.20179070  1
  Co  Co32  1  0.14072770  0.53682956  0.32245823  1
  Co  Co33  1  0.85927230  0.46317044  0.32245823  1
  Co  Co34  1  0.35927230  0.03682956  0.82245823  1
  Co  Co35  1  0.64072770  0.96317044  0.82245823  1
  Co  Co36  1  0.85927230  0.46317044  0.67754177  1
  Co  Co37  1  0.14072770  0.53682956  0.67754177  1
  Co  Co38  1  0.64072770  0.96317044  0.17754177  1
  Co  Co39  1  0.35927230  0.03682956  0.17754177  1
  Co  Co40  1  0.53682956  0.14072770  0.32245823  1
  Co  Co41  1  0.46317044  0.85927230  0.32245823  1
  Co  Co42  1  0.03682956  0.35927230  0.82245823  1
  Co  Co43  1  0.96317044  0.64072770  0.82245823  1
  Co  Co44  1  0.46317044  0.85927230  0.67754177  1
  Co  Co45  1  0.53682956  0.14072770  0.67754177  1
  Co  Co46  1  0.96317044  0.64072770  0.17754177  1
  Co  Co47  1  0.03682956  0.35927230  0.17754177  1
  Co  Co48  1  0.93127950  0.72419457  0.37380872  1
  Co  Co49  1  0.06872050  0.27580543  0.37380872  1
  Co  Co50  1  0.56872050  0.22419457  0.87380872  1
  Co  Co51  1  0.43127950  0.77580543  0.87380872  1
  Co  Co52  1  0.06872050  0.27580543  0.62619128  1
  Co  Co53  1  0.93127950  0.72419457  0.62619128  1
  Co  Co54  1  0.43127950  0.77580543  0.12619128  1
  Co  Co55  1  0.56872050  0.22419457  0.12619128  1
  Co  Co56  1  0.72419457  0.93127950  0.37380872  1
  Co  Co57  1  0.27580543  0.06872050  0.37380872  1
  Co  Co58  1  0.22419457  0.56872050  0.87380872  1
  Co  Co59  1  0.77580543  0.43127950  0.87380872  1
  Co  Co60  1  0.27580543  0.06872050  0.62619128  1
  Co  Co61  1  0.72419457  0.93127950  0.62619128  1
  Co  Co62  1  0.77580543  0.43127950  0.12619128  1
  Co  Co63  1  0.22419457  0.56872050  0.12619128  1
  B  B64  1  0.87719566  0.87719566  0.50000000  1
  B  B65  1  0.12280434  0.12280434  0.50000000  1
  B  B66  1  0.62280434  0.37719566  -0.00000000  1
  B  B67  1  0.37719566  0.62280434  -0.00000000  1
