# generated using pymatgen
data_NaLiMgPO4F
_symmetry_space_group_name_H-M   'P 1'
_cell_length_a   5.08225766
_cell_length_b   6.89634093
_cell_length_c   11.34673745
_cell_angle_alpha   90.00000000
_cell_angle_beta   90.00000000
_cell_angle_gamma   89.97914791
_symmetry_Int_Tables_number   1
_chemical_formula_structural   NaLiMgPO4F
_chemical_formula_sum   'Na4 Li4 Mg4 P4 O16 F4'
_cell_volume   397.69156540
_cell_formula_units_Z   4
loop_
 _symmetry_equiv_pos_site_id
 _symmetry_equiv_pos_as_xyz
  1  'x, y, z'
loop_
 _atom_site_type_symbol
 _atom_site_label
 _atom_site_symmetry_multiplicity
 _atom_site_fract_x
 _atom_site_fract_y
 _atom_site_fract_z
 _atom_site_occupancy
  Na  Na0  1  0.75309079  0.51139910  0.66541344  1
  Na  Na1  1  0.74690921  0.48860090  0.16541344  1
  Na  Na2  1  0.24690921  0.48860090  0.33458656  1
  Na  Na3  1  0.25309079  0.51139910  0.83458656  1
  Li  Li4  1  0.26322191  0.74025689  0.58018385  1
  Li  Li5  1  0.23677809  0.25974311  0.08018385  1
  Li  Li6  1  0.73677809  0.25974311  0.41981615  1
  Li  Li7  1  0.76322191  0.74025689  0.91981615  1
  Mg  Mg8  1  0.26346299  0.01839762  0.32896956  1
  Mg  Mg9  1  0.23653701  0.98160238  0.82896956  1
  Mg  Mg10  1  0.73653701  0.98160238  0.67103044  1
  Mg  Mg11  1  0.76346299  0.01839762  0.17103044  1
  P  P12  1  0.77126787  0.75430379  0.41818854  1
  P  P13  1  0.72873213  0.24569621  0.91818854  1
  P  P14  1  0.22873213  0.24569621  0.58181146  1
  P  P15  1  0.27126787  0.75430379  0.08181146  1
  O  O16  1  0.74012691  0.54217119  0.37619372  1
  O  O17  1  0.75987309  0.45782881  0.87619372  1
  O  O18  1  0.25987309  0.45782881  0.62380628  1
  O  O19  1  0.24012691  0.54217119  0.12380628  1
  O  O20  1  0.63129544  0.89088212  0.32830505  1
  O  O21  1  0.86870456  0.10911788  0.82830505  1
  O  O22  1  0.36870456  0.10911788  0.67169495  1
  O  O23  1  0.13129544  0.89088212  0.17169495  1
  O  O24  1  0.07109641  0.80523279  0.42612432  1
  O  O25  1  0.42890359  0.19476721  0.92612432  1
  O  O26  1  0.92890359  0.19476721  0.57387568  1
  O  O27  1  0.57109641  0.80523279  0.07387568  1
  O  O28  1  0.64239435  0.78283372  0.54112330  1
  O  O29  1  0.85760565  0.21716628  0.04112330  1
  O  O30  1  0.35760565  0.21716628  0.45887670  1
  O  O31  1  0.14239435  0.78283372  0.95887670  1
  F  F32  1  0.46442222  0.19926387  0.21279099  1
  F  F33  1  0.03557778  0.80073613  0.71279099  1
  F  F34  1  0.53557778  0.80073613  0.78720901  1
  F  F35  1  0.96442222  0.19926387  0.28720901  1
