# generated using pymatgen
data_CsV2SbO8
_symmetry_space_group_name_H-M   'P 1'
_cell_length_a   5.70986049
_cell_length_b   8.67696779
_cell_length_c   17.10545084
_cell_angle_alpha   90.00000000
_cell_angle_beta   90.00000000
_cell_angle_gamma   90.57615063
_symmetry_Int_Tables_number   1
_chemical_formula_structural   CsV2SbO8
_chemical_formula_sum   'Cs4 V8 Sb4 O32'
_cell_volume   847.43432382
_cell_formula_units_Z   4
loop_
 _symmetry_equiv_pos_site_id
 _symmetry_equiv_pos_as_xyz
  1  'x, y, z'
loop_
 _atom_site_type_symbol
 _atom_site_label
 _atom_site_symmetry_multiplicity
 _atom_site_fract_x
 _atom_site_fract_y
 _atom_site_fract_z
 _atom_site_occupancy
  Cs  Cs0  1  0.23761067  0.50442530  0.28210236  1
  Cs  Cs1  1  0.73761067  0.00442530  0.21789764  1
  Cs  Cs2  1  0.76238933  0.49557470  0.71789764  1
  Cs  Cs3  1  0.26238933  0.99557470  0.78210236  1
  V  V4  1  0.24483450  0.04172278  0.39296324  1
  V  V5  1  0.74483450  0.54172278  0.10703676  1
  V  V6  1  0.75516550  0.95827722  0.60703676  1
  V  V7  1  0.25516550  0.45827722  0.89296324  1
  V  V8  1  0.73094736  0.63574707  0.42518196  1
  V  V9  1  0.23094736  0.13574707  0.07481804  1
  V  V10  1  0.26905264  0.36425293  0.57481804  1
  V  V11  1  0.76905264  0.86425293  0.92518196  1
  Sb  Sb12  1  0.75859160  0.24123497  0.45254073  1
  Sb  Sb13  1  0.25859160  0.74123497  0.04745927  1
  Sb  Sb14  1  0.24140840  0.75876503  0.54745927  1
  Sb  Sb15  1  0.74140840  0.25876503  0.95254073  1
  O  O16  1  0.24332914  0.95498741  0.48594782  1
  O  O17  1  0.74332914  0.45498741  0.01405218  1
  O  O18  1  0.75667086  0.04501259  0.51405218  1
  O  O19  1  0.25667086  0.54501259  0.98594782  1
  O  O20  1  0.49730561  0.16682995  0.38498874  1
  O  O21  1  0.99730561  0.66682995  0.11501126  1
  O  O22  1  0.50269439  0.83317005  0.61501126  1
  O  O23  1  0.00269439  0.33317005  0.88498874  1
  O  O24  1  0.98033830  0.14966980  0.37541937  1
  O  O25  1  0.48033830  0.64966980  0.12458063  1
  O  O26  1  0.01966170  0.85033020  0.62458063  1
  O  O27  1  0.51966170  0.35033020  0.87541937  1
  O  O28  1  0.25901621  0.91685774  0.32098700  1
  O  O29  1  0.75901621  0.41685774  0.17901300  1
  O  O30  1  0.74098379  0.08314226  0.67901300  1
  O  O31  1  0.24098379  0.58314226  0.82098700  1
  O  O32  1  0.95820134  0.68148227  0.49041146  1
  O  O33  1  0.45820134  0.18148227  0.00958854  1
  O  O34  1  0.04179866  0.31851773  0.50958854  1
  O  O35  1  0.54179866  0.81851773  0.99041146  1
  O  O36  1  0.44985562  0.66654286  0.46698904  1
  O  O37  1  0.94985562  0.16654286  0.03301096  1
  O  O38  1  0.55014438  0.33345714  0.53301096  1
  O  O39  1  0.05014438  0.83345714  0.96698904  1
  O  O40  1  0.75461752  0.43831293  0.39287067  1
  O  O41  1  0.25461752  0.93831293  0.10712933  1
  O  O42  1  0.24538248  0.56168707  0.60712933  1
  O  O43  1  0.74538248  0.06168707  0.89287067  1
  O  O44  1  0.75558594  0.73600879  0.34390809  1
  O  O45  1  0.25558594  0.23600879  0.15609191  1
  O  O46  1  0.24441406  0.26399121  0.65609191  1
  O  O47  1  0.74441406  0.76399121  0.84390809  1
