# generated using pymatgen
data_K2Mn3H6S3O16
_symmetry_space_group_name_H-M   'P 1'
_cell_length_a   7.89487825
_cell_length_b   10.01758158
_cell_length_c   10.13798035
_cell_angle_alpha   90.00000000
_cell_angle_beta   90.00000000
_cell_angle_gamma   113.20680722
_symmetry_Int_Tables_number   1
_chemical_formula_structural   K2Mn3H6S3O16
_chemical_formula_sum   'K4 Mn6 H12 S6 O32'
_cell_volume   736.91452332
_cell_formula_units_Z   2
loop_
 _symmetry_equiv_pos_site_id
 _symmetry_equiv_pos_as_xyz
  1  'x, y, z'
loop_
 _atom_site_type_symbol
 _atom_site_label
 _atom_site_symmetry_multiplicity
 _atom_site_fract_x
 _atom_site_fract_y
 _atom_site_fract_z
 _atom_site_occupancy
  K  K0  1  0.14869048  0.38717066  0.21371212  1
  K  K1  1  0.76151982  0.61282934  0.21371212  1
  K  K2  1  0.85130952  0.61282934  0.71371212  1
  K  K3  1  0.23848018  0.38717066  0.71371212  1
  Mn  Mn4  1  0.61733728  0.17619883  0.76254202  1
  Mn  Mn5  1  0.44113845  0.82380117  0.76254202  1
  Mn  Mn6  1  0.38266272  0.82380117  0.26254202  1
  Mn  Mn7  1  0.55886155  0.17619883  0.26254202  1
  Mn  Mn8  1  0.19717733  0.00000000  0.98287469  1
  Mn  Mn9  1  0.80282267  0.00000000  0.48287469  1
  H  H10  1  0.52403249  0.00000000  0.97767430  1
  H  H11  1  0.47596751  0.00000000  0.47767430  1
  H  H12  1  0.79237515  0.00000000  0.73441938  1
  H  H13  1  0.20762485  0.00000000  0.23441938  1
  H  H14  1  0.27644226  0.19009634  0.42402542  1
  H  H15  1  0.08634592  0.80990366  0.42402542  1
  H  H16  1  0.72355774  0.80990366  0.92402542  1
  H  H17  1  0.91365408  0.19009634  0.92402542  1
  H  H18  1  0.43439734  0.34698722  0.42386681  1
  H  H19  1  0.08741012  0.65301278  0.42386681  1
  H  H20  1  0.56560266  0.65301278  0.92386681  1
  H  H21  1  0.91258988  0.34698722  0.92386681  1
  S  S22  1  0.48134274  0.35433025  0.99386680  1
  S  S23  1  0.12701249  0.64566975  0.99386680  1
  S  S24  1  0.51865726  0.64566975  0.49386680  1
  S  S25  1  0.87298751  0.35433025  0.49386680  1
  S  S26  1  0.18089167  0.00000000  0.65609732  1
  S  S27  1  0.81910833  0.00000000  0.15609732  1
  O  O28  1  0.45142035  0.00000000  0.89977499  1
  O  O29  1  0.54857965  0.00000000  0.39977499  1
  O  O30  1  0.68874848  0.00000000  0.68141126  1
  O  O31  1  0.31125152  0.00000000  0.18141126  1
  O  O32  1  0.89631303  0.26177350  0.86582421  1
  O  O33  1  0.63453953  0.73822650  0.86582421  1
  O  O34  1  0.10368697  0.73822650  0.36582421  1
  O  O35  1  0.36546047  0.26177350  0.36582421  1
  O  O36  1  0.58828798  0.32418575  0.10232566  1
  O  O37  1  0.26410223  0.67581425  0.10232566  1
  O  O38  1  0.41171202  0.67581425  0.60232566  1
  O  O39  1  0.73589777  0.32418575  0.60232566  1
  O  O40  1  0.57098636  0.35502035  0.86330334  1
  O  O41  1  0.21596601  0.64497965  0.86330334  1
  O  O42  1  0.42901364  0.64497965  0.36330334  1
  O  O43  1  0.78403399  0.35502035  0.36330334  1
  O  O44  1  0.47501043  0.49850967  0.01688461  1
  O  O45  1  0.97650077  0.50149033  0.01688461  1
  O  O46  1  0.52498957  0.50149033  0.51688461  1
  O  O47  1  0.02349923  0.49850967  0.51688461  1
  O  O48  1  0.28785294  0.24147702  0.99191302  1
  O  O49  1  0.04637592  0.75852298  0.99191302  1
  O  O50  1  0.71214706  0.75852298  0.49191302  1
  O  O51  1  0.95362408  0.24147702  0.49191302  1
  O  O52  1  0.22250759  0.86709876  0.65259477  1
  O  O53  1  0.35540883  0.13290124  0.65259477  1
  O  O54  1  0.77749241  0.13290124  0.15259477  1
  O  O55  1  0.64459117  0.86709876  0.15259477  1
  O  O56  1  0.07218617  0.00000000  0.77662988  1
  O  O57  1  0.92781383  0.00000000  0.27662988  1
  O  O58  1  0.07359041  0.00000000  0.53451057  1
  O  O59  1  0.92640959  0.00000000  0.03451057  1
