# generated using pymatgen
data_CdAg2GeS4
_symmetry_space_group_name_H-M   'P 1'
_cell_length_a   6.68799775
_cell_length_b   8.15296881
_cell_length_c   13.95563121
_cell_angle_alpha   90.00000000
_cell_angle_beta   90.00000000
_cell_angle_gamma   90.00000000
_symmetry_Int_Tables_number   1
_chemical_formula_structural   CdAg2GeS4
_chemical_formula_sum   'Cd4 Ag8 Ge4 S16'
_cell_volume   760.95922014
_cell_formula_units_Z   4
loop_
 _symmetry_equiv_pos_site_id
 _symmetry_equiv_pos_as_xyz
  1  'x, y, z'
loop_
 _atom_site_type_symbol
 _atom_site_label
 _atom_site_symmetry_multiplicity
 _atom_site_fract_x
 _atom_site_fract_y
 _atom_site_fract_z
 _atom_site_occupancy
  Cd  Cd0  1  0.79511627  0.01330369  0.84221396  1
  Cd  Cd1  1  0.29511627  0.98669631  0.15778604  1
  Cd  Cd2  1  0.29511627  0.51330369  0.65778604  1
  Cd  Cd3  1  0.79511627  0.48669631  0.34221396  1
  Ag  Ag4  1  0.28356261  0.26165034  0.92455108  1
  Ag  Ag5  1  0.78356261  0.73834966  0.07544892  1
  Ag  Ag6  1  0.78356261  0.76165034  0.57544892  1
  Ag  Ag7  1  0.28356261  0.23834966  0.42455108  1
  Ag  Ag8  1  0.80216552  0.50079052  0.84104806  1
  Ag  Ag9  1  0.30216552  0.49920948  0.15895194  1
  Ag  Ag10  1  0.30216552  0.00079052  0.65895194  1
  Ag  Ag11  1  0.80216552  0.99920948  0.34104806  1
  Ge  Ge12  1  0.78854133  0.24095814  0.09074867  1
  Ge  Ge13  1  0.28854133  0.75904186  0.90925133  1
  Ge  Ge14  1  0.28854133  0.74095814  0.40925133  1
  Ge  Ge15  1  0.78854133  0.25904186  0.59074867  1
  S  S16  1  0.67074503  0.25821710  0.93978937  1
  S  S17  1  0.17074503  0.74178290  0.06021063  1
  S  S18  1  0.17074503  0.75821710  0.56021063  1
  S  S19  1  0.67074503  0.24178290  0.43978937  1
  S  S20  1  0.67897513  0.01172528  0.16432805  1
  S  S21  1  0.17897513  0.98827472  0.83567195  1
  S  S22  1  0.17897513  0.51172528  0.33567195  1
  S  S23  1  0.67897513  0.48827472  0.66432805  1
  S  S24  1  0.12544771  0.24432683  0.09256777  1
  S  S25  1  0.62544771  0.75567317  0.90743223  1
  S  S26  1  0.62544771  0.74432683  0.40743223  1
  S  S27  1  0.12544771  0.25567317  0.59256777  1
  S  S28  1  0.68133641  0.47141344  0.16524657  1
  S  S29  1  0.18133641  0.52858656  0.83475343  1
  S  S30  1  0.18133641  0.97141344  0.33475343  1
  S  S31  1  0.68133641  0.02858656  0.66524657  1
