# generated using pymatgen
data_Np3Se5
_symmetry_space_group_name_H-M   'P 1'
_cell_length_a   7.65274963
_cell_length_b   8.29523724
_cell_length_c   12.08087711
_cell_angle_alpha   90.00000000
_cell_angle_beta   90.00000000
_cell_angle_gamma   90.00000000
_symmetry_Int_Tables_number   1
_chemical_formula_structural   Np3Se5
_chemical_formula_sum   'Np12 Se20'
_cell_volume   766.91067468
_cell_formula_units_Z   4
loop_
 _symmetry_equiv_pos_site_id
 _symmetry_equiv_pos_as_xyz
  1  'x, y, z'
loop_
 _atom_site_type_symbol
 _atom_site_label
 _atom_site_symmetry_multiplicity
 _atom_site_fract_x
 _atom_site_fract_y
 _atom_site_fract_z
 _atom_site_occupancy
  Np  Np0  1  0.52360283  0.00239184  0.17924006  1
  Np  Np1  1  0.97639717  0.49760816  0.67924006  1
  Np  Np2  1  0.47639717  0.50239184  0.82075994  1
  Np  Np3  1  0.02360283  0.99760816  0.32075994  1
  Np  Np4  1  0.47639717  0.99760816  0.82075994  1
  Np  Np5  1  0.02360283  0.50239184  0.32075994  1
  Np  Np6  1  0.52360283  0.49760816  0.17924006  1
  Np  Np7  1  0.97639717  0.00239184  0.67924006  1
  Np  Np8  1  0.57688202  0.75000000  0.49219577  1
  Np  Np9  1  0.92311798  0.75000000  0.99219577  1
  Np  Np10  1  0.42311798  0.25000000  0.50780423  1
  Np  Np11  1  0.07688202  0.25000000  0.00780423  1
  Se  Se12  1  0.67053473  0.45180087  0.40327676  1
  Se  Se13  1  0.82946527  0.04819913  0.90327676  1
  Se  Se14  1  0.32946527  0.95180087  0.59672324  1
  Se  Se15  1  0.17053473  0.54819913  0.09672324  1
  Se  Se16  1  0.32946527  0.54819913  0.59672324  1
  Se  Se17  1  0.17053473  0.95180087  0.09672324  1
  Se  Se18  1  0.67053473  0.04819913  0.40327676  1
  Se  Se19  1  0.82946527  0.45180087  0.90327676  1
  Se  Se20  1  0.96308111  0.75000000  0.50128940  1
  Se  Se21  1  0.53691889  0.75000000  0.00128940  1
  Se  Se22  1  0.03691889  0.25000000  0.49871060  1
  Se  Se23  1  0.46308111  0.25000000  0.99871060  1
  Se  Se24  1  0.33009325  0.75000000  0.31148237  1
  Se  Se25  1  0.16990675  0.75000000  0.81148237  1
  Se  Se26  1  0.66990675  0.25000000  0.68851763  1
  Se  Se27  1  0.83009325  0.25000000  0.18851763  1
  Se  Se28  1  0.80115794  0.75000000  0.21808161  1
  Se  Se29  1  0.69884206  0.75000000  0.71808161  1
  Se  Se30  1  0.19884206  0.25000000  0.78191839  1
  Se  Se31  1  0.30115794  0.25000000  0.28191839  1
