# generated using pymatgen
data_Tm2B6Ru
_symmetry_space_group_name_H-M   'P 1'
_cell_length_a   3.62158083
_cell_length_b   9.06457579
_cell_length_c   11.43116655
_cell_angle_alpha   90.00000000
_cell_angle_beta   90.00000000
_cell_angle_gamma   90.00000000
_symmetry_Int_Tables_number   1
_chemical_formula_structural   Tm2B6Ru
_chemical_formula_sum   'Tm8 B24 Ru4'
_cell_volume   375.26340904
_cell_formula_units_Z   4
loop_
 _symmetry_equiv_pos_site_id
 _symmetry_equiv_pos_as_xyz
  1  'x, y, z'
loop_
 _atom_site_type_symbol
 _atom_site_label
 _atom_site_symmetry_multiplicity
 _atom_site_fract_x
 _atom_site_fract_y
 _atom_site_fract_z
 _atom_site_occupancy
  Tm  Tm0  1  -0.00000000  0.32157929  0.41419946  1
  Tm  Tm1  1  0.00000000  0.67842071  0.58580054  1
  Tm  Tm2  1  0.00000000  0.82157929  0.08580054  1
  Tm  Tm3  1  0.00000000  0.17842071  0.91419946  1
  Tm  Tm4  1  0.00000000  0.94436871  0.37282711  1
  Tm  Tm5  1  -0.00000000  0.05563129  0.62717289  1
  Tm  Tm6  1  -0.00000000  0.44436871  0.12717289  1
  Tm  Tm7  1  -0.00000000  0.55563129  0.87282711  1
  B  B8  1  0.50000000  0.55398531  0.43346109  1
  B  B9  1  0.50000000  0.44601469  0.56653891  1
  B  B10  1  0.50000000  0.05398531  0.06653891  1
  B  B11  1  0.50000000  0.94601469  0.93346109  1
  B  B12  1  0.50000000  0.74920127  0.42037443  1
  B  B13  1  0.50000000  0.25079873  0.57962557  1
  B  B14  1  0.50000000  0.24920127  0.07962557  1
  B  B15  1  0.50000000  0.75079873  0.92037443  1
  B  B16  1  0.50000000  0.79210993  0.26605194  1
  B  B17  1  0.50000000  0.20789007  0.73394806  1
  B  B18  1  0.50000000  0.29210993  0.23394806  1
  B  B19  1  0.50000000  0.70789007  0.76605194  1
  B  B20  1  0.50000000  0.63207746  0.18460698  1
  B  B21  1  0.50000000  0.36792254  0.81539302  1
  B  B22  1  0.50000000  0.13207746  0.31539302  1
  B  B23  1  0.50000000  0.86792254  0.68460698  1
  B  B24  1  0.50000000  0.98322381  0.21292482  1
  B  B25  1  0.50000000  0.01677619  0.78707518  1
  B  B26  1  0.50000000  0.48322381  0.28707518  1
  B  B27  1  0.50000000  0.51677619  0.71292482  1
  B  B28  1  0.50000000  0.60855106  0.02979159  1
  B  B29  1  0.50000000  0.39144894  0.97020841  1
  B  B30  1  0.50000000  0.10855106  0.47020841  1
  B  B31  1  0.50000000  0.89144894  0.52979159  1
  Ru  Ru32  1  0.00000000  0.63848260  0.32088888  1
  Ru  Ru33  1  -0.00000000  0.36151740  0.67911112  1
  Ru  Ru34  1  0.00000000  0.13848260  0.17911112  1
  Ru  Ru35  1  -0.00000000  0.86151740  0.82088888  1
