# generated using pymatgen
data_La4(DyS2)11
_symmetry_space_group_name_H-M   'P 1'
_cell_length_a   3.98942558
_cell_length_b   11.42776116
_cell_length_c   19.82978422
_cell_angle_alpha   91.66643064
_cell_angle_beta   95.77324590
_cell_angle_gamma   90.00000000
_symmetry_Int_Tables_number   1
_chemical_formula_structural   La4(DyS2)11
_chemical_formula_sum   'La4 Dy11 S22'
_cell_volume   899.07408256
_cell_formula_units_Z   1
loop_
 _symmetry_equiv_pos_site_id
 _symmetry_equiv_pos_as_xyz
  1  'x, y, z'
loop_
 _atom_site_type_symbol
 _atom_site_label
 _atom_site_symmetry_multiplicity
 _atom_site_fract_x
 _atom_site_fract_y
 _atom_site_fract_z
 _atom_site_occupancy
  La  La0  1  0.10429082  0.01151957  0.20858165  1
  La  La1  1  0.89570918  0.98848043  0.79141835  1
  La  La2  1  0.36716195  0.34692630  0.73432390  1
  La  La3  1  0.63283805  0.65307370  0.26567610  1
  Dy  Dy4  1  0.79769536  0.05764290  0.59539072  1
  Dy  Dy5  1  0.20230464  0.94235710  0.40460928  1
  Dy  Dy6  1  0.46214710  0.27106136  0.92429420  1
  Dy  Dy7  1  0.53785290  0.72893864  0.07570580  1
  Dy  Dy8  1  0.65776505  0.30104931  0.31553009  1
  Dy  Dy9  1  0.34223495  0.69895069  0.68446991  1
  Dy  Dy10  1  0.26373967  0.35165599  0.52747933  1
  Dy  Dy11  1  0.73626033  0.64834401  0.47252067  1
  Dy  Dy12  1  0.06936422  0.36047801  0.13872844  1
  Dy  Dy13  1  0.93063578  0.63952199  0.86127156  1
  Dy  Dy14  1  0.00000000  -0.00000000  -0.00000000  1
  S  S15  1  0.08727317  0.75171305  0.17454635  1
  S  S16  1  0.91272683  0.24828695  0.82545365  1
  S  S17  1  0.18899547  0.69147917  0.37799095  1
  S  S18  1  0.81100453  0.30852083  0.62200905  1
  S  S19  1  0.27992431  0.59020102  0.55984863  1
  S  S20  1  0.72007569  0.40979898  0.44015137  1
  S  S21  1  0.44535929  0.49518124  0.89071859  1
  S  S22  1  0.55464071  0.50481876  0.10928141  1
  S  S23  1  0.13463231  0.45303897  0.26926462  1
  S  S24  1  0.86536769  0.54696103  0.73073538  1
  S  S25  1  0.59277103  0.21246185  0.18554206  1
  S  S26  1  0.40722897  0.78753815  0.81445794  1
  S  S27  1  0.45330028  0.03080871  0.90660055  1
  S  S28  1  0.54669972  0.96919129  0.09339945  1
  S  S29  1  0.35034175  0.09122155  0.70068350  1
  S  S30  1  0.64965825  0.90877845  0.29931650  1
  S  S31  1  0.16838132  0.15174659  0.33676264  1
  S  S32  1  0.83161868  0.84825341  0.66323736  1
  S  S33  1  0.00772166  0.23889700  0.01544332  1
  S  S34  1  0.99227834  0.76110300  0.98455668  1
  S  S35  1  0.25539210  0.11853789  0.51078420  1
  S  S36  1  0.74460790  0.88146211  0.48921580  1
