# generated using pymatgen
data_PrMoClO4
_symmetry_space_group_name_H-M   'P 1'
_cell_length_a   5.90784904
_cell_length_b   7.95905969
_cell_length_c   19.32876449
_cell_angle_alpha   90.08229691
_cell_angle_beta   90.00000000
_cell_angle_gamma   90.00000000
_symmetry_Int_Tables_number   1
_chemical_formula_structural   PrMoClO4
_chemical_formula_sum   'Pr8 Mo8 Cl8 O32'
_cell_volume   908.85541184
_cell_formula_units_Z   8
loop_
 _symmetry_equiv_pos_site_id
 _symmetry_equiv_pos_as_xyz
  1  'x, y, z'
loop_
 _atom_site_type_symbol
 _atom_site_label
 _atom_site_symmetry_multiplicity
 _atom_site_fract_x
 _atom_site_fract_y
 _atom_site_fract_z
 _atom_site_occupancy
  Pr  Pr0  1  0.30446044  0.62676809  0.10455242  1
  Pr  Pr1  1  0.80446044  0.87323191  0.89544758  1
  Pr  Pr2  1  0.69553956  0.37323191  0.89544758  1
  Pr  Pr3  1  0.19553956  0.12676809  0.10455242  1
  Pr  Pr4  1  0.30337139  0.62229371  0.60444815  1
  Pr  Pr5  1  0.80337139  0.87770629  0.39555185  1
  Pr  Pr6  1  0.69662861  0.37770629  0.39555185  1
  Pr  Pr7  1  0.19662861  0.12229371  0.60444815  1
  Mo  Mo8  1  0.25206996  0.59187342  0.82171634  1
  Mo  Mo9  1  0.75206996  0.90812658  0.17828366  1
  Mo  Mo10  1  0.74793004  0.40812658  0.17828366  1
  Mo  Mo11  1  0.24793004  0.09187342  0.82171634  1
  Mo  Mo12  1  0.24418225  0.65714973  0.32192832  1
  Mo  Mo13  1  0.74418225  0.84285027  0.67807168  1
  Mo  Mo14  1  0.75581775  0.34285027  0.67807168  1
  Mo  Mo15  1  0.25581775  0.15714973  0.32192832  1
  Cl  Cl16  1  0.23539688  0.87483450  0.98976906  1
  Cl  Cl17  1  0.73539688  0.62516550  0.01023094  1
  Cl  Cl18  1  0.76460312  0.12516550  0.01023094  1
  Cl  Cl19  1  0.26460312  0.37483450  0.98976906  1
  Cl  Cl20  1  0.23681967  0.87283767  0.48964241  1
  Cl  Cl21  1  0.73681967  0.62716233  0.51035759  1
  Cl  Cl22  1  0.76318033  0.12716233  0.51035759  1
  Cl  Cl23  1  0.26318033  0.37283767  0.48964241  1
  O  O24  1  0.23494409  0.62395234  0.73130643  1
  O  O25  1  0.73494409  0.87604766  0.26869357  1
  O  O26  1  0.76505591  0.37604766  0.26869357  1
  O  O27  1  0.26505591  0.12395234  0.73130643  1
  O  O28  1  0.18048206  0.86963521  0.82873507  1
  O  O29  1  0.68048206  0.63036479  0.17126493  1
  O  O30  1  0.81951794  0.13036479  0.17126493  1
  O  O31  1  0.31951794  0.36963521  0.82873507  1
  O  O32  1  0.01420084  0.84297348  0.13494989  1
  O  O33  1  0.51420084  0.65702652  0.86505011  1
  O  O34  1  0.98579916  0.15702652  0.86505011  1
  O  O35  1  0.48579916  0.34297348  0.13494989  1
  O  O36  1  0.47890729  0.90423656  0.13227919  1
  O  O37  1  0.97890729  0.59576344  0.86772081  1
  O  O38  1  0.52109271  0.09576344  0.86772081  1
  O  O39  1  0.02109271  0.40423656  0.13227919  1
  O  O40  1  0.24154149  0.62161339  0.23152848  1
  O  O41  1  0.74154149  0.87838661  0.76847152  1
  O  O42  1  0.75845851  0.37838661  0.76847152  1
  O  O43  1  0.25845851  0.12161339  0.23152848  1
  O  O44  1  0.17937245  0.87991048  0.32854559  1
  O  O45  1  0.67937245  0.62008952  0.67145441  1
  O  O46  1  0.82062755  0.12008952  0.67145441  1
  O  O47  1  0.32062755  0.37991048  0.32854559  1
  O  O48  1  0.02159413  0.84550960  0.63479121  1
  O  O49  1  0.52159413  0.65449040  0.36520879  1
  O  O50  1  0.97840587  0.15449040  0.36520879  1
  O  O51  1  0.47840587  0.34550960  0.63479121  1
  O  O52  1  0.48629272  0.90613383  0.63188392  1
  O  O53  1  0.98629272  0.59386617  0.36811608  1
  O  O54  1  0.51370728  0.09386617  0.36811608  1
  O  O55  1  0.01370728  0.40613383  0.63188392  1
