# generated using pymatgen
data_MnPb(SO4)2
_symmetry_space_group_name_H-M   'P 1'
_cell_length_a   6.85879023
_cell_length_b   6.85879023
_cell_length_c   13.98894360
_cell_angle_alpha   90.00000000
_cell_angle_beta   90.00000000
_cell_angle_gamma   90.00000000
_symmetry_Int_Tables_number   1
_chemical_formula_structural   MnPb(SO4)2
_chemical_formula_sum   'Mn4 Pb4 S8 O32'
_cell_volume   658.08192161
_cell_formula_units_Z   4
loop_
 _symmetry_equiv_pos_site_id
 _symmetry_equiv_pos_as_xyz
  1  'x, y, z'
loop_
 _atom_site_type_symbol
 _atom_site_label
 _atom_site_symmetry_multiplicity
 _atom_site_fract_x
 _atom_site_fract_y
 _atom_site_fract_z
 _atom_site_occupancy
  Mn  Mn0  1  0.33363725  0.66636275  0.25000000  1
  Mn  Mn1  1  0.66636275  0.33363725  0.75000000  1
  Mn  Mn2  1  0.16636275  0.16636275  0.50000000  1
  Mn  Mn3  1  0.83363725  0.83363725  -0.00000000  1
  Pb  Pb4  1  0.75029610  0.24970390  0.25000000  1
  Pb  Pb5  1  0.24970390  0.75029610  0.75000000  1
  Pb  Pb6  1  0.74970390  0.74970390  0.50000000  1
  Pb  Pb7  1  0.25029610  0.25029610  -0.00000000  1
  S  S8  1  0.67377926  0.25339292  0.50708526  1
  S  S9  1  0.32622074  0.74660708  0.00708526  1
  S  S10  1  0.75339292  0.82622074  0.75708526  1
  S  S11  1  0.24660708  0.17377926  0.25708526  1
  S  S12  1  0.74660708  0.32622074  0.99291474  1
  S  S13  1  0.25339292  0.67377926  0.49291474  1
  S  S14  1  0.82622074  0.75339292  0.24291474  1
  S  S15  1  0.17377926  0.24660708  0.74291474  1
  O  O16  1  0.83979564  0.11083703  0.51289340  1
  O  O17  1  0.16020436  0.88916297  0.01289340  1
  O  O18  1  0.61083703  0.66020436  0.76289340  1
  O  O19  1  0.38916297  0.33979564  0.26289340  1
  O  O20  1  0.88916297  0.16020436  0.98710660  1
  O  O21  1  0.11083703  0.83979564  0.48710660  1
  O  O22  1  0.66020436  0.61083703  0.23710660  1
  O  O23  1  0.33979564  0.38916297  0.73710660  1
  O  O24  1  0.67082787  0.37597880  0.59487564  1
  O  O25  1  0.32917213  0.62402120  0.09487564  1
  O  O26  1  0.87597880  0.82917213  0.84487564  1
  O  O27  1  0.12402120  0.17082787  0.34487564  1
  O  O28  1  0.62402120  0.32917213  0.90512436  1
  O  O29  1  0.37597880  0.67082787  0.40512436  1
  O  O30  1  0.82917213  0.87597880  0.15512436  1
  O  O31  1  0.17082787  0.12402120  0.65512436  1
  O  O32  1  0.49089105  0.13975798  0.49559860  1
  O  O33  1  0.50910895  0.86024202  0.99559860  1
  O  O34  1  0.63975798  0.00910895  0.74559860  1
  O  O35  1  0.36024202  0.99089105  0.24559860  1
  O  O36  1  0.86024202  0.50910895  0.00440140  1
  O  O37  1  0.13975798  0.49089105  0.50440140  1
  O  O38  1  0.00910895  0.63975798  0.25440140  1
  O  O39  1  0.99089105  0.36024202  0.75440140  1
  O  O40  1  0.70746658  0.38453357  0.42371404  1
  O  O41  1  0.29253342  0.61546643  0.92371404  1
  O  O42  1  0.88453357  0.79253342  0.67371404  1
  O  O43  1  0.11546643  0.20746658  0.17371404  1
  O  O44  1  0.61546643  0.29253342  0.07628596  1
  O  O45  1  0.38453357  0.70746658  0.57628596  1
  O  O46  1  0.79253342  0.88453357  0.32628596  1
  O  O47  1  0.20746658  0.11546643  0.82628596  1
