# generated using pymatgen
data_LuCo5P3
_symmetry_space_group_name_H-M   'P 1'
_cell_length_a   3.61187723
_cell_length_b   10.22218562
_cell_length_c   11.66397534
_cell_angle_alpha   90.00000000
_cell_angle_beta   90.00000000
_cell_angle_gamma   90.00000000
_symmetry_Int_Tables_number   1
_chemical_formula_structural   LuCo5P3
_chemical_formula_sum   'Lu4 Co20 P12'
_cell_volume   430.64889340
_cell_formula_units_Z   4
loop_
 _symmetry_equiv_pos_site_id
 _symmetry_equiv_pos_as_xyz
  1  'x, y, z'
loop_
 _atom_site_type_symbol
 _atom_site_label
 _atom_site_symmetry_multiplicity
 _atom_site_fract_x
 _atom_site_fract_y
 _atom_site_fract_z
 _atom_site_occupancy
  Lu  Lu0  1  0.25000000  0.58283654  0.70332188  1
  Lu  Lu1  1  0.25000000  0.91716346  0.20332188  1
  Lu  Lu2  1  0.75000000  0.41716346  0.29667812  1
  Lu  Lu3  1  0.75000000  0.08283654  0.79667812  1
  Co  Co4  1  0.25000000  0.71624436  0.98988416  1
  Co  Co5  1  0.25000000  0.78375564  0.48988416  1
  Co  Co6  1  0.75000000  0.28375564  0.01011584  1
  Co  Co7  1  0.75000000  0.21624436  0.51011584  1
  Co  Co8  1  0.25000000  0.40693126  0.48668405  1
  Co  Co9  1  0.25000000  0.09306874  0.98668405  1
  Co  Co10  1  0.75000000  0.59306874  0.51331595  1
  Co  Co11  1  0.75000000  0.90693126  0.01331595  1
  Co  Co12  1  0.25000000  0.22085965  0.17648128  1
  Co  Co13  1  0.25000000  0.27914035  0.67648128  1
  Co  Co14  1  0.75000000  0.77914035  0.82351872  1
  Co  Co15  1  0.75000000  0.72085965  0.32351872  1
  Co  Co16  1  0.25000000  0.88286631  0.69859416  1
  Co  Co17  1  0.25000000  0.61713369  0.19859416  1
  Co  Co18  1  0.75000000  0.11713369  0.30140584  1
  Co  Co19  1  0.75000000  0.38286631  0.80140584  1
  Co  Co20  1  0.25000000  0.46704767  0.93137684  1
  Co  Co21  1  0.25000000  0.03295233  0.43137684  1
  Co  Co22  1  0.75000000  0.53295233  0.06862316  1
  Co  Co23  1  0.75000000  0.96704767  0.56862316  1
  P  P24  1  0.25000000  0.41815219  0.11297949  1
  P  P25  1  0.25000000  0.08184781  0.61297949  1
  P  P26  1  0.75000000  0.58184781  0.88702051  1
  P  P27  1  0.75000000  0.91815219  0.38702051  1
  P  P28  1  0.25000000  0.26890601  0.86967168  1
  P  P29  1  0.25000000  0.23109399  0.36967168  1
  P  P30  1  0.75000000  0.73109399  0.13032832  1
  P  P31  1  0.75000000  0.76890601  0.63032832  1
  P  P32  1  0.25000000  0.60032052  0.39040671  1
  P  P33  1  0.25000000  0.89967948  0.89040671  1
  P  P34  1  0.75000000  0.39967948  0.60959329  1
  P  P35  1  0.75000000  0.10032052  0.10959329  1
