# generated using pymatgen
data_B3Pd16
_symmetry_space_group_name_H-M   'P 1'
_cell_length_a   8.17657079
_cell_length_b   9.15363159
_cell_length_c   9.10412105
_cell_angle_alpha   113.28553785
_cell_angle_beta   90.00000000
_cell_angle_gamma   116.52766542
_symmetry_Int_Tables_number   1
_chemical_formula_structural   B3Pd16
_chemical_formula_sum   'B6 Pd32'
_cell_volume   546.92714897
_cell_formula_units_Z   2
loop_
 _symmetry_equiv_pos_site_id
 _symmetry_equiv_pos_as_xyz
  1  'x, y, z'
loop_
 _atom_site_type_symbol
 _atom_site_label
 _atom_site_symmetry_multiplicity
 _atom_site_fract_x
 _atom_site_fract_y
 _atom_site_fract_z
 _atom_site_occupancy
  B  B0  1  0.62492035  -0.00000000  0.75000000  1
  B  B1  1  0.37507965  -0.00000000  0.25000000  1
  B  B2  1  0.93534274  0.62975214  0.50044423  1
  B  B3  1  0.69440939  0.62975214  0.00044423  1
  B  B4  1  0.06465726  0.37024786  0.49955577  1
  B  B5  1  0.30559061  0.37024786  0.99955577  1
  Pd  Pd6  1  0.37049731  -0.00000000  0.75000000  1
  Pd  Pd7  1  0.62950269  -0.00000000  0.25000000  1
  Pd  Pd8  1  0.87957296  -0.00000000  0.75000000  1
  Pd  Pd9  1  0.12042704  -0.00000000  0.25000000  1
  Pd  Pd10  1  0.06500742  0.88126706  0.49994815  1
  Pd  Pd11  1  0.81625964  0.88126706  -0.00005185  1
  Pd  Pd12  1  0.93499258  0.11873294  0.50005185  1
  Pd  Pd13  1  0.18374036  0.11873294  0.00005185  1
  Pd  Pd14  1  0.56230972  0.87240548  0.49435464  1
  Pd  Pd15  1  0.31009576  0.87240548  0.99435464  1
  Pd  Pd16  1  0.43769028  0.12759452  0.50564536  1
  Pd  Pd17  1  0.68990424  0.12759452  0.00564536  1
  Pd  Pd18  1  0.00166431  0.75353116  0.75512989  1
  Pd  Pd19  1  0.75186685  0.75353116  0.25512989  1
  Pd  Pd20  1  0.99833569  0.24646884  0.24487011  1
  Pd  Pd21  1  0.24813315  0.24646884  0.74487011  1
  Pd  Pd22  1  0.49855190  0.74588573  0.74984436  1
  Pd  Pd23  1  0.24733383  0.74588573  0.24984436  1
  Pd  Pd24  1  0.50144810  0.25411427  0.25015564  1
  Pd  Pd25  1  0.75266617  0.25411427  0.75015564  1
  Pd  Pd26  1  0.19453701  0.62944770  0.50001958  1
  Pd  Pd27  1  0.43491069  0.62944770  0.00001958  1
  Pd  Pd28  1  0.80546299  0.37055230  0.49998042  1
  Pd  Pd29  1  0.56508931  0.37055230  -0.00001958  1
  Pd  Pd30  1  0.68083729  0.62482469  0.49962530  1
  Pd  Pd31  1  0.94398740  0.62482469  0.99962530  1
  Pd  Pd32  1  0.31916271  0.37517531  0.50037470  1
  Pd  Pd33  1  0.05601260  0.37517531  0.00037470  1
  Pd  Pd34  1  0.87401259  0.49715252  0.24542950  1
  Pd  Pd35  1  0.62313993  0.49715252  0.74542950  1
  Pd  Pd36  1  0.12598741  0.50284748  0.75457050  1
  Pd  Pd37  1  0.37686007  0.50284748  0.25457050  1
