# generated using pymatgen
data_Ba2B2AsH3F18
_symmetry_space_group_name_H-M   'P 1'
_cell_length_a   7.01551387
_cell_length_b   7.01549933
_cell_length_c   17.89323264
_cell_angle_alpha   90.00000000
_cell_angle_beta   90.00000000
_cell_angle_gamma   119.99967354
_symmetry_Int_Tables_number   1
_chemical_formula_structural   Ba2B2AsH3F18
_chemical_formula_sum   'Ba4 B4 As2 H6 F36'
_cell_volume   762.67400513
_cell_formula_units_Z   2
loop_
 _symmetry_equiv_pos_site_id
 _symmetry_equiv_pos_as_xyz
  1  'x, y, z'
loop_
 _atom_site_type_symbol
 _atom_site_label
 _atom_site_symmetry_multiplicity
 _atom_site_fract_x
 _atom_site_fract_y
 _atom_site_fract_z
 _atom_site_occupancy
  Ba  Ba0  1  0.33331396  0.66667903  0.62326797  1
  Ba  Ba1  1  0.66668604  0.33332097  0.37673203  1
  Ba  Ba2  1  0.66668604  0.33332097  0.12326797  1
  Ba  Ba3  1  0.33331396  0.66667903  0.87673203  1
  B  B4  1  0.33332622  0.66667514  0.39104023  1
  B  B5  1  0.66667378  0.33332486  0.60895977  1
  B  B6  1  0.66667378  0.33332486  0.89104023  1
  B  B7  1  0.33332622  0.66667514  0.10895977  1
  As  As8  1  -0.00000000  -0.00000000  0.50000000  1
  As  As9  1  -0.00000000  -0.00000000  -0.00000000  1
  H  H10  1  0.11120890  0.22244220  0.75000000  1
  H  H11  1  0.11122896  0.88880024  0.75000000  1
  H  H12  1  0.77755746  0.88876266  0.75000000  1
  H  H13  1  0.88879110  0.77755780  0.25000000  1
  H  H14  1  0.88877104  0.11119976  0.25000000  1
  H  H15  1  0.22244254  0.11123734  0.25000000  1
  F  F16  1  0.19479897  0.38963264  0.75000000  1
  F  F17  1  0.19483010  0.80520392  0.75000000  1
  F  F18  1  0.61036914  0.80516788  0.75000000  1
  F  F19  1  0.80520103  0.61036736  0.25000000  1
  F  F20  1  0.80516990  0.19479608  0.25000000  1
  F  F21  1  0.38963086  0.19483212  0.25000000  1
  F  F22  1  0.55670055  0.44329670  0.63496214  1
  F  F23  1  0.88660743  0.44329649  0.63497602  1
  F  F24  1  0.55670484  0.11339112  0.63497613  1
  F  F25  1  0.44329945  0.55670330  0.36503786  1
  F  F26  1  0.11339257  0.55670351  0.36502398  1
  F  F27  1  0.44329516  0.88660888  0.36502387  1
  F  F28  1  0.44329945  0.55670330  0.13496214  1
  F  F29  1  0.11339257  0.55670351  0.13497602  1
  F  F30  1  0.44329516  0.88660888  0.13497613  1
  F  F31  1  0.55670055  0.44329670  0.86503786  1
  F  F32  1  0.88660743  0.44329649  0.86502398  1
  F  F33  1  0.55670484  0.11339112  0.86502387  1
  F  F34  1  0.23756950  0.11878363  0.44269644  1
  F  F35  1  0.88121635  0.76242989  0.44269623  1
  F  F36  1  0.88121570  0.11878445  0.44269422  1
  F  F37  1  0.76243050  0.88121637  0.55730356  1
  F  F38  1  0.11878365  0.23757011  0.55730377  1
  F  F39  1  0.11878430  0.88121555  0.55730578  1
  F  F40  1  0.76243050  0.88121637  0.94269644  1
  F  F41  1  0.11878365  0.23757011  0.94269623  1
  F  F42  1  0.11878430  0.88121555  0.94269422  1
  F  F43  1  0.23756950  0.11878363  0.05730356  1
  F  F44  1  0.88121635  0.76242989  0.05730377  1
  F  F45  1  0.88121570  0.11878445  0.05730578  1
  F  F46  1  0.99999384  0.00000321  0.25000000  1
  F  F47  1  0.00000616  0.99999679  0.75000000  1
  F  F48  1  0.33330645  0.66669423  0.47069008  1
  F  F49  1  0.66669355  0.33330577  0.52930992  1
  F  F50  1  0.66669355  0.33330577  0.97069008  1
  F  F51  1  0.33330645  0.66669423  0.02930992  1
