# generated using pymatgen
data_Mg2Be3P3H13O19
_symmetry_space_group_name_H-M   'P 1'
_cell_length_a   8.21686598
_cell_length_b   10.05417898
_cell_length_c   10.05406616
_cell_angle_alpha   119.99940600
_cell_angle_beta   90.00000000
_cell_angle_gamma   90.00000000
_symmetry_Int_Tables_number   1
_chemical_formula_structural   Mg2Be3P3H13O19
_chemical_formula_sum   'Mg4 Be6 P6 H26 O38'
_cell_volume   719.32935804
_cell_formula_units_Z   2
loop_
 _symmetry_equiv_pos_site_id
 _symmetry_equiv_pos_as_xyz
  1  'x, y, z'
loop_
 _atom_site_type_symbol
 _atom_site_label
 _atom_site_symmetry_multiplicity
 _atom_site_fract_x
 _atom_site_fract_y
 _atom_site_fract_z
 _atom_site_occupancy
  Mg  Mg0  1  0.45201063  0.33334563  0.66667086  1
  Mg  Mg1  1  0.95201063  0.66665437  0.33332914  1
  Mg  Mg2  1  0.09946977  0.33333901  0.66666834  1
  Mg  Mg3  1  0.59946977  0.66666099  0.33333166  1
  Be  Be4  1  0.92481837  0.80281780  0.88333725  1
  Be  Be5  1  0.92480839  0.11665836  0.91947033  1
  Be  Be6  1  0.92481351  0.08051369  0.19718743  1
  Be  Be7  1  0.42481837  0.19718220  0.11666275  1
  Be  Be8  1  0.42480839  0.88334164  0.08052967  1
  Be  Be9  1  0.42481351  0.91948631  0.80281257  1
  P  P10  1  0.25054084  0.68310899  0.81238920  1
  P  P11  1  0.25053956  0.18761518  0.87071605  1
  P  P12  1  0.25054014  0.12928612  0.31689754  1
  P  P13  1  0.75054084  0.31689101  0.18761080  1
  P  P14  1  0.75053956  0.81238482  0.12928395  1
  P  P15  1  0.75054014  0.87071388  0.68310246  1
  H  H16  1  0.09290299  0.00000091  0.00000299  1
  H  H17  1  0.59290299  0.99999909  0.99999701  1
  H  H18  1  0.61430155  0.60022665  0.72067368  1
  H  H19  1  0.61428893  0.27932856  0.87954634  1
  H  H20  1  0.61428708  0.12045619  0.39978329  1
  H  H21  1  0.11430155  0.39977335  0.27932632  1
  H  H22  1  0.11428893  0.72067144  0.12045366  1
  H  H23  1  0.11428708  0.87954381  0.60021671  1
  H  H24  1  0.72582735  0.45865832  0.62101944  1
  H  H25  1  0.72582634  0.37898457  0.83763943  1
  H  H26  1  0.72582325  0.16237020  0.54134762  1
  H  H27  1  0.22582735  0.54134168  0.37898056  1
  H  H28  1  0.22582634  0.62101543  0.16236057  1
  H  H29  1  0.22582325  0.83762980  0.45865238  1
  H  H30  1  0.93246634  0.54500338  0.92291766  1
  H  H31  1  0.93247177  0.07708618  0.62208755  1
  H  H32  1  0.93246668  0.37791788  0.45499810  1
  H  H33  1  0.43246634  0.45499662  0.07708234  1
  H  H34  1  0.43247177  0.92291382  0.37791245  1
  H  H35  1  0.43246668  0.62208212  0.54500190  1
  H  H36  1  0.98627995  0.39099542  0.92561559  1
  H  H37  1  0.98628379  0.07439063  0.46538325  1
  H  H38  1  0.98627700  0.53462230  0.60900504  1
  H  H39  1  0.48627995  0.60900458  0.07438441  1
  H  H40  1  0.48628379  0.92560937  0.53461675  1
  H  H41  1  0.48627700  0.46537770  0.39099496  1
  O  O42  1  0.27053070  0.78096980  0.98902394  1
  O  O43  1  0.27053360  0.01098681  0.79194128  1
  O  O44  1  0.27053112  0.20805198  0.21903324  1
  O  O45  1  0.77053070  0.21903020  0.01097606  1
  O  O46  1  0.77053360  0.98901319  0.20805872  1
  O  O47  1  0.77053112  0.79194802  0.78096676  1
  O  O48  1  0.07485048  0.70854112  0.77197042  1
  O  O49  1  0.07484635  0.22802747  0.93656060  1
  O  O50  1  0.07484995  0.06343282  0.29146775  1
  O  O51  1  0.57485048  0.29145888  0.22802958  1
  O  O52  1  0.57484635  0.77197253  0.06343940  1
  O  O53  1  0.57484995  0.93656718  0.70853225  1
  O  O54  1  0.37886154  0.73910564  0.73635204  1
  O  O55  1  0.37886104  0.26364898  0.00274668  1
  O  O56  1  0.37886397  0.99725790  0.26090615  1
  O  O57  1  0.87886154  0.26089436  0.26364796  1
  O  O58  1  0.87886104  0.73635102  0.99725332  1
  O  O59  1  0.87886397  0.00274210  0.73909385  1
  O  O60  1  0.27412536  0.51042691  0.75173260  1
  O  O61  1  0.27412466  0.24827940  0.75869090  1
  O  O62  1  0.27412651  0.24131224  0.48958312  1
  O  O63  1  0.77412536  0.48957309  0.24826740  1
  O  O64  1  0.77412466  0.75172060  0.24130910  1
  O  O65  1  0.77412651  0.75868776  0.51041688  1
  O  O66  1  0.61151683  0.48800609  0.65227269  1
  O  O67  1  0.61151596  0.34773429  0.83572760  1
  O  O68  1  0.61151218  0.16427645  0.51200784  1
  O  O69  1  0.11151683  0.51199391  0.34772731  1
  O  O70  1  0.11151596  0.65226571  0.16427240  1
  O  O71  1  0.11151218  0.83572355  0.48799216  1
  O  O72  1  0.94381961  0.14049053  0.57116603  1
  O  O73  1  0.94381732  0.42883972  0.56932369  1
  O  O74  1  0.94381696  0.43067830  0.85951452  1
  O  O75  1  0.44381961  0.85950947  0.42883397  1
  O  O76  1  0.44381732  0.57116028  0.43067631  1
  O  O77  1  0.44381696  0.56932170  0.14048548  1
  O  O78  1  0.97385166  0.99999714  0.00000003  1
  O  O79  1  0.47385166  0.00000286  -0.00000003  1
