# generated using pymatgen
data_Tb2(MoO4)3
_symmetry_space_group_name_H-M   'P 1'
_cell_length_a   7.48431492
_cell_length_b   7.48431492
_cell_length_c   10.75374799
_cell_angle_alpha   90.00000000
_cell_angle_beta   90.00000000
_cell_angle_gamma   90.00000000
_symmetry_Int_Tables_number   1
_chemical_formula_structural   Tb2(MoO4)3
_chemical_formula_sum   'Tb4 Mo6 O24'
_cell_volume   602.37086857
_cell_formula_units_Z   2
loop_
 _symmetry_equiv_pos_site_id
 _symmetry_equiv_pos_as_xyz
  1  'x, y, z'
loop_
 _atom_site_type_symbol
 _atom_site_label
 _atom_site_symmetry_multiplicity
 _atom_site_fract_x
 _atom_site_fract_y
 _atom_site_fract_z
 _atom_site_occupancy
  Tb  Tb0  1  0.81222323  0.18777677  0.73811431  1
  Tb  Tb1  1  0.18777677  0.81222323  0.73811431  1
  Tb  Tb2  1  0.31222323  0.31222323  0.26188569  1
  Tb  Tb3  1  0.68777677  0.68777677  0.26188569  1
  Mo  Mo4  1  0.79322618  0.20677382  0.35605158  1
  Mo  Mo5  1  0.20677382  0.79322618  0.35605158  1
  Mo  Mo6  1  0.29322618  0.29322618  0.64394842  1
  Mo  Mo7  1  0.70677382  0.70677382  0.64394842  1
  Mo  Mo8  1  -0.00000000  0.50000000  0.00000000  1
  Mo  Mo9  1  0.50000000  0.00000000  0.00000000  1
  O  O10  1  0.80564404  0.19435596  0.52104124  1
  O  O11  1  0.19435596  0.80564404  0.52104124  1
  O  O12  1  0.30564404  0.30564404  0.47895876  1
  O  O13  1  0.69435596  0.69435596  0.47895876  1
  O  O14  1  0.37361841  0.62638159  0.30916956  1
  O  O15  1  0.62638159  0.37361841  0.30916956  1
  O  O16  1  0.87361841  0.87361841  0.69083044  1
  O  O17  1  0.12638159  0.12638159  0.69083044  1
  O  O18  1  0.22628381  0.50567736  0.70274005  1
  O  O19  1  0.77371619  0.49432264  0.70274005  1
  O  O20  1  0.49432264  0.77371619  0.70274005  1
  O  O21  1  0.50567736  0.22628381  0.70274005  1
  O  O22  1  0.99432264  0.72628381  0.29725995  1
  O  O23  1  0.00567736  0.27371619  0.29725995  1
  O  O24  1  0.27371619  0.00567736  0.29725995  1
  O  O25  1  0.72628381  0.99432264  0.29725995  1
  O  O26  1  0.18879260  0.45405634  0.09712411  1
  O  O27  1  0.81120740  0.54594366  0.09712411  1
  O  O28  1  0.54594366  0.81120740  0.09712411  1
  O  O29  1  0.45405634  0.18879260  0.09712411  1
  O  O30  1  0.04594366  0.68879260  0.90287589  1
  O  O31  1  0.95405634  0.31120740  0.90287589  1
  O  O32  1  0.31120740  0.95405634  0.90287589  1
  O  O33  1  0.68879260  0.04594366  0.90287589  1
