# generated using pymatgen
data_CuAs7PS7Br
_symmetry_space_group_name_H-M   'P 1'
_cell_length_a   9.81192346
_cell_length_b   13.72364424
_cell_length_c   14.16895207
_cell_angle_alpha   90.00000000
_cell_angle_beta   96.54465259
_cell_angle_gamma   90.00000000
_symmetry_Int_Tables_number   1
_chemical_formula_structural   CuAs7PS7Br
_chemical_formula_sum   'Cu4 As28 P4 S28 Br4'
_cell_volume   1895.49183999
_cell_formula_units_Z   4
loop_
 _symmetry_equiv_pos_site_id
 _symmetry_equiv_pos_as_xyz
  1  'x, y, z'
loop_
 _atom_site_type_symbol
 _atom_site_label
 _atom_site_symmetry_multiplicity
 _atom_site_fract_x
 _atom_site_fract_y
 _atom_site_fract_z
 _atom_site_occupancy
  Cu  Cu0  1  0.38432173  0.32920024  0.28632786  1
  Cu  Cu1  1  0.61567827  0.82920024  0.21367214  1
  Cu  Cu2  1  0.61567827  0.67079976  0.71367214  1
  Cu  Cu3  1  0.38432173  0.17079976  0.78632786  1
  As  As4  1  0.84310786  0.44919342  0.29791943  1
  As  As5  1  0.15689214  0.94919342  0.20208057  1
  As  As6  1  0.15689214  0.55080658  0.70208057  1
  As  As7  1  0.84310786  0.05080658  0.79791943  1
  As  As8  1  0.97745514  0.60044448  0.34703149  1
  As  As9  1  0.02254486  0.10044448  0.15296851  1
  As  As10  1  0.02254486  0.39955552  0.65296851  1
  As  As11  1  0.97745514  0.89955552  0.84703149  1
  As  As12  1  0.93103876  0.55481021  0.17408921  1
  As  As13  1  0.06896124  0.05481021  0.32591079  1
  As  As14  1  0.06896124  0.44518979  0.82591079  1
  As  As15  1  0.93103876  0.94518979  0.67408921  1
  As  As16  1  0.64363713  0.24436693  0.16264673  1
  As  As17  1  0.35636287  0.74436693  0.33735327  1
  As  As18  1  0.35636287  0.75563307  0.83735327  1
  As  As19  1  0.64363713  0.25563307  0.66264673  1
  As  As20  1  0.47130284  0.13896790  0.05244795  1
  As  As21  1  0.52869716  0.63896790  0.44755205  1
  As  As22  1  0.52869716  0.86103210  0.94755205  1
  As  As23  1  0.47130284  0.36103210  0.55244795  1
  As  As24  1  0.41337810  0.38689091  0.00865197  1
  As  As25  1  0.58662190  0.88689091  0.49134803  1
  As  As26  1  0.58662190  0.61310909  0.99134803  1
  As  As27  1  0.41337810  0.11310909  0.50865197  1
  As  As28  1  0.62453366  0.32812601  0.92705346  1
  As  As29  1  0.37546634  0.82812601  0.57294654  1
  As  As30  1  0.37546634  0.67187399  0.07294654  1
  As  As31  1  0.62453366  0.17187399  0.42705346  1
  P  P32  1  0.18643897  0.41133113  0.28823587  1
  P  P33  1  0.81356103  0.91133113  0.21176413  1
  P  P34  1  0.81356103  0.58866887  0.71176413  1
  P  P35  1  0.18643897  0.08866887  0.78823587  1
  S  S36  1  0.01084773  0.33513979  0.31785774  1
  S  S37  1  0.98915227  0.83513979  0.18214226  1
  S  S38  1  0.98915227  0.66486021  0.68214226  1
  S  S39  1  0.01084773  0.16486021  0.81785774  1
  S  S40  1  0.18635482  0.53008377  0.38314204  1
  S  S41  1  0.81364518  0.03008377  0.11685796  1
  S  S42  1  0.81364518  0.46991623  0.61685796  1
  S  S43  1  0.18635482  0.96991623  0.88314204  1
  S  S44  1  0.12783292  0.47427441  0.15525147  1
  S  S45  1  0.87216708  0.97427441  0.34474853  1
  S  S46  1  0.87216708  0.52572559  0.84474853  1
  S  S47  1  0.12783292  0.02572559  0.65525147  1
  S  S48  1  0.51405691  0.38233930  0.16371065  1
  S  S49  1  0.48594309  0.88233930  0.33628935  1
  S  S50  1  0.48594309  0.61766070  0.83628935  1
  S  S51  1  0.51405691  0.11766070  0.66371065  1
  S  S52  1  0.77745979  0.30224253  0.05587722  1
  S  S53  1  0.22254021  0.80224253  0.44412278  1
  S  S54  1  0.22254021  0.69775747  0.94412278  1
  S  S55  1  0.77745979  0.19775747  0.55587722  1
  S  S56  1  0.56442791  0.16666360  0.91129497  1
  S  S57  1  0.43557209  0.66666360  0.58870503  1
  S  S58  1  0.43557209  0.83333640  0.08870503  1
  S  S59  1  0.56442791  0.33333640  0.41129497  1
  S  S60  1  0.30001343  0.24605822  0.01607202  1
  S  S61  1  0.69998657  0.74605822  0.48392798  1
  S  S62  1  0.69998657  0.75394178  0.98392798  1
  S  S63  1  0.30001343  0.25394178  0.51607202  1
  Br  Br64  1  0.35496736  0.14711443  0.26192559  1
  Br  Br65  1  0.64503264  0.64711443  0.23807441  1
  Br  Br66  1  0.64503264  0.85288557  0.73807441  1
  Br  Br67  1  0.35496736  0.35288557  0.76192559  1
