# generated using pymatgen
data_BaNd2Sc2O7
_symmetry_space_group_name_H-M   'P 1'
_cell_length_a   5.85393889
_cell_length_b   5.85393889
_cell_length_c   20.45404076
_cell_angle_alpha   90.00000000
_cell_angle_beta   90.00000000
_cell_angle_gamma   90.00000000
_symmetry_Int_Tables_number   1
_chemical_formula_structural   BaNd2Sc2O7
_chemical_formula_sum   'Ba4 Nd8 Sc8 O28'
_cell_volume   700.93135198
_cell_formula_units_Z   4
loop_
 _symmetry_equiv_pos_site_id
 _symmetry_equiv_pos_as_xyz
  1  'x, y, z'
loop_
 _atom_site_type_symbol
 _atom_site_label
 _atom_site_symmetry_multiplicity
 _atom_site_fract_x
 _atom_site_fract_y
 _atom_site_fract_z
 _atom_site_occupancy
  Ba  Ba0  1  0.23848171  0.76151829  0.50000000  1
  Ba  Ba1  1  0.76151829  0.23848171  0.50000000  1
  Ba  Ba2  1  0.26151829  0.26151829  -0.00000000  1
  Ba  Ba3  1  0.73848171  0.73848171  -0.00000000  1
  Nd  Nd4  1  0.22341324  0.77658676  0.31559420  1
  Nd  Nd5  1  0.77658676  0.22341324  0.31559420  1
  Nd  Nd6  1  0.27658676  0.27658676  0.81559420  1
  Nd  Nd7  1  0.72341324  0.72341324  0.81559420  1
  Nd  Nd8  1  0.77658676  0.22341324  0.68440580  1
  Nd  Nd9  1  0.22341324  0.77658676  0.68440580  1
  Nd  Nd10  1  0.72341324  0.72341324  0.18440580  1
  Nd  Nd11  1  0.27658676  0.27658676  0.18440580  1
  Sc  Sc12  1  0.24164218  0.75835782  0.10174662  1
  Sc  Sc13  1  0.75835782  0.24164218  0.10174662  1
  Sc  Sc14  1  0.25835782  0.25835782  0.60174662  1
  Sc  Sc15  1  0.74164218  0.74164218  0.60174662  1
  Sc  Sc16  1  0.75835782  0.24164218  0.89825338  1
  Sc  Sc17  1  0.24164218  0.75835782  0.89825338  1
  Sc  Sc18  1  0.74164218  0.74164218  0.39825338  1
  Sc  Sc19  1  0.25835782  0.25835782  0.39825338  1
  O  O20  1  0.28442709  0.28442709  0.50000000  1
  O  O21  1  0.71557291  0.71557291  0.50000000  1
  O  O22  1  0.21557291  0.78442709  -0.00000000  1
  O  O23  1  0.78442709  0.21557291  -0.00000000  1
  O  O24  1  0.31443536  0.68556464  0.20981414  1
  O  O25  1  0.68556464  0.31443536  0.20981414  1
  O  O26  1  0.18556464  0.18556464  0.70981414  1
  O  O27  1  0.81443536  0.81443536  0.70981414  1
  O  O28  1  0.68556464  0.31443536  0.79018586  1
  O  O29  1  0.31443536  0.68556464  0.79018586  1
  O  O30  1  0.81443536  0.81443536  0.29018586  1
  O  O31  1  0.18556464  0.18556464  0.29018586  1
  O  O32  1  -0.00000000  0.50000000  0.38631449  1
  O  O33  1  0.50000000  0.00000000  0.88631449  1
  O  O34  1  0.00000000  0.50000000  0.61368551  1
  O  O35  1  0.50000000  0.00000000  0.11368551  1
  O  O36  1  0.50000000  0.00000000  0.38631449  1
  O  O37  1  -0.00000000  0.50000000  0.88631449  1
  O  O38  1  0.50000000  -0.00000000  0.61368551  1
  O  O39  1  -0.00000000  0.50000000  0.11368551  1
  O  O40  1  0.50000000  0.50000000  0.37000906  1
  O  O41  1  0.00000000  0.00000000  0.87000906  1
  O  O42  1  0.50000000  0.50000000  0.62999094  1
  O  O43  1  -0.00000000  0.00000000  0.12999094  1
  O  O44  1  0.50000000  0.50000000  0.09353156  1
  O  O45  1  -0.00000000  -0.00000000  0.59353156  1
  O  O46  1  0.50000000  0.50000000  0.90646844  1
  O  O47  1  0.00000000  0.00000000  0.40646844  1
