# generated using pymatgen
data_K2MgH12(SeO7)2
_symmetry_space_group_name_H-M   'P 1'
_cell_length_a   6.38261921
_cell_length_b   9.37086634
_cell_length_c   12.73282641
_cell_angle_alpha   90.00000000
_cell_angle_beta   90.00000000
_cell_angle_gamma   104.97843198
_symmetry_Int_Tables_number   1
_chemical_formula_structural   K2MgH12(SeO7)2
_chemical_formula_sum   'K4 Mg2 H24 Se4 O28'
_cell_volume   735.68355251
_cell_formula_units_Z   2
loop_
 _symmetry_equiv_pos_site_id
 _symmetry_equiv_pos_as_xyz
  1  'x, y, z'
loop_
 _atom_site_type_symbol
 _atom_site_label
 _atom_site_symmetry_multiplicity
 _atom_site_fract_x
 _atom_site_fract_y
 _atom_site_fract_z
 _atom_site_occupancy
  K  K0  1  0.35037771  0.62823601  0.14954815  1
  K  K1  1  0.64962229  0.87176399  0.64954815  1
  K  K2  1  0.64962229  0.37176399  0.85045185  1
  K  K3  1  0.35037771  0.12823601  0.35045185  1
  Mg  Mg4  1  0.00000000  0.50000000  0.50000000  1
  Mg  Mg5  1  0.00000000  -0.00000000  -0.00000000  1
  H  H6  1  0.32602008  0.71312066  0.41366919  1
  H  H7  1  0.67397992  0.78687934  0.91366919  1
  H  H8  1  0.67397992  0.28687934  0.58633081  1
  H  H9  1  0.32602008  0.21312066  0.08633081  1
  H  H10  1  0.10274843  0.74482128  0.37520426  1
  H  H11  1  0.89725157  0.75517872  0.87520426  1
  H  H12  1  0.89725157  0.25517872  0.62479574  1
  H  H13  1  0.10274843  0.24482128  0.12479574  1
  H  H14  1  0.93079187  0.23517345  0.40036790  1
  H  H15  1  0.06920813  0.26482655  0.90036790  1
  H  H16  1  0.06920813  0.76482655  0.59963210  1
  H  H17  1  0.93079187  0.73517345  0.09963210  1
  H  H18  1  0.00694435  0.36190091  0.31591612  1
  H  H19  1  0.99305565  0.13809909  0.81591612  1
  H  H20  1  0.99305565  0.63809909  0.68408388  1
  H  H21  1  0.00694435  0.86190091  0.18408388  1
  H  H22  1  0.33083896  0.39615958  0.55999952  1
  H  H23  1  0.66916104  0.10384042  0.05999952  1
  H  H24  1  0.66916104  0.60384042  0.44000048  1
  H  H25  1  0.33083896  0.89615958  0.94000048  1
  H  H26  1  0.33237814  0.52637939  0.64004241  1
  H  H27  1  0.66762186  0.97362061  0.14004241  1
  H  H28  1  0.66762186  0.47362061  0.35995759  1
  H  H29  1  0.33237814  0.02637939  0.85995759  1
  Se  Se30  1  0.73003181  0.90847172  0.35823666  1
  Se  Se31  1  0.26996819  0.59152828  0.85823666  1
  Se  Se32  1  0.26996819  0.09152828  0.64176334  1
  Se  Se33  1  0.73003181  0.40847172  0.14176334  1
  O  O34  1  0.56523390  0.90039943  0.25426368  1
  O  O35  1  0.43476610  0.59960057  0.75426368  1
  O  O36  1  0.43476610  0.09960057  0.74573632  1
  O  O37  1  0.56523390  0.40039943  0.24573632  1
  O  O38  1  0.75688607  0.06877963  0.42105531  1
  O  O39  1  0.24311393  0.43122037  0.92105531  1
  O  O40  1  0.24311393  0.93122037  0.57894469  1
  O  O41  1  0.75688607  0.56877963  0.07894469  1
  O  O42  1  0.60902053  0.77273307  0.44131326  1
  O  O43  1  0.39097947  0.72726693  0.94131326  1
  O  O44  1  0.39097947  0.22726693  0.55868674  1
  O  O45  1  0.60902053  0.27273307  0.05868674  1
  O  O46  1  0.97290518  0.88767144  0.31964429  1
  O  O47  1  0.02709482  0.61232856  0.81964429  1
  O  O48  1  0.02709482  0.11232856  0.68035571  1
  O  O49  1  0.97290518  0.38767144  0.18035571  1
  O  O50  1  0.17243537  0.66583177  0.39422744  1
  O  O51  1  0.82756463  0.83416823  0.89422744  1
  O  O52  1  0.82756463  0.33416823  0.60577256  1
  O  O53  1  0.17243537  0.16583177  0.10577256  1
  O  O54  1  0.02916144  0.33598937  0.39011422  1
  O  O55  1  0.97083856  0.16401063  0.89011422  1
  O  O56  1  0.97083856  0.66401063  0.60988578  1
  O  O57  1  0.02916144  0.83598937  0.10988578  1
  O  O58  1  0.28446974  0.48880233  0.56850543  1
  O  O59  1  0.71553026  0.01119767  0.06850543  1
  O  O60  1  0.71553026  0.51119767  0.43149457  1
  O  O61  1  0.28446974  0.98880233  0.93149457  1
