# generated using pymatgen
data_CsTi2P3(O5F2)2
_symmetry_space_group_name_H-M   'P 1'
_cell_length_a   8.43406770
_cell_length_b   8.64497065
_cell_length_c   8.99019283
_cell_angle_alpha   90.00000000
_cell_angle_beta   97.02066542
_cell_angle_gamma   90.00000000
_symmetry_Int_Tables_number   1
_chemical_formula_structural   CsTi2P3(O5F2)2
_chemical_formula_sum   'Cs2 Ti4 P6 O20 F8'
_cell_volume   650.58052839
_cell_formula_units_Z   2
loop_
 _symmetry_equiv_pos_site_id
 _symmetry_equiv_pos_as_xyz
  1  'x, y, z'
loop_
 _atom_site_type_symbol
 _atom_site_label
 _atom_site_symmetry_multiplicity
 _atom_site_fract_x
 _atom_site_fract_y
 _atom_site_fract_z
 _atom_site_occupancy
  Cs  Cs0  1  0.50000000  0.39839306  0.75000000  1
  Cs  Cs1  1  0.50000000  0.60160694  0.25000000  1
  Ti  Ti2  1  0.16052639  0.74646148  0.54613314  1
  Ti  Ti3  1  0.83947361  0.74646148  0.95386686  1
  Ti  Ti4  1  0.83947361  0.25353852  0.45386686  1
  Ti  Ti5  1  0.16052639  0.25353852  0.04613314  1
  P  P6  1  0.20042279  0.10032278  0.39731873  1
  P  P7  1  0.79957721  0.10032278  0.10268127  1
  P  P8  1  0.79957721  0.89967722  0.60268127  1
  P  P9  1  0.20042279  0.89967722  0.89731873  1
  P  P10  1  -0.00000000  0.46902670  0.75000000  1
  P  P11  1  -0.00000000  0.53097330  0.25000000  1
  O  O12  1  0.10758371  0.63312328  0.36134326  1
  O  O13  1  0.89241629  0.63312328  0.13865674  1
  O  O14  1  0.89241629  0.36687672  0.63865674  1
  O  O15  1  0.10758371  0.36687672  0.86134326  1
  O  O16  1  0.93515933  0.81708482  0.53920897  1
  O  O17  1  0.06484067  0.81708482  0.96079103  1
  O  O18  1  0.06484067  0.18291518  0.46079103  1
  O  O19  1  0.93515933  0.18291518  0.03920897  1
  O  O20  1  0.21127871  0.86909144  0.73259542  1
  O  O21  1  0.78872129  0.86909144  0.76740458  1
  O  O22  1  0.78872129  0.13090856  0.26740458  1
  O  O23  1  0.21127871  0.13090856  0.23259542  1
  O  O24  1  0.21209620  0.92868598  0.43203485  1
  O  O25  1  0.78790380  0.92868598  0.06796515  1
  O  O26  1  0.78790380  0.07131402  0.56796515  1
  O  O27  1  0.21209620  0.07131402  0.93203485  1
  O  O28  1  0.11232131  0.56872882  0.66669879  1
  O  O29  1  0.88767869  0.56872882  0.83330121  1
  O  O30  1  0.88767869  0.43127118  0.33330121  1
  O  O31  1  0.11232131  0.43127118  0.16669879  1
  F  F32  1  0.35602005  0.17319333  0.48510231  1
  F  F33  1  0.64397995  0.17319333  0.01489769  1
  F  F34  1  0.64397995  0.82680667  0.51489769  1
  F  F35  1  0.35602005  0.82680667  0.98510231  1
  F  F36  1  0.36982303  0.68248136  0.55860554  1
  F  F37  1  0.63017697  0.68248136  0.94139446  1
  F  F38  1  0.63017697  0.31751864  0.44139446  1
  F  F39  1  0.36982303  0.31751864  0.05860554  1
