# generated using pymatgen
data_H2
_symmetry_space_group_name_H-M   'P 1'
_cell_length_a   6.78984099
_cell_length_b   7.57692293
_cell_length_c   8.47172170
_cell_angle_alpha   90.00000000
_cell_angle_beta   90.00000000
_cell_angle_gamma   101.20507743
_symmetry_Int_Tables_number   1
_chemical_formula_structural   H2
_chemical_formula_sum   H32
_cell_volume   427.52910550
_cell_formula_units_Z   16
loop_
 _symmetry_equiv_pos_site_id
 _symmetry_equiv_pos_as_xyz
  1  'x, y, z'
loop_
 _atom_site_type_symbol
 _atom_site_label
 _atom_site_symmetry_multiplicity
 _atom_site_fract_x
 _atom_site_fract_y
 _atom_site_fract_z
 _atom_site_occupancy
  H  H0  1  0.99311167  0.17036189  0.26708352  1
  H  H1  1  0.00688833  0.82963811  0.76708352  1
  H  H2  1  0.47361598  0.14731792  0.75793064  1
  H  H3  1  0.52638402  0.85268208  0.25793064  1
  H  H4  1  0.01966951  0.15467131  0.18311163  1
  H  H5  1  0.98033049  0.84532869  0.68311163  1
  H  H6  1  0.45848434  0.12095421  0.67302190  1
  H  H7  1  0.54151566  0.87904579  0.17302190  1
  H  H8  1  0.44480228  0.09691429  0.00083497  1
  H  H9  1  0.55519772  0.90308571  0.50083497  1
  H  H10  1  0.05261513  0.10266800  0.51892384  1
  H  H11  1  0.94738487  0.89733200  0.01892384  1
  H  H12  1  0.50985644  0.16843945  0.04908906  1
  H  H13  1  0.49014356  0.83156055  0.54908906  1
  H  H14  1  0.96802902  0.14122837  0.55250922  1
  H  H15  1  0.03197098  0.85877163  0.05250922  1
  H  H16  1  0.15968224  0.13165317  0.85361300  1
  H  H17  1  0.84031776  0.86834683  0.35361300  1
  H  H18  1  0.30369303  0.14410137  0.33908222  1
  H  H19  1  0.69630697  0.85589863  0.83908222  1
  H  H20  1  0.09801356  0.20100254  0.83522960  1
  H  H21  1  0.90198644  0.79899746  0.33522960  1
  H  H22  1  0.41282582  0.18550822  0.34691709  1
  H  H23  1  0.58717418  0.81449178  0.84691709  1
  H  H24  1  0.31939632  0.61158714  0.07040041  1
  H  H25  1  0.68060368  0.38841286  0.57040041  1
  H  H26  1  0.16350127  0.58571634  0.56606597  1
  H  H27  1  0.83649873  0.41428366  0.06606597  1
  H  H28  1  0.34830194  0.61185739  0.98472120  1
  H  H29  1  0.65169806  0.38814261  0.48472120  1
  H  H30  1  0.13595869  0.61479416  0.48546572  1
  H  H31  1  0.86404131  0.38520584  0.98546572  1
