# generated using pymatgen
data_K2Cd3Se4
_symmetry_space_group_name_H-M   'P 1'
_cell_length_a   6.98150269
_cell_length_b   10.86806952
_cell_length_c   14.62916618
_cell_angle_alpha   90.00000000
_cell_angle_beta   90.00000000
_cell_angle_gamma   90.00000000
_symmetry_Int_Tables_number   1
_chemical_formula_structural   K2Cd3Se4
_chemical_formula_sum   'K8 Cd12 Se16'
_cell_volume   1109.99466342
_cell_formula_units_Z   4
loop_
 _symmetry_equiv_pos_site_id
 _symmetry_equiv_pos_as_xyz
  1  'x, y, z'
loop_
 _atom_site_type_symbol
 _atom_site_label
 _atom_site_symmetry_multiplicity
 _atom_site_fract_x
 _atom_site_fract_y
 _atom_site_fract_z
 _atom_site_occupancy
  K  K0  1  -0.00000000  0.50000000  0.00000000  1
  K  K1  1  0.50000000  0.00000000  0.50000000  1
  K  K2  1  -0.00000000  0.00000000  0.00000000  1
  K  K3  1  0.50000000  0.50000000  0.50000000  1
  K  K4  1  0.47867870  0.75000000  0.96676424  1
  K  K5  1  0.02132130  0.75000000  0.46676424  1
  K  K6  1  0.52132130  0.25000000  0.03323576  1
  K  K7  1  0.97867870  0.25000000  0.53323576  1
  Cd  Cd8  1  0.77070959  0.75000000  0.20304472  1
  Cd  Cd9  1  0.72929041  0.75000000  0.70304472  1
  Cd  Cd10  1  0.22929041  0.25000000  0.79695528  1
  Cd  Cd11  1  0.27070959  0.25000000  0.29695528  1
  Cd  Cd12  1  0.33628208  0.59418981  0.25339943  1
  Cd  Cd13  1  0.16371792  0.90581019  0.75339943  1
  Cd  Cd14  1  0.66371792  0.09418981  0.74660057  1
  Cd  Cd15  1  0.83628208  0.40581019  0.24660057  1
  Cd  Cd16  1  0.66371792  0.40581019  0.74660057  1
  Cd  Cd17  1  0.83628208  0.09418981  0.24660057  1
  Cd  Cd18  1  0.33628208  0.90581019  0.25339943  1
  Cd  Cd19  1  0.16371792  0.59418981  0.75339943  1
  Se  Se20  1  0.56798670  0.75000000  0.35990106  1
  Se  Se21  1  0.93201330  0.75000000  0.85990106  1
  Se  Se22  1  0.43201330  0.25000000  0.64009894  1
  Se  Se23  1  0.06798670  0.25000000  0.14009894  1
  Se  Se24  1  0.12954132  0.75000000  0.14565081  1
  Se  Se25  1  0.37045868  0.75000000  0.64565081  1
  Se  Se26  1  0.87045868  0.25000000  0.85434919  1
  Se  Se27  1  0.62954132  0.25000000  0.35434919  1
  Se  Se28  1  0.61414788  0.53254376  0.13418955  1
  Se  Se29  1  0.88585212  0.96745624  0.63418955  1
  Se  Se30  1  0.38585212  0.03254376  0.86581045  1
  Se  Se31  1  0.11414788  0.46745624  0.36581045  1
  Se  Se32  1  0.38585212  0.46745624  0.86581045  1
  Se  Se33  1  0.11414788  0.03254376  0.36581045  1
  Se  Se34  1  0.61414788  0.96745624  0.13418955  1
  Se  Se35  1  0.88585212  0.53254376  0.63418955  1
