# generated using pymatgen
data_Cs2UNb6(Cl5O)3
_symmetry_space_group_name_H-M   'P 1'
_cell_length_a   9.28487780
_cell_length_b   9.28029201
_cell_length_c   17.69660610
_cell_angle_alpha   89.91024923
_cell_angle_beta   90.04485322
_cell_angle_gamma   119.98366076
_symmetry_Int_Tables_number   1
_chemical_formula_structural   Cs2UNb6(Cl5O)3
_chemical_formula_sum   'Cs4 U2 Nb12 Cl30 O6'
_cell_volume   1320.77669682
_cell_formula_units_Z   2
loop_
 _symmetry_equiv_pos_site_id
 _symmetry_equiv_pos_as_xyz
  1  'x, y, z'
loop_
 _atom_site_type_symbol
 _atom_site_label
 _atom_site_symmetry_multiplicity
 _atom_site_fract_x
 _atom_site_fract_y
 _atom_site_fract_z
 _atom_site_occupancy
  Cs  Cs0  1  0.33344377  0.66679644  0.54645375  1
  Cs  Cs1  1  0.66655623  0.33335266  0.04645375  1
  Cs  Cs2  1  0.66655623  0.33320356  0.45354625  1
  Cs  Cs3  1  0.33344377  0.66664734  0.95354625  1
  U  U4  1  0.33258802  0.66629401  0.25000000  1
  U  U5  1  0.66741198  0.33370599  0.75000000  1
  Nb  Nb6  1  0.80526071  0.82045868  0.18392744  1
  Nb  Nb7  1  0.17931034  0.98471274  0.18376052  1
  Nb  Nb8  1  0.01516445  0.19443149  0.18358422  1
  Nb  Nb9  1  0.19473929  0.01519796  0.68392744  1
  Nb  Nb10  1  0.98483555  0.17926704  0.68358422  1
  Nb  Nb11  1  0.82068966  0.80540239  0.68376052  1
  Nb  Nb12  1  0.19473929  0.17954132  0.81607256  1
  Nb  Nb13  1  0.82068966  0.01528726  0.81623948  1
  Nb  Nb14  1  0.98483555  0.80556851  0.81641578  1
  Nb  Nb15  1  0.80526071  0.98480204  0.31607256  1
  Nb  Nb16  1  0.01516445  0.82073296  0.31641578  1
  Nb  Nb17  1  0.17931034  0.19459761  0.31623948  1
  Cl  Cl18  1  0.52483688  0.60386654  0.11918183  1
  Cl  Cl19  1  0.39625875  0.92129093  0.11898720  1
  Cl  Cl20  1  0.07849321  0.47457923  0.11850700  1
  Cl  Cl21  1  0.47516312  0.07902967  0.61918183  1
  Cl  Cl22  1  0.92150679  0.39608602  0.61850700  1
  Cl  Cl23  1  0.60374125  0.52503218  0.61898720  1
  Cl  Cl24  1  0.47516312  0.39613346  0.88081817  1
  Cl  Cl25  1  0.60374125  0.07870907  0.88101280  1
  Cl  Cl26  1  0.92150679  0.52542077  0.88149300  1
  Cl  Cl27  1  0.52483688  0.92097033  0.38081817  1
  Cl  Cl28  1  0.07849321  0.60391398  0.38149300  1
  Cl  Cl29  1  0.39625875  0.47496782  0.38101280  1
  Cl  Cl30  1  0.21178401  0.42428262  0.74984873  1
  Cl  Cl31  1  0.57583322  0.78791661  0.75000000  1
  Cl  Cl32  1  0.21178401  0.78750139  0.75015127  1
  Cl  Cl33  1  0.78821599  0.21249861  0.24984873  1
  Cl  Cl34  1  0.78821599  0.57571738  0.25015127  1
  Cl  Cl35  1  0.42416678  0.21208339  0.25000000  1
  Cl  Cl36  1  0.20164679  0.21899029  0.58906603  1
  Cl  Cl37  1  0.78084904  0.98246656  0.58909678  1
  Cl  Cl38  1  0.01731825  0.79835609  0.58911273  1
  Cl  Cl39  1  0.79835321  0.01734350  0.08906603  1
  Cl  Cl40  1  0.98268175  0.78103784  0.08911273  1
  Cl  Cl41  1  0.21915096  0.20161751  0.08909678  1
  Cl  Cl42  1  0.79835321  0.78100971  0.41093397  1
  Cl  Cl43  1  0.21915096  0.01753344  0.41090322  1
  Cl  Cl44  1  0.98268175  0.20164391  0.41088727  1
  Cl  Cl45  1  0.20164679  0.98265650  0.91093397  1
  Cl  Cl46  1  0.01731825  0.21896216  0.91088727  1
  Cl  Cl47  1  0.78084904  0.79838249  0.91090322  1
  O  O48  1  0.81173274  0.18809891  0.74970570  1
  O  O49  1  0.81173274  0.62363383  0.75029430  1
  O  O50  1  0.37583007  0.18791504  0.75000000  1
  O  O51  1  0.18826726  0.37636617  0.24970570  1
  O  O52  1  0.62416993  0.81208496  0.25000000  1
  O  O53  1  0.18826726  0.81190109  0.25029430  1
