# generated using pymatgen
data_BaTi(S2O7)3
_symmetry_space_group_name_H-M   'P 1'
_cell_length_a   7.31776097
_cell_length_b   13.38856265
_cell_length_c   18.44396992
_cell_angle_alpha   90.00000000
_cell_angle_beta   92.93143752
_cell_angle_gamma   90.00000000
_symmetry_Int_Tables_number   1
_chemical_formula_structural   BaTi(S2O7)3
_chemical_formula_sum   'Ba4 Ti4 S24 O84'
_cell_volume   1804.67046488
_cell_formula_units_Z   4
loop_
 _symmetry_equiv_pos_site_id
 _symmetry_equiv_pos_as_xyz
  1  'x, y, z'
loop_
 _atom_site_type_symbol
 _atom_site_label
 _atom_site_symmetry_multiplicity
 _atom_site_fract_x
 _atom_site_fract_y
 _atom_site_fract_z
 _atom_site_occupancy
  Ba  Ba0  1  0.06132168  0.25421019  0.50902721  1
  Ba  Ba1  1  0.93867832  0.75421019  0.99097279  1
  Ba  Ba2  1  0.93867832  0.74578981  0.49097279  1
  Ba  Ba3  1  0.06132168  0.24578981  0.00902721  1
  Ti  Ti4  1  0.29899619  0.86772910  0.75401726  1
  Ti  Ti5  1  0.70100381  0.36772910  0.74598274  1
  Ti  Ti6  1  0.70100381  0.13227090  0.24598274  1
  Ti  Ti7  1  0.29899619  0.63227090  0.25401726  1
  S  S8  1  0.44111889  0.80448847  0.59467384  1
  S  S9  1  0.55888111  0.30448847  0.90532616  1
  S  S10  1  0.55888111  0.19551153  0.40532616  1
  S  S11  1  0.44111889  0.69551153  0.09467384  1
  S  S12  1  0.21500140  0.97797145  0.59814677  1
  S  S13  1  0.78499860  0.47797145  0.90185323  1
  S  S14  1  0.78499860  0.02202855  0.40185323  1
  S  S15  1  0.21500140  0.52202855  0.09814677  1
  S  S16  1  0.93981982  0.73305740  0.76809379  1
  S  S17  1  0.06018018  0.23305740  0.73190621  1
  S  S18  1  0.06018018  0.26694260  0.23190621  1
  S  S19  1  0.93981982  0.76694260  0.26809379  1
  S  S20  1  0.26211907  0.64794320  0.83661117  1
  S  S21  1  0.73788093  0.14794320  0.66338883  1
  S  S22  1  0.73788093  0.35205680  0.16338883  1
  S  S23  1  0.26211907  0.85205680  0.33661117  1
  S  S24  1  0.21404641  0.98859554  0.90109895  1
  S  S25  1  0.78595359  0.48859554  0.59890105  1
  S  S26  1  0.78595359  0.01140446  0.09890105  1
  S  S27  1  0.21404641  0.51140446  0.40109895  1
  S  S28  1  0.60045598  0.95172519  0.87615936  1
  S  S29  1  0.39954402  0.45172519  0.62384064  1
  S  S30  1  0.39954402  0.04827481  0.12384064  1
  S  S31  1  0.60045598  0.54827481  0.37615936  1
  O  O32  1  0.23789146  0.97090248  0.67976600  1
  O  O33  1  0.76210854  0.47090248  0.82023400  1
  O  O34  1  0.76210854  0.02909752  0.32023400  1
  O  O35  1  0.23789146  0.52909752  0.17976600  1
  O  O36  1  0.43621954  0.80675660  0.67626132  1
  O  O37  1  0.56378046  0.30675660  0.82373868  1
  O  O38  1  0.56378046  0.19324340  0.32373868  1
  O  O39  1  0.43621954  0.69324340  0.17626132  1
  O  O40  1  0.23863965  0.07862586  0.57389456  1
  O  O41  1  0.76136035  0.57862586  0.92610544  1
  O  O42  1  0.76136035  0.92137414  0.42610544  1
  O  O43  1  0.23863965  0.42137414  0.07389456  1
  O  O44  1  0.40107194  0.92239229  0.57149827  1
  O  O45  1  0.59892806  0.42239229  0.92850173  1
  O  O46  1  0.59892806  0.07760771  0.42850173  1
  O  O47  1  0.40107194  0.57760771  0.07149827  1
  O  O48  1  0.05783131  0.92235272  0.57036635  1
  O  O49  1  0.94216869  0.42235272  0.92963365  1
  O  O50  1  0.94216869  0.07764728  0.42963365  1
  O  O51  1  0.05783131  0.57764728  0.07036635  1
  O  O52  1  0.29418911  0.74489460  0.56329257  1
  O  O53  1  0.70581089  0.24489460  0.93670743  1
  O  O54  1  0.70581089  0.25510540  0.43670743  1
  O  O55  1  0.29418911  0.75510540  0.06329257  1
  O  O56  1  0.33570499  0.74964801  0.81585328  1
  O  O57  1  0.66429501  0.24964801  0.68414672  1
  O  O58  1  0.66429501  0.25035199  0.18414672  1
  O  O59  1  0.33570499  0.75035199  0.31585328  1
  O  O60  1  0.06087260  0.80462605  0.72759158  1
  O  O61  1  0.93912740  0.30462605  0.77240842  1
  O  O62  1  0.93912740  0.19537395  0.27240842  1
  O  O63  1  0.06087260  0.69537395  0.22759158  1
  O  O64  1  0.90282212  0.77347093  0.83846507  1
  O  O65  1  0.09717788  0.27347093  0.66153493  1
  O  O66  1  0.09717788  0.22652907  0.16153493  1
  O  O67  1  0.90282212  0.72652907  0.33846507  1
  O  O68  1  0.07722064  0.63602657  0.78145820  1
  O  O69  1  0.92277936  0.13602657  0.71854180  1
  O  O70  1  0.92277936  0.36397343  0.21854180  1
  O  O71  1  0.07722064  0.86397343  0.28145820  1
  O  O72  1  0.20007815  0.65163831  0.90958746  1
  O  O73  1  0.79992185  0.15163831  0.59041254  1
  O  O74  1  0.79992185  0.34836169  0.09041254  1
  O  O75  1  0.20007815  0.84836169  0.40958746  1
  O  O76  1  0.62321328  0.78978578  0.57181991  1
  O  O77  1  0.37678672  0.28978578  0.92818009  1
  O  O78  1  0.37678672  0.21021422  0.42818009  1
  O  O79  1  0.62321328  0.71021422  0.07181991  1
  O  O80  1  0.79443958  0.69499709  0.72198857  1
  O  O81  1  0.20556042  0.19499709  0.77801143  1
  O  O82  1  0.20556042  0.30500291  0.27801143  1
  O  O83  1  0.79443958  0.80500291  0.22198857  1
  O  O84  1  0.37714016  0.56824881  0.81605175  1
  O  O85  1  0.62285984  0.06824881  0.68394825  1
  O  O86  1  0.62285984  0.43175119  0.18394825  1
  O  O87  1  0.37714016  0.93175119  0.31605175  1
  O  O88  1  0.52292373  0.91719422  0.80221372  1
  O  O89  1  0.47707627  0.41719422  0.69778628  1
  O  O90  1  0.47707627  0.08280578  0.19778628  1
  O  O91  1  0.52292373  0.58280578  0.30221372  1
  O  O92  1  0.43060562  0.02213721  0.90423721  1
  O  O93  1  0.56939438  0.52213721  0.59576279  1
  O  O94  1  0.56939438  0.97786279  0.09576279  1
  O  O95  1  0.43060562  0.47786279  0.40423721  1
  O  O96  1  0.17753453  0.95552121  0.82351682  1
  O  O97  1  0.82246547  0.45552121  0.67648318  1
  O  O98  1  0.82246547  0.04447879  0.17648318  1
  O  O99  1  0.17753453  0.54447879  0.32351682  1
  O  O100  1  0.12628520  0.08143371  0.91636076  1
  O  O101  1  0.87371480  0.58143371  0.58363924  1
  O  O102  1  0.87371480  0.91856629  0.08363924  1
  O  O103  1  0.12628520  0.41856629  0.41636076  1
  O  O104  1  0.19143324  0.90621399  0.95015703  1
  O  O105  1  0.80856676  0.40621399  0.54984297  1
  O  O106  1  0.80856676  0.09378601  0.04984297  1
  O  O107  1  0.19143324  0.59378601  0.45015703  1
  O  O108  1  0.74505065  0.02155531  0.86911101  1
  O  O109  1  0.25494935  0.52155531  0.63088899  1
  O  O110  1  0.25494935  0.97844469  0.13088899  1
  O  O111  1  0.74505065  0.47844469  0.36911101  1
  O  O112  1  0.62329588  0.86934092  0.92620661  1
  O  O113  1  0.37670412  0.36934092  0.57379339  1
  O  O114  1  0.37670412  0.13065908  0.07379339  1
  O  O115  1  0.62329588  0.63065908  0.42620661  1
