# generated using pymatgen
data_CsAg7S4
_symmetry_space_group_name_H-M   'P 1'
_cell_length_a   8.57030331
_cell_length_b   11.34105678
_cell_length_c   11.34105678
_cell_angle_alpha   90.00000000
_cell_angle_beta   90.00000000
_cell_angle_gamma   90.00000000
_symmetry_Int_Tables_number   1
_chemical_formula_structural   CsAg7S4
_chemical_formula_sum   'Cs4 Ag28 S16'
_cell_volume   1102.30871696
_cell_formula_units_Z   4
loop_
 _symmetry_equiv_pos_site_id
 _symmetry_equiv_pos_as_xyz
  1  'x, y, z'
loop_
 _atom_site_type_symbol
 _atom_site_label
 _atom_site_symmetry_multiplicity
 _atom_site_fract_x
 _atom_site_fract_y
 _atom_site_fract_z
 _atom_site_occupancy
  Cs  Cs0  1  0.62556802  0.75000000  0.75000000  1
  Cs  Cs1  1  0.37443198  0.25000000  0.25000000  1
  Cs  Cs2  1  0.12304836  0.75000000  0.75000000  1
  Cs  Cs3  1  0.87695164  0.25000000  0.25000000  1
  Ag  Ag4  1  0.00000000  -0.00000000  0.50000000  1
  Ag  Ag5  1  0.00000000  0.50000000  0.00000000  1
  Ag  Ag6  1  0.00000000  0.50000000  0.50000000  1
  Ag  Ag7  1  0.00000000  -0.00000000  0.00000000  1
  Ag  Ag8  1  0.66078478  0.04240564  0.97821233  1
  Ag  Ag9  1  0.66078478  0.45759436  0.52178767  1
  Ag  Ag10  1  0.66078478  0.97821233  0.45759436  1
  Ag  Ag11  1  0.66078478  0.52178767  0.04240564  1
  Ag  Ag12  1  0.33921522  0.95759436  0.02178767  1
  Ag  Ag13  1  0.33921522  0.54240564  0.47821233  1
  Ag  Ag14  1  0.33921522  0.02178767  0.54240564  1
  Ag  Ag15  1  0.33921522  0.47821233  0.95759436  1
  Ag  Ag16  1  0.87601581  0.61400911  0.23389845  1
  Ag  Ag17  1  0.87601581  0.88599089  0.26610155  1
  Ag  Ag18  1  0.87601581  0.23389845  0.88599089  1
  Ag  Ag19  1  0.87601581  0.26610155  0.61400911  1
  Ag  Ag20  1  0.12398419  0.38599089  0.76610155  1
  Ag  Ag21  1  0.12398419  0.11400911  0.73389845  1
  Ag  Ag22  1  0.12398419  0.76610155  0.11400911  1
  Ag  Ag23  1  0.12398419  0.73389845  0.38599089  1
  Ag  Ag24  1  0.61659682  0.39111589  0.78756220  1
  Ag  Ag25  1  0.61659682  0.10888411  0.71243780  1
  Ag  Ag26  1  0.61659682  0.78756220  0.10888411  1
  Ag  Ag27  1  0.61659682  0.71243780  0.39111589  1
  Ag  Ag28  1  0.38340318  0.60888411  0.21243780  1
  Ag  Ag29  1  0.38340318  0.89111589  0.28756220  1
  Ag  Ag30  1  0.38340318  0.21243780  0.89111589  1
  Ag  Ag31  1  0.38340318  0.28756220  0.60888411  1
  S  S32  1  0.86797454  0.81153117  0.48733038  1
  S  S33  1  0.86797454  0.68846883  0.01266962  1
  S  S34  1  0.86797454  0.48733038  0.68846883  1
  S  S35  1  0.86797454  0.01266962  0.81153117  1
  S  S36  1  0.13202546  0.18846883  0.51266962  1
  S  S37  1  0.13202546  0.31153117  0.98733038  1
  S  S38  1  0.13202546  0.51266962  0.31153117  1
  S  S39  1  0.13202546  0.98733038  0.18846883  1
  S  S40  1  0.62364763  0.19205030  0.50636794  1
  S  S41  1  0.62364763  0.30794970  0.99363206  1
  S  S42  1  0.62364763  0.50636794  0.30794970  1
  S  S43  1  0.62364763  0.99363206  0.19205030  1
  S  S44  1  0.37635237  0.80794970  0.49363206  1
  S  S45  1  0.37635237  0.69205030  0.00636794  1
  S  S46  1  0.37635237  0.49363206  0.69205030  1
  S  S47  1  0.37635237  0.00636794  0.80794970  1
