# generated using pymatgen
data_Pr2Nb2S7O30
_symmetry_space_group_name_H-M   'P 1'
_cell_length_a   7.31041082
_cell_length_b   13.05479950
_cell_length_c   13.05479950
_cell_angle_alpha   90.00000000
_cell_angle_beta   90.00000000
_cell_angle_gamma   90.00000000
_symmetry_Int_Tables_number   1
_chemical_formula_structural   Pr2Nb2S7O30
_chemical_formula_sum   'Pr4 Nb4 S14 O60'
_cell_volume   1245.89715994
_cell_formula_units_Z   2
loop_
 _symmetry_equiv_pos_site_id
 _symmetry_equiv_pos_as_xyz
  1  'x, y, z'
loop_
 _atom_site_type_symbol
 _atom_site_label
 _atom_site_symmetry_multiplicity
 _atom_site_fract_x
 _atom_site_fract_y
 _atom_site_fract_z
 _atom_site_occupancy
  Pr  Pr0  1  0.40767251  0.19945044  0.69945044  1
  Pr  Pr1  1  0.59232749  0.30054956  0.19945044  1
  Pr  Pr2  1  0.40767251  0.80054956  0.30054956  1
  Pr  Pr3  1  0.59232749  0.69945044  0.80054956  1
  Nb  Nb4  1  0.01558567  0.36322665  0.86322665  1
  Nb  Nb5  1  0.98441433  0.13677335  0.36322665  1
  Nb  Nb6  1  0.01558567  0.63677335  0.13677335  1
  Nb  Nb7  1  0.98441433  0.86322665  0.63677335  1
  S  S8  1  0.65601272  0.50000000  -0.00000000  1
  S  S9  1  0.34398728  0.00000000  0.50000000  1
  S  S10  1  0.10158311  0.62273084  0.87726916  1
  S  S11  1  0.89841689  0.87726916  0.37726916  1
  S  S12  1  0.10158311  0.37726916  0.12273084  1
  S  S13  1  0.89841689  0.12273084  0.62273084  1
  S  S14  1  0.71186797  0.43529308  0.67523707  1
  S  S15  1  0.28813203  0.06470692  0.17523707  1
  S  S16  1  0.71186797  0.56470692  0.32476293  1
  S  S17  1  0.28813203  0.93529308  0.82476293  1
  S  S18  1  0.28813203  0.32476293  0.43529308  1
  S  S19  1  0.71186797  0.17523707  0.93529308  1
  S  S20  1  0.28813203  0.67523707  0.56470692  1
  S  S21  1  0.71186797  0.82476293  0.06470692  1
  O  O22  1  0.20575528  0.30330492  0.80330492  1
  O  O23  1  0.79424472  0.19669508  0.30330492  1
  O  O24  1  0.20575528  0.69669508  0.19669508  1
  O  O25  1  0.79424472  0.80330492  0.69669508  1
  O  O26  1  0.54341585  0.43381818  0.06618182  1
  O  O27  1  0.45658415  0.06618182  0.56618182  1
  O  O28  1  0.54341585  0.56618182  0.93381818  1
  O  O29  1  0.45658415  0.93381818  0.43381818  1
  O  O30  1  0.77527638  0.43449434  0.93449434  1
  O  O31  1  0.22472362  0.06550566  0.43449434  1
  O  O32  1  0.77527638  0.56550566  0.06550566  1
  O  O33  1  0.22472362  0.93449434  0.56550566  1
  O  O34  1  0.92223756  0.65672458  0.84327542  1
  O  O35  1  0.07776244  0.84327542  0.34327542  1
  O  O36  1  0.92223756  0.34327542  0.15672458  1
  O  O37  1  0.07776244  0.15672458  0.65672458  1
  O  O38  1  0.25356543  0.67373852  0.82626148  1
  O  O39  1  0.74643457  0.82626148  0.32626148  1
  O  O40  1  0.25356543  0.32626148  0.17373852  1
  O  O41  1  0.74643457  0.17373852  0.67373852  1
  O  O42  1  0.12231088  0.50909340  0.85952432  1
  O  O43  1  0.87768912  0.99090660  0.35952432  1
  O  O44  1  0.12231088  0.49090660  0.14047568  1
  O  O45  1  0.87768912  0.00909340  0.64047568  1
  O  O46  1  0.87768912  0.14047568  0.50909340  1
  O  O47  1  0.12231088  0.35952432  0.00909340  1
  O  O48  1  0.87768912  0.85952432  0.49090660  1
  O  O49  1  0.12231088  0.64047568  0.99090660  1
  O  O50  1  0.55594726  0.37108402  0.70685945  1
  O  O51  1  0.44405274  0.12891598  0.20685945  1
  O  O52  1  0.55594726  0.62891598  0.29314055  1
  O  O53  1  0.44405274  0.87108402  0.79314055  1
  O  O54  1  0.44405274  0.29314055  0.37108402  1
  O  O55  1  0.55594726  0.20685945  0.87108402  1
  O  O56  1  0.44405274  0.70685945  0.62891598  1
  O  O57  1  0.55594726  0.79314055  0.12891598  1
  O  O58  1  0.68568525  0.54240610  0.70570471  1
  O  O59  1  0.31431475  0.95759390  0.20570471  1
  O  O60  1  0.68568525  0.45759390  0.29429529  1
  O  O61  1  0.31431475  0.04240610  0.79429529  1
  O  O62  1  0.31431475  0.29429529  0.54240610  1
  O  O63  1  0.68568525  0.20570471  0.04240610  1
  O  O64  1  0.31431475  0.70570471  0.45759390  1
  O  O65  1  0.68568525  0.79429529  0.95759390  1
  O  O66  1  0.74744196  0.42412655  0.56550626  1
  O  O67  1  0.25255804  0.07587345  0.06550626  1
  O  O68  1  0.74744196  0.57587345  0.43449374  1
  O  O69  1  0.25255804  0.92412655  0.93449374  1
  O  O70  1  0.25255804  0.43449374  0.42412655  1
  O  O71  1  0.74744196  0.06550626  0.92412655  1
  O  O72  1  0.25255804  0.56550626  0.57587345  1
  O  O73  1  0.74744196  0.93449374  0.07587345  1
  O  O74  1  0.88143511  0.39416639  0.73247342  1
  O  O75  1  0.11856489  0.10583361  0.23247342  1
  O  O76  1  0.88143511  0.60583361  0.26752658  1
  O  O77  1  0.11856489  0.89416639  0.76752658  1
  O  O78  1  0.11856489  0.26752658  0.39416639  1
  O  O79  1  0.88143511  0.23247342  0.89416639  1
  O  O80  1  0.11856489  0.73247342  0.60583361  1
  O  O81  1  0.88143511  0.76752658  0.10583361  1
