# generated using pymatgen
data_Na3U2H5(Se2O9)2
_symmetry_space_group_name_H-M   'P 1'
_cell_length_a   9.92097064
_cell_length_b   9.77071074
_cell_length_c   11.73219683
_cell_angle_alpha   66.14164578
_cell_angle_beta   84.08636300
_cell_angle_gamma   62.35587553
_symmetry_Int_Tables_number   1
_chemical_formula_structural   Na3U2H5(Se2O9)2
_chemical_formula_sum   'Na6 U4 H10 Se8 O36'
_cell_volume   916.30826982
_cell_formula_units_Z   2
loop_
 _symmetry_equiv_pos_site_id
 _symmetry_equiv_pos_as_xyz
  1  'x, y, z'
loop_
 _atom_site_type_symbol
 _atom_site_label
 _atom_site_symmetry_multiplicity
 _atom_site_fract_x
 _atom_site_fract_y
 _atom_site_fract_z
 _atom_site_occupancy
  Na  Na0  1  0.71995162  0.34107452  0.49870305  1
  Na  Na1  1  0.28004838  0.65892548  0.50129695  1
  Na  Na2  1  0.57526977  0.76333596  0.51361998  1
  Na  Na3  1  0.42473023  0.23666404  0.48638002  1
  Na  Na4  1  0.13195106  0.08705032  0.48293692  1
  Na  Na5  1  0.86804894  0.91294968  0.51706308  1
  U  U6  1  0.35188067  0.15807378  0.19757678  1
  U  U7  1  0.64811933  0.84192622  0.80242322  1
  U  U8  1  0.19165829  0.63216508  0.19958963  1
  U  U9  1  0.80834171  0.36783492  0.80041037  1
  H  H10  1  0.26631907  0.09361875  0.66894454  1
  H  H11  1  0.73368093  0.90638125  0.33105546  1
  H  H12  1  0.14356276  0.28379446  0.61767694  1
  H  H13  1  0.85643724  0.71620554  0.38232306  1
  H  H14  1  0.70416180  0.04121651  0.10178365  1
  H  H15  1  0.29583820  0.95878349  0.89821635  1
  H  H16  1  0.81947460  0.84248304  0.10752609  1
  H  H17  1  0.18052540  0.15751696  0.89247391  1
  H  H18  1  0.69811085  0.99954786  0.97697444  1
  H  H19  1  0.30188915  0.00045214  0.02302556  1
  Se  Se20  1  0.01492670  0.04838891  0.24132955  1
  Se  Se21  1  0.98507330  0.95161109  0.75867045  1
  Se  Se22  1  0.94082751  0.48112966  0.20721951  1
  Se  Se23  1  0.05917249  0.51887034  0.79278049  1
  Se  Se24  1  0.61427983  0.28106395  0.22304947  1
  Se  Se25  1  0.38572017  0.71893605  0.77695053  1
  Se  Se26  1  0.53875543  0.69599592  0.23992710  1
  Se  Se27  1  0.46124457  0.30400408  0.76007290  1
  O  O28  1  0.37788411  0.05231844  0.37148886  1
  O  O29  1  0.62211589  0.94768156  0.62851114  1
  O  O30  1  0.33311125  0.26707507  0.02769528  1
  O  O31  1  0.66688875  0.73292493  0.97230472  1
  O  O32  1  0.22710929  0.54578284  0.37193275  1
  O  O33  1  0.77289071  0.45421716  0.62806725  1
  O  O34  1  0.16229428  0.70217663  0.03132615  1
  O  O35  1  0.83770572  0.29782337  0.96867385  1
  O  O36  1  0.63212371  0.10248306  0.20406271  1
  O  O37  1  0.36787629  0.89751694  0.79593729  1
  O  O38  1  0.48323666  0.91307597  0.17310380  1
  O  O39  1  0.51676334  0.08692403  0.82689620  1
  O  O40  1  0.15775990  0.10873589  0.18092412  1
  O  O41  1  0.84224010  0.89126411  0.81907588  1
  O  O42  1  0.14380780  0.39497429  0.21884705  1
  O  O43  1  0.85619220  0.60502571  0.78115295  1
  O  O44  1  0.41331416  0.36825838  0.21594997  1
  O  O45  1  0.58668584  0.63174162  0.78405003  1
  O  O46  1  0.38475356  0.69947334  0.17704183  1
  O  O47  1  0.61524644  0.30052666  0.82295817  1
  O  O48  1  0.04867804  0.89501101  0.18819935  1
  O  O49  1  0.95132196  0.10498899  0.81180065  1
  O  O50  1  0.91637858  0.67080762  0.21034247  1
  O  O51  1  0.08362142  0.32919238  0.78965753  1
  O  O52  1  0.07594099  0.93637589  0.39577936  1
  O  O53  1  0.92405901  0.06362411  0.60422064  1
  O  O54  1  0.91376760  0.36868984  0.35085495  1
  O  O55  1  0.08623240  0.63131016  0.64914505  1
  O  O56  1  0.66327400  0.20573376  0.37752871  1
  O  O57  1  0.33672600  0.79426624  0.62247129  1
  O  O58  1  0.51537825  0.64677402  0.39363252  1
  O  O59  1  0.48462175  0.35322598  0.60636748  1
  O  O60  1  0.21742599  0.19683884  0.59026054  1
  O  O61  1  0.78257401  0.80316116  0.40973946  1
  O  O62  1  0.76350922  0.97220458  0.04870931  1
  O  O63  1  0.23649078  0.02779542  0.95129069  1
