# generated using pymatgen
data_KYF4
_symmetry_space_group_name_H-M   'P 1'
_cell_length_a   10.31579097
_cell_length_b   14.29334444
_cell_length_c   14.29334444
_cell_angle_alpha   120.00000036
_cell_angle_beta   90.00000000
_cell_angle_gamma   90.00000000
_symmetry_Int_Tables_number   1
_chemical_formula_structural   KYF4
_chemical_formula_sum   'K18 Y18 F72'
_cell_volume   1825.15974774
_cell_formula_units_Z   18
loop_
 _symmetry_equiv_pos_site_id
 _symmetry_equiv_pos_as_xyz
  1  'x, y, z'
loop_
 _atom_site_type_symbol
 _atom_site_label
 _atom_site_symmetry_multiplicity
 _atom_site_fract_x
 _atom_site_fract_y
 _atom_site_fract_z
 _atom_site_occupancy
  K  K0  1  0.01943728  0.04743404  0.78069073  1
  K  K1  1  0.68610328  0.21930927  0.26674331  1
  K  K2  1  0.35277028  0.73325669  0.95256596  1
  K  K3  1  0.99105232  0.06145244  0.28077301  1
  K  K4  1  0.65771832  0.71922699  0.78067943  1
  K  K5  1  0.32438532  0.21932057  0.93854756  1
  K  K6  1  0.01585628  0.73270552  0.12194571  1
  K  K7  1  0.68252228  0.87805429  0.61075981  1
  K  K8  1  0.34918928  0.38924019  0.26729448  1
  K  K9  1  0.98716974  0.70950831  0.60487825  1
  K  K10  1  0.65383574  0.39512175  0.10463005  1
  K  K11  1  0.32050274  0.89536995  0.29049169  1
  K  K12  1  0.98619061  0.39187302  0.93571728  1
  K  K13  1  0.65285661  0.06428272  0.45615574  1
  K  K14  1  0.31952361  0.54384426  0.60812698  1
  K  K15  1  0.01570438  0.38487184  0.43741713  1
  K  K16  1  0.68237038  0.56258287  0.94745471  1
  K  K17  1  0.34903738  0.05254529  0.61512816  1
  Y  Y18  1  0.00011320  0.24007004  0.10994884  1
  Y  Y19  1  0.66677920  0.89005116  0.13012120  1
  Y  Y20  1  0.33344620  0.86987880  0.75992996  1
  Y  Y21  1  0.99185014  0.55044161  0.26898607  1
  Y  Y22  1  0.65851614  0.73101393  0.28145554  1
  Y  Y23  1  0.32518314  0.71854446  0.44955839  1
  Y  Y24  1  0.00978071  0.57335980  0.79287384  1
  Y  Y25  1  0.67644671  0.20712616  0.78048596  1
  Y  Y26  1  0.34311371  0.21951404  0.42664020  1
  Y  Y27  1  0.99593115  0.88359104  0.94143347  1
  Y  Y28  1  0.66259715  0.05856653  0.94215756  1
  Y  Y29  1  0.32926415  0.05784244  0.11640896  1
  Y  Y30  1  0.99498464  0.90774362  0.45551148  1
  Y  Y31  1  0.66165064  0.54448852  0.45223214  1
  Y  Y32  1  0.32831764  0.54776786  0.09225638  1
  Y  Y33  1  0.01489758  0.21778054  0.61397386  1
  Y  Y34  1  0.68156358  0.38602614  0.60380669  1
  Y  Y35  1  0.34823058  0.39619331  0.78221946  1
  F  F36  1  0.78396911  0.19547459  0.06396335  1
  F  F37  1  0.45063511  0.93603665  0.13151124  1
  F  F38  1  0.11730211  0.86848876  0.80452541  1
  F  F39  1  0.20951207  0.19054941  0.12136357  1
  F  F40  1  0.87617807  0.87863643  0.06918584  1
  F  F41  1  0.54284507  0.93081416  0.80945059  1
  F  F42  1  0.14224420  0.61338379  0.40391960  1
  F  F43  1  0.80891020  0.59608040  0.20946419  1
  F  F44  1  0.47557720  0.79053581  0.38661621  1
  F  F45  1  0.32625897  0.61105880  0.27123594  1
  F  F46  1  0.99292497  0.72876406  0.33982286  1
  F  F47  1  0.65959197  0.66017714  0.38894120  1
  F  F48  1  0.22618467  0.53296193  0.79574069  1
  F  F49  1  0.89285067  0.20425931  0.73722124  1
  F  F50  1  0.55951767  0.26277876  0.46703807  1
  F  F51  1  0.80126590  0.51951085  0.72974737  1
  F  F52  1  0.46793190  0.27025263  0.78976349  1
  F  F53  1  0.13459890  0.21023651  0.48048915  1
  F  F54  1  0.33279705  0.93965213  0.93973944  1
  F  F55  1  0.99946305  0.06026056  0.99991270  1
  F  F56  1  0.66613005  0.00008730  0.06034787  1
  F  F57  1  0.47960555  0.12210023  0.04610788  1
  F  F58  1  0.14627155  0.95389212  0.07599236  1
  F  F59  1  0.81293855  0.92400764  0.87789977  1
  F  F60  1  0.20419929  0.85369089  0.46234647  1
  F  F61  1  0.87086529  0.53765353  0.39134442  1
  F  F62  1  0.53753229  0.60865558  0.14630911  1
  F  F63  1  0.77941151  0.86554318  0.40799643  1
  F  F64  1  0.44607751  0.59200357  0.45754676  1
  F  F65  1  0.11274451  0.54245324  0.13445682  1
  F  F66  1  0.20357643  0.25748686  0.70983323  1
  F  F67  1  0.87024243  0.29016677  0.54765364  1
  F  F68  1  0.53690943  0.45234636  0.74251314  1
  F  F69  1  0.34668360  0.33916999  0.60530295  1
  F  F70  1  0.01334960  0.39469705  0.73386704  1
  F  F71  1  0.68001660  0.26613296  0.66083001  1
  F  F72  1  0.73576155  0.03780804  0.27117517  1
  F  F73  1  0.40242755  0.72882483  0.76663288  1
  F  F74  1  0.06909455  0.23336712  0.96219196  1
  F  F75  1  0.24408294  0.08532462  0.27644130  1
  F  F76  1  0.91074894  0.72355870  0.80888332  1
  F  F77  1  0.57741594  0.19111668  0.91467538  1
  F  F78  1  0.27666689  0.02487513  0.77720644  1
  F  F79  1  0.94333289  0.22279356  0.24766868  1
  F  F80  1  0.60999989  0.75233132  0.97512487  1
  F  F81  1  0.10078738  0.73363339  0.92447615  1
  F  F82  1  0.76745338  0.07552385  0.80915723  1
  F  F83  1  0.43412038  0.19084277  0.26636661  1
  F  F84  1  0.23779480  0.73820146  0.60641502  1
  F  F85  1  0.90446080  0.39358498  0.13178644  1
  F  F86  1  0.57112780  0.86821356  0.26179854  1
  F  F87  1  0.73200958  0.68967592  0.59590242  1
  F  F88  1  0.39867558  0.40409758  0.09377350  1
  F  F89  1  0.06534258  0.90622650  0.31032408  1
  F  F90  1  0.09422055  0.39681169  0.24475296  1
  F  F91  1  0.76088655  0.75524704  0.15205874  1
  F  F92  1  0.42755355  0.84794126  0.60318831  1
  F  F93  1  0.27295403  0.70531503  0.11590996  1
  F  F94  1  0.93962003  0.88409004  0.58940507  1
  F  F95  1  0.60628703  0.41059493  0.29468497  1
  F  F96  1  0.27001555  0.36194571  0.42487402  1
  F  F97  1  0.93668155  0.57512598  0.93707169  1
  F  F98  1  0.60334855  0.06292831  0.63805429  1
  F  F99  1  0.42939104  0.53273358  0.94261923  1
  F  F100  1  0.09605704  0.05738077  0.59011435  1
  F  F101  1  0.76272404  0.40988565  0.46726642  1
  F  F102  1  0.23946387  0.41627210  0.93157048  1
  F  F103  1  0.90612987  0.06842952  0.48470163  1
  F  F104  1  0.57279687  0.51529837  0.58372790  1
  F  F105  1  0.72892745  0.36635046  0.91437736  1
  F  F106  1  0.39559345  0.08562264  0.45197309  1
  F  F107  1  0.06226045  0.54802691  0.63364954  1
