# generated using pymatgen
data_CsP2H5O8
_symmetry_space_group_name_H-M   'P 1'
_cell_length_a   7.79949138
_cell_length_b   9.66384541
_cell_length_c   11.75080795
_cell_angle_alpha   102.37854205
_cell_angle_beta   90.00000000
_cell_angle_gamma   90.00000000
_symmetry_Int_Tables_number   1
_chemical_formula_structural   CsP2H5O8
_chemical_formula_sum   'Cs4 P8 H20 O32'
_cell_volume   865.10450685
_cell_formula_units_Z   4
loop_
 _symmetry_equiv_pos_site_id
 _symmetry_equiv_pos_as_xyz
  1  'x, y, z'
loop_
 _atom_site_type_symbol
 _atom_site_label
 _atom_site_symmetry_multiplicity
 _atom_site_fract_x
 _atom_site_fract_y
 _atom_site_fract_z
 _atom_site_occupancy
  Cs  Cs0  1  0.34012081  0.53136070  0.25299619  1
  Cs  Cs1  1  0.84012081  0.96863930  0.74700381  1
  Cs  Cs2  1  0.65987919  0.46863930  0.74700381  1
  Cs  Cs3  1  0.15987919  0.03136070  0.25299619  1
  P  P4  1  0.81872525  0.66848905  0.42279290  1
  P  P5  1  0.31872525  0.83151095  0.57720710  1
  P  P6  1  0.18127475  0.33151095  0.57720710  1
  P  P7  1  0.68127475  0.16848905  0.42279290  1
  P  P8  1  0.80959397  0.70798391  0.07558923  1
  P  P9  1  0.30959397  0.79201609  0.92441077  1
  P  P10  1  0.19040603  0.29201609  0.92441077  1
  P  P11  1  0.69040603  0.20798391  0.07558923  1
  H  H12  1  0.72488631  0.44351746  0.40537941  1
  H  H13  1  0.22488631  0.05648254  0.59462059  1
  H  H14  1  0.27511369  0.55648254  0.59462059  1
  H  H15  1  0.77511369  0.94351746  0.40537941  1
  H  H16  1  0.02549510  0.68475847  0.55714067  1
  H  H17  1  0.52549510  0.81524153  0.44285933  1
  H  H18  1  0.97450490  0.31524153  0.44285933  1
  H  H19  1  0.47450490  0.18475847  0.55714067  1
  H  H20  1  0.95852471  0.69290277  0.24912172  1
  H  H21  1  0.45852471  0.80709723  0.75087828  1
  H  H22  1  0.04147529  0.30709723  0.75087828  1
  H  H23  1  0.54147529  0.19290277  0.24912172  1
  H  H24  1  0.73194949  0.48885111  0.09282753  1
  H  H25  1  0.23194949  0.01114889  0.90717247  1
  H  H26  1  0.26805051  0.51114889  0.90717247  1
  H  H27  1  0.76805051  0.98885111  0.09282753  1
  H  H28  1  0.01488287  0.65701366  0.93943745  1
  H  H29  1  0.51488287  0.84298634  0.06056255  1
  H  H30  1  0.98511713  0.34298634  0.06056255  1
  H  H31  1  0.48511713  0.15701366  0.93943745  1
  O  O32  1  0.71399889  0.80103193  0.41900992  1
  O  O33  1  0.21399889  0.69896807  0.58099008  1
  O  O34  1  0.28600111  0.19896807  0.58099008  1
  O  O35  1  0.78600111  0.30103193  0.41900992  1
  O  O36  1  0.97074275  0.64745738  0.33671608  1
  O  O37  1  0.47074275  0.85254262  0.66328392  1
  O  O38  1  0.02925725  0.35254262  0.66328392  1
  O  O39  1  0.52925725  0.14745738  0.33671608  1
  O  O40  1  0.68525060  0.54344942  0.39788092  1
  O  O41  1  0.18525060  0.95655058  0.60211908  1
  O  O42  1  0.31474940  0.45655058  0.60211908  1
  O  O43  1  0.81474940  0.04344942  0.39788092  1
  O  O44  1  0.89328128  0.67324472  0.54869494  1
  O  O45  1  0.39328128  0.82675528  0.45130506  1
  O  O46  1  0.10671872  0.32675528  0.45130506  1
  O  O47  1  0.60671872  0.17324472  0.54869494  1
  O  O48  1  0.70037336  0.84012610  0.07969808  1
  O  O49  1  0.20037336  0.65987390  0.92030192  1
  O  O50  1  0.29962664  0.15987390  0.92030192  1
  O  O51  1  0.79962664  0.34012610  0.07969808  1
  O  O52  1  0.96254560  0.73735824  0.16104132  1
  O  O53  1  0.46254560  0.76264176  0.83895868  1
  O  O54  1  0.03745440  0.26264176  0.83895868  1
  O  O55  1  0.53745440  0.23735824  0.16104132  1
  O  O56  1  0.68489398  0.59122018  0.10307509  1
  O  O57  1  0.18489398  0.90877982  0.89692491  1
  O  O58  1  0.31510602  0.40877982  0.89692491  1
  O  O59  1  0.81510602  0.09122018  0.10307509  1
  O  O60  1  0.88218734  0.64962012  0.94892633  1
  O  O61  1  0.38218734  0.85037988  0.05107367  1
  O  O62  1  0.11781266  0.35037988  0.05107367  1
  O  O63  1  0.61781266  0.14962012  0.94892633  1
