# generated using pymatgen
data_Bi2B8O15
_symmetry_space_group_name_H-M   'P 1'
_cell_length_a   4.37028832
_cell_length_b   6.54835603
_cell_length_c   22.99292044
_cell_angle_alpha   87.56213075
_cell_angle_beta   86.14505509
_cell_angle_gamma   75.34456283
_symmetry_Int_Tables_number   1
_chemical_formula_structural   Bi2B8O15
_chemical_formula_sum   'Bi4 B16 O30'
_cell_volume   634.94493395
_cell_formula_units_Z   2
loop_
 _symmetry_equiv_pos_site_id
 _symmetry_equiv_pos_as_xyz
  1  'x, y, z'
loop_
 _atom_site_type_symbol
 _atom_site_label
 _atom_site_symmetry_multiplicity
 _atom_site_fract_x
 _atom_site_fract_y
 _atom_site_fract_z
 _atom_site_occupancy
  Bi  Bi0  1  0.12307081  0.62567892  0.93392761  1
  Bi  Bi1  1  0.87692919  0.37432108  0.06607239  1
  Bi  Bi2  1  0.58847438  0.10935082  0.56662256  1
  Bi  Bi3  1  0.41152562  0.89064918  0.43337744  1
  B  B4  1  0.66106344  0.31231389  0.42989638  1
  B  B5  1  0.33893656  0.68768611  0.57010362  1
  B  B6  1  0.87307622  0.20924818  0.92769269  1
  B  B7  1  0.12692378  0.79075182  0.07230731  1
  B  B8  1  0.91898452  0.47183867  0.56747456  1
  B  B9  1  0.08101548  0.52816133  0.43252544  1
  B  B10  1  0.45093130  0.99273396  0.93100458  1
  B  B11  1  0.54906870  0.00726604  0.06899542  1
  B  B12  1  0.33890480  0.67642982  0.68097660  1
  B  B13  1  0.66109520  0.32357018  0.31902340  1
  B  B14  1  0.95268744  0.74935010  0.18162806  1
  B  B15  1  0.04731256  0.25064990  0.81837194  1
  B  B16  1  0.73756545  0.02449224  0.25015591  1
  B  B17  1  0.26243455  0.97550776  0.74984409  1
  B  B18  1  0.29780806  0.32823826  0.72642595  1
  B  B19  1  0.70219194  0.67176174  0.27357405  1
  O  O20  1  0.59463138  0.49049770  0.56330104  1
  O  O21  1  0.40536862  0.50950230  0.43669896  1
  O  O22  1  0.12339401  0.01011296  0.93384466  1
  O  O23  1  0.87660599  0.98988704  0.06615534  1
  O  O24  1  0.55824648  0.17102601  0.93059462  1
  O  O25  1  0.44175352  0.82897399  0.06940538  1
  O  O26  1  0.62334315  0.78684569  0.92906926  1
  O  O27  1  0.37665685  0.21315431  0.07093074  1
  O  O28  1  0.02828591  0.64913935  0.56510915  1
  O  O29  1  0.97171409  0.35086065  0.43489085  1
  O  O30  1  0.08663256  0.26566203  0.57365795  1
  O  O31  1  0.91336744  0.73433797  0.42634205  1
  O  O32  1  0.61914583  0.14343119  0.47177988  1
  O  O33  1  0.38085417  0.85656881  0.52822012  1
  O  O34  1  0.11421091  0.63365292  0.02848469  1
  O  O35  1  0.88578909  0.36634708  0.97151531  1
  O  O36  1  0.34553021  0.78057930  0.62908157  1
  O  O37  1  0.65446979  0.21942070  0.37091843  1
  O  O38  1  0.07389766  0.67815091  0.12890064  1
  O  O39  1  0.92610234  0.32184909  0.87109936  1
  O  O40  1  0.87170302  0.60407930  0.22241212  1
  O  O41  1  0.12829698  0.39592070  0.77758788  1
  O  O42  1  0.90368800  0.95878528  0.19801241  1
  O  O43  1  0.09631200  0.04121472  0.80198759  1
  O  O44  1  0.37739722  0.45854005  0.68351052  1
  O  O45  1  0.62260278  0.54145995  0.31648948  1
  O  O46  1  0.39286107  0.11382605  0.71496585  1
  O  O47  1  0.60713893  0.88617395  0.28503415  1
  O  O48  1  0.70667613  0.22605121  0.26592501  1
  O  O49  1  0.29332387  0.77394879  0.73407499  1
