# generated using pymatgen
data_NaAlH12(SO7)2
_symmetry_space_group_name_H-M   'P 1'
_cell_length_a   6.16965871
_cell_length_b   7.43772000
_cell_length_c   25.51564571
_cell_angle_alpha   90.00000000
_cell_angle_beta   90.00000000
_cell_angle_gamma   94.66594384
_symmetry_Int_Tables_number   1
_chemical_formula_structural   NaAlH12(SO7)2
_chemical_formula_sum   'Na4 Al4 H48 S8 O56'
_cell_volume   1166.98654658
_cell_formula_units_Z   4
loop_
 _symmetry_equiv_pos_site_id
 _symmetry_equiv_pos_as_xyz
  1  'x, y, z'
loop_
 _atom_site_type_symbol
 _atom_site_label
 _atom_site_symmetry_multiplicity
 _atom_site_fract_x
 _atom_site_fract_y
 _atom_site_fract_z
 _atom_site_occupancy
  Na  Na0  1  0.19674540  0.11312840  0.44859858  1
  Na  Na1  1  0.80325460  0.38687160  0.94859858  1
  Na  Na2  1  0.80325460  0.88687160  0.55140142  1
  Na  Na3  1  0.19674540  0.61312840  0.05140142  1
  Al  Al4  1  0.67647113  0.64195652  0.35461271  1
  Al  Al5  1  0.32352887  0.85804348  0.85461271  1
  Al  Al6  1  0.32352887  0.35804348  0.64538729  1
  Al  Al7  1  0.67647113  0.14195652  0.14538729  1
  H  H8  1  0.31053416  0.52002293  0.32122196  1
  H  H9  1  0.68946584  0.97997707  0.82122196  1
  H  H10  1  0.68946584  0.47997707  0.67877804  1
  H  H11  1  0.31053416  0.02002293  0.17877804  1
  H  H12  1  0.42047203  0.64526791  0.27395342  1
  H  H13  1  0.57952797  0.85473209  0.77395342  1
  H  H14  1  0.57952797  0.35473209  0.72604658  1
  H  H15  1  0.42047203  0.14526791  0.22604658  1
  H  H16  1  0.41962802  0.64487620  0.43399192  1
  H  H17  1  0.58037198  0.85512380  0.93399192  1
  H  H18  1  0.58037198  0.35512380  0.56600808  1
  H  H19  1  0.41962802  0.14487620  0.06600808  1
  H  H20  1  0.51851508  0.44343489  0.43100242  1
  H  H21  1  0.48148492  0.05656511  0.93100242  1
  H  H22  1  0.48148492  0.55656511  0.56899758  1
  H  H23  1  0.51851508  0.94343489  0.06899758  1
  H  H24  1  0.68948035  0.93941681  0.40765865  1
  H  H25  1  0.31051965  0.56058319  0.90765865  1
  H  H26  1  0.31051965  0.06058319  0.59234135  1
  H  H27  1  0.68948035  0.43941681  0.09234135  1
  H  H28  1  0.49204046  0.93464385  0.36522553  1
  H  H29  1  0.50795954  0.56535615  0.86522553  1
  H  H30  1  0.50795954  0.06535615  0.63477447  1
  H  H31  1  0.49204046  0.43464385  0.13477447  1
  H  H32  1  0.62370418  0.31577999  0.31756436  1
  H  H33  1  0.37629582  0.18422001  0.81756436  1
  H  H34  1  0.37629582  0.68422001  0.68243564  1
  H  H35  1  0.62370418  0.81577999  0.18243564  1
  H  H36  1  0.88154337  0.35719997  0.33651415  1
  H  H37  1  0.11845663  0.14280003  0.83651415  1
  H  H38  1  0.11845663  0.64280003  0.66348585  1
  H  H39  1  0.88154337  0.85719997  0.16348585  1
  H  H40  1  0.91481028  0.86246030  0.29492482  1
  H  H41  1  0.08518972  0.63753970  0.79492482  1
  H  H42  1  0.08518972  0.13753970  0.70507518  1
  H  H43  1  0.91481028  0.36246030  0.20507518  1
  H  H44  1  0.91951599  0.66279137  0.27028187  1
  H  H45  1  0.08048401  0.83720863  0.77028187  1
  H  H46  1  0.08048401  0.33720863  0.72971813  1
  H  H47  1  0.91951599  0.16279137  0.22971813  1
  H  H48  1  0.04510972  0.73279846  0.40623298  1
  H  H49  1  0.95489028  0.76720154  0.90623298  1
  H  H50  1  0.95489028  0.26720154  0.59376702  1
  H  H51  1  0.04510972  0.23279846  0.09376702  1
  H  H52  1  0.93529203  0.54178239  0.42617576  1
  H  H53  1  0.06470797  0.95821761  0.92617576  1
  H  H54  1  0.06470797  0.45821761  0.57382424  1
  H  H55  1  0.93529203  0.04178239  0.07382424  1
  S  S56  1  0.21036315  0.14637260  0.31610011  1
  S  S57  1  0.78963685  0.35362740  0.81610011  1
  S  S58  1  0.78963685  0.85362740  0.68389989  1
  S  S59  1  0.21036315  0.64637260  0.18389989  1
  S  S60  1  0.74918250  0.21274652  0.47862699  1
  S  S61  1  0.25081750  0.28725348  0.97862699  1
  S  S62  1  0.25081750  0.78725348  0.52137301  1
  S  S63  1  0.74918250  0.71274652  0.02137301  1
  O  O64  1  0.04277739  0.05865777  0.27985264  1
  O  O65  1  0.95722261  0.44134223  0.77985264  1
  O  O66  1  0.95722261  0.94134223  0.72014736  1
  O  O67  1  0.04277739  0.55865777  0.22014736  1
  O  O68  1  0.13620320  0.31964579  0.33625403  1
  O  O69  1  0.86379680  0.18035421  0.83625403  1
  O  O70  1  0.86379680  0.68035421  0.66374597  1
  O  O71  1  0.13620320  0.81964579  0.16374597  1
  O  O72  1  0.24670230  0.02246991  0.36055279  1
  O  O73  1  0.75329770  0.47753009  0.86055279  1
  O  O74  1  0.75329770  0.97753009  0.63944721  1
  O  O75  1  0.24670230  0.52246991  0.13944721  1
  O  O76  1  0.41985331  0.18699108  0.28699322  1
  O  O77  1  0.58014669  0.31300892  0.78699322  1
  O  O78  1  0.58014669  0.81300892  0.71300678  1
  O  O79  1  0.41985331  0.68699108  0.21300678  1
  O  O80  1  0.73453323  0.21113718  0.53734750  1
  O  O81  1  0.26546677  0.28886282  0.03734750  1
  O  O82  1  0.26546677  0.78886282  0.46265250  1
  O  O83  1  0.73453323  0.71113718  0.96265250  1
  O  O84  1  0.53700399  0.26040092  0.45675343  1
  O  O85  1  0.46299601  0.23959908  0.95675343  1
  O  O86  1  0.46299601  0.73959908  0.54324657  1
  O  O87  1  0.53700399  0.76040092  0.04324657  1
  O  O88  1  0.79181621  0.02520116  0.46179022  1
  O  O89  1  0.20818379  0.47479884  0.96179022  1
  O  O90  1  0.20818379  0.97479884  0.53820978  1
  O  O91  1  0.79181621  0.52520116  0.03820978  1
  O  O92  1  0.93020839  0.34002139  0.46035883  1
  O  O93  1  0.06979161  0.15997861  0.96035883  1
  O  O94  1  0.06979161  0.65997861  0.53964117  1
  O  O95  1  0.93020839  0.84002139  0.03964117  1
  O  O96  1  0.41880526  0.62295572  0.31314337  1
  O  O97  1  0.58119474  0.87704428  0.81314337  1
  O  O98  1  0.58119474  0.37704428  0.68685663  1
  O  O99  1  0.41880526  0.12295572  0.18685663  1
  O  O100  1  0.49940683  0.56064887  0.41178692  1
  O  O101  1  0.50059317  0.93935113  0.91178692  1
  O  O102  1  0.50059317  0.43935113  0.58821308  1
  O  O103  1  0.49940683  0.06064887  0.08821308  1
  O  O104  1  0.63522958  0.88577095  0.37315550  1
  O  O105  1  0.36477042  0.61422905  0.87315550  1
  O  O106  1  0.36477042  0.11422905  0.62684450  1
  O  O107  1  0.63522958  0.38577095  0.12684450  1
  O  O108  1  0.73075728  0.40110810  0.33631183  1
  O  O109  1  0.26924272  0.09889190  0.83631183  1
  O  O110  1  0.26924272  0.59889190  0.66368817  1
  O  O111  1  0.73075728  0.90110810  0.16368817  1
  O  O112  1  0.84619588  0.73532896  0.29701716  1
  O  O113  1  0.15380412  0.76467104  0.79701716  1
  O  O114  1  0.15380412  0.26467104  0.70298284  1
  O  O115  1  0.84619588  0.23532896  0.20298284  1
  O  O116  1  0.92858579  0.63904368  0.39912541  1
  O  O117  1  0.07141421  0.86095632  0.89912541  1
  O  O118  1  0.07141421  0.36095632  0.60087459  1
  O  O119  1  0.92858579  0.13904368  0.10087459  1
