# generated using pymatgen
data_Rb4Mo5(PO11)2
_symmetry_space_group_name_H-M   'P 1'
_cell_length_a   6.70964291
_cell_length_b   10.68007630
_cell_length_c   17.77937933
_cell_angle_alpha   90.00000000
_cell_angle_beta   90.00000000
_cell_angle_gamma   108.30767653
_symmetry_Int_Tables_number   1
_chemical_formula_structural   Rb4Mo5(PO11)2
_chemical_formula_sum   'Rb8 Mo10 P4 O44'
_cell_volume   1209.57274580
_cell_formula_units_Z   2
loop_
 _symmetry_equiv_pos_site_id
 _symmetry_equiv_pos_as_xyz
  1  'x, y, z'
loop_
 _atom_site_type_symbol
 _atom_site_label
 _atom_site_symmetry_multiplicity
 _atom_site_fract_x
 _atom_site_fract_y
 _atom_site_fract_z
 _atom_site_occupancy
  Rb  Rb0  1  0.04025551  1.00000000  0.00000000  1
  Rb  Rb1  1  0.95974449  0.00000000  0.50000000  1
  Rb  Rb2  1  0.23421558  0.52567445  0.60093253  1
  Rb  Rb3  1  0.70854113  0.47432555  0.39906747  1
  Rb  Rb4  1  0.76578442  0.47432555  0.10093253  1
  Rb  Rb5  1  0.29145887  0.52567445  0.89906747  1
  Rb  Rb6  1  0.91705497  0.83410995  0.75000000  1
  Rb  Rb7  1  0.08294503  0.16589005  0.25000000  1
  Mo  Mo8  1  0.57325248  0.27834927  0.59320322  1
  Mo  Mo9  1  0.29490321  0.72165073  0.40679678  1
  Mo  Mo10  1  0.42674752  0.72165073  0.09320322  1
  Mo  Mo11  1  0.70509679  0.27834927  0.90679678  1
  Mo  Mo12  1  0.73603510  0.47207020  0.75000000  1
  Mo  Mo13  1  0.26396490  0.52792980  0.25000000  1
  Mo  Mo14  1  0.47187650  0.95286640  0.85622663  1
  Mo  Mo15  1  0.51901010  0.04713360  0.14377337  1
  Mo  Mo16  1  0.52812350  0.04713360  0.35622663  1
  Mo  Mo17  1  0.48098990  0.95286640  0.64377337  1
  P  P18  1  0.87267648  0.18268978  0.73456686  1
  P  P19  1  0.68998670  0.81731022  0.26543314  1
  P  P20  1  0.12732352  0.81731022  0.23456686  1
  P  P21  1  0.31001330  0.18268978  0.76543314  1
  O  O22  1  0.83242456  0.06083471  0.68561998  1
  O  O23  1  0.77158985  0.93916529  0.31438002  1
  O  O24  1  0.16757544  0.93916529  0.18561998  1
  O  O25  1  0.22841015  0.06083471  0.81438002  1
  O  O26  1  0.76308029  0.14936569  0.81182997  1
  O  O27  1  0.61371460  0.85063431  0.18817003  1
  O  O28  1  0.23691971  0.85063431  0.31182997  1
  O  O29  1  0.38628540  0.14936569  0.68817003  1
  O  O30  1  0.12293053  0.24586107  0.75000000  1
  O  O31  1  0.87706947  0.75413893  0.25000000  1
  O  O32  1  0.81878881  0.29610399  0.69456665  1
  O  O33  1  0.52268482  0.70389601  0.30543335  1
  O  O34  1  0.18121119  0.70389601  0.19456665  1
  O  O35  1  0.47731518  0.29610399  0.80543335  1
  O  O36  1  0.58259771  0.10015030  0.57494114  1
  O  O37  1  0.48244741  0.89984970  0.42505886  1
  O  O38  1  0.41740229  0.89984970  0.07494114  1
  O  O39  1  0.51755259  0.10015030  0.92505886  1
  O  O40  1  0.35963086  0.28072843  0.53805331  1
  O  O41  1  0.07890243  0.71927157  0.46194669  1
  O  O42  1  0.64036914  0.71927157  0.03805331  1
  O  O43  1  0.92109757  0.28072843  0.96194669  1
  O  O44  1  0.79039600  0.36845481  0.54009656  1
  O  O45  1  0.42194119  0.63154519  0.45990344  1
  O  O46  1  0.20960400  0.63154519  0.04009656  1
  O  O47  1  0.57805881  0.36845481  0.95990344  1
  O  O48  1  0.86186690  0.41842913  0.83747729  1
  O  O49  1  0.44343777  0.58157087  0.16252271  1
  O  O50  1  0.13813310  0.58157087  0.33747729  1
  O  O51  1  0.55656223  0.41842913  0.66252271  1
  O  O52  1  0.96502667  0.58118308  0.71122305  1
  O  O53  1  0.38384359  0.41881692  0.28877695  1
  O  O54  1  0.03497333  0.41881692  0.21122305  1
  O  O55  1  0.61615641  0.58118308  0.78877695  1
  O  O56  1  0.24851289  0.83545992  0.89195484  1
  O  O57  1  0.41305296  0.16454008  0.10804516  1
  O  O58  1  0.75148711  0.16454008  0.39195484  1
  O  O59  1  0.58694704  0.83545992  0.60804516  1
  O  O60  1  0.45532116  0.91064233  0.75000000  1
  O  O61  1  0.54467884  0.08935767  0.25000000  1
  O  O62  1  0.67198447  0.89033110  0.88332998  1
  O  O63  1  0.78165337  0.10966890  0.11667002  1
  O  O64  1  0.32801553  0.10966890  0.38332998  1
  O  O65  1  0.21834663  0.89033110  0.61667002  1
