# generated using pymatgen
data_Eu2Sb3
_symmetry_space_group_name_H-M   'P 1'
_cell_length_a   6.61351351
_cell_length_b   12.63661291
_cell_length_c   14.84996838
_cell_angle_alpha   90.00000000
_cell_angle_beta   90.01214225
_cell_angle_gamma   90.00000000
_symmetry_Int_Tables_number   1
_chemical_formula_structural   Eu2Sb3
_chemical_formula_sum   'Eu16 Sb24'
_cell_volume   1241.04762065
_cell_formula_units_Z   8
loop_
 _symmetry_equiv_pos_site_id
 _symmetry_equiv_pos_as_xyz
  1  'x, y, z'
loop_
 _atom_site_type_symbol
 _atom_site_label
 _atom_site_symmetry_multiplicity
 _atom_site_fract_x
 _atom_site_fract_y
 _atom_site_fract_z
 _atom_site_occupancy
  Eu  Eu0  1  0.99942365  0.22091008  0.74622393  1
  Eu  Eu1  1  0.00057635  0.72091008  0.75377607  1
  Eu  Eu2  1  0.00057635  0.77908992  0.25377607  1
  Eu  Eu3  1  0.99942365  0.27908992  0.24622393  1
  Eu  Eu4  1  0.50180720  0.02837158  0.75207596  1
  Eu  Eu5  1  0.49819280  0.52837158  0.74792404  1
  Eu  Eu6  1  0.49819280  0.97162842  0.24792404  1
  Eu  Eu7  1  0.50180720  0.47162842  0.25207596  1
  Eu  Eu8  1  0.74754211  0.12410078  0.99827454  1
  Eu  Eu9  1  0.25245789  0.62410078  0.50172546  1
  Eu  Eu10  1  0.25245789  0.87589922  0.00172546  1
  Eu  Eu11  1  0.74754211  0.37589922  0.49827454  1
  Eu  Eu12  1  0.24914306  0.12674571  0.49606612  1
  Eu  Eu13  1  0.75085694  0.62674571  0.00393388  1
  Eu  Eu14  1  0.75085694  0.87325429  0.50393388  1
  Eu  Eu15  1  0.24914306  0.37325429  0.99606612  1
  Sb  Sb16  1  0.24396161  0.12173892  0.93041513  1
  Sb  Sb17  1  0.75603839  0.62173892  0.56958487  1
  Sb  Sb18  1  0.75603839  0.87826108  0.06958487  1
  Sb  Sb19  1  0.24396161  0.37826108  0.43041513  1
  Sb  Sb20  1  0.05080674  0.46325562  0.65756369  1
  Sb  Sb21  1  0.94919326  0.96325562  0.84243631  1
  Sb  Sb22  1  0.94919326  0.53674438  0.34243631  1
  Sb  Sb23  1  0.05080674  0.03674438  0.15756369  1
  Sb  Sb24  1  0.07738545  0.95798595  0.65147201  1
  Sb  Sb25  1  0.92261455  0.45798595  0.84852799  1
  Sb  Sb26  1  0.92261455  0.04201405  0.34852799  1
  Sb  Sb27  1  0.07738545  0.54201405  0.15147201  1
  Sb  Sb28  1  0.57318554  0.29300371  0.84537450  1
  Sb  Sb29  1  0.42681446  0.79300371  0.65462550  1
  Sb  Sb30  1  0.42681446  0.70699629  0.15462550  1
  Sb  Sb31  1  0.57318554  0.20699629  0.34537450  1
  Sb  Sb32  1  0.44284350  0.28601874  0.65495509  1
  Sb  Sb33  1  0.55715650  0.78601874  0.84504491  1
  Sb  Sb34  1  0.55715650  0.71398126  0.34504491  1
  Sb  Sb35  1  0.44284350  0.21398126  0.15495509  1
  Sb  Sb36  1  0.74549152  0.12722767  0.56872495  1
  Sb  Sb37  1  0.25450848  0.62722767  0.93127505  1
  Sb  Sb38  1  0.25450848  0.87277233  0.43127505  1
  Sb  Sb39  1  0.74549152  0.37277233  0.06872495  1
