# generated using pymatgen
data_Sb3Pd8
_symmetry_space_group_name_H-M   'P 1'
_cell_length_a   7.71749682
_cell_length_b   7.71749682
_cell_length_c   15.27489046
_cell_angle_alpha   75.36737278
_cell_angle_beta   75.36737278
_cell_angle_gamma   59.99999987
_symmetry_Int_Tables_number   1
_chemical_formula_structural   Sb3Pd8
_chemical_formula_sum   'Sb12 Pd32'
_cell_volume   753.61751042
_cell_formula_units_Z   4
loop_
 _symmetry_equiv_pos_site_id
 _symmetry_equiv_pos_as_xyz
  1  'x, y, z'
loop_
 _atom_site_type_symbol
 _atom_site_label
 _atom_site_symmetry_multiplicity
 _atom_site_fract_x
 _atom_site_fract_y
 _atom_site_fract_z
 _atom_site_occupancy
  Sb  Sb0  1  0.80212736  0.11833402  0.59533850  1
  Sb  Sb1  1  0.11833402  0.48420012  0.59533850  1
  Sb  Sb2  1  0.48420012  0.80212736  0.59533850  1
  Sb  Sb3  1  0.30212736  0.98420012  0.09533850  1
  Sb  Sb4  1  0.98420012  0.61833402  0.09533850  1
  Sb  Sb5  1  0.61833402  0.30212736  0.09533850  1
  Sb  Sb6  1  0.39491946  0.39491946  0.81524161  1
  Sb  Sb7  1  0.89491946  0.89491946  0.31524161  1
  Sb  Sb8  1  0.05066458  0.05066458  0.84800626  1
  Sb  Sb9  1  0.55066458  0.55066458  0.34800626  1
  Sb  Sb10  1  0.70917548  0.70917548  0.87247355  1
  Sb  Sb11  1  0.20917548  0.20917548  0.37247355  1
  Pd  Pd12  1  0.16970024  0.90721494  0.50119764  1
  Pd  Pd13  1  0.90721494  0.42188717  0.50119764  1
  Pd  Pd14  1  0.42188717  0.16970024  0.50119764  1
  Pd  Pd15  1  0.66970024  0.92188717  0.00119764  1
  Pd  Pd16  1  0.92188717  0.40721494  0.00119764  1
  Pd  Pd17  1  0.40721494  0.66970024  0.00119764  1
  Pd  Pd18  1  0.48939457  0.48939457  0.53181630  1
  Pd  Pd19  1  0.98939457  0.98939457  0.03181630  1
  Pd  Pd20  1  0.83306212  0.83306212  0.50081363  1
  Pd  Pd21  1  0.33306212  0.33306212  0.00081363  1
  Pd  Pd22  1  0.17514995  0.69996447  0.68958371  1
  Pd  Pd23  1  0.69996447  0.43530187  0.68958371  1
  Pd  Pd24  1  0.43530187  0.17514995  0.68958371  1
  Pd  Pd25  1  0.67514995  0.93530187  0.18958371  1
  Pd  Pd26  1  0.93530187  0.19996447  0.18958371  1
  Pd  Pd27  1  0.19996447  0.67514995  0.18958371  1
  Pd  Pd28  1  0.11223324  0.11223324  0.66330027  1
  Pd  Pd29  1  0.61223324  0.61223324  0.16330027  1
  Pd  Pd30  1  0.76988911  0.76988911  0.69033266  1
  Pd  Pd31  1  0.26988911  0.26988911  0.19033266  1
  Pd  Pd32  1  0.75934485  0.04067373  0.79302251  1
  Pd  Pd33  1  0.04067373  0.40695892  0.79302251  1
  Pd  Pd34  1  0.40695892  0.75934485  0.79302251  1
  Pd  Pd35  1  0.25934485  0.90695892  0.29302251  1
  Pd  Pd36  1  0.90695892  0.54067373  0.29302251  1
  Pd  Pd37  1  0.54067373  0.25934485  0.29302251  1
  Pd  Pd38  1  0.06556349  0.69247070  0.89689623  1
  Pd  Pd39  1  0.69247070  0.34506958  0.89689623  1
  Pd  Pd40  1  0.34506958  0.06556349  0.89689623  1
  Pd  Pd41  1  0.56556349  0.84506958  0.39689623  1
  Pd  Pd42  1  0.84506958  0.19247070  0.39689623  1
  Pd  Pd43  1  0.19247070  0.56556349  0.39689623  1
