# generated using pymatgen
data_Nd2ThS5
_symmetry_space_group_name_H-M   'P 1'
_cell_length_a   7.57852921
_cell_length_b   8.25849899
_cell_length_c   12.07085943
_cell_angle_alpha   90.00000000
_cell_angle_beta   90.00000000
_cell_angle_gamma   90.00000000
_symmetry_Int_Tables_number   1
_chemical_formula_structural   Nd2ThS5
_chemical_formula_sum   'Nd8 Th4 S20'
_cell_volume   755.48220861
_cell_formula_units_Z   4
loop_
 _symmetry_equiv_pos_site_id
 _symmetry_equiv_pos_as_xyz
  1  'x, y, z'
loop_
 _atom_site_type_symbol
 _atom_site_label
 _atom_site_symmetry_multiplicity
 _atom_site_fract_x
 _atom_site_fract_y
 _atom_site_fract_z
 _atom_site_occupancy
  Nd  Nd0  1  0.97946032  0.00010457  0.17801004  1
  Nd  Nd1  1  0.52053968  0.49989543  0.67801004  1
  Nd  Nd2  1  0.02053968  0.50010457  0.82198996  1
  Nd  Nd3  1  0.47946032  0.99989543  0.32198996  1
  Nd  Nd4  1  0.02053968  0.99989543  0.82198996  1
  Nd  Nd5  1  0.47946032  0.50010457  0.32198996  1
  Nd  Nd6  1  0.97946032  0.49989543  0.17801004  1
  Nd  Nd7  1  0.52053968  0.00010457  0.67801004  1
  Th  Th8  1  0.42489470  0.75000000  0.00978990  1
  Th  Th9  1  0.07510530  0.75000000  0.50978990  1
  Th  Th10  1  0.57510530  0.25000000  0.99021010  1
  Th  Th11  1  0.92489470  0.25000000  0.49021010  1
  S  S12  1  0.66397735  0.54279554  0.90089130  1
  S  S13  1  0.83602265  0.95720446  0.40089130  1
  S  S14  1  0.33602265  0.04279554  0.09910870  1
  S  S15  1  0.16397735  0.45720446  0.59910870  1
  S  S16  1  0.33602265  0.45720446  0.09910870  1
  S  S17  1  0.16397735  0.04279554  0.59910870  1
  S  S18  1  0.66397735  0.95720446  0.90089130  1
  S  S19  1  0.83602265  0.54279554  0.40089130  1
  S  S20  1  0.67269496  0.75000000  0.18750473  1
  S  S21  1  0.82730504  0.75000000  0.68750473  1
  S  S22  1  0.32730504  0.25000000  0.81249527  1
  S  S23  1  0.17269496  0.25000000  0.31249527  1
  S  S24  1  0.04089611  0.75000000  0.00091014  1
  S  S25  1  0.45910389  0.75000000  0.50091014  1
  S  S26  1  0.95910389  0.25000000  0.99908986  1
  S  S27  1  0.54089611  0.25000000  0.49908986  1
  S  S28  1  0.30134775  0.75000000  0.78352075  1
  S  S29  1  0.19865225  0.75000000  0.28352075  1
  S  S30  1  0.69865225  0.25000000  0.21647925  1
  S  S31  1  0.80134775  0.25000000  0.71647925  1
