# generated using pymatgen
data_Sc2Cr3Si4
_symmetry_space_group_name_H-M   'P 1'
_cell_length_a   6.52462057
_cell_length_b   6.52462057
_cell_length_c   12.07027460
_cell_angle_alpha   90.00000000
_cell_angle_beta   90.00000000
_cell_angle_gamma   90.00000000
_symmetry_Int_Tables_number   1
_chemical_formula_structural   Sc2Cr3Si4
_chemical_formula_sum   'Sc8 Cr12 Si16'
_cell_volume   513.83972005
_cell_formula_units_Z   4
loop_
 _symmetry_equiv_pos_site_id
 _symmetry_equiv_pos_as_xyz
  1  'x, y, z'
loop_
 _atom_site_type_symbol
 _atom_site_label
 _atom_site_symmetry_multiplicity
 _atom_site_fract_x
 _atom_site_fract_y
 _atom_site_fract_z
 _atom_site_occupancy
  Sc  Sc0  1  0.84200090  0.50003859  0.27903990  1
  Sc  Sc1  1  0.15799910  0.49996141  0.77903990  1
  Sc  Sc2  1  0.00003859  0.65799910  0.02903990  1
  Sc  Sc3  1  0.99996141  0.34200090  0.52903990  1
  Sc  Sc4  1  0.49996141  0.15799910  0.22096010  1
  Sc  Sc5  1  0.50003859  0.84200090  0.72096010  1
  Sc  Sc6  1  0.65799910  0.00003859  0.97096010  1
  Sc  Sc7  1  0.34200090  0.99996141  0.47096010  1
  Cr  Cr8  1  0.83033199  0.16966801  0.75000000  1
  Cr  Cr9  1  0.16966801  0.83033199  0.25000000  1
  Cr  Cr10  1  0.66966801  0.66966801  0.50000000  1
  Cr  Cr11  1  0.33033199  0.33033199  -0.00000000  1
  Cr  Cr12  1  0.66560902  0.50315041  0.87663034  1
  Cr  Cr13  1  0.33439098  0.49684959  0.37663034  1
  Cr  Cr14  1  0.00315041  0.83439098  0.62663034  1
  Cr  Cr15  1  0.99684959  0.16560902  0.12663034  1
  Cr  Cr16  1  0.49684959  0.33439098  0.62336966  1
  Cr  Cr17  1  0.50315041  0.66560902  0.12336966  1
  Cr  Cr18  1  0.83439098  0.00315041  0.37336966  1
  Cr  Cr19  1  0.16560902  0.99684959  0.87336966  1
  Si  Si20  1  0.69587154  0.37398714  0.06708081  1
  Si  Si21  1  0.30412846  0.62601286  0.56708081  1
  Si  Si22  1  0.87398714  0.80412846  0.81708081  1
  Si  Si23  1  0.12601286  0.19587154  0.31708081  1
  Si  Si24  1  0.62601286  0.30412846  0.43291919  1
  Si  Si25  1  0.37398714  0.69587154  0.93291919  1
  Si  Si26  1  0.80412846  0.87398714  0.18291919  1
  Si  Si27  1  0.19587154  0.12601286  0.68291919  1
  Si  Si28  1  0.78465884  0.53668227  0.68428864  1
  Si  Si29  1  0.21534116  0.46331773  0.18428864  1
  Si  Si30  1  0.03668227  0.71534116  0.43428864  1
  Si  Si31  1  0.96331773  0.28465884  0.93428864  1
  Si  Si32  1  0.46331773  0.21534116  0.81571136  1
  Si  Si33  1  0.53668227  0.78465884  0.31571136  1
  Si  Si34  1  0.71534116  0.03668227  0.56571136  1
  Si  Si35  1  0.28465884  0.96331773  0.06571136  1
