# generated using pymatgen
data_Ba4Bi(IrO4)3
_symmetry_space_group_name_H-M   'P 1'
_cell_length_a   5.98602301
_cell_length_b   5.99421402
_cell_length_c   30.16640000
_cell_angle_alpha   93.45780791
_cell_angle_beta   90.00000002
_cell_angle_gamma   119.95480174
_symmetry_Int_Tables_number   1
_chemical_formula_structural   Ba4Bi(IrO4)3
_chemical_formula_sum   'Ba12 Bi3 Ir9 O36'
_cell_volume   935.55114547
_cell_formula_units_Z   3
loop_
 _symmetry_equiv_pos_site_id
 _symmetry_equiv_pos_as_xyz
  1  'x, y, z'
loop_
 _atom_site_type_symbol
 _atom_site_label
 _atom_site_symmetry_multiplicity
 _atom_site_fract_x
 _atom_site_fract_y
 _atom_site_fract_z
 _atom_site_occupancy
  Ba  Ba0  1  0.33182549  0.66365099  0.53927592  1
  Ba  Ba1  1  0.66817451  0.33634901  0.46072408  1
  Ba  Ba2  1  0.34548044  0.69096088  0.38019894  1
  Ba  Ba3  1  0.65451956  0.30903912  0.61980106  1
  Ba  Ba4  1  0.99597656  0.99195312  0.28296578  1
  Ba  Ba5  1  0.00402344  0.00804688  0.71703422  1
  Ba  Ba6  1  0.32637141  0.65274282  0.79692646  1
  Ba  Ba7  1  0.67362859  0.34725718  0.20307354  1
  Ba  Ba8  1  0.00547708  0.01095415  0.12822804  1
  Ba  Ba9  1  0.99452292  0.98904585  0.87177196  1
  Ba  Ba10  1  0.32165488  0.64330977  0.95052221  1
  Ba  Ba11  1  0.67834512  0.35669023  0.04947779  1
  Bi  Bi12  1  0.32878895  0.65757790  0.66784016  1
  Bi  Bi13  1  0.67121105  0.34242210  0.33215984  1
  Bi  Bi14  1  0.00000000  0.00000000  -0.00000000  1
  Ir  Ir15  1  0.00000000  0.00000000  0.50000000  1
  Ir  Ir16  1  0.01800599  0.03601198  0.41431976  1
  Ir  Ir17  1  0.98199401  0.96398802  0.58568024  1
  Ir  Ir18  1  0.32251596  0.64503192  0.25096889  1
  Ir  Ir19  1  0.67748404  0.35496808  0.74903111  1
  Ir  Ir20  1  0.33704130  0.67408260  0.16614943  1
  Ir  Ir21  1  0.66295870  0.32591740  0.83385057  1
  Ir  Ir22  1  0.35156462  0.70312924  0.08114453  1
  Ir  Ir23  1  0.64843538  0.29687076  0.91885547  1
  O  O24  1  0.16113733  0.32227466  0.46535482  1
  O  O25  1  0.83886267  0.67772534  0.53464518  1
  O  O26  1  0.11877603  0.23755206  0.63492974  1
  O  O27  1  0.88122397  0.76244794  0.36507026  1
  O  O28  1  0.46202363  0.92404727  0.29900445  1
  O  O29  1  0.53797637  0.07595273  0.70099555  1
  O  O30  1  0.82321987  0.64643975  0.79895442  1
  O  O31  1  0.17678013  0.35356025  0.20104558  1
  O  O32  1  0.49765421  0.99530842  0.13134851  1
  O  O33  1  0.50234579  0.00469158  0.86865149  1
  O  O34  1  0.78801613  0.57603225  0.96710823  1
  O  O35  1  0.21198387  0.42396775  0.03289177  1
  O  O36  1  0.70029140  0.85914754  0.45392655  1
  O  O37  1  0.15885615  0.85914754  0.45392655  1
  O  O38  1  0.29970860  0.14085246  0.54607345  1
  O  O39  1  0.84114385  0.14085246  0.54607345  1
  O  O40  1  0.64918073  0.77459429  0.61668303  1
  O  O41  1  0.12541356  0.77459429  0.61668303  1
  O  O42  1  0.35081927  0.22540571  0.38331697  1
  O  O43  1  0.87458644  0.22540571  0.38331697  1
  O  O44  1  0.53157089  0.54326154  0.71876161  1
  O  O45  1  0.01169065  0.54326154  0.71876161  1
  O  O46  1  0.46842911  0.45673846  0.28123839  1
  O  O47  1  0.98830935  0.45673846  0.28123839  1
  O  O48  1  0.35940878  0.18197795  0.78888800  1
  O  O49  1  0.82256917  0.18197795  0.78888800  1
  O  O50  1  0.64059122  0.81802205  0.21111200  1
  O  O51  1  0.17743083  0.81802205  0.21111200  1
  O  O52  1  0.50413668  0.47114559  0.87898360  1
  O  O53  1  0.96700891  0.47114559  0.87898360  1
  O  O54  1  0.49586332  0.52885441  0.12101640  1
  O  O55  1  0.03299109  0.52885441  0.12101640  1
  O  O56  1  0.31451585  0.10740520  0.94881202  1
  O  O57  1  0.79288936  0.10740520  0.94881202  1
  O  O58  1  0.68548415  0.89259480  0.05118798  1
  O  O59  1  0.20711064  0.89259480  0.05118798  1
