# generated using pymatgen
data_Cd41Ir8
_symmetry_space_group_name_H-M   'P 1'
_cell_length_a   10.27750795
_cell_length_b   10.27750795
_cell_length_c   10.27750814
_cell_angle_alpha   94.78021028
_cell_angle_beta   94.78021028
_cell_angle_gamma   94.78020839
_symmetry_Int_Tables_number   1
_chemical_formula_structural   Cd41Ir8
_chemical_formula_sum   'Cd41 Ir8'
_cell_volume   1073.58125076
_cell_formula_units_Z   1
loop_
 _symmetry_equiv_pos_site_id
 _symmetry_equiv_pos_as_xyz
  1  'x, y, z'
loop_
 _atom_site_type_symbol
 _atom_site_label
 _atom_site_symmetry_multiplicity
 _atom_site_fract_x
 _atom_site_fract_y
 _atom_site_fract_z
 _atom_site_occupancy
  Cd  Cd0  1  -0.00000000  -0.00000000  0.00000000  1
  Cd  Cd1  1  0.50000000  0.50000000  0.50000000  1
  Cd  Cd2  1  0.50000000  -0.00000000  0.50000000  1
  Cd  Cd3  1  -0.00000000  0.50000000  0.50000000  1
  Cd  Cd4  1  0.50000000  0.50000000  0.00000000  1
  Cd  Cd5  1  0.45046499  0.77737481  0.07359769  1
  Cd  Cd6  1  0.77737481  0.07359769  0.45046499  1
  Cd  Cd7  1  0.07359769  0.45046499  0.77737481  1
  Cd  Cd8  1  0.54953501  0.22262519  0.92640231  1
  Cd  Cd9  1  0.22262519  0.92640231  0.54953501  1
  Cd  Cd10  1  0.92640231  0.54953501  0.22262519  1
  Cd  Cd11  1  0.04934069  0.73070525  0.86978005  1
  Cd  Cd12  1  0.73070525  0.86978005  0.04934069  1
  Cd  Cd13  1  0.86978005  0.04934069  0.73070525  1
  Cd  Cd14  1  0.95065931  0.26929475  0.13021995  1
  Cd  Cd15  1  0.26929475  0.13021995  0.95065931  1
  Cd  Cd16  1  0.13021995  0.95065931  0.26929475  1
  Cd  Cd17  1  0.17830710  0.68223546  0.12685939  1
  Cd  Cd18  1  0.68223546  0.12685939  0.17830710  1
  Cd  Cd19  1  0.12685939  0.17830710  0.68223546  1
  Cd  Cd20  1  0.82169290  0.31776454  0.87314061  1
  Cd  Cd21  1  0.31776454  0.87314061  0.82169290  1
  Cd  Cd22  1  0.87314061  0.82169290  0.31776454  1
  Cd  Cd23  1  0.36382969  0.38915959  0.73890135  1
  Cd  Cd24  1  0.38915959  0.73890135  0.36382969  1
  Cd  Cd25  1  0.73890135  0.36382969  0.38915959  1
  Cd  Cd26  1  0.63617031  0.61084041  0.26109865  1
  Cd  Cd27  1  0.61084041  0.26109865  0.63617031  1
  Cd  Cd28  1  0.26109865  0.63617031  0.61084041  1
  Cd  Cd29  1  0.59589156  0.96563830  0.78383044  1
  Cd  Cd30  1  0.96563830  0.78383044  0.59589156  1
  Cd  Cd31  1  0.78383044  0.59589156  0.96563830  1
  Cd  Cd32  1  0.40410844  0.03436170  0.21616956  1
  Cd  Cd33  1  0.03436170  0.21616956  0.40410844  1
  Cd  Cd34  1  0.21616956  0.40410844  0.03436170  1
  Cd  Cd35  1  0.53748432  0.66978377  0.77588682  1
  Cd  Cd36  1  0.66978377  0.77588682  0.53748432  1
  Cd  Cd37  1  0.77588682  0.53748432  0.66978377  1
  Cd  Cd38  1  0.46251568  0.33021623  0.22411318  1
  Cd  Cd39  1  0.33021623  0.22411318  0.46251568  1
  Cd  Cd40  1  0.22411318  0.46251568  0.33021623  1
  Ir  Ir41  1  0.28565631  0.61749454  0.88886399  1
  Ir  Ir42  1  0.61749454  0.88886399  0.28565631  1
  Ir  Ir43  1  0.88886399  0.28565631  0.61749454  1
  Ir  Ir44  1  0.71434369  0.38250546  0.11113601  1
  Ir  Ir45  1  0.38250546  0.11113601  0.71434369  1
  Ir  Ir46  1  0.11113601  0.71434369  0.38250546  1
  Ir  Ir47  1  0.80522551  0.80522551  0.80522551  1
  Ir  Ir48  1  0.19477449  0.19477449  0.19477449  1
