# generated using pymatgen
data_LiCu5(PO4)2
_symmetry_space_group_name_H-M   'P 1'
_cell_length_a   6.28251180
_cell_length_b   5.55166373
_cell_length_c   5.15184378
_cell_angle_alpha   88.98678208
_cell_angle_beta   89.41182413
_cell_angle_gamma   87.94634232
_symmetry_Int_Tables_number   1
_chemical_formula_structural   LiCu5(PO4)2
_chemical_formula_sum   'Li1 Cu5 P2 O8'
_cell_volume   179.53619934
_cell_formula_units_Z   1
loop_
 _symmetry_equiv_pos_site_id
 _symmetry_equiv_pos_as_xyz
  1  'x, y, z'
loop_
 _atom_site_type_symbol
 _atom_site_label
 _atom_site_symmetry_multiplicity
 _atom_site_fract_x
 _atom_site_fract_y
 _atom_site_fract_z
 _atom_site_occupancy
  Li  Li0  1  0.25174925  0.32276408  0.99323981  1
  Cu  Cu1  1  0.99490657  0.25146928  0.50862061  1
  Cu  Cu2  1  0.25163363  0.64699979  0.51994154  1
  Cu  Cu3  1  0.50547135  0.74277361  0.96379929  1
  Cu  Cu4  1  0.74305902  0.63911145  0.49890843  1
  Cu  Cu5  1  0.74031437  0.35380726  0.96306216  1
  P  P6  1  0.00809230  0.84461499  0.01744817  1
  P  P7  1  0.49425423  0.16534724  0.49167115  1
  O  O8  1  0.01748596  0.10565354  0.90699249  1
  O  O9  1  -0.00058426  0.84071955  0.31778249  1
  O  O10  1  0.20606659  0.68642990  0.92040087  1
  O  O11  1  0.29355479  0.30414381  0.37359751  1
  O  O12  1  0.49186246  0.17952466  0.79247910  1
  O  O13  1  0.49735848  0.90259169  0.39617586  1
  O  O14  1  0.69399470  0.29528855  0.37496527  1
  O  O15  1  0.81078255  0.71875961  0.90350625  1
