# generated using pymatgen
data_DyFe5P3
_symmetry_space_group_name_H-M   'P 1'
_cell_length_a   3.64700432
_cell_length_b   10.30505387
_cell_length_c   11.80760619
_cell_angle_alpha   90.00000000
_cell_angle_beta   90.00000000
_cell_angle_gamma   90.00000000
_symmetry_Int_Tables_number   1
_chemical_formula_structural   DyFe5P3
_chemical_formula_sum   'Dy4 Fe20 P12'
_cell_volume   443.76025680
_cell_formula_units_Z   4
loop_
 _symmetry_equiv_pos_site_id
 _symmetry_equiv_pos_as_xyz
  1  'x, y, z'
loop_
 _atom_site_type_symbol
 _atom_site_label
 _atom_site_symmetry_multiplicity
 _atom_site_fract_x
 _atom_site_fract_y
 _atom_site_fract_z
 _atom_site_occupancy
  Dy  Dy0  1  0.25000000  0.58151931  0.70496417  1
  Dy  Dy1  1  0.25000000  0.91848069  0.20496417  1
  Dy  Dy2  1  0.75000000  0.41848069  0.29503583  1
  Dy  Dy3  1  0.75000000  0.08151931  0.79503583  1
  Fe  Fe4  1  0.25000000  0.70727440  0.98758294  1
  Fe  Fe5  1  0.25000000  0.79272560  0.48758294  1
  Fe  Fe6  1  0.75000000  0.29272560  0.01241706  1
  Fe  Fe7  1  0.75000000  0.20727440  0.51241706  1
  Fe  Fe8  1  0.25000000  0.40557823  0.49060926  1
  Fe  Fe9  1  0.25000000  0.09442177  0.99060926  1
  Fe  Fe10  1  0.75000000  0.59442177  0.50939074  1
  Fe  Fe11  1  0.75000000  0.90557823  0.00939074  1
  Fe  Fe12  1  0.25000000  0.21891474  0.17683942  1
  Fe  Fe13  1  0.25000000  0.28108526  0.67683942  1
  Fe  Fe14  1  0.75000000  0.78108526  0.82316058  1
  Fe  Fe15  1  0.75000000  0.71891474  0.32316058  1
  Fe  Fe16  1  0.25000000  0.87707429  0.69982671  1
  Fe  Fe17  1  0.25000000  0.62292571  0.19982671  1
  Fe  Fe18  1  0.75000000  0.12292571  0.30017329  1
  Fe  Fe19  1  0.75000000  0.37707429  0.80017329  1
  Fe  Fe20  1  0.25000000  0.46299681  0.93253438  1
  Fe  Fe21  1  0.25000000  0.03700319  0.43253438  1
  Fe  Fe22  1  0.75000000  0.53700319  0.06746562  1
  Fe  Fe23  1  0.75000000  0.96299681  0.56746562  1
  P  P24  1  0.25000000  0.42178000  0.11266219  1
  P  P25  1  0.25000000  0.07822000  0.61266219  1
  P  P26  1  0.75000000  0.57822000  0.88733781  1
  P  P27  1  0.75000000  0.92178000  0.38733781  1
  P  P28  1  0.25000000  0.26717207  0.87086477  1
  P  P29  1  0.25000000  0.23282793  0.37086477  1
  P  P30  1  0.75000000  0.73282793  0.12913523  1
  P  P31  1  0.75000000  0.76717207  0.62913523  1
  P  P32  1  0.25000000  0.60137820  0.39528544  1
  P  P33  1  0.25000000  0.89862180  0.89528544  1
  P  P34  1  0.75000000  0.39862180  0.60471456  1
  P  P35  1  0.75000000  0.10137820  0.10471456  1
