# generated using pymatgen
data_Y11(In3Ge2)2
_symmetry_space_group_name_H-M   'P 1'
_cell_length_a   11.58514760
_cell_length_b   11.58514760
_cell_length_c   11.59847804
_cell_angle_alpha   119.96198785
_cell_angle_beta   119.96198785
_cell_angle_gamma   90.00000000
_symmetry_Int_Tables_number   1
_chemical_formula_structural   Y11(In3Ge2)2
_chemical_formula_sum   'Y22 In12 Ge8'
_cell_volume   1102.01482425
_cell_formula_units_Z   2
loop_
 _symmetry_equiv_pos_site_id
 _symmetry_equiv_pos_as_xyz
  1  'x, y, z'
loop_
 _atom_site_type_symbol
 _atom_site_label
 _atom_site_symmetry_multiplicity
 _atom_site_fract_x
 _atom_site_fract_y
 _atom_site_fract_z
 _atom_site_occupancy
  Y  Y0  1  0.06547565  0.31415257  0.62830514  1
  Y  Y1  1  0.56282949  0.31415257  0.62830514  1
  Y  Y2  1  0.31415257  0.56282949  0.62830514  1
  Y  Y3  1  0.31415257  0.06547565  0.62830514  1
  Y  Y4  1  0.93452435  0.68584743  0.37169486  1
  Y  Y5  1  0.43717051  0.68584743  0.37169486  1
  Y  Y6  1  0.68584743  0.43717051  0.37169486  1
  Y  Y7  1  0.68584743  0.93452435  0.37169486  1
  Y  Y8  1  0.75628448  0.10186042  0.20372084  1
  Y  Y9  1  0.44743636  0.10186042  0.20372084  1
  Y  Y10  1  0.10186042  0.44743636  0.20372084  1
  Y  Y11  1  0.10186042  0.75628448  0.20372084  1
  Y  Y12  1  0.24371552  0.89813958  0.79627916  1
  Y  Y13  1  0.55256364  0.89813958  0.79627916  1
  Y  Y14  1  0.89813958  0.55256364  0.79627916  1
  Y  Y15  1  0.89813958  0.24371552  0.79627916  1
  Y  Y16  1  0.66911397  0.33088603  0.00000000  1
  Y  Y17  1  0.33088603  0.66911397  0.00000000  1
  Y  Y18  1  0.33088603  0.33088603  0.00000000  1
  Y  Y19  1  0.66911397  0.66911397  0.00000000  1
  Y  Y20  1  0.16502204  0.16502204  0.33004407  1
  Y  Y21  1  0.83497796  0.83497796  0.66995593  1
  In  In22  1  0.96452254  0.37726489  0.34178744  1
  In  In23  1  0.37726489  0.96452254  0.34178744  1
  In  In24  1  0.37726489  0.37726489  0.34178744  1
  In  In25  1  0.96452254  0.96452254  0.34178744  1
  In  In26  1  0.03547746  0.62273511  0.65821256  1
  In  In27  1  0.62273511  0.03547746  0.65821256  1
  In  In28  1  0.62273511  0.62273511  0.65821256  1
  In  In29  1  0.03547746  0.03547746  0.65821256  1
  In  In30  1  0.87112600  0.12887400  0.00000000  1
  In  In31  1  0.12887400  0.87112600  0.00000000  1
  In  In32  1  0.12887400  0.12887400  0.00000000  1
  In  In33  1  0.87112600  0.87112600  0.00000000  1
  Ge  Ge34  1  0.50000000  0.15250993  0.00000000  1
  Ge  Ge35  1  0.50000000  0.84749007  0.00000000  1
  Ge  Ge36  1  0.15250993  0.50000000  0.00000000  1
  Ge  Ge37  1  0.84749007  0.50000000  0.00000000  1
  Ge  Ge38  1  0.38639918  0.38639918  0.77279835  1
  Ge  Ge39  1  0.61360082  0.61360082  0.22720165  1
  Ge  Ge40  1  0.75000000  0.25000000  0.50000000  1
  Ge  Ge41  1  0.25000000  0.75000000  0.50000000  1
