# generated using pymatgen
data_Y4C7
_symmetry_space_group_name_H-M   'P 1'
_cell_length_a   3.71637424
_cell_length_b   12.63917449
_cell_length_c   13.78553557
_cell_angle_alpha   90.00000000
_cell_angle_beta   96.74612067
_cell_angle_gamma   90.00000000
_symmetry_Int_Tables_number   1
_chemical_formula_structural   Y4C7
_chemical_formula_sum   'Y16 C28'
_cell_volume   643.04958260
_cell_formula_units_Z   4
loop_
 _symmetry_equiv_pos_site_id
 _symmetry_equiv_pos_as_xyz
  1  'x, y, z'
loop_
 _atom_site_type_symbol
 _atom_site_label
 _atom_site_symmetry_multiplicity
 _atom_site_fract_x
 _atom_site_fract_y
 _atom_site_fract_z
 _atom_site_occupancy
  Y  Y0  1  0.30523630  0.51482990  0.60786551  1
  Y  Y1  1  0.80523630  0.98517010  0.10786551  1
  Y  Y2  1  0.69476370  0.48517010  0.39213449  1
  Y  Y3  1  0.19476370  0.01482990  0.89213449  1
  Y  Y4  1  0.75991296  0.53951459  0.88198410  1
  Y  Y5  1  0.25991296  0.96048541  0.38198410  1
  Y  Y6  1  0.24008704  0.46048541  0.11801590  1
  Y  Y7  1  0.74008704  0.03951459  0.61801590  1
  Y  Y8  1  0.84509835  0.30483449  0.71100835  1
  Y  Y9  1  0.34509835  0.19516551  0.21100835  1
  Y  Y10  1  0.15490165  0.69516551  0.28899165  1
  Y  Y11  1  0.65490165  0.80483449  0.78899165  1
  Y  Y12  1  0.23058961  0.26276479  0.49355620  1
  Y  Y13  1  0.73058961  0.23723521  0.99355620  1
  Y  Y14  1  0.76941039  0.73723521  0.50644380  1
  Y  Y15  1  0.26941039  0.76276479  0.00644380  1
  C  C16  1  0.66103332  0.14088310  0.82592489  1
  C  C17  1  0.16103332  0.35911690  0.32592489  1
  C  C18  1  0.33896668  0.85911690  0.17407511  1
  C  C19  1  0.83896668  0.64088310  0.67407511  1
  C  C20  1  0.20451033  0.38876484  0.95359400  1
  C  C21  1  0.70451033  0.11123516  0.45359400  1
  C  C22  1  0.79548967  0.61123516  0.04640600  1
  C  C23  1  0.29548967  0.88876484  0.54640600  1
  C  C24  1  0.36473221  0.41623453  0.77281995  1
  C  C25  1  0.86473221  0.08376547  0.27281995  1
  C  C26  1  0.63526779  0.58376547  0.22718005  1
  C  C27  1  0.13526779  0.91623453  0.72718005  1
  C  C28  1  0.27893458  0.17120012  0.65340688  1
  C  C29  1  0.77893458  0.32879988  0.15340688  1
  C  C30  1  0.72106542  0.82879988  0.34659312  1
  C  C31  1  0.22106542  0.67120012  0.84659312  1
  C  C32  1  0.28004450  0.39505099  0.86212867  1
  C  C33  1  0.78004450  0.10494901  0.36212867  1
  C  C34  1  0.71995550  0.60494901  0.13787133  1
  C  C35  1  0.21995550  0.89505099  0.63787133  1
  C  C36  1  0.44278464  0.15159820  0.74425017  1
  C  C37  1  0.94278464  0.34840180  0.24425017  1
  C  C38  1  0.55721536  0.84840180  0.25574983  1
  C  C39  1  0.05721536  0.65159820  0.75574983  1
  C  C40  1  0.23616867  0.61579100  0.44912318  1
  C  C41  1  0.73616867  0.88420900  0.94912318  1
  C  C42  1  0.76383133  0.38420900  0.55087682  1
  C  C43  1  0.26383133  0.11579100  0.05087682  1
