# generated using pymatgen
data_SiC
_symmetry_space_group_name_H-M   'P 1'
_cell_length_a   3.09453995
_cell_length_b   3.09453995
_cell_length_c   43.05435445
_cell_angle_alpha   87.94048382
_cell_angle_beta   87.94048382
_cell_angle_gamma   59.99999253
_symmetry_Int_Tables_number   1
_chemical_formula_structural   SiC
_chemical_formula_sum   'Si17 C17'
_cell_volume   356.75134175
_cell_formula_units_Z   17
loop_
 _symmetry_equiv_pos_site_id
 _symmetry_equiv_pos_as_xyz
  1  'x, y, z'
loop_
 _atom_site_type_symbol
 _atom_site_label
 _atom_site_symmetry_multiplicity
 _atom_site_fract_x
 _atom_site_fract_y
 _atom_site_fract_z
 _atom_site_occupancy
  Si  Si0  1  0.00000933  0.00000933  -0.00002798  1
  Si  Si1  1  0.96079780  0.96079780  0.11760659  1
  Si  Si2  1  0.88238733  0.88238733  0.35283800  1
  Si  Si3  1  0.84313038  0.84313038  0.47060887  1
  Si  Si4  1  0.76471896  0.76471896  0.70584311  1
  Si  Si5  1  0.72549895  0.72549895  0.82350315  1
  Si  Si6  1  0.64708536  0.64708536  0.05874393  1
  Si  Si7  1  0.58822815  0.58822815  0.23531554  1
  Si  Si8  1  0.52942009  0.52942009  0.41173973  1
  Si  Si9  1  0.47059794  0.47059794  0.58820618  1
  Si  Si10  1  0.41178553  0.41178553  0.76464342  1
  Si  Si11  1  0.35292805  0.35292805  0.94121586  1
  Si  Si12  1  0.27452268  0.27452268  0.17643197  1
  Si  Si13  1  0.23529783  0.23529783  0.29410652  1
  Si  Si14  1  0.15689064  0.15689064  0.52932808  1
  Si  Si15  1  0.11763084  0.11763084  0.64710749  1
  Si  Si16  1  0.03922363  0.03922363  0.88232912  1
  C  C17  1  0.98531855  0.98531855  0.04404434  1
  C  C18  1  0.94609198  0.94609198  0.16172405  1
  C  C19  1  0.86768528  0.86768528  0.39694417  1
  C  C20  1  0.82842443  0.82842443  0.51472672  1
  C  C21  1  0.75001441  0.75001441  0.74995678  1
  C  C22  1  0.71079246  0.71079246  0.86762263  1
  C  C23  1  0.63234048  0.63234048  0.10297857  1
  C  C24  1  0.57348647  0.57348647  0.27954060  1
  C  C25  1  0.51467617  0.51467617  0.45597148  1
  C  C26  1  0.45585024  0.45585024  0.63244927  1
  C  C27  1  0.39704314  0.39704314  0.80887058  1
  C  C28  1  0.33818834  0.33818834  0.98543498  1
  C  C29  1  0.25981761  0.25981761  0.22054716  1
  C  C30  1  0.22059371  0.22059371  0.33821887  1
  C  C31  1  0.14218331  0.14218331  0.57345006  1
  C  C32  1  0.10292607  0.10292607  0.69122178  1
  C  C33  1  0.02451387  0.02451387  0.92645840  1
