# generated using pymatgen
data_CsGa(SeO3)2
_symmetry_space_group_name_H-M   'P 1'
_cell_length_a   5.59590257
_cell_length_b   7.69569021
_cell_length_c   18.00653858
_cell_angle_alpha   82.34048310
_cell_angle_beta   81.06085732
_cell_angle_gamma   68.68016219
_symmetry_Int_Tables_number   1
_chemical_formula_structural   CsGa(SeO3)2
_chemical_formula_sum   'Cs4 Ga4 Se8 O24'
_cell_volume   711.10982714
_cell_formula_units_Z   4
loop_
 _symmetry_equiv_pos_site_id
 _symmetry_equiv_pos_as_xyz
  1  'x, y, z'
loop_
 _atom_site_type_symbol
 _atom_site_label
 _atom_site_symmetry_multiplicity
 _atom_site_fract_x
 _atom_site_fract_y
 _atom_site_fract_z
 _atom_site_occupancy
  Cs  Cs0  1  0.94939412  0.39411553  0.70709623  1
  Cs  Cs1  1  0.05060588  0.60588447  0.29290377  1
  Cs  Cs2  1  -0.00000000  -0.00000000  0.00000000  1
  Cs  Cs3  1  0.50000000  0.50000000  0.50000000  1
  Ga  Ga4  1  0.34377103  0.44071390  0.87174403  1
  Ga  Ga5  1  0.65622897  0.55928610  0.12825597  1
  Ga  Ga6  1  0.70150155  0.96226236  0.63473455  1
  Ga  Ga7  1  0.29849845  0.03773764  0.36526545  1
  Se  Se8  1  0.76566112  0.52313369  0.94554407  1
  Se  Se9  1  0.23433888  0.47686631  0.05445593  1
  Se  Se10  1  0.55233887  0.07544094  0.81988132  1
  Se  Se11  1  0.44766113  0.92455906  0.18011868  1
  Se  Se12  1  0.24257852  0.78125759  0.73358538  1
  Se  Se13  1  0.75742148  0.21874241  0.26641462  1
  Se  Se14  1  0.79339289  0.95963403  0.45358019  1
  Se  Se15  1  0.20660711  0.04036597  0.54641981  1
  O  O16  1  0.65493767  0.67258799  0.01753667  1
  O  O17  1  0.34506233  0.32741201  0.98246333  1
  O  O18  1  0.50815705  0.61529390  0.89203994  1
  O  O19  1  0.98450910  0.61529390  0.89203994  1
  O  O20  1  0.49184295  0.38470610  0.10796006  1
  O  O21  1  0.01549090  0.38470610  0.10796006  1
  O  O22  1  0.24080376  0.22378657  0.84721223  1
  O  O23  1  0.68819744  0.22378657  0.84721223  1
  O  O24  1  0.75919624  0.77621343  0.15278777  1
  O  O25  1  0.31180256  0.77621343  0.15278777  1
  O  O26  1  0.57986262  0.11772497  0.72254980  1
  O  O27  1  0.42013738  0.88227503  0.27745020  1
  O  O28  1  0.03358432  0.77922356  0.67211562  1
  O  O29  1  0.51507651  0.77922356  0.67211562  1
  O  O30  1  0.96641568  0.22077644  0.32788438  1
  O  O31  1  0.48492349  0.22077644  0.32788438  1
  O  O32  1  0.34529750  0.54575645  0.76364855  1
  O  O33  1  0.65470250  0.45424355  0.23635145  1
  O  O34  1  0.89220724  0.14353507  0.58924087  1
  O  O35  1  0.37501681  0.14353507  0.58924087  1
  O  O36  1  0.10779276  0.85646493  0.41075913  1
  O  O37  1  0.62498319  0.85646493  0.41075913  1
  O  O38  1  0.81850502  0.82318524  0.53980472  1
  O  O39  1  0.18149498  0.17681476  0.46019528  1
