# generated using pymatgen
data_Zr3As
_symmetry_space_group_name_H-M   'P 1'
_cell_length_a   5.49588933
_cell_length_b   11.05803512
_cell_length_c   11.05803512
_cell_angle_alpha   90.00000000
_cell_angle_beta   90.00000000
_cell_angle_gamma   90.00000000
_symmetry_Int_Tables_number   1
_chemical_formula_structural   Zr3As
_chemical_formula_sum   'Zr24 As8'
_cell_volume   672.03812063
_cell_formula_units_Z   8
loop_
 _symmetry_equiv_pos_site_id
 _symmetry_equiv_pos_as_xyz
  1  'x, y, z'
loop_
 _atom_site_type_symbol
 _atom_site_label
 _atom_site_symmetry_multiplicity
 _atom_site_fract_x
 _atom_site_fract_y
 _atom_site_fract_z
 _atom_site_occupancy
  Zr  Zr0  1  0.28569520  0.83275123  0.14452588  1
  Zr  Zr1  1  0.28569520  0.66724877  0.35547412  1
  Zr  Zr2  1  0.78569520  0.64452588  0.16724877  1
  Zr  Zr3  1  0.78569520  0.85547412  0.33275123  1
  Zr  Zr4  1  0.71430480  0.16724877  0.85547412  1
  Zr  Zr5  1  0.71430480  0.33275123  0.64452588  1
  Zr  Zr6  1  0.21430480  0.35547412  0.83275123  1
  Zr  Zr7  1  0.21430480  0.14452588  0.66724877  1
  Zr  Zr8  1  0.96691057  0.27628837  0.11064816  1
  Zr  Zr9  1  0.96691057  0.22371163  0.38935184  1
  Zr  Zr10  1  0.46691057  0.61064816  0.72371163  1
  Zr  Zr11  1  0.46691057  0.88935184  0.77628837  1
  Zr  Zr12  1  0.03308943  0.72371163  0.88935184  1
  Zr  Zr13  1  0.03308943  0.77628837  0.61064816  1
  Zr  Zr14  1  0.53308943  0.38935184  0.27628837  1
  Zr  Zr15  1  0.53308943  0.11064816  0.22371163  1
  Zr  Zr16  1  0.23884237  0.43021970  0.53476529  1
  Zr  Zr17  1  0.23884237  0.06978030  0.96523471  1
  Zr  Zr18  1  0.73884237  0.03476529  0.56978030  1
  Zr  Zr19  1  0.73884237  0.46523471  0.93021970  1
  Zr  Zr20  1  0.76115763  0.56978030  0.46523471  1
  Zr  Zr21  1  0.76115763  0.93021970  0.03476529  1
  Zr  Zr22  1  0.26115763  0.96523471  0.43021970  1
  Zr  Zr23  1  0.26115763  0.53476529  0.06978030  1
  As  As24  1  0.46209170  0.29074323  0.04376332  1
  As  As25  1  0.46209170  0.20925677  0.45623668  1
  As  As26  1  0.96209170  0.54376332  0.70925677  1
  As  As27  1  0.96209170  0.95623668  0.79074323  1
  As  As28  1  0.53790830  0.70925677  0.95623668  1
  As  As29  1  0.53790830  0.79074323  0.54376332  1
  As  As30  1  0.03790830  0.45623668  0.29074323  1
  As  As31  1  0.03790830  0.04376332  0.20925677  1
