# generated using pymatgen
data_Ga4Ge(PbS3)4
_symmetry_space_group_name_H-M   'P 1'
_cell_length_a   6.21316803
_cell_length_b   12.84567159
_cell_length_c   12.84567159
_cell_angle_alpha   90.00000000
_cell_angle_beta   90.00000000
_cell_angle_gamma   90.00000000
_symmetry_Int_Tables_number   1
_chemical_formula_structural   Ga4Ge(PbS3)4
_chemical_formula_sum   'Ga8 Ge2 Pb8 S24'
_cell_volume   1025.24280078
_cell_formula_units_Z   2
loop_
 _symmetry_equiv_pos_site_id
 _symmetry_equiv_pos_as_xyz
  1  'x, y, z'
loop_
 _atom_site_type_symbol
 _atom_site_label
 _atom_site_symmetry_multiplicity
 _atom_site_fract_x
 _atom_site_fract_y
 _atom_site_fract_z
 _atom_site_occupancy
  Ga  Ga0  1  0.45172638  0.26368393  0.35202696  1
  Ga  Ga1  1  0.04827362  0.76368393  0.14797304  1
  Ga  Ga2  1  0.45172638  0.73631607  0.64797304  1
  Ga  Ga3  1  0.04827362  0.23631607  0.85202696  1
  Ga  Ga4  1  0.54827362  0.35202696  0.73631607  1
  Ga  Ga5  1  0.95172638  0.14797304  0.23631607  1
  Ga  Ga6  1  0.54827362  0.64797304  0.26368393  1
  Ga  Ga7  1  0.95172638  0.85202696  0.76368393  1
  Ge  Ge8  1  0.50000000  0.50000000  0.50000000  1
  Ge  Ge9  1  0.00000000  0.00000000  -0.00000000  1
  Pb  Pb10  1  0.08987974  0.49064470  0.18513324  1
  Pb  Pb11  1  0.41012026  0.99064470  0.31486676  1
  Pb  Pb12  1  0.08987974  0.50935530  0.81486676  1
  Pb  Pb13  1  0.41012026  0.00935530  0.68513324  1
  Pb  Pb14  1  0.91012026  0.18513324  0.50935530  1
  Pb  Pb15  1  0.58987974  0.31486676  0.00935530  1
  Pb  Pb16  1  0.91012026  0.81486676  0.49064470  1
  Pb  Pb17  1  0.58987974  0.68513324  0.99064470  1
  S  S18  1  0.46474480  0.14013842  0.48126850  1
  S  S19  1  0.03525520  0.64013842  0.01873150  1
  S  S20  1  0.46474480  0.85986158  0.51873150  1
  S  S21  1  0.03525520  0.35986158  0.98126850  1
  S  S22  1  0.53525520  0.48126850  0.85986158  1
  S  S23  1  0.96474480  0.01873150  0.35986158  1
  S  S24  1  0.53525520  0.51873150  0.14013842  1
  S  S25  1  0.96474480  0.98126850  0.64013842  1
  S  S26  1  0.26384464  0.40742054  0.40502736  1
  S  S27  1  0.23615536  0.90742054  0.09497264  1
  S  S28  1  0.26384464  0.59257946  0.59497264  1
  S  S29  1  0.23615536  0.09257946  0.90502736  1
  S  S30  1  0.73615536  0.40502736  0.59257946  1
  S  S31  1  0.76384464  0.09497264  0.09257946  1
  S  S32  1  0.73615536  0.59497264  0.40742054  1
  S  S33  1  0.76384464  0.90502736  0.90742054  1
  S  S34  1  0.30567410  0.19071855  0.20412025  1
  S  S35  1  0.19432590  0.69071855  0.29587975  1
  S  S36  1  0.30567410  0.80928145  0.79587975  1
  S  S37  1  0.19432590  0.30928145  0.70412025  1
  S  S38  1  0.69432590  0.20412025  0.80928145  1
  S  S39  1  0.80567410  0.29587975  0.30928145  1
  S  S40  1  0.69432590  0.79587975  0.19071855  1
  S  S41  1  0.80567410  0.70412025  0.69071855  1
