# generated using pymatgen
data_LiIn(CN2)2
_symmetry_space_group_name_H-M   'P 1'
_cell_length_a   5.98506006
_cell_length_b   6.95464457
_cell_length_c   9.56882906
_cell_angle_alpha   90.00000000
_cell_angle_beta   90.00000000
_cell_angle_gamma   90.00000000
_symmetry_Int_Tables_number   1
_chemical_formula_structural   LiIn(CN2)2
_chemical_formula_sum   'Li4 In4 C8 N16'
_cell_volume   398.29261017
_cell_formula_units_Z   4
loop_
 _symmetry_equiv_pos_site_id
 _symmetry_equiv_pos_as_xyz
  1  'x, y, z'
loop_
 _atom_site_type_symbol
 _atom_site_label
 _atom_site_symmetry_multiplicity
 _atom_site_fract_x
 _atom_site_fract_y
 _atom_site_fract_z
 _atom_site_occupancy
  Li  Li0  1  0.25000000  0.61412589  -0.00000000  1
  Li  Li1  1  0.75000000  0.88587411  0.50000000  1
  Li  Li2  1  0.75000000  0.38587411  -0.00000000  1
  Li  Li3  1  0.25000000  0.11412589  0.50000000  1
  In  In4  1  0.25000000  0.12917714  -0.00000000  1
  In  In5  1  0.75000000  0.37082286  0.50000000  1
  In  In6  1  0.75000000  0.87082286  -0.00000000  1
  In  In7  1  0.25000000  0.62917714  0.50000000  1
  C  C8  1  0.42002811  0.38304020  0.75522071  1
  C  C9  1  0.92002811  0.11695980  0.74477929  1
  C  C10  1  0.57997189  0.11695980  0.25522071  1
  C  C11  1  0.07997189  0.38304020  0.24477929  1
  C  C12  1  0.57997189  0.61695980  0.24477929  1
  C  C13  1  0.07997189  0.88304020  0.25522071  1
  C  C14  1  0.42002811  0.88304020  0.74477929  1
  C  C15  1  0.92002811  0.61695980  0.75522071  1
  N  N16  1  0.41044155  0.37053848  0.88235153  1
  N  N17  1  0.91044155  0.12946152  0.61764847  1
  N  N18  1  0.58955845  0.12946152  0.38235153  1
  N  N19  1  0.08955845  0.37053848  0.11764847  1
  N  N20  1  0.58955845  0.62946152  0.11764847  1
  N  N21  1  0.08955845  0.87053848  0.38235153  1
  N  N22  1  0.41044155  0.87053848  0.61764847  1
  N  N23  1  0.91044155  0.62946152  0.88235153  1
  N  N24  1  0.43150744  0.39845054  0.62557922  1
  N  N25  1  0.93150744  0.10154946  0.87442078  1
  N  N26  1  0.56849256  0.10154946  0.12557922  1
  N  N27  1  0.06849256  0.39845054  0.37442078  1
  N  N28  1  0.56849256  0.60154946  0.37442078  1
  N  N29  1  0.06849256  0.89845054  0.12557922  1
  N  N30  1  0.43150744  0.89845054  0.87442078  1
  N  N31  1  0.93150744  0.60154946  0.62557922  1
