# generated using pymatgen
data_Sr(BH)12
_symmetry_space_group_name_H-M   'P 1'
_cell_length_a   7.14734384
_cell_length_b   7.14723304
_cell_length_c   11.60282759
_cell_angle_alpha   90.00036008
_cell_angle_beta   89.99918813
_cell_angle_gamma   120.00053670
_symmetry_Int_Tables_number   1
_chemical_formula_structural   Sr(BH)12
_chemical_formula_sum   'Sr2 B24 H24'
_cell_volume   513.30410816
_cell_formula_units_Z   2
loop_
 _symmetry_equiv_pos_site_id
 _symmetry_equiv_pos_as_xyz
  1  'x, y, z'
loop_
 _atom_site_type_symbol
 _atom_site_label
 _atom_site_symmetry_multiplicity
 _atom_site_fract_x
 _atom_site_fract_y
 _atom_site_fract_z
 _atom_site_occupancy
  Sr  Sr0  1  0.66668380  0.33332727  0.25158994  1
  Sr  Sr1  1  0.33335085  0.66667410  0.75158984  1
  B  B2  1  0.92410208  0.39831527  0.59561778  1
  B  B3  1  0.47421349  0.07589670  0.59561996  1
  B  B4  1  0.60169020  0.52578814  0.59561862  1
  B  B5  1  0.52578769  0.60168498  0.09561818  1
  B  B6  1  0.39831741  0.92410387  0.09561967  1
  B  B7  1  0.07590282  0.47421135  0.09561820  1
  B  B8  1  0.50718156  0.29273368  0.50749670  1
  B  B9  1  0.78555906  0.49282099  0.50749609  1
  B  B10  1  0.70726593  0.21444050  0.50749669  1
  B  B11  1  0.21444848  0.70726553  0.00749648  1
  B  B12  1  0.29273777  0.50717805  0.00749633  1
  B  B13  1  0.49282547  0.78556035  0.00749680  1
  B  B14  1  0.82574981  0.37258989  0.73816342  1
  B  B15  1  0.54683793  0.17425161  0.73816494  1
  B  B16  1  0.62741653  0.45316478  0.73816312  1
  B  B17  1  0.45315918  0.62741001  0.23816376  1
  B  B18  1  0.37258597  0.82574683  0.23816400  1
  B  B19  1  0.17425365  0.54683679  0.23816320  1
  B  B20  1  0.40790030  0.26882175  0.65066295  1
  B  B21  1  0.86092727  0.59210756  0.65066105  1
  B  B22  1  0.73117522  0.13907481  0.65066214  1
  B  B23  1  0.13907908  0.73117853  0.15066294  1
  B  B24  1  0.26882009  0.40789266  0.15066195  1
  B  B25  1  0.59209984  0.86092479  0.15066174  1
  H  H26  1  0.10729354  0.44409196  0.57431375  1
  H  H27  1  0.33679861  0.89270173  0.57431504  1
  H  H28  1  0.55591536  0.66320520  0.57431217  1
  H  H29  1  0.66320130  0.55590759  0.07431359  1
  H  H30  1  0.44409590  0.10729847  0.07431544  1
  H  H31  1  0.89271150  0.33679559  0.07431205  1
  H  H32  1  0.39298198  0.26261084  0.42487854  1
  H  H33  1  0.86963812  0.60702494  0.42487687  1
  H  H34  1  0.73738834  0.13035674  0.42487977  1
  H  H35  1  0.13037110  0.73738964  0.92487896  1
  H  H36  1  0.26261272  0.39297433  0.92487756  1
  H  H37  1  0.60703179  0.86964391  0.92487964  1
  H  H38  1  0.93736973  0.39910935  0.82137147  1
  H  H39  1  0.46173495  0.06263303  0.82137511  1
  H  H40  1  0.60089811  0.53826414  0.82137587  1
  H  H41  1  0.53825978  0.60088989  0.32137231  1
  H  H42  1  0.39910138  0.93736658  0.32137574  1
  H  H43  1  0.06263414  0.46173654  0.32137563  1
  H  H44  1  0.22588265  0.22414470  0.67086472  1
  H  H45  1  0.99826441  0.77412644  0.67086065  1
  H  H46  1  0.77584834  0.00172976  0.67086175  1
  H  H47  1  0.00173822  0.77585445  0.17086425  1
  H  H48  1  0.22413797  0.22587306  0.17086109  1
  H  H49  1  0.77411858  0.99827034  0.17086155  1
