# generated using pymatgen
data_Hf2N2O
_symmetry_space_group_name_H-M   'P 1'
_cell_length_a   8.48221171
_cell_length_b   3.09556401
_cell_length_c   8.41953781
_cell_angle_alpha   90.00000000
_cell_angle_beta   90.00000000
_cell_angle_gamma   90.00000000
_symmetry_Int_Tables_number   1
_chemical_formula_structural   Hf2N2O
_chemical_formula_sum   'Hf8 N8 O4'
_cell_volume   221.07373483
_cell_formula_units_Z   4
loop_
 _symmetry_equiv_pos_site_id
 _symmetry_equiv_pos_as_xyz
  1  'x, y, z'
loop_
 _atom_site_type_symbol
 _atom_site_label
 _atom_site_symmetry_multiplicity
 _atom_site_fract_x
 _atom_site_fract_y
 _atom_site_fract_z
 _atom_site_occupancy
  Hf  Hf0  1  0.00390883  0.25000000  0.17867431  1
  Hf  Hf1  1  0.18150833  0.25000000  0.50143474  1
  Hf  Hf2  1  0.31849167  0.75000000  0.00143474  1
  Hf  Hf3  1  0.49609117  0.75000000  0.67867431  1
  Hf  Hf4  1  0.50390883  0.25000000  0.32132569  1
  Hf  Hf5  1  0.68150833  0.25000000  0.99856526  1
  Hf  Hf6  1  0.81849167  0.75000000  0.49856526  1
  Hf  Hf7  1  0.99609117  0.75000000  0.82132569  1
  N  N8  1  0.04724229  0.75000000  0.36651463  1
  N  N9  1  0.12478666  0.25000000  0.94495823  1
  N  N10  1  0.37521334  0.75000000  0.44495823  1
  N  N11  1  0.45275771  0.25000000  0.86651463  1
  N  N12  1  0.54724229  0.75000000  0.13348537  1
  N  N13  1  0.62478666  0.25000000  0.55504177  1
  N  N14  1  0.87521334  0.75000000  0.05504177  1
  N  N15  1  0.95275771  0.25000000  0.63348537  1
  O  O16  1  0.22522782  0.75000000  0.69004409  1
  O  O17  1  0.27477218  0.25000000  0.19004409  1
  O  O18  1  0.72522782  0.75000000  0.80995591  1
  O  O19  1  0.77477218  0.25000000  0.30995591  1
