# generated using pymatgen
data_Cu2As9P3S9I2
_symmetry_space_group_name_H-M   'P 1'
_cell_length_a   12.45402179
_cell_length_b   14.16973603
_cell_length_c   16.35090361
_cell_angle_alpha   90.00000000
_cell_angle_beta   92.66550472
_cell_angle_gamma   90.00000000
_symmetry_Int_Tables_number   1
_chemical_formula_structural   Cu2As9P3S9I2
_chemical_formula_sum   'Cu8 As36 P12 S36 I8'
_cell_volume   2882.32535499
_cell_formula_units_Z   4
loop_
 _symmetry_equiv_pos_site_id
 _symmetry_equiv_pos_as_xyz
  1  'x, y, z'
loop_
 _atom_site_type_symbol
 _atom_site_label
 _atom_site_symmetry_multiplicity
 _atom_site_fract_x
 _atom_site_fract_y
 _atom_site_fract_z
 _atom_site_occupancy
  Cu  Cu0  1  0.69546537  0.26259081  0.57929341  1
  Cu  Cu1  1  0.30453463  0.76259081  0.92070659  1
  Cu  Cu2  1  0.30453463  0.73740919  0.42070659  1
  Cu  Cu3  1  0.69546537  0.23740919  0.07929341  1
  Cu  Cu4  1  0.71690038  0.22268944  0.81701506  1
  Cu  Cu5  1  0.28309962  0.72268944  0.68298494  1
  Cu  Cu6  1  0.28309962  0.77731056  0.18298494  1
  Cu  Cu7  1  0.71690038  0.27731056  0.31701506  1
  As  As8  1  0.13707324  0.24448444  0.68453204  1
  As  As9  1  0.86292676  0.74448444  0.81546796  1
  As  As10  1  0.86292676  0.75551556  0.31546796  1
  As  As11  1  0.13707324  0.25551556  0.18453204  1
  As  As12  1  0.03105011  0.20939460  0.80835529  1
  As  As13  1  0.96894989  0.70939460  0.69164471  1
  As  As14  1  0.96894989  0.79060540  0.19164471  1
  As  As15  1  0.03105011  0.29060540  0.30835529  1
  As  As16  1  0.05760946  0.37712409  0.76306144  1
  As  As17  1  0.94239054  0.87712409  0.73693856  1
  As  As18  1  0.94239054  0.62287591  0.23693856  1
  As  As19  1  0.05760946  0.12287591  0.26306144  1
  As  As20  1  0.65786834  0.53955332  0.57473249  1
  As  As21  1  0.34213166  0.03955332  0.92526751  1
  As  As22  1  0.34213166  0.46044668  0.42526751  1
  As  As23  1  0.65786834  0.96044668  0.07473249  1
  As  As24  1  0.64755326  0.00978638  0.55760908  1
  As  As25  1  0.35244674  0.50978638  0.94239092  1
  As  As26  1  0.35244674  0.99021362  0.44239092  1
  As  As27  1  0.64755326  0.49021362  0.05760908  1
  As  As28  1  0.66293407  0.86151351  0.94759505  1
  As  As29  1  0.33706593  0.36151351  0.55240495  1
  As  As30  1  0.33706593  0.13848649  0.05240495  1
  As  As31  1  0.66293407  0.63848649  0.44759505  1
  As  As32  1  0.83515433  0.91961993  0.01617182  1
  As  As33  1  0.16484567  0.41961993  0.48382818  1
  As  As34  1  0.16484567  0.08038007  0.98382818  1
  As  As35  1  0.83515433  0.58038007  0.51617182  1
  As  As36  1  0.66956296  0.59388836  0.93448482  1
  As  As37  1  0.33043704  0.09388836  0.56551518  1
  As  As38  1  0.33043704  0.40611164  0.06551518  1
  As  As39  1  0.66956296  0.90611164  0.43448482  1
  As  As40  1  0.83241735  0.53265653  0.01390396  1
  As  As41  1  0.16758265  0.03265653  0.48609604  1
  As  As42  1  0.16758265  0.46734347  0.98609604  1
  As  As43  1  0.83241735  0.96734347  0.51390396  1
  P  P44  1  0.86388072  0.26794248  0.63673888  1
  P  P45  1  0.13611928  0.76794248  0.86326112  1
  P  P46  1  0.13611928  0.73205752  0.36326112  1
  P  P47  1  0.86388072  0.23205752  0.13673888  1
  P  P48  1  0.70798169  0.09344351  0.89964922  1
  P  P49  1  0.29201831  0.59344351  0.60035078  1
  P  P50  1  0.29201831  0.90655649  0.10035078  1
  P  P51  1  0.70798169  0.40655649  0.39964922  1
  P  P52  1  0.72078980  0.36400927  0.88338217  1
  P  P53  1  0.27921020  0.86400927  0.61661783  1
  P  P54  1  0.27921020  0.63599073  0.11661783  1
  P  P55  1  0.72078980  0.13599073  0.38338217  1
  S  S56  1  0.00630371  0.22479925  0.58363186  1
  S  S57  1  0.99369629  0.72479925  0.91636814  1
  S  S58  1  0.99369629  0.77520075  0.41636814  1
  S  S59  1  0.00630371  0.27520075  0.08363186  1
  S  S60  1  0.86634367  0.17807569  0.74180329  1
  S  S61  1  0.13365633  0.67807569  0.75819671  1
  S  S62  1  0.13365633  0.82192431  0.25819671  1
  S  S63  1  0.86634367  0.32192431  0.24180329  1
  S  S64  1  0.90209237  0.40036508  0.68705439  1
  S  S65  1  0.09790763  0.90036508  0.81294561  1
  S  S66  1  0.09790763  0.59963492  0.31294561  1
  S  S67  1  0.90209237  0.09963492  0.18705439  1
  S  S68  1  0.62711493  0.39598773  0.51171196  1
  S  S69  1  0.37288507  0.89598773  0.98828804  1
  S  S70  1  0.37288507  0.60401227  0.48828804  1
  S  S71  1  0.62711493  0.10401227  0.01171196  1
  S  S72  1  0.62579028  0.15007419  0.48837320  1
  S  S73  1  0.37420972  0.65007419  0.01162680  1
  S  S74  1  0.37420972  0.84992581  0.51162680  1
  S  S75  1  0.62579028  0.34992581  0.98837320  1
  S  S76  1  0.63610237  0.97295515  0.84794013  1
  S  S77  1  0.36389763  0.47295515  0.65205987  1
  S  S78  1  0.36389763  0.02704485  0.15205987  1
  S  S79  1  0.63610237  0.52704485  0.34794013  1
  S  S80  1  0.86247545  0.05053016  0.93938384  1
  S  S81  1  0.13752455  0.55053016  0.56061616  1
  S  S82  1  0.13752455  0.94946984  0.06061616  1
  S  S83  1  0.86247545  0.44946984  0.43938384  1
  S  S84  1  0.65406506  0.48665598  0.83067800  1
  S  S85  1  0.34593494  0.98665598  0.66932200  1
  S  S86  1  0.34593494  0.51334402  0.16932200  1
  S  S87  1  0.65406506  0.01334402  0.33067800  1
  S  S88  1  0.86981251  0.40580011  0.93442054  1
  S  S89  1  0.13018749  0.90580011  0.56557946  1
  S  S90  1  0.13018749  0.59419989  0.06557946  1
  S  S91  1  0.86981251  0.09419989  0.43442054  1
  I  I92  1  0.56542279  0.23287842  0.70051682  1
  I  I93  1  0.43457721  0.73287842  0.79948318  1
  I  I94  1  0.43457721  0.76712158  0.29948318  1
  I  I95  1  0.56542279  0.26712158  0.20051682  1
  I  I96  1  0.28056112  0.22194271  0.37551609  1
  I  I97  1  0.71943888  0.72194271  0.12448391  1
  I  I98  1  0.71943888  0.77805729  0.62448391  1
  I  I99  1  0.28056112  0.27805729  0.87551609  1
