# generated using pymatgen
data_CoP2H2O7
_symmetry_space_group_name_H-M   'P 1'
_cell_length_a   9.37224011
_cell_length_b   9.74045204
_cell_length_c   12.71292765
_cell_angle_alpha   90.00000000
_cell_angle_beta   90.00000000
_cell_angle_gamma   105.34074508
_symmetry_Int_Tables_number   1
_chemical_formula_structural   CoP2H2O7
_chemical_formula_sum   'Co8 P16 H16 O56'
_cell_volume   1119.20997431
_cell_formula_units_Z   8
loop_
 _symmetry_equiv_pos_site_id
 _symmetry_equiv_pos_as_xyz
  1  'x, y, z'
loop_
 _atom_site_type_symbol
 _atom_site_label
 _atom_site_symmetry_multiplicity
 _atom_site_fract_x
 _atom_site_fract_y
 _atom_site_fract_z
 _atom_site_occupancy
  Co  Co0  1  0.25276811  0.25017142  0.25621030  1
  Co  Co1  1  0.74723189  0.24982858  0.75621030  1
  Co  Co2  1  0.74723189  0.74982858  0.74378970  1
  Co  Co3  1  0.25276811  0.75017142  0.24378970  1
  Co  Co4  1  0.24801443  0.49305507  0.08447197  1
  Co  Co5  1  0.75198557  0.00694493  0.58447197  1
  Co  Co6  1  0.75198557  0.50694493  0.91552803  1
  Co  Co7  1  0.24801443  0.99305507  0.41552803  1
  P  P8  1  0.48032407  0.28172486  0.05641882  1
  P  P9  1  0.51967593  0.21827514  0.55641882  1
  P  P10  1  0.51967593  0.71827514  0.94358118  1
  P  P11  1  0.48032407  0.78172486  0.44358118  1
  P  P12  1  0.04115100  0.22349958  0.46113670  1
  P  P13  1  0.95884900  0.27650042  0.96113670  1
  P  P14  1  0.95884900  0.77650042  0.53886330  1
  P  P15  1  0.04115100  0.72349958  0.03886330  1
  P  P16  1  0.02060004  0.44039839  0.29076836  1
  P  P17  1  0.97939996  0.05960161  0.79076836  1
  P  P18  1  0.97939996  0.55960161  0.70923164  1
  P  P19  1  0.02060004  0.94039839  0.20923164  1
  P  P20  1  0.48940890  0.06129765  0.22021829  1
  P  P21  1  0.51059110  0.43870235  0.72021829  1
  P  P22  1  0.51059110  0.93870235  0.77978171  1
  P  P23  1  0.48940890  0.56129765  0.27978171  1
  H  H24  1  0.48279354  0.15189415  0.90995628  1
  H  H25  1  0.51720646  0.34810585  0.40995628  1
  H  H26  1  0.51720646  0.84810585  0.09004372  1
  H  H27  1  0.48279354  0.65189415  0.59004372  1
  H  H28  1  0.04027572  0.33419822  0.61029168  1
  H  H29  1  0.95972428  0.16580178  0.11029168  1
  H  H30  1  0.95972428  0.66580178  0.38970832  1
  H  H31  1  0.04027572  0.83419822  0.88970832  1
  H  H32  1  0.62386109  0.02234812  0.35241118  1
  H  H33  1  0.37613891  0.47765188  0.85241118  1
  H  H34  1  0.37613891  0.97765188  0.64758882  1
  H  H35  1  0.62386109  0.52234812  0.14758882  1
  H  H36  1  0.82448763  0.47858158  0.21469145  1
  H  H37  1  0.17551237  0.02141842  0.71469145  1
  H  H38  1  0.17551237  0.52141842  0.78530855  1
  H  H39  1  0.82448763  0.97858158  0.28530855  1
  O  O40  1  0.35093164  0.31824046  0.11274745  1
  O  O41  1  0.64906836  0.18175954  0.61274745  1
  O  O42  1  0.64906836  0.68175954  0.88725255  1
  O  O43  1  0.35093164  0.81824046  0.38725255  1
  O  O44  1  0.16258498  0.17888607  0.40081730  1
  O  O45  1  0.83741502  0.32111393  0.90081730  1
  O  O46  1  0.83741502  0.82111393  0.59918270  1
  O  O47  1  0.16258498  0.67888607  0.09918270  1
  O  O48  1  0.54793697  0.18053221  0.13261271  1
  O  O49  1  0.45206303  0.31946779  0.63261271  1
  O  O50  1  0.45206303  0.81946779  0.86738729  1
  O  O51  1  0.54793697  0.68053221  0.36738729  1
  O  O52  1  0.12416686  0.38808843  0.21737350  1
  O  O53  1  0.87583314  0.11191157  0.71737350  1
  O  O54  1  0.87583314  0.61191157  0.78262650  1
  O  O55  1  0.12416686  0.88808843  0.28262650  1
  O  O56  1  0.38512378  0.11209828  0.29417923  1
  O  O57  1  0.61487622  0.38790172  0.79417923  1
  O  O58  1  0.61487622  0.88790172  0.70582077  1
  O  O59  1  0.38512378  0.61209828  0.20582077  1
  O  O60  1  0.09894341  0.39345998  0.97713474  1
  O  O61  1  0.90105659  0.10654002  0.47713474  1
  O  O62  1  0.90105659  0.60654002  0.02286526  1
  O  O63  1  0.09894341  0.89345998  0.52286526  1
  O  O64  1  0.39227568  0.58721733  0.96331117  1
  O  O65  1  0.60772432  0.91278267  0.46331117  1
  O  O66  1  0.60772432  0.41278267  0.03668883  1
  O  O67  1  0.39227568  0.08721733  0.53668883  1
  O  O68  1  0.07544098  0.09712936  0.18086248  1
  O  O69  1  0.92455902  0.40287064  0.68086248  1
  O  O70  1  0.92455902  0.90287064  0.81913752  1
  O  O71  1  0.07544098  0.59712936  0.31913752  1
  O  O72  1  0.41695614  0.19235488  0.95794098  1
  O  O73  1  0.58304386  0.30764512  0.45794098  1
  O  O74  1  0.58304386  0.80764512  0.04205902  1
  O  O75  1  0.41695614  0.69235488  0.54205902  1
  O  O76  1  0.42117355  0.41842912  0.33237439  1
  O  O77  1  0.57882645  0.08157088  0.83237439  1
  O  O78  1  0.57882645  0.58157088  0.66762561  1
  O  O79  1  0.42117355  0.91842912  0.16762561  1
  O  O80  1  0.11155541  0.30159698  0.56320658  1
  O  O81  1  0.88844459  0.19840302  0.06320658  1
  O  O82  1  0.88844459  0.69840302  0.43679342  1
  O  O83  1  0.11155541  0.80159698  0.93679342  1
  O  O84  1  0.99511738  0.34608768  0.39413517  1
  O  O85  1  0.00488262  0.15391232  0.89413517  1
  O  O86  1  0.00488262  0.65391232  0.60586483  1
  O  O87  1  0.99511738  0.84608768  0.10586483  1
  O  O88  1  0.63819274  0.06259356  0.27911438  1
  O  O89  1  0.36180726  0.43740644  0.77911438  1
  O  O90  1  0.36180726  0.93740644  0.72088562  1
  O  O91  1  0.63819274  0.56259356  0.22088562  1
  O  O92  1  0.85781599  0.40155482  0.24708160  1
  O  O93  1  0.14218401  0.09844518  0.74708160  1
  O  O94  1  0.14218401  0.59844518  0.75291840  1
  O  O95  1  0.85781599  0.90155482  0.25291840  1
