# generated using pymatgen
data_Cs3AsSe4
_symmetry_space_group_name_H-M   'P 1'
_cell_length_a   10.25600895
_cell_length_b   10.40609359
_cell_length_c   12.29614274
_cell_angle_alpha   90.00000000
_cell_angle_beta   90.00000000
_cell_angle_gamma   90.00000000
_symmetry_Int_Tables_number   1
_chemical_formula_structural   Cs3AsSe4
_chemical_formula_sum   'Cs12 As4 Se16'
_cell_volume   1312.30569859
_cell_formula_units_Z   4
loop_
 _symmetry_equiv_pos_site_id
 _symmetry_equiv_pos_as_xyz
  1  'x, y, z'
loop_
 _atom_site_type_symbol
 _atom_site_label
 _atom_site_symmetry_multiplicity
 _atom_site_fract_x
 _atom_site_fract_y
 _atom_site_fract_z
 _atom_site_occupancy
  Cs  Cs0  1  0.46016496  0.29772850  0.45569843  1
  Cs  Cs1  1  0.96016496  0.20227150  0.04430157  1
  Cs  Cs2  1  0.53983504  0.70227150  0.95569843  1
  Cs  Cs3  1  0.03983504  0.79772850  0.54430157  1
  Cs  Cs4  1  0.53983504  0.70227150  0.54430157  1
  Cs  Cs5  1  0.03983504  0.79772850  0.95569843  1
  Cs  Cs6  1  0.46016496  0.29772850  0.04430157  1
  Cs  Cs7  1  0.96016496  0.20227150  0.45569843  1
  Cs  Cs8  1  0.65076445  0.90590477  0.25000000  1
  Cs  Cs9  1  0.15076445  0.59409523  0.25000000  1
  Cs  Cs10  1  0.34923555  0.09409523  0.75000000  1
  Cs  Cs11  1  0.84923555  0.40590477  0.75000000  1
  As  As12  1  0.72749071  0.47826151  0.25000000  1
  As  As13  1  0.22749071  0.02173849  0.25000000  1
  As  As14  1  0.27250929  0.52173849  0.75000000  1
  As  As15  1  0.77250929  0.97826151  0.75000000  1
  Se  Se16  1  0.70994978  0.25261211  0.25000000  1
  Se  Se17  1  0.20994978  0.24738789  0.25000000  1
  Se  Se18  1  0.29005022  0.74738789  0.75000000  1
  Se  Se19  1  0.79005022  0.75261211  0.75000000  1
  Se  Se20  1  0.51709420  0.57171629  0.25000000  1
  Se  Se21  1  0.01709420  0.92828371  0.25000000  1
  Se  Se22  1  0.48290580  0.42828371  0.75000000  1
  Se  Se23  1  0.98290580  0.07171629  0.75000000  1
  Se  Se24  1  0.83741512  0.54170708  0.40935909  1
  Se  Se25  1  0.33741512  0.95829292  0.09064091  1
  Se  Se26  1  0.16258488  0.45829292  0.90935909  1
  Se  Se27  1  0.66258488  0.04170708  0.59064091  1
  Se  Se28  1  0.16258488  0.45829292  0.59064091  1
  Se  Se29  1  0.66258488  0.04170708  0.90935909  1
  Se  Se30  1  0.83741512  0.54170708  0.09064091  1
  Se  Se31  1  0.33741512  0.95829292  0.40935909  1
