# generated using pymatgen
data_K2RuO5
_symmetry_space_group_name_H-M   'P 1'
_cell_length_a   6.71864163
_cell_length_b   8.04715916
_cell_length_c   10.60303227
_cell_angle_alpha   90.00000000
_cell_angle_beta   90.00000000
_cell_angle_gamma   90.00000000
_symmetry_Int_Tables_number   1
_chemical_formula_structural   K2RuO5
_chemical_formula_sum   'K8 Ru4 O20'
_cell_volume   573.26331512
_cell_formula_units_Z   4
loop_
 _symmetry_equiv_pos_site_id
 _symmetry_equiv_pos_as_xyz
  1  'x, y, z'
loop_
 _atom_site_type_symbol
 _atom_site_label
 _atom_site_symmetry_multiplicity
 _atom_site_fract_x
 _atom_site_fract_y
 _atom_site_fract_z
 _atom_site_occupancy
  K  K0  1  0.37772258  0.60926023  0.45782874  1
  K  K1  1  0.87772258  0.89073977  0.54217126  1
  K  K2  1  0.62227742  0.10926023  0.04217126  1
  K  K3  1  0.12227742  0.39073977  0.95782874  1
  K  K4  1  0.02525449  0.75343709  0.19434370  1
  K  K5  1  0.52525449  0.74656291  0.80565630  1
  K  K6  1  0.97474551  0.25343709  0.30565630  1
  K  K7  1  0.47474551  0.24656291  0.69434370  1
  Ru  Ru8  1  0.41527628  0.06296648  0.38128043  1
  Ru  Ru9  1  0.91527628  0.43703352  0.61871957  1
  Ru  Ru10  1  0.58472372  0.56296648  0.11871957  1
  Ru  Ru11  1  0.08472372  0.93703352  0.88128043  1
  O  O12  1  0.98997993  0.53123515  0.46804114  1
  O  O13  1  0.48997993  0.96876485  0.53195886  1
  O  O14  1  0.01002007  0.03123515  0.03195886  1
  O  O15  1  0.51002007  0.46876485  0.96804114  1
  O  O16  1  0.20429225  0.92173635  0.37844925  1
  O  O17  1  0.70429225  0.57826365  0.62155075  1
  O  O18  1  0.79570775  0.42173635  0.12155075  1
  O  O19  1  0.29570775  0.07826365  0.87844925  1
  O  O20  1  0.65498148  0.63304334  0.27545835  1
  O  O21  1  0.15498148  0.86695666  0.72454165  1
  O  O22  1  0.34501852  0.13304334  0.22454165  1
  O  O23  1  0.84501852  0.36695666  0.77545835  1
  O  O24  1  0.33884535  0.52146770  0.17833177  1
  O  O25  1  0.83884535  0.97853230  0.82166823  1
  O  O26  1  0.66115465  0.02146770  0.32166823  1
  O  O27  1  0.16115465  0.47853230  0.67833177  1
  O  O28  1  0.63501898  0.75921066  0.04966115  1
  O  O29  1  0.13501898  0.74078934  0.95033885  1
  O  O30  1  0.36498102  0.25921066  0.45033885  1
  O  O31  1  0.86498102  0.24078934  0.54966115  1
