# generated using pymatgen
data_TePb5O8
_symmetry_space_group_name_H-M   'P 1'
_cell_length_a   7.59902445
_cell_length_b   10.85174233
_cell_length_c   12.27139395
_cell_angle_alpha   90.00000000
_cell_angle_beta   90.00000000
_cell_angle_gamma   90.79546931
_symmetry_Int_Tables_number   1
_chemical_formula_structural   TePb5O8
_chemical_formula_sum   'Te4 Pb20 O32'
_cell_volume   1011.83420451
_cell_formula_units_Z   4
loop_
 _symmetry_equiv_pos_site_id
 _symmetry_equiv_pos_as_xyz
  1  'x, y, z'
loop_
 _atom_site_type_symbol
 _atom_site_label
 _atom_site_symmetry_multiplicity
 _atom_site_fract_x
 _atom_site_fract_y
 _atom_site_fract_z
 _atom_site_occupancy
  Te  Te0  1  0.14640617  0.21847712  0.38626612  1
  Te  Te1  1  0.64640617  0.71847712  0.11373388  1
  Te  Te2  1  0.85359383  0.78152288  0.61373388  1
  Te  Te3  1  0.35359383  0.28152288  0.88626612  1
  Pb  Pb4  1  0.11489885  0.90000902  0.39254440  1
  Pb  Pb5  1  0.61489885  0.40000902  0.10745560  1
  Pb  Pb6  1  0.88510115  0.09999098  0.60745560  1
  Pb  Pb7  1  0.38510115  0.59999098  0.89254440  1
  Pb  Pb8  1  0.36905307  0.54470116  0.37953144  1
  Pb  Pb9  1  0.86905307  0.04470116  0.12046856  1
  Pb  Pb10  1  0.63094693  0.45529884  0.62046856  1
  Pb  Pb11  1  0.13094693  0.95529884  0.87953144  1
  Pb  Pb12  1  0.60351538  0.87723346  0.37986514  1
  Pb  Pb13  1  0.10351538  0.37723346  0.12013486  1
  Pb  Pb14  1  0.39648462  0.12276654  0.62013486  1
  Pb  Pb15  1  0.89648462  0.62276654  0.87986514  1
  Pb  Pb16  1  0.86515177  0.57990226  0.34529723  1
  Pb  Pb17  1  0.36515177  0.07990226  0.15470277  1
  Pb  Pb18  1  0.13484823  0.42009774  0.65470277  1
  Pb  Pb19  1  0.63484823  0.92009774  0.84529723  1
  Pb  Pb20  1  0.33059828  0.74240024  0.62819062  1
  Pb  Pb21  1  0.83059828  0.24240024  0.87180938  1
  Pb  Pb22  1  0.66940172  0.25759976  0.37180938  1
  Pb  Pb23  1  0.16940172  0.75759976  0.12819062  1
  O  O24  1  0.11216510  0.17472262  0.23117077  1
  O  O25  1  0.61216510  0.67472262  0.26882923  1
  O  O26  1  0.88783490  0.82527738  0.76882923  1
  O  O27  1  0.38783490  0.32527738  0.73117077  1
  O  O28  1  0.94771300  0.10140342  0.42376778  1
  O  O29  1  0.44771300  0.60140342  0.07623222  1
  O  O30  1  0.05228700  0.89859658  0.57623222  1
  O  O31  1  0.55228700  0.39859658  0.92376778  1
  O  O32  1  0.18146026  0.24692183  0.54546836  1
  O  O33  1  0.68146026  0.74692183  0.95453164  1
  O  O34  1  0.81853974  0.75307817  0.45453164  1
  O  O35  1  0.31853974  0.25307817  0.04546836  1
  O  O36  1  0.64434498  0.47032227  0.42456713  1
  O  O37  1  0.14434498  0.97032227  0.07543287  1
  O  O38  1  0.35565502  0.52967773  0.57543287  1
  O  O39  1  0.85565502  0.02967773  0.92456713  1
  O  O40  1  0.36360287  0.78305154  0.44965943  1
  O  O41  1  0.86360287  0.28305154  0.05034057  1
  O  O42  1  0.63639713  0.21694846  0.55034057  1
  O  O43  1  0.13639713  0.71694846  0.94965943  1
  O  O44  1  0.30494202  0.07534140  0.40753852  1
  O  O45  1  0.80494202  0.57534140  0.09246148  1
  O  O46  1  0.69505798  0.92465860  0.59246148  1
  O  O47  1  0.19505798  0.42465860  0.90753852  1
  O  O48  1  0.34450793  0.32159664  0.34671552  1
  O  O49  1  0.84450793  0.82159664  0.15328448  1
  O  O50  1  0.65549207  0.67840336  0.65328448  1
  O  O51  1  0.15549207  0.17840336  0.84671552  1
  O  O52  1  0.97757165  0.34929510  0.38054857  1
  O  O53  1  0.47757165  0.84929510  0.11945143  1
  O  O54  1  0.02242835  0.65070490  0.61945143  1
  O  O55  1  0.52242835  0.15070490  0.88054857  1
