# generated using pymatgen
data_Fe7Sb10(Cl4O9)2
_symmetry_space_group_name_H-M   'P 1'
_cell_length_a   9.84360999
_cell_length_b   10.07378026
_cell_length_c   10.07712752
_cell_angle_alpha   72.58304452
_cell_angle_beta   63.90951012
_cell_angle_gamma   65.42381229
_symmetry_Int_Tables_number   1
_chemical_formula_structural   Fe7Sb10(Cl4O9)2
_chemical_formula_sum   'Fe7 Sb10 Cl8 O18'
_cell_volume   807.81312057
_cell_formula_units_Z   1
loop_
 _symmetry_equiv_pos_site_id
 _symmetry_equiv_pos_as_xyz
  1  'x, y, z'
loop_
 _atom_site_type_symbol
 _atom_site_label
 _atom_site_symmetry_multiplicity
 _atom_site_fract_x
 _atom_site_fract_y
 _atom_site_fract_z
 _atom_site_occupancy
  Fe  Fe0  1  0.85472105  0.70504803  0.73131152  1
  Fe  Fe1  1  0.14527895  0.29495197  0.26868848  1
  Fe  Fe2  1  0.48404526  0.13634667  0.35901262  1
  Fe  Fe3  1  0.51595474  0.86365333  0.64098738  1
  Fe  Fe4  1  0.16177310  0.41180146  0.53114738  1
  Fe  Fe5  1  0.83822690  0.58819854  0.46885262  1
  Fe  Fe6  1  0.50000000  0.00000000  -0.00000000  1
  Sb  Sb7  1  0.17312892  0.51858349  0.91191531  1
  Sb  Sb8  1  0.82687108  0.48141651  0.08808469  1
  Sb  Sb9  1  0.83940325  0.87009975  0.13177111  1
  Sb  Sb10  1  0.16059675  0.12990025  0.86822889  1
  Sb  Sb11  1  0.51855214  0.76601174  0.32706018  1
  Sb  Sb12  1  0.48144786  0.23398826  0.67293982  1
  Sb  Sb13  1  0.16915274  0.02781067  0.57388290  1
  Sb  Sb14  1  0.83084726  0.97218933  0.42611710  1
  Sb  Sb15  1  0.19883789  0.65442512  0.20557928  1
  Sb  Sb16  1  0.80116211  0.34557488  0.79442072  1
  Cl  Cl17  1  0.13977706  0.67652954  0.55857726  1
  Cl  Cl18  1  0.86022294  0.32347046  0.44142274  1
  Cl  Cl19  1  0.46812998  0.38977890  0.36690347  1
  Cl  Cl20  1  0.53187002  0.61022110  0.63309653  1
  Cl  Cl21  1  0.77486760  0.98144562  0.77990116  1
  Cl  Cl22  1  0.22513240  0.01855438  0.22009884  1
  Cl  Cl23  1  0.57328946  0.72219379  0.92311512  1
  Cl  Cl24  1  0.42671054  0.27780621  0.07688488  1
  O  O25  1  0.23560311  0.20345080  0.44296680  1
  O  O26  1  0.76439689  0.79654920  0.55703320  1
  O  O27  1  0.05765559  0.38975352  0.09041047  1
  O  O28  1  0.94234441  0.61024648  0.90958953  1
  O  O29  1  0.09766725  0.50428432  0.34312031  1
  O  O30  1  0.90233275  0.49571568  0.65687969  1
  O  O31  1  0.43175725  0.92307257  0.45418223  1
  O  O32  1  0.56824275  0.07692743  0.54581777  1
  O  O33  1  0.75896641  0.70501507  0.29560935  1
  O  O34  1  0.24103359  0.29498493  0.70439065  1
  O  O35  1  0.60203319  0.90552988  0.14657534  1
  O  O36  1  0.39796681  0.09447012  0.85342466  1
  O  O37  1  0.01008144  0.17920105  0.74036229  1
  O  O38  1  0.98991856  0.82079895  0.25963771  1
  O  O39  1  0.13957462  0.65568563  0.03637066  1
  O  O40  1  0.86042538  0.34431437  0.96362934  1
  O  O41  1  0.27400960  0.97386838  0.72867171  1
  O  O42  1  0.72599040  0.02613162  0.27132829  1
