# generated using pymatgen
data_La2USe5
_symmetry_space_group_name_H-M   'P 1'
_cell_length_a   7.97784563
_cell_length_b   8.55310354
_cell_length_c   12.50448300
_cell_angle_alpha   90.00000000
_cell_angle_beta   90.00000000
_cell_angle_gamma   90.00000000
_symmetry_Int_Tables_number   1
_chemical_formula_structural   La2USe5
_chemical_formula_sum   'La8 U4 Se20'
_cell_volume   853.24764527
_cell_formula_units_Z   4
loop_
 _symmetry_equiv_pos_site_id
 _symmetry_equiv_pos_as_xyz
  1  'x, y, z'
loop_
 _atom_site_type_symbol
 _atom_site_label
 _atom_site_symmetry_multiplicity
 _atom_site_fract_x
 _atom_site_fract_y
 _atom_site_fract_z
 _atom_site_occupancy
  La  La0  1  0.97070095  0.00003518  0.17720318  1
  La  La1  1  0.52929905  0.49996482  0.67720318  1
  La  La2  1  0.02929905  0.50003518  0.82279682  1
  La  La3  1  0.47070095  -0.00003518  0.32279682  1
  La  La4  1  0.02929905  -0.00003518  0.82279682  1
  La  La5  1  0.47070095  0.50003518  0.32279682  1
  La  La6  1  0.97070095  0.49996482  0.17720318  1
  La  La7  1  0.52929905  0.00003518  0.67720318  1
  U  U8  1  0.42708119  0.75000000  0.00910695  1
  U  U9  1  0.07291881  0.75000000  0.50910695  1
  U  U10  1  0.57291881  0.25000000  0.99089305  1
  U  U11  1  0.92708119  0.25000000  0.49089305  1
  Se  Se12  1  0.66549378  0.54371905  0.90896183  1
  Se  Se13  1  0.83450622  0.95628095  0.40896183  1
  Se  Se14  1  0.33450622  0.04371905  0.09103817  1
  Se  Se15  1  0.16549378  0.45628095  0.59103817  1
  Se  Se16  1  0.33450622  0.45628095  0.09103817  1
  Se  Se17  1  0.16549378  0.04371905  0.59103817  1
  Se  Se18  1  0.66549378  0.95628095  0.90896183  1
  Se  Se19  1  0.83450622  0.54371905  0.40896183  1
  Se  Se20  1  0.66475689  0.75000000  0.18685009  1
  Se  Se21  1  0.83524311  0.75000000  0.68685009  1
  Se  Se22  1  0.33524311  0.25000000  0.81314991  1
  Se  Se23  1  0.16475689  0.25000000  0.31314991  1
  Se  Se24  1  0.04464256  0.75000000  0.00089488  1
  Se  Se25  1  0.45535744  0.75000000  0.50089488  1
  Se  Se26  1  0.95535744  0.25000000  0.99910512  1
  Se  Se27  1  0.54464256  0.25000000  0.49910512  1
  Se  Se28  1  0.30812043  0.75000000  0.78488971  1
  Se  Se29  1  0.19187957  0.75000000  0.28488971  1
  Se  Se30  1  0.69187957  0.25000000  0.21511029  1
  Se  Se31  1  0.80812043  0.25000000  0.71511029  1
