# generated using pymatgen
data_Cs3Nb9(TeO8)4
_symmetry_space_group_name_H-M   'P 1'
_cell_length_a   7.53532131
_cell_length_b   10.88062453
_cell_length_c   19.67701846
_cell_angle_alpha   106.05026141
_cell_angle_beta   90.00000000
_cell_angle_gamma   90.00000000
_symmetry_Int_Tables_number   1
_chemical_formula_structural   Cs3Nb9(TeO8)4
_chemical_formula_sum   'Cs6 Nb18 Te8 O64'
_cell_volume   1550.41194533
_cell_formula_units_Z   2
loop_
 _symmetry_equiv_pos_site_id
 _symmetry_equiv_pos_as_xyz
  1  'x, y, z'
loop_
 _atom_site_type_symbol
 _atom_site_label
 _atom_site_symmetry_multiplicity
 _atom_site_fract_x
 _atom_site_fract_y
 _atom_site_fract_z
 _atom_site_occupancy
  Cs  Cs0  1  0.25000000  0.63449648  1.00000000  1
  Cs  Cs1  1  0.75000000  0.36550352  0.00000000  1
  Cs  Cs2  1  0.25000000  0.95553913  0.20445797  1
  Cs  Cs3  1  0.75000000  0.24891884  0.20445797  1
  Cs  Cs4  1  0.75000000  0.04446087  0.79554203  1
  Cs  Cs5  1  0.25000000  0.75108116  0.79554203  1
  Nb  Nb6  1  0.50000000  0.19795080  0.39590160  1
  Nb  Nb7  1  -0.00000000  0.19795080  0.39590160  1
  Nb  Nb8  1  0.50000000  0.80204920  0.60409840  1
  Nb  Nb9  1  0.00000000  0.80204920  0.60409840  1
  Nb  Nb10  1  0.75000000  0.90764588  0.29920909  1
  Nb  Nb11  1  0.25000000  0.39156321  0.29920909  1
  Nb  Nb12  1  0.25000000  0.09235412  0.70079091  1
  Nb  Nb13  1  0.75000000  0.60843679  0.70079091  1
  Nb  Nb14  1  0.50000000  0.59353450  0.18706901  1
  Nb  Nb15  1  -0.00000000  0.59353450  0.18706901  1
  Nb  Nb16  1  0.50000000  0.40646550  0.81293099  1
  Nb  Nb17  1  0.00000000  0.40646550  0.81293099  1
  Nb  Nb18  1  0.75000000  0.80640883  0.09558231  1
  Nb  Nb19  1  0.25000000  0.28917348  0.09558231  1
  Nb  Nb20  1  0.25000000  0.19359117  0.90441769  1
  Nb  Nb21  1  0.75000000  0.71082652  0.90441769  1
  Nb  Nb22  1  0.50000000  -0.00000000  -0.00000000  1
  Nb  Nb23  1  0.00000000  -0.00000000  -0.00000000  1
  Te  Te24  1  0.75000000  0.01478754  0.49803130  1
  Te  Te25  1  0.25000000  0.48324377  0.49803130  1
  Te  Te26  1  0.25000000  0.98521246  0.50196870  1
  Te  Te27  1  0.75000000  0.51675623  0.50196870  1
  Te  Te28  1  0.50000000  0.68288205  0.36576410  1
  Te  Te29  1  0.00000000  0.68288205  0.36576410  1
  Te  Te30  1  0.50000000  0.31711795  0.63423590  1
  Te  Te31  1  0.00000000  0.31711795  0.63423590  1
  O  O32  1  0.55418019  0.11233908  0.47680690  1
  O  O33  1  0.44581981  0.36446781  0.47680690  1
  O  O34  1  0.94581981  0.11233908  0.47680690  1
  O  O35  1  0.05418019  0.36446781  0.47680690  1
  O  O36  1  0.44581981  0.88766092  0.52319310  1
  O  O37  1  0.55418019  0.63553219  0.52319310  1
  O  O38  1  0.05418019  0.88766092  0.52319310  1
  O  O39  1  0.94581981  0.63553219  0.52319310  1
  O  O40  1  0.75000000  0.89233316  0.40608270  1
  O  O41  1  0.25000000  0.51374954  0.40608270  1
  O  O42  1  0.25000000  0.10766684  0.59391730  1
  O  O43  1  0.75000000  0.48625046  0.59391730  1
  O  O44  1  0.25000000  0.76692718  0.37000054  1
  O  O45  1  0.75000000  0.60307336  0.37000054  1
  O  O46  1  0.75000000  0.23307282  0.62999946  1
  O  O47  1  0.25000000  0.39692664  0.62999946  1
  O  O48  1  0.56318594  0.75572332  0.28688415  1
  O  O49  1  0.43681406  0.53116084  0.28688415  1
  O  O50  1  0.93681406  0.75572332  0.28688415  1
  O  O51  1  0.06318594  0.53116084  0.28688415  1
  O  O52  1  0.43681406  0.24427668  0.71311585  1
  O  O53  1  0.56318594  0.46883916  0.71311585  1
  O  O54  1  0.06318594  0.24427668  0.71311585  1
  O  O55  1  0.93681406  0.46883916  0.71311585  1
  O  O56  1  0.75000000  0.25379382  0.40078807  1
  O  O57  1  0.25000000  0.14699426  0.40078807  1
  O  O58  1  0.25000000  0.74620618  0.59921193  1
  O  O59  1  0.75000000  0.85300574  0.59921193  1
  O  O60  1  0.56542545  0.03729286  0.32580151  1
  O  O61  1  0.43457455  0.28850864  0.32580151  1
  O  O62  1  0.93457455  0.03729286  0.32580151  1
  O  O63  1  0.06542545  0.28850864  0.32580151  1
  O  O64  1  0.43457455  0.96270714  0.67419849  1
  O  O65  1  0.56542545  0.71149136  0.67419849  1
  O  O66  1  0.06542545  0.96270714  0.67419849  1
  O  O67  1  0.93457455  0.71149136  0.67419849  1
  O  O68  1  0.75000000  0.89830254  0.20326291  1
  O  O69  1  0.25000000  0.30496038  0.20326291  1
  O  O70  1  0.25000000  0.10169746  0.79673709  1
  O  O71  1  0.75000000  0.69503962  0.79673709  1
  O  O72  1  0.75000000  0.54322806  0.19764253  1
  O  O73  1  0.25000000  0.65441448  0.19764253  1
  O  O74  1  0.25000000  0.45677194  0.80235747  1
  O  O75  1  0.75000000  0.34558552  0.80235747  1
  O  O76  1  0.93948059  0.69035107  0.12500058  1
  O  O77  1  0.06051941  0.43464951  0.12500058  1
  O  O78  1  0.56051941  0.69035107  0.12500058  1
  O  O79  1  0.43948059  0.43464951  0.12500058  1
  O  O80  1  0.06051941  0.30964893  0.87499942  1
  O  O81  1  0.93948059  0.56535049  0.87499942  1
  O  O82  1  0.43948059  0.30964893  0.87499942  1
  O  O83  1  0.56051941  0.56535049  0.87499942  1
  O  O84  1  0.75000000  0.68973749  1.00000000  1
  O  O85  1  0.25000000  0.31026251  0.00000000  1
  O  O86  1  0.56355204  0.91233563  0.07514817  1
  O  O87  1  0.43644796  0.16281255  0.07514817  1
  O  O88  1  0.93644796  0.91233563  0.07514817  1
  O  O89  1  0.06355204  0.16281255  0.07514817  1
  O  O90  1  0.43644796  0.08766437  0.92485183  1
  O  O91  1  0.56355204  0.83718745  0.92485183  1
  O  O92  1  0.06355204  0.08766437  0.92485183  1
  O  O93  1  0.93644796  0.83718745  0.92485183  1
  O  O94  1  0.25000000  0.94265228  1.00000000  1
  O  O95  1  0.75000000  0.05734772  0.00000000  1
