# generated using pymatgen
data_InH6(ClO)3
_symmetry_space_group_name_H-M   'P 1'
_cell_length_a   10.73934791
_cell_length_b   12.56969916
_cell_length_c   12.61973029
_cell_angle_alpha   108.67942265
_cell_angle_beta   90.00000000
_cell_angle_gamma   90.00000000
_symmetry_Int_Tables_number   1
_chemical_formula_structural   InH6(ClO)3
_chemical_formula_sum   'In8 H48 Cl24 O24'
_cell_volume   1613.80862843
_cell_formula_units_Z   8
loop_
 _symmetry_equiv_pos_site_id
 _symmetry_equiv_pos_as_xyz
  1  'x, y, z'
loop_
 _atom_site_type_symbol
 _atom_site_label
 _atom_site_symmetry_multiplicity
 _atom_site_fract_x
 _atom_site_fract_y
 _atom_site_fract_z
 _atom_site_occupancy
  In  In0  1  0.26615937  0.15504700  0.74271894  1
  In  In1  1  0.23384063  0.65504700  0.24271894  1
  In  In2  1  0.73384063  0.84495300  0.25728106  1
  In  In3  1  0.76615937  0.34495300  0.75728106  1
  In  In4  1  0.22769048  0.12875542  0.20888619  1
  In  In5  1  0.27230952  0.62875542  0.70888619  1
  In  In6  1  0.77230952  0.87124458  0.79111381  1
  In  In7  1  0.72769048  0.37124458  0.29111381  1
  H  H8  1  0.18786888  0.31803254  0.64913837  1
  H  H9  1  0.31213112  0.81803254  0.14913837  1
  H  H10  1  0.81213112  0.68196746  0.35086163  1
  H  H11  1  0.68786888  0.18196746  0.85086163  1
  H  H12  1  0.08015405  0.22492729  0.61989596  1
  H  H13  1  0.41984595  0.72492729  0.11989596  1
  H  H14  1  0.91984595  0.77507271  0.38010404  1
  H  H15  1  0.58015405  0.27507271  0.88010404  1
  H  H16  1  0.10731422  0.15422374  0.91604523  1
  H  H17  1  0.39268578  0.65422374  0.41604523  1
  H  H18  1  0.89268578  0.84577626  0.08395477  1
  H  H19  1  0.60731422  0.34577626  0.58395477  1
  H  H20  1  0.03444249  0.21813279  0.84725742  1
  H  H21  1  0.46555751  0.71813279  0.34725742  1
  H  H22  1  0.96555751  0.78186721  0.15274258  1
  H  H23  1  0.53444249  0.28186721  0.65274258  1
  H  H24  1  0.07658451  0.98474374  0.65455257  1
  H  H25  1  0.42341549  0.48474374  0.15455257  1
  H  H26  1  0.92341549  0.01525626  0.34544743  1
  H  H27  1  0.57658451  0.51525626  0.84544743  1
  H  H28  1  0.18103263  0.96314061  0.56082159  1
  H  H29  1  0.31896737  0.46314061  0.06082159  1
  H  H30  1  0.81896737  0.03685939  0.43917841  1
  H  H31  1  0.68103263  0.53685939  0.93917841  1
  H  H32  1  0.38343034  0.10803636  0.02517051  1
  H  H33  1  0.11656966  0.60803636  0.52517051  1
  H  H34  1  0.61656966  0.89196364  0.97482949  1
  H  H35  1  0.88343034  0.39196364  0.47482949  1
  H  H36  1  0.44442586  0.20550127  0.12543281  1
  H  H37  1  0.05557414  0.70550127  0.62543281  1
  H  H38  1  0.55557414  0.79449873  0.87456719  1
  H  H39  1  0.94442586  0.29449873  0.37456719  1
  H  H40  1  0.45852711  0.04519637  0.27369977  1
  H  H41  1  0.04147289  0.54519637  0.77369977  1
  H  H42  1  0.54147289  0.95480363  0.72630023  1
  H  H43  1  0.95852711  0.45480363  0.22630023  1
  H  H44  1  0.36727119  0.06757665  0.37999450  1
  H  H45  1  0.13272881  0.56757665  0.87999450  1
  H  H46  1  0.63272881  0.93242335  0.62000550  1
  H  H47  1  0.86727119  0.43242335  0.12000550  1
  H  H48  1  0.27007021  0.36344380  0.32414764  1
  H  H49  1  0.22992979  0.86344380  0.82414764  1
  H  H50  1  0.72992979  0.63655620  0.67585236  1
  H  H51  1  0.77007021  0.13655620  0.17585236  1
  H  H52  1  0.38820602  0.30026053  0.35387911  1
  H  H53  1  0.11179398  0.80026053  0.85387911  1
  H  H54  1  0.61179398  0.69973947  0.64612089  1
  H  H55  1  0.88820602  0.19973947  0.14612089  1
  Cl  Cl56  1  0.34879816  0.33005696  0.87437160  1
  Cl  Cl57  1  0.15120184  0.83005696  0.37437160  1
  Cl  Cl58  1  0.65120184  0.66994304  0.12562840  1
  Cl  Cl59  1  0.84879816  0.16994304  0.62562840  1
  Cl  Cl60  1  0.40931638  0.12434386  0.58317989  1
  Cl  Cl61  1  0.09068362  0.62434386  0.08317989  1
  Cl  Cl62  1  0.59068362  0.87565614  0.41682011  1
  Cl  Cl63  1  0.90931638  0.37565614  0.91682011  1
  Cl  Cl64  1  0.35078609  0.02307420  0.83852273  1
  Cl  Cl65  1  0.14921391  0.52307420  0.33852273  1
  Cl  Cl66  1  0.64921391  0.97692580  0.16147727  1
  Cl  Cl67  1  0.85078609  0.47692580  0.66147727  1
  Cl  Cl68  1  0.08563850  0.15226958  0.37049784  1
  Cl  Cl69  1  0.41436150  0.65226958  0.87049784  1
  Cl  Cl70  1  0.91436150  0.84773042  0.62950216  1
  Cl  Cl71  1  0.58563850  0.34773042  0.12950216  1
  Cl  Cl72  1  0.10361539  0.22966269  0.10574623  1
  Cl  Cl73  1  0.39638461  0.72966269  0.60574623  1
  Cl  Cl74  1  0.89638461  0.77033731  0.89425377  1
  Cl  Cl75  1  0.60361539  0.27033731  0.39425377  1
  Cl  Cl76  1  0.20202015  0.93415116  0.08748602  1
  Cl  Cl77  1  0.29797985  0.43415116  0.58748602  1
  Cl  Cl78  1  0.79797985  0.06584884  0.91251398  1
  Cl  Cl79  1  0.70202015  0.56584884  0.41251398  1
  O  O80  1  0.14059086  0.26451684  0.67708293  1
  O  O81  1  0.35940914  0.76451684  0.17708293  1
  O  O82  1  0.85940914  0.73548316  0.32291707  1
  O  O83  1  0.64059086  0.23548316  0.82291707  1
  O  O84  1  0.09058892  0.15370647  0.83894970  1
  O  O85  1  0.40941108  0.65370647  0.33894970  1
  O  O86  1  0.90941108  0.84629353  0.16105030  1
  O  O87  1  0.59058892  0.34629353  0.66105030  1
  O  O88  1  0.14580827  0.01968384  0.62638604  1
  O  O89  1  0.35419173  0.51968384  0.12638604  1
  O  O90  1  0.85419173  0.98031616  0.37361396  1
  O  O91  1  0.64580827  0.48031616  0.87361396  1
  O  O92  1  0.40060711  0.13271364  0.10617560  1
  O  O93  1  0.09939289  0.63271364  0.60617560  1
  O  O94  1  0.59939289  0.86728636  0.89382440  1
  O  O95  1  0.90060711  0.36728636  0.39382440  1
  O  O96  1  0.37455498  0.06798197  0.30289092  1
  O  O97  1  0.12544502  0.56798197  0.80289092  1
  O  O98  1  0.62544502  0.93201803  0.69710908  1
  O  O99  1  0.87455498  0.43201803  0.19710908  1
  O  O100  1  0.32341530  0.29630868  0.29780663  1
  O  O101  1  0.17658470  0.79630868  0.79780663  1
  O  O102  1  0.67658470  0.70369132  0.70219337  1
  O  O103  1  0.82341530  0.20369132  0.20219337  1
