# generated using pymatgen
data_BaLa(SbSe3)2
_symmetry_space_group_name_H-M   'P 1'
_cell_length_a   4.43027306
_cell_length_b   15.46137022
_cell_length_c   17.10164461
_cell_angle_alpha   90.00000000
_cell_angle_beta   92.80956598
_cell_angle_gamma   90.00000000
_symmetry_Int_Tables_number   1
_chemical_formula_structural   BaLa(SbSe3)2
_chemical_formula_sum   'Ba4 La4 Sb8 Se24'
_cell_volume   1170.02192958
_cell_formula_units_Z   4
loop_
 _symmetry_equiv_pos_site_id
 _symmetry_equiv_pos_as_xyz
  1  'x, y, z'
loop_
 _atom_site_type_symbol
 _atom_site_label
 _atom_site_symmetry_multiplicity
 _atom_site_fract_x
 _atom_site_fract_y
 _atom_site_fract_z
 _atom_site_occupancy
  Ba  Ba0  1  0.26139977  0.70934846  0.67223776  1
  Ba  Ba1  1  0.73860023  0.20934846  0.82776224  1
  Ba  Ba2  1  0.73860023  0.29065154  0.32776224  1
  Ba  Ba3  1  0.26139977  0.79065154  0.17223776  1
  La  La4  1  0.29379931  0.87307434  0.90698532  1
  La  La5  1  0.70620069  0.37307434  0.59301468  1
  La  La6  1  0.70620069  0.12692566  0.09301468  1
  La  La7  1  0.29379931  0.62692566  0.40698532  1
  Sb  Sb8  1  0.70367017  0.63047828  0.97349613  1
  Sb  Sb9  1  0.29632983  0.13047828  0.52650387  1
  Sb  Sb10  1  0.29632983  0.36952172  0.02650387  1
  Sb  Sb11  1  0.70367017  0.86952172  0.47349613  1
  Sb  Sb12  1  0.73076437  0.97294403  0.69670956  1
  Sb  Sb13  1  0.26923563  0.47294403  0.80329044  1
  Sb  Sb14  1  0.26923563  0.02705597  0.30329044  1
  Sb  Sb15  1  0.73076437  0.52705597  0.19670956  1
  Se  Se16  1  0.82559195  0.01275802  0.94151446  1
  Se  Se17  1  0.17440805  0.51275802  0.55848554  1
  Se  Se18  1  0.17440805  0.98724198  0.05848554  1
  Se  Se19  1  0.82559195  0.48724198  0.44151446  1
  Se  Se20  1  0.24925716  0.67134495  0.87248703  1
  Se  Se21  1  0.75074284  0.17134495  0.62751297  1
  Se  Se22  1  0.75074284  0.32865505  0.12751297  1
  Se  Se23  1  0.24925716  0.82865505  0.37248703  1
  Se  Se24  1  0.76731247  0.79285195  0.02174700  1
  Se  Se25  1  0.23268753  0.29285195  0.47825300  1
  Se  Se26  1  0.23268753  0.20714805  0.97825300  1
  Se  Se27  1  0.76731247  0.70714805  0.52174700  1
  Se  Se28  1  0.69903173  0.41286833  0.91072398  1
  Se  Se29  1  0.30096827  0.91286833  0.58927602  1
  Se  Se30  1  0.30096827  0.58713167  0.08927602  1
  Se  Se31  1  0.69903173  0.08713167  0.41072398  1
  Se  Se32  1  0.77822527  0.82578197  0.77983518  1
  Se  Se33  1  0.22177473  0.32578197  0.72016482  1
  Se  Se34  1  0.22177473  0.17421803  0.22016482  1
  Se  Se35  1  0.77822527  0.67421803  0.27983518  1
  Se  Se36  1  0.32844091  0.03200002  0.79534593  1
  Se  Se37  1  0.67155909  0.53200002  0.70465407  1
  Se  Se38  1  0.67155909  0.96799998  0.20465407  1
  Se  Se39  1  0.32844091  0.46799998  0.29534593  1
