# generated using pymatgen
data_RbPrH8(SO6)2
_symmetry_space_group_name_H-M   'P 1'
_cell_length_a   6.76701373
_cell_length_b   8.81213501
_cell_length_c   19.20602687
_cell_angle_alpha   90.00000000
_cell_angle_beta   90.00000000
_cell_angle_gamma   97.31365652
_symmetry_Int_Tables_number   1
_chemical_formula_structural   RbPrH8(SO6)2
_chemical_formula_sum   'Rb4 Pr4 H32 S8 O48'
_cell_volume   1135.97275695
_cell_formula_units_Z   4
loop_
 _symmetry_equiv_pos_site_id
 _symmetry_equiv_pos_as_xyz
  1  'x, y, z'
loop_
 _atom_site_type_symbol
 _atom_site_label
 _atom_site_symmetry_multiplicity
 _atom_site_fract_x
 _atom_site_fract_y
 _atom_site_fract_z
 _atom_site_occupancy
  Rb  Rb0  1  0.15074627  0.10206434  0.78939531  1
  Rb  Rb1  1  0.84925373  0.39793566  0.28939531  1
  Rb  Rb2  1  0.84925373  0.89793566  0.21060469  1
  Rb  Rb3  1  0.15074627  0.60206434  0.71060469  1
  Pr  Pr4  1  0.64955727  0.28230140  0.62369538  1
  Pr  Pr5  1  0.35044273  0.21769860  0.12369538  1
  Pr  Pr6  1  0.35044273  0.71769860  0.37630462  1
  Pr  Pr7  1  0.64955727  0.78230140  0.87630462  1
  H  H8  1  0.79998440  0.60863903  0.56641681  1
  H  H9  1  0.20001560  0.89136097  0.06641681  1
  H  H10  1  0.20001560  0.39136097  0.43358319  1
  H  H11  1  0.79998440  0.10863903  0.93358319  1
  H  H12  1  0.70042521  0.64775469  0.63604347  1
  H  H13  1  0.29957479  0.85224531  0.13604347  1
  H  H14  1  0.29957479  0.35224531  0.36395653  1
  H  H15  1  0.70042521  0.14775469  0.86395653  1
  H  H16  1  0.73504226  0.01957138  0.50944743  1
  H  H17  1  0.26495774  0.48042862  0.00944743  1
  H  H18  1  0.26495774  0.98042862  0.49055257  1
  H  H19  1  0.73504226  0.51957138  0.99055257  1
  H  H20  1  0.66909236  0.94024409  0.58131920  1
  H  H21  1  0.33090764  0.55975591  0.08131920  1
  H  H22  1  0.33090764  0.05975591  0.41868080  1
  H  H23  1  0.66909236  0.44024409  0.91868080  1
  H  H24  1  0.75469270  0.27237912  0.46364040  1
  H  H25  1  0.24530730  0.22762088  0.96364040  1
  H  H26  1  0.24530730  0.72762088  0.53635960  1
  H  H27  1  0.75469270  0.77237912  0.03635960  1
  H  H28  1  0.66181253  0.42800351  0.47227667  1
  H  H29  1  0.33818747  0.07199649  0.97227667  1
  H  H30  1  0.33818747  0.57199649  0.52772333  1
  H  H31  1  0.66181253  0.92800351  0.02772333  1
  H  H32  1  0.19047565  0.44810525  0.89536257  1
  H  H33  1  0.80952435  0.05189475  0.39536257  1
  H  H34  1  0.80952435  0.55189475  0.10463743  1
  H  H35  1  0.19047565  0.94810525  0.60463743  1
  H  H36  1  0.00791873  0.33482798  0.92131805  1
  H  H37  1  0.99208127  0.16517202  0.42131805  1
  H  H38  1  0.99208127  0.66517202  0.07868195  1
  H  H39  1  0.00791873  0.83482798  0.57868195  1
  S  S40  1  0.19297004  0.27834976  0.57451564  1
  S  S41  1  0.80702996  0.22165024  0.07451564  1
  S  S42  1  0.80702996  0.72165024  0.42548436  1
  S  S43  1  0.19297004  0.77834976  0.92548436  1
  S  S44  1  0.62192825  0.39705559  0.78106079  1
  S  S45  1  0.37807175  0.10294441  0.28106079  1
  S  S46  1  0.37807175  0.60294441  0.21893921  1
  S  S47  1  0.62192825  0.89705559  0.71893921  1
  O  O48  1  0.01948623  0.29927200  0.61913137  1
  O  O49  1  0.98051377  0.20072800  0.11913137  1
  O  O50  1  0.98051377  0.70072800  0.38086863  1
  O  O51  1  0.01948623  0.79927200  0.88086863  1
  O  O52  1  0.29092431  0.14417143  0.60044488  1
  O  O53  1  0.70907569  0.35582857  0.10044488  1
  O  O54  1  0.70907569  0.85582857  0.39955512  1
  O  O55  1  0.29092431  0.64417143  0.89955512  1
  O  O56  1  0.86363366  0.24228659  0.00096264  1
  O  O57  1  0.13636634  0.25771341  0.50096264  1
  O  O58  1  0.13636634  0.75771341  0.99903736  1
  O  O59  1  0.86363366  0.74228659  0.49903736  1
  O  O60  1  0.35044785  0.41477162  0.58304820  1
  O  O61  1  0.64955215  0.08522838  0.08304820  1
  O  O62  1  0.64955215  0.58522838  0.41695180  1
  O  O63  1  0.35044785  0.91477162  0.91695180  1
  O  O64  1  0.80541471  0.37267680  0.74113493  1
  O  O65  1  0.19458529  0.12732320  0.24113493  1
  O  O66  1  0.19458529  0.62732320  0.25886507  1
  O  O67  1  0.80541471  0.87267680  0.75886507  1
  O  O68  1  0.62758983  0.06122464  0.70082626  1
  O  O69  1  0.37241017  0.43877536  0.20082626  1
  O  O70  1  0.37241017  0.93877536  0.29917374  1
  O  O71  1  0.62758983  0.56122464  0.79917374  1
  O  O72  1  0.44907484  0.35058766  0.73321995  1
  O  O73  1  0.55092516  0.14941234  0.23321995  1
  O  O74  1  0.55092516  0.64941234  0.26678005  1
  O  O75  1  0.44907484  0.85058766  0.76678005  1
  O  O76  1  0.60315875  0.30523787  0.84621022  1
  O  O77  1  0.39684125  0.19476213  0.34621022  1
  O  O78  1  0.39684125  0.69476213  0.15378978  1
  O  O79  1  0.60315875  0.80523787  0.65378978  1
  O  O80  1  0.76576582  0.56498249  0.61311922  1
  O  O81  1  0.23423418  0.93501751  0.11311922  1
  O  O82  1  0.23423418  0.43501751  0.38688078  1
  O  O83  1  0.76576582  0.06498249  0.88688078  1
  O  O84  1  0.71561186  0.03923260  0.55855739  1
  O  O85  1  0.28438814  0.46076740  0.05855739  1
  O  O86  1  0.28438814  0.96076740  0.44144261  1
  O  O87  1  0.71561186  0.53923260  0.94144261  1
  O  O88  1  0.69067628  0.33555811  0.49787112  1
  O  O89  1  0.30932372  0.16444189  0.99787112  1
  O  O90  1  0.30932372  0.66444189  0.50212888  1
  O  O91  1  0.69067628  0.83555811  0.00212888  1
  O  O92  1  0.14030873  0.33810715  0.90029556  1
  O  O93  1  0.85969127  0.16189285  0.40029556  1
  O  O94  1  0.85969127  0.66189285  0.09970444  1
  O  O95  1  0.14030873  0.83810715  0.59970444  1
