# generated using pymatgen
data_U6Al43Mo4
_symmetry_space_group_name_H-M   'P 1'
_cell_length_a   11.02412230
_cell_length_b   11.01891195
_cell_length_c   17.53590108
_cell_angle_alpha   90.00000000
_cell_angle_beta   90.00000000
_cell_angle_gamma   120.01564206
_symmetry_Int_Tables_number   1
_chemical_formula_structural   U6Al43Mo4
_chemical_formula_sum   'U12 Al86 Mo8'
_cell_volume   1844.47587341
_cell_formula_units_Z   2
loop_
 _symmetry_equiv_pos_site_id
 _symmetry_equiv_pos_as_xyz
  1  'x, y, z'
loop_
 _atom_site_type_symbol
 _atom_site_label
 _atom_site_symmetry_multiplicity
 _atom_site_fract_x
 _atom_site_fract_y
 _atom_site_fract_z
 _atom_site_occupancy
  U  U0  1  0.52429847  0.00000000  0.58803147  1
  U  U1  1  0.47566134  0.47564823  0.58829332  1
  U  U2  1  0.00001311  0.52435177  0.58829332  1
  U  U3  1  0.47570153  1.00000000  0.41196853  1
  U  U4  1  0.52433866  0.52435177  0.41170668  1
  U  U5  1  -0.00001311  0.47564823  0.41170668  1
  U  U6  1  0.47570153  1.00000000  0.08803147  1
  U  U7  1  0.52433866  0.52435177  0.08829332  1
  U  U8  1  -0.00001311  0.47564823  0.08829332  1
  U  U9  1  0.52429847  0.00000000  0.91196853  1
  U  U10  1  0.47566134  0.47564823  0.91170668  1
  U  U11  1  0.00001311  0.52435177  0.91170668  1
  Al  Al12  1  0.15929956  0.39480419  0.66334230  1
  Al  Al13  1  0.23569438  0.84082447  0.66328276  1
  Al  Al14  1  0.60517211  0.76462474  0.66331994  1
  Al  Al15  1  0.76449537  0.60519581  0.66334230  1
  Al  Al16  1  0.39486991  0.15917553  0.66328276  1
  Al  Al17  1  0.84054736  0.23537526  0.66331994  1
  Al  Al18  1  0.84070044  0.60519581  0.33665770  1
  Al  Al19  1  0.76430562  0.15917553  0.33671724  1
  Al  Al20  1  0.39482789  0.23537526  0.33668006  1
  Al  Al21  1  0.23550463  0.39480419  0.33665770  1
  Al  Al22  1  0.60513009  0.84082447  0.33671724  1
  Al  Al23  1  0.15945264  0.76462474  0.33668006  1
  Al  Al24  1  0.84070044  0.60519581  0.16334230  1
  Al  Al25  1  0.76430562  0.15917553  0.16328276  1
  Al  Al26  1  0.39482789  0.23537526  0.16331994  1
  Al  Al27  1  0.23550463  0.39480419  0.16334230  1
  Al  Al28  1  0.60513009  0.84082447  0.16328276  1
  Al  Al29  1  0.15945264  0.76462474  0.16331994  1
  Al  Al30  1  0.15929956  0.39480419  0.83665770  1
  Al  Al31  1  0.23569438  0.84082447  0.83671724  1
  Al  Al32  1  0.60517211  0.76462474  0.83668006  1
  Al  Al33  1  0.76449537  0.60519581  0.83665770  1
  Al  Al34  1  0.39486991  0.15917553  0.83671724  1
  Al  Al35  1  0.84054736  0.23537526  0.83668006  1
  Al  Al36  1  0.16114796  1.00000000  0.11426693  1
  Al  Al37  1  0.83891405  0.83894155  0.11426255  1
  Al  Al38  1  0.99997250  0.16105845  0.11426255  1
  Al  Al39  1  0.83885204  0.00000000  0.88573307  1
  Al  Al40  1  0.16108595  0.16105845  0.88573745  1
  Al  Al41  1  0.00002750  0.83894155  0.88573745  1
  Al  Al42  1  0.83885204  0.00000000  0.61426693  1
  Al  Al43  1  0.16108595  0.16105845  0.61426255  1
  Al  Al44  1  0.00002750  0.83894155  0.61426255  1
  Al  Al45  1  0.16114796  1.00000000  0.38573307  1
  Al  Al46  1  0.83891405  0.83894155  0.38573745  1
  Al  Al47  1  0.99997250  0.16105845  0.38573745  1
  Al  Al48  1  0.25498357  1.00000000  0.52978406  1
  Al  Al49  1  0.74524682  0.74525312  0.52981574  1
  Al  Al50  1  0.99999370  0.25474688  0.52981574  1
  Al  Al51  1  0.74501643  0.00000000  0.47021594  1
  Al  Al52  1  0.25475318  0.25474688  0.47018426  1
  Al  Al53  1  0.00000630  0.74525312  0.47018426  1
  Al  Al54  1  0.74501643  0.00000000  0.02978406  1
  Al  Al55  1  0.25475318  0.25474688  0.02981574  1
  Al  Al56  1  0.00000630  0.74525312  0.02981574  1
  Al  Al57  1  0.25498357  1.00000000  0.97021594  1
  Al  Al58  1  0.74524682  0.74525312  0.97018426  1
  Al  Al59  1  0.99999370  0.25474688  0.97018426  1
  Al  Al60  1  0.14361049  0.59302020  0.75000000  1
  Al  Al61  1  0.44954564  0.85664350  0.75000000  1
  Al  Al62  1  0.40698905  0.55062022  0.75000000  1
  Al  Al63  1  0.55059029  0.40697980  0.75000000  1
  Al  Al64  1  0.59290215  0.14335650  0.75000000  1
  Al  Al65  1  0.85636883  0.44937978  0.75000000  1
  Al  Al66  1  0.85638951  0.40697980  0.25000000  1
  Al  Al67  1  0.55045436  0.14335650  0.25000000  1
  Al  Al68  1  0.59301095  0.44937978  0.25000000  1
  Al  Al69  1  0.44940971  0.59302020  0.25000000  1
  Al  Al70  1  0.40709785  0.85664350  0.25000000  1
  Al  Al71  1  0.14363117  0.55062022  0.25000000  1
  Al  Al72  1  0.24685632  0.49371264  0.50000000  1
  Al  Al73  1  0.24709163  0.75340303  0.49996134  1
  Al  Al74  1  0.50631140  0.75340303  0.50003866  1
  Al  Al75  1  0.75314368  0.50628736  0.50000000  1
  Al  Al76  1  0.49368860  0.24659697  0.49996134  1
  Al  Al77  1  0.75290837  0.24659697  0.50003866  1
  Al  Al78  1  0.75314368  0.50628736  0.00000000  1
  Al  Al79  1  0.75290837  0.24659697  0.99996134  1
  Al  Al80  1  0.49368860  0.24659697  0.00003866  1
  Al  Al81  1  0.24685632  0.49371264  0.00000000  1
  Al  Al82  1  0.50631140  0.75340303  0.99996134  1
  Al  Al83  1  0.24709163  0.75340303  0.00003866  1
  Al  Al84  1  0.33343065  0.66687026  0.62722094  1
  Al  Al85  1  0.66656039  0.33312974  0.62722094  1
  Al  Al86  1  0.66656935  0.33312974  0.37277906  1
  Al  Al87  1  0.33343961  0.66687026  0.37277906  1
  Al  Al88  1  0.66656935  0.33312974  0.12722094  1
  Al  Al89  1  0.33343961  0.66687026  0.12722094  1
  Al  Al90  1  0.33343065  0.66687026  0.87277906  1
  Al  Al91  1  0.66656039  0.33312974  0.87277906  1
  Al  Al92  1  0.14633397  0.00000000  0.75000000  1
  Al  Al93  1  0.85361628  0.85365752  0.75000000  1
  Al  Al94  1  -0.00004125  0.14634248  0.75000000  1
  Al  Al95  1  0.85366603  1.00000000  0.25000000  1
  Al  Al96  1  0.14638372  0.14634248  0.25000000  1
  Al  Al97  1  0.00004125  0.85365752  0.25000000  1
  Mo  Mo98  1  0.73036663  1.00000000  0.75000000  1
  Mo  Mo99  1  0.26961037  0.26962168  0.75000000  1
  Mo  Mo100  1  -0.00001131  0.73037832  0.75000000  1
  Mo  Mo101  1  0.26963337  0.00000000  0.25000000  1
  Mo  Mo102  1  0.73038963  0.73037832  0.25000000  1
  Mo  Mo103  1  0.00001131  0.26962168  0.25000000  1
  Mo  Mo104  1  -0.00000000  0.00000000  0.50000000  1
  Mo  Mo105  1  -0.00000000  0.00000000  0.00000000  1
