# generated using pymatgen
data_Ce2ThS5
_symmetry_space_group_name_H-M   'P 1'
_cell_length_a   7.55140565
_cell_length_b   8.24961619
_cell_length_c   12.07104724
_cell_angle_alpha   90.00000000
_cell_angle_beta   90.00000000
_cell_angle_gamma   90.00000000
_symmetry_Int_Tables_number   1
_chemical_formula_structural   Ce2ThS5
_chemical_formula_sum   'Ce8 Th4 S20'
_cell_volume   751.98035264
_cell_formula_units_Z   4
loop_
 _symmetry_equiv_pos_site_id
 _symmetry_equiv_pos_as_xyz
  1  'x, y, z'
loop_
 _atom_site_type_symbol
 _atom_site_label
 _atom_site_symmetry_multiplicity
 _atom_site_fract_x
 _atom_site_fract_y
 _atom_site_fract_z
 _atom_site_occupancy
  Ce  Ce0  1  0.97881640  0.99947166  0.17774169  1
  Ce  Ce1  1  0.52118360  0.50052834  0.67774169  1
  Ce  Ce2  1  0.02118360  0.49947166  0.82225831  1
  Ce  Ce3  1  0.47881640  0.00052834  0.32225831  1
  Ce  Ce4  1  0.02118360  0.00052834  0.82225831  1
  Ce  Ce5  1  0.47881640  0.49947166  0.32225831  1
  Ce  Ce6  1  0.97881640  0.50052834  0.17774169  1
  Ce  Ce7  1  0.52118360  0.99947166  0.67774169  1
  Th  Th8  1  0.42445320  0.75000000  0.00937314  1
  Th  Th9  1  0.07554680  0.75000000  0.50937314  1
  Th  Th10  1  0.57554680  0.25000000  0.99062686  1
  Th  Th11  1  0.92445320  0.25000000  0.49062686  1
  S  S12  1  0.66481189  0.54312799  0.90068661  1
  S  S13  1  0.83518811  0.95687201  0.40068661  1
  S  S14  1  0.33518811  0.04312799  0.09931339  1
  S  S15  1  0.16481189  0.45687201  0.59931339  1
  S  S16  1  0.33518811  0.45687201  0.09931339  1
  S  S17  1  0.16481189  0.04312799  0.59931339  1
  S  S18  1  0.66481189  0.95687201  0.90068661  1
  S  S19  1  0.83518811  0.54312799  0.40068661  1
  S  S20  1  0.67202258  0.75000000  0.18816429  1
  S  S21  1  0.82797742  0.75000000  0.68816429  1
  S  S22  1  0.32797742  0.25000000  0.81183571  1
  S  S23  1  0.17202258  0.25000000  0.31183571  1
  S  S24  1  0.04050533  0.75000000  0.00143975  1
  S  S25  1  0.45949467  0.75000000  0.50143975  1
  S  S26  1  0.95949467  0.25000000  0.99856025  1
  S  S27  1  0.54050533  0.25000000  0.49856025  1
  S  S28  1  0.30128344  0.75000000  0.78301157  1
  S  S29  1  0.19871656  0.75000000  0.28301157  1
  S  S30  1  0.69871656  0.25000000  0.21698843  1
  S  S31  1  0.80128344  0.25000000  0.71698843  1
