# generated using pymatgen
data_Gd2US5
_symmetry_space_group_name_H-M   'P 1'
_cell_length_a   7.40790206
_cell_length_b   8.00944174
_cell_length_c   11.72835371
_cell_angle_alpha   90.00019565
_cell_angle_beta   89.99161992
_cell_angle_gamma   89.99613729
_symmetry_Int_Tables_number   1
_chemical_formula_structural   Gd2US5
_chemical_formula_sum   'Gd8 U4 S20'
_cell_volume   695.88027863
_cell_formula_units_Z   4
loop_
 _symmetry_equiv_pos_site_id
 _symmetry_equiv_pos_as_xyz
  1  'x, y, z'
loop_
 _atom_site_type_symbol
 _atom_site_label
 _atom_site_symmetry_multiplicity
 _atom_site_fract_x
 _atom_site_fract_y
 _atom_site_fract_z
 _atom_site_occupancy
  Gd  Gd0  1  0.97671712  0.00022600  0.17749517  1
  Gd  Gd1  1  0.52328195  0.49976663  0.67750316  1
  Gd  Gd2  1  0.02329227  0.50023685  0.82250395  1
  Gd  Gd3  1  0.47671668  0.99976725  0.32249962  1
  Gd  Gd4  1  0.02328288  0.99977400  0.82250483  1
  Gd  Gd5  1  0.47671805  0.50023337  0.32249684  1
  Gd  Gd6  1  0.97670773  0.49976315  0.17749605  1
  Gd  Gd7  1  0.52328332  0.00023275  0.67750038  1
  U  U8  1  0.42526531  0.74999468  0.01044102  1
  U  U9  1  0.07475602  0.75000373  0.51040958  1
  U  U10  1  0.57473469  0.25000532  0.98955898  1
  U  U11  1  0.92524398  0.24999627  0.48959042  1
  S  S12  1  0.66448494  0.54502421  0.90266279  1
  S  S13  1  0.83550030  0.95497639  0.40270008  1
  S  S14  1  0.33552737  0.04501853  0.09733833  1
  S  S15  1  0.16449058  0.45498091  0.59731291  1
  S  S16  1  0.33551506  0.45497579  0.09733721  1
  S  S17  1  0.16449970  0.04502361  0.59729992  1
  S  S18  1  0.66447263  0.95498147  0.90266167  1
  S  S19  1  0.83550942  0.54501909  0.40268709  1
  S  S20  1  0.67378339  0.74999415  0.18690320  1
  S  S21  1  0.82619451  0.74999048  0.68686715  1
  S  S22  1  0.32621661  0.25000585  0.81309680  1
  S  S23  1  0.17380549  0.25000952  0.31313285  1
  S  S24  1  0.03900355  0.74998100  0.00046179  1
  S  S25  1  0.46098566  0.74999897  0.50045920  1
  S  S26  1  0.96099645  0.25001900  0.99953821  1
  S  S27  1  0.53901434  0.25000103  0.49954080  1
  S  S28  1  0.30110834  0.74999055  0.78295122  1
  S  S29  1  0.19890671  0.74999514  0.28299887  1
  S  S30  1  0.69889166  0.25000945  0.21704878  1
  S  S31  1  0.80109329  0.25000486  0.71700113  1
