# generated using pymatgen
data_RbHSO4
_symmetry_space_group_name_H-M   'P 1'
_cell_length_a   4.67952348
_cell_length_b   14.75342018
_cell_length_c   14.82072059
_cell_angle_alpha   118.18808244
_cell_angle_beta   90.00000000
_cell_angle_gamma   90.00000000
_symmetry_Int_Tables_number   1
_chemical_formula_structural   RbHSO4
_chemical_formula_sum   'Rb8 H8 S8 O32'
_cell_volume   901.85674382
_cell_formula_units_Z   8
loop_
 _symmetry_equiv_pos_site_id
 _symmetry_equiv_pos_as_xyz
  1  'x, y, z'
loop_
 _atom_site_type_symbol
 _atom_site_label
 _atom_site_symmetry_multiplicity
 _atom_site_fract_x
 _atom_site_fract_y
 _atom_site_fract_z
 _atom_site_occupancy
  Rb  Rb0  1  0.35632131  0.20629364  0.08381708  1
  Rb  Rb1  1  0.85632131  0.29370636  0.41618292  1
  Rb  Rb2  1  0.64367869  0.79370636  0.91618292  1
  Rb  Rb3  1  0.14367869  0.70629364  0.58381708  1
  Rb  Rb4  1  0.79760190  0.53934712  0.16408669  1
  Rb  Rb5  1  0.29760190  0.96065288  0.33591331  1
  Rb  Rb6  1  0.20239810  0.46065288  0.83591331  1
  Rb  Rb7  1  0.70239810  0.03934712  0.66408669  1
  H  H8  1  0.69383798  0.51822180  0.38677129  1
  H  H9  1  0.19383798  0.98177820  0.11322871  1
  H  H10  1  0.30616202  0.48177820  0.61322871  1
  H  H11  1  0.80616202  0.01822180  0.88677129  1
  H  H12  1  0.30665639  0.73971836  0.36267716  1
  H  H13  1  0.80665639  0.76028164  0.13732284  1
  H  H14  1  0.69334361  0.26028164  0.63732284  1
  H  H15  1  0.19334361  0.23971836  0.86267716  1
  S  S16  1  0.28269823  0.45170993  0.32714100  1
  S  S17  1  0.78269823  0.04829007  0.17285900  1
  S  S18  1  0.71730177  0.54829007  0.67285900  1
  S  S19  1  0.21730177  0.95170993  0.82714100  1
  S  S20  1  0.74075820  0.79329833  0.42090788  1
  S  S21  1  0.24075820  0.70670167  0.07909212  1
  S  S22  1  0.25924180  0.20670167  0.57909212  1
  S  S23  1  0.75924180  0.29329833  0.92090788  1
  O  O24  1  0.38419549  0.35607361  0.32337575  1
  O  O25  1  0.88419549  0.14392639  0.17662425  1
  O  O26  1  0.61580451  0.64392639  0.67662425  1
  O  O27  1  0.11580451  0.85607361  0.82337575  1
  O  O28  1  0.48719533  0.54208770  0.40239110  1
  O  O29  1  0.98719533  0.95791230  0.09760890  1
  O  O30  1  0.51280467  0.45791230  0.59760890  1
  O  O31  1  0.01280467  0.04208770  0.90239110  1
  O  O32  1  0.29297361  0.44929122  0.22711242  1
  O  O33  1  0.79297361  0.05070878  0.27288758  1
  O  O34  1  0.70702639  0.55070878  0.77288758  1
  O  O35  1  0.20702639  0.94929122  0.72711242  1
  O  O36  1  0.00473249  0.48454924  0.37911855  1
  O  O37  1  0.50473249  0.01545076  0.12088145  1
  O  O38  1  0.99526751  0.51545076  0.62088145  1
  O  O39  1  0.49526751  0.98454924  0.87911855  1
  O  O40  1  0.80757707  0.89310949  0.42682791  1
  O  O41  1  0.30757707  0.60689051  0.07317209  1
  O  O42  1  0.19242293  0.10689051  0.57317209  1
  O  O43  1  0.69242293  0.39310949  0.92682791  1
  O  O44  1  0.50282406  0.74189739  0.33373235  1
  O  O45  1  0.00282406  0.75810261  0.16626765  1
  O  O46  1  0.49717594  0.25810261  0.66626765  1
  O  O47  1  0.99717594  0.24189739  0.83373235  1
  O  O48  1  0.61872806  0.80185355  0.51576377  1
  O  O49  1  0.11872806  0.69814645  0.98423623  1
  O  O50  1  0.38127194  0.19814645  0.48423623  1
  O  O51  1  0.88127194  0.30185355  0.01576377  1
  O  O52  1  0.98230737  0.71997876  0.38233217  1
  O  O53  1  0.48230737  0.78002124  0.11766783  1
  O  O54  1  0.01769263  0.28002124  0.61766783  1
  O  O55  1  0.51769263  0.21997876  0.88233217  1
