# generated using pymatgen
data_Lu20Os5I24
_symmetry_space_group_name_H-M   'P 1'
_cell_length_a   11.91830798
_cell_length_b   12.71154993
_cell_length_c   14.31055995
_cell_angle_alpha   99.77306955
_cell_angle_beta   107.72511285
_cell_angle_gamma   109.10491477
_symmetry_Int_Tables_number   1
_chemical_formula_structural   Lu20Os5I24
_chemical_formula_sum   'Lu20 Os5 I24'
_cell_volume   1861.92928241
_cell_formula_units_Z   1
loop_
 _symmetry_equiv_pos_site_id
 _symmetry_equiv_pos_as_xyz
  1  'x, y, z'
loop_
 _atom_site_type_symbol
 _atom_site_label
 _atom_site_symmetry_multiplicity
 _atom_site_fract_x
 _atom_site_fract_y
 _atom_site_fract_z
 _atom_site_occupancy
  Lu  Lu0  1  0.49558840  0.02423047  0.70560211  1
  Lu  Lu1  1  0.50441160  0.97576953  0.29439789  1
  Lu  Lu2  1  0.73451764  0.99903078  0.64240977  1
  Lu  Lu3  1  0.26548236  0.00096922  0.35759023  1
  Lu  Lu4  1  0.81409280  0.16655814  0.89789601  1
  Lu  Lu5  1  0.18590720  0.83344186  0.10210399  1
  Lu  Lu6  1  0.48244664  0.22036047  0.57673193  1
  Lu  Lu7  1  0.51755336  0.77963953  0.42326807  1
  Lu  Lu8  1  0.72152957  0.19624092  0.51420985  1
  Lu  Lu9  1  0.27847043  0.80375908  0.48579015  1
  Lu  Lu10  1  0.79702145  0.44766542  0.71546309  1
  Lu  Lu11  1  0.20297855  0.55233458  0.28453691  1
  Lu  Lu12  1  0.97442673  0.28949263  0.76146970  1
  Lu  Lu13  1  0.02557327  0.71050737  0.23853030  1
  Lu  Lu14  1  0.63631954  0.32501710  0.85075916  1
  Lu  Lu15  1  0.36368046  0.67498290  0.14924084  1
  Lu  Lu16  1  0.11477339  0.58738340  0.90431903  1
  Lu  Lu17  1  0.88522661  0.41261660  0.09568097  1
  Lu  Lu18  1  0.87378812  0.61315694  0.96902626  1
  Lu  Lu19  1  0.12621188  0.38684306  0.03097374  1
  Os  Os20  1  0.50000000  -0.00000000  0.50000000  1
  Os  Os21  1  0.70778608  0.20991430  0.70922846  1
  Os  Os22  1  0.29221392  0.79008570  0.29077154  1
  Os  Os23  1  0.90382239  0.40540294  0.90431433  1
  Os  Os24  1  0.09617761  0.59459706  0.09568567  1
  I  I25  1  0.26257170  0.82255282  0.69690931  1
  I  I26  1  0.73742830  0.17744718  0.30309069  1
  I  I27  1  0.76171100  0.77205823  0.56707643  1
  I  I28  1  0.23828900  0.22794177  0.43292357  1
  I  I29  1  0.66205252  0.89597187  0.81287192  1
  I  I30  1  0.33794748  0.10402813  0.18712808  1
  I  I31  1  0.33929719  0.17964794  0.72732158  1
  I  I32  1  0.66070281  0.82035206  0.27267842  1
  I  I33  1  0.95017342  0.11825016  0.56567564  1
  I  I34  1  0.04982658  0.88174984  0.43432436  1
  I  I35  1  0.63087859  0.39850276  0.48365010  1
  I  I36  1  0.36912141  0.60149724  0.51634990  1
  I  I37  1  0.05269412  0.12302214  0.88098128  1
  I  I38  1  0.94730588  0.87697786  0.11901872  1
  I  I39  1  0.60776070  0.16551447  0.99122890  1
  I  I40  1  0.39223930  0.83448553  0.00877110  1
  I  I41  1  0.00443866  0.23764809  0.15385905  1
  I  I42  1  0.99556134  0.76235191  0.84614095  1
  I  I43  1  0.30547719  0.46697172  0.91327984  1
  I  I44  1  0.69452281  0.53302828  0.08672016  1
  I  I45  1  0.02767744  0.47837509  0.64841990  1
  I  I46  1  0.97232256  0.52162491  0.35158010  1
  I  I47  1  0.59884431  0.53048293  0.77020751  1
  I  I48  1  0.40115569  0.46951707  0.22979249  1
