# generated using pymatgen
data_TiPb(S2O7)3
_symmetry_space_group_name_H-M   'P 1'
_cell_length_a   7.22960301
_cell_length_b   13.06893901
_cell_length_c   18.23494700
_cell_angle_alpha   90.00000000
_cell_angle_beta   92.37667178
_cell_angle_gamma   90.00000000
_symmetry_Int_Tables_number   1
_chemical_formula_structural   TiPb(S2O7)3
_chemical_formula_sum   'Ti4 Pb4 S24 O84'
_cell_volume   1721.41484692
_cell_formula_units_Z   4
loop_
 _symmetry_equiv_pos_site_id
 _symmetry_equiv_pos_as_xyz
  1  'x, y, z'
loop_
 _atom_site_type_symbol
 _atom_site_label
 _atom_site_symmetry_multiplicity
 _atom_site_fract_x
 _atom_site_fract_y
 _atom_site_fract_z
 _atom_site_occupancy
  Ti  Ti0  1  0.70423237  0.86743934  0.24759537  1
  Ti  Ti1  1  0.29576763  0.36743934  0.25240463  1
  Ti  Ti2  1  0.29576763  0.13256066  0.75240463  1
  Ti  Ti3  1  0.70423237  0.63256066  0.74759537  1
  Pb  Pb4  1  0.04714419  0.74632124  0.51474309  1
  Pb  Pb5  1  0.95285581  0.24632124  0.98525691  1
  Pb  Pb6  1  0.95285581  0.25367876  0.48525691  1
  Pb  Pb7  1  0.04714419  0.75367876  0.01474309  1
  S  S8  1  0.78897947  0.97841318  0.40497686  1
  S  S9  1  0.21102053  0.47841318  0.09502314  1
  S  S10  1  0.21102053  0.02158682  0.59502314  1
  S  S11  1  0.78897947  0.52158682  0.90497686  1
  S  S12  1  0.55971817  0.80086188  0.40909505  1
  S  S13  1  0.44028183  0.30086188  0.09090495  1
  S  S14  1  0.44028183  0.19913812  0.59090495  1
  S  S15  1  0.55971817  0.69913812  0.90909505  1
  S  S16  1  0.79713936  0.99338815  0.09965398  1
  S  S17  1  0.20286064  0.49338815  0.40034602  1
  S  S18  1  0.20286064  0.00661185  0.90034602  1
  S  S19  1  0.79713936  0.50661185  0.59965398  1
  S  S20  1  0.40504602  0.95096753  0.12270690  1
  S  S21  1  0.59495398  0.45096753  0.37729310  1
  S  S22  1  0.59495398  0.04903247  0.87729310  1
  S  S23  1  0.40504602  0.54903247  0.62270690  1
  S  S24  1  0.06895850  0.73232898  0.22866695  1
  S  S25  1  0.93104150  0.23232898  0.27133305  1
  S  S26  1  0.93104150  0.26767102  0.77133305  1
  S  S27  1  0.06895850  0.76767102  0.72866695  1
  S  S28  1  0.74476200  0.64402267  0.16121188  1
  S  S29  1  0.25523800  0.14402267  0.33878812  1
  S  S30  1  0.25523800  0.35597733  0.83878812  1
  S  S31  1  0.74476200  0.85597733  0.66121188  1
  O  O32  1  0.70739395  0.73973179  0.44132003  1
  O  O33  1  0.29260605  0.23973179  0.05867997  1
  O  O34  1  0.29260605  0.26026821  0.55867997  1
  O  O35  1  0.70739395  0.76026821  0.94132003  1
  O  O36  1  0.76512001  0.08177587  0.42948826  1
  O  O37  1  0.23487999  0.58177587  0.07051174  1
  O  O38  1  0.23487999  0.91822413  0.57051174  1
  O  O39  1  0.76512001  0.41822413  0.92948826  1
  O  O40  1  0.76500674  0.97208256  0.32233260  1
  O  O41  1  0.23499326  0.47208256  0.17766740  1
  O  O42  1  0.23499326  0.02791744  0.67766740  1
  O  O43  1  0.76500674  0.52791744  0.82233260  1
  O  O44  1  0.37408878  0.78676782  0.43106264  1
  O  O45  1  0.62591122  0.28676782  0.06893736  1
  O  O46  1  0.62591122  0.21323218  0.56893736  1
  O  O47  1  0.37408878  0.71323218  0.93106264  1
  O  O48  1  0.56980177  0.80298425  0.32646070  1
  O  O49  1  0.43019823  0.30298425  0.17353930  1
  O  O50  1  0.43019823  0.19701575  0.67353930  1
  O  O51  1  0.56980177  0.69701575  0.82646070  1
  O  O52  1  0.60121692  0.92190579  0.43231804  1
  O  O53  1  0.39878308  0.42190579  0.06768196  1
  O  O54  1  0.39878308  0.07809421  0.56768196  1
  O  O55  1  0.60121692  0.57809421  0.93231804  1
  O  O56  1  0.94859884  0.92116647  0.43167245  1
  O  O57  1  0.05140116  0.42116647  0.06832755  1
  O  O58  1  0.05140116  0.07883353  0.56832755  1
  O  O59  1  0.94859884  0.57883353  0.93167245  1
  O  O60  1  0.83009416  0.95824779  0.17780810  1
  O  O61  1  0.16990584  0.45824779  0.32219190  1
  O  O62  1  0.16990584  0.04175221  0.82219190  1
  O  O63  1  0.83009416  0.54175221  0.67780810  1
  O  O64  1  0.48078926  0.91629117  0.19810796  1
  O  O65  1  0.51921074  0.41629117  0.30189204  1
  O  O66  1  0.51921074  0.08370883  0.80189204  1
  O  O67  1  0.48078926  0.58370883  0.69810796  1
  O  O68  1  0.57662810  0.02487529  0.09539913  1
  O  O69  1  0.42337190  0.52487529  0.40460087  1
  O  O70  1  0.42337190  0.97512471  0.90460087  1
  O  O71  1  0.57662810  0.47512471  0.59539913  1
  O  O72  1  0.82565342  0.90968632  0.04944492  1
  O  O73  1  0.17434658  0.40968632  0.45055508  1
  O  O74  1  0.17434658  0.09031368  0.95055508  1
  O  O75  1  0.82565342  0.59031368  0.54944492  1
  O  O76  1  0.88303005  0.08975225  0.08530796  1
  O  O77  1  0.11696995  0.58975225  0.41469204  1
  O  O78  1  0.11696995  0.91024775  0.91469204  1
  O  O79  1  0.88303005  0.41024775  0.58530796  1
  O  O80  1  0.38730431  0.86672870  0.07198444  1
  O  O81  1  0.61269569  0.36672870  0.42801556  1
  O  O82  1  0.61269569  0.13327130  0.92801556  1
  O  O83  1  0.38730431  0.63327130  0.57198444  1
  O  O84  1  0.25672765  0.02133351  0.13005775  1
  O  O85  1  0.74327235  0.52133351  0.36994225  1
  O  O86  1  0.74327235  0.97866649  0.86994225  1
  O  O87  1  0.25672765  0.47866649  0.63005775  1
  O  O88  1  0.66750664  0.74591534  0.18430834  1
  O  O89  1  0.33249336  0.24591534  0.31569166  1
  O  O90  1  0.33249336  0.25408466  0.81569166  1
  O  O91  1  0.66750664  0.75408466  0.68430834  1
  O  O92  1  0.94716029  0.80243000  0.27228542  1
  O  O93  1  0.05283971  0.30243000  0.22771458  1
  O  O94  1  0.05283971  0.19757000  0.72771458  1
  O  O95  1  0.94716029  0.69757000  0.77228542  1
  O  O96  1  0.80591694  0.65105105  0.08653088  1
  O  O97  1  0.19408306  0.15105105  0.41346912  1
  O  O98  1  0.19408306  0.34894895  0.91346912  1
  O  O99  1  0.80591694  0.84894895  0.58653088  1
  O  O100  1  0.09959377  0.77670339  0.15726258  1
  O  O101  1  0.90040623  0.27670339  0.34273742  1
  O  O102  1  0.90040623  0.22329661  0.84273742  1
  O  O103  1  0.09959377  0.72329661  0.65726258  1
  O  O104  1  0.93326144  0.63147246  0.21487845  1
  O  O105  1  0.06673856  0.13147246  0.28512155  1
  O  O106  1  0.06673856  0.36852754  0.78512155  1
  O  O107  1  0.93326144  0.86852754  0.71487845  1
  O  O108  1  0.22139784  0.69350549  0.27178015  1
  O  O109  1  0.77860216  0.19350549  0.22821985  1
  O  O110  1  0.77860216  0.30649451  0.72821985  1
  O  O111  1  0.22139784  0.80649451  0.77178015  1
  O  O112  1  0.63244874  0.55961531  0.18023510  1
  O  O113  1  0.36755126  0.05961531  0.31976490  1
  O  O114  1  0.36755126  0.44038469  0.81976490  1
  O  O115  1  0.63244874  0.94038469  0.68023510  1
