# generated using pymatgen
data_AlGaO3
_symmetry_space_group_name_H-M   'P 1'
_cell_length_a   4.88923136
_cell_length_b   5.00952901
_cell_length_c   7.44801780
_cell_angle_alpha   90.00000000
_cell_angle_beta   90.00000000
_cell_angle_gamma   90.00000000
_symmetry_Int_Tables_number   1
_chemical_formula_structural   AlGaO3
_chemical_formula_sum   'Al4 Ga4 O12'
_cell_volume   182.42241067
_cell_formula_units_Z   4
loop_
 _symmetry_equiv_pos_site_id
 _symmetry_equiv_pos_as_xyz
  1  'x, y, z'
loop_
 _atom_site_type_symbol
 _atom_site_label
 _atom_site_symmetry_multiplicity
 _atom_site_fract_x
 _atom_site_fract_y
 _atom_site_fract_z
 _atom_site_occupancy
  Al  Al0  1  0.00000000  0.50000000  0.00000000  1
  Al  Al1  1  0.00000000  0.50000000  0.50000000  1
  Al  Al2  1  0.50000000  0.00000000  0.00000000  1
  Al  Al3  1  0.50000000  0.00000000  0.50000000  1
  Ga  Ga4  1  0.01401495  0.95704340  0.75000000  1
  Ga  Ga5  1  0.48598505  0.45704340  0.75000000  1
  Ga  Ga6  1  0.51401495  0.54295660  0.25000000  1
  Ga  Ga7  1  0.98598505  0.04295660  0.25000000  1
  O  O8  1  0.13206135  0.42015156  0.25000000  1
  O  O9  1  0.18100688  0.18548903  0.57144791  1
  O  O10  1  0.18100688  0.18548903  0.92855209  1
  O  O11  1  0.31899312  0.68548903  0.57144791  1
  O  O12  1  0.31899312  0.68548903  0.92855209  1
  O  O13  1  0.36793865  0.92015156  0.25000000  1
  O  O14  1  0.63206135  0.07984844  0.75000000  1
  O  O15  1  0.68100688  0.31451097  0.07144791  1
  O  O16  1  0.68100688  0.31451097  0.42855209  1
  O  O17  1  0.81899312  0.81451097  0.07144791  1
  O  O18  1  0.81899312  0.81451097  0.42855209  1
  O  O19  1  0.86793865  0.57984844  0.75000000  1
