# generated using pymatgen
data_S7N
_symmetry_space_group_name_H-M   'P 1'
_cell_length_a   8.13411589
_cell_length_b   8.65530828
_cell_length_c   13.83084135
_cell_angle_alpha   90.00000000
_cell_angle_beta   90.00000000
_cell_angle_gamma   90.00000000
_symmetry_Int_Tables_number   1
_chemical_formula_structural   S7N
_chemical_formula_sum   'S28 N4'
_cell_volume   973.73660468
_cell_formula_units_Z   4
loop_
 _symmetry_equiv_pos_site_id
 _symmetry_equiv_pos_as_xyz
  1  'x, y, z'
loop_
 _atom_site_type_symbol
 _atom_site_label
 _atom_site_symmetry_multiplicity
 _atom_site_fract_x
 _atom_site_fract_y
 _atom_site_fract_z
 _atom_site_occupancy
  S  S0  1  0.24531501  0.68015649  0.14076789  1
  S  S1  1  0.25468499  0.18015649  0.35923211  1
  S  S2  1  0.75468499  0.31984351  0.64076789  1
  S  S3  1  0.74531501  0.81984351  0.85923211  1
  S  S4  1  0.75468499  0.31984351  0.85923211  1
  S  S5  1  0.74531501  0.81984351  0.64076789  1
  S  S6  1  0.24531501  0.68015649  0.35923211  1
  S  S7  1  0.25468499  0.18015649  0.14076789  1
  S  S8  1  0.00698780  0.72441497  0.09045119  1
  S  S9  1  0.49301220  0.22441497  0.40954881  1
  S  S10  1  0.99301220  0.27558503  0.59045119  1
  S  S11  1  0.50698780  0.77558503  0.90954881  1
  S  S12  1  0.99301220  0.27558503  0.90954881  1
  S  S13  1  0.50698780  0.77558503  0.59045119  1
  S  S14  1  0.00698780  0.72441497  0.40954881  1
  S  S15  1  0.49301220  0.22441497  0.09045119  1
  S  S16  1  0.84765039  0.54939000  0.13031342  1
  S  S17  1  0.65234961  0.04939000  0.36968658  1
  S  S18  1  0.15234961  0.45061000  0.63031342  1
  S  S19  1  0.34765039  0.95061000  0.86968658  1
  S  S20  1  0.15234961  0.45061000  0.86968658  1
  S  S21  1  0.34765039  0.95061000  0.63031342  1
  S  S22  1  0.84765039  0.54939000  0.36968658  1
  S  S23  1  0.65234961  0.04939000  0.13031342  1
  S  S24  1  0.72264420  0.62581203  0.25000000  1
  S  S25  1  0.77735580  0.12581203  0.25000000  1
  S  S26  1  0.27735580  0.37418797  0.75000000  1
  S  S27  1  0.22264420  0.87418797  0.75000000  1
  N  N28  1  0.28885242  0.72963033  0.25000000  1
  N  N29  1  0.21114758  0.22963033  0.25000000  1
  N  N30  1  0.71114758  0.27036967  0.75000000  1
  N  N31  1  0.78885242  0.77036967  0.75000000  1
