# generated using pymatgen
data_Sc4FeCl5
_symmetry_space_group_name_H-M   'P 1'
_cell_length_a   10.73115426
_cell_length_b   10.73115426
_cell_length_c   15.51487149
_cell_angle_alpha   90.00000000
_cell_angle_beta   90.00000000
_cell_angle_gamma   90.00000000
_symmetry_Int_Tables_number   1
_chemical_formula_structural   Sc4FeCl5
_chemical_formula_sum   'Sc32 Fe8 Cl40'
_cell_volume   1786.65647832
_cell_formula_units_Z   8
loop_
 _symmetry_equiv_pos_site_id
 _symmetry_equiv_pos_as_xyz
  1  'x, y, z'
loop_
 _atom_site_type_symbol
 _atom_site_label
 _atom_site_symmetry_multiplicity
 _atom_site_fract_x
 _atom_site_fract_y
 _atom_site_fract_z
 _atom_site_occupancy
  Sc  Sc0  1  0.11636257  0.88363743  0.34513712  1
  Sc  Sc1  1  0.61636257  0.11636257  0.84513712  1
  Sc  Sc2  1  0.88363743  0.38363743  0.84513712  1
  Sc  Sc3  1  0.38363743  0.61636257  0.34513712  1
  Sc  Sc4  1  0.88363743  0.11636257  0.65486288  1
  Sc  Sc5  1  0.38363743  0.88363743  0.15486288  1
  Sc  Sc6  1  0.11636257  0.61636257  0.15486288  1
  Sc  Sc7  1  0.61636257  0.38363743  0.65486288  1
  Sc  Sc8  1  0.13374759  0.42347631  0.32690943  1
  Sc  Sc9  1  0.63374759  0.57652369  0.82690943  1
  Sc  Sc10  1  0.86625241  0.92347631  0.82690943  1
  Sc  Sc11  1  0.36625241  0.07652369  0.32690943  1
  Sc  Sc12  1  0.86625241  0.57652369  0.67309057  1
  Sc  Sc13  1  0.36625241  0.42347631  0.17309057  1
  Sc  Sc14  1  0.13374759  0.07652369  0.17309057  1
  Sc  Sc15  1  0.63374759  0.92347631  0.67309057  1
  Sc  Sc16  1  0.92347631  0.63374759  0.32690943  1
  Sc  Sc17  1  0.07652369  0.13374759  0.82690943  1
  Sc  Sc18  1  0.42347631  0.36625241  0.82690943  1
  Sc  Sc19  1  0.57652369  0.86625241  0.32690943  1
  Sc  Sc20  1  0.07652369  0.36625241  0.67309057  1
  Sc  Sc21  1  0.92347631  0.86625241  0.17309057  1
  Sc  Sc22  1  0.57652369  0.63374759  0.17309057  1
  Sc  Sc23  1  0.42347631  0.13374759  0.67309057  1
  Sc  Sc24  1  0.13693732  0.63693732  0.47728243  1
  Sc  Sc25  1  0.63693732  0.36306268  0.97728243  1
  Sc  Sc26  1  0.86306268  0.13693732  0.97728243  1
  Sc  Sc27  1  0.36306268  0.86306268  0.47728243  1
  Sc  Sc28  1  0.86306268  0.36306268  0.52271757  1
  Sc  Sc29  1  0.36306268  0.63693732  0.02271757  1
  Sc  Sc30  1  0.13693732  0.86306268  0.02271757  1
  Sc  Sc31  1  0.63693732  0.13693732  0.52271757  1
  Fe  Fe32  1  0.14972604  0.64972604  0.31868773  1
  Fe  Fe33  1  0.64972604  0.35027396  0.81868773  1
  Fe  Fe34  1  0.85027396  0.14972604  0.81868773  1
  Fe  Fe35  1  0.35027396  0.85027396  0.31868773  1
  Fe  Fe36  1  0.85027396  0.35027396  0.68131227  1
  Fe  Fe37  1  0.35027396  0.64972604  0.18131227  1
  Fe  Fe38  1  0.14972604  0.85027396  0.18131227  1
  Fe  Fe39  1  0.64972604  0.14972604  0.68131227  1
  Cl  Cl40  1  0.11515853  0.38484147  0.50000000  1
  Cl  Cl41  1  0.61515853  0.61515853  -0.00000000  1
  Cl  Cl42  1  0.88484147  0.88484147  -0.00000000  1
  Cl  Cl43  1  0.38484147  0.11515853  0.50000000  1
  Cl  Cl44  1  0.88484147  0.61515853  0.50000000  1
  Cl  Cl45  1  0.38484147  0.38484147  -0.00000000  1
  Cl  Cl46  1  0.11515853  0.11515853  -0.00000000  1
  Cl  Cl47  1  0.61515853  0.88484147  0.50000000  1
  Cl  Cl48  1  0.89512018  0.39512018  0.33890680  1
  Cl  Cl49  1  0.39512018  0.60487982  0.83890680  1
  Cl  Cl50  1  0.10487982  0.89512018  0.83890680  1
  Cl  Cl51  1  0.60487982  0.10487982  0.33890680  1
  Cl  Cl52  1  0.10487982  0.60487982  0.66109320  1
  Cl  Cl53  1  0.60487982  0.39512018  0.16109320  1
  Cl  Cl54  1  0.89512018  0.10487982  0.16109320  1
  Cl  Cl55  1  0.39512018  0.89512018  0.66109320  1
  Cl  Cl56  1  0.87212366  0.12787634  0.48171835  1
  Cl  Cl57  1  0.37212366  0.87212366  0.98171835  1
  Cl  Cl58  1  0.12787634  0.62787634  0.98171835  1
  Cl  Cl59  1  0.62787634  0.37212366  0.48171835  1
  Cl  Cl60  1  0.12787634  0.87212366  0.51828165  1
  Cl  Cl61  1  0.62787634  0.12787634  0.01828165  1
  Cl  Cl62  1  0.87212366  0.37212366  0.01828165  1
  Cl  Cl63  1  0.37212366  0.62787634  0.51828165  1
  Cl  Cl64  1  0.13025500  0.14524919  0.33562310  1
  Cl  Cl65  1  0.63025500  0.85475081  0.83562310  1
  Cl  Cl66  1  0.86974500  0.64524919  0.83562310  1
  Cl  Cl67  1  0.36974500  0.35475081  0.33562310  1
  Cl  Cl68  1  0.86974500  0.85475081  0.66437690  1
  Cl  Cl69  1  0.36974500  0.14524919  0.16437690  1
  Cl  Cl70  1  0.13025500  0.35475081  0.16437690  1
  Cl  Cl71  1  0.63025500  0.64524919  0.66437690  1
  Cl  Cl72  1  0.64524919  0.63025500  0.33562310  1
  Cl  Cl73  1  0.35475081  0.13025500  0.83562310  1
  Cl  Cl74  1  0.14524919  0.36974500  0.83562310  1
  Cl  Cl75  1  0.85475081  0.86974500  0.33562310  1
  Cl  Cl76  1  0.35475081  0.36974500  0.66437690  1
  Cl  Cl77  1  0.64524919  0.86974500  0.16437690  1
  Cl  Cl78  1  0.85475081  0.63025500  0.16437690  1
  Cl  Cl79  1  0.14524919  0.13025500  0.66437690  1
