# generated using pymatgen
data_K2Na2Eu4Ta2O13
_symmetry_space_group_name_H-M   'P 1'
_cell_length_a   5.72514154
_cell_length_b   11.35890788
_cell_length_c   12.56998622
_cell_angle_alpha   115.73247702
_cell_angle_beta   103.16350281
_cell_angle_gamma   90.00000000
_symmetry_Int_Tables_number   1
_chemical_formula_structural   K2Na2Eu4Ta2O13
_chemical_formula_sum   'K4 Na4 Eu8 Ta4 O26'
_cell_volume   712.45951691
_cell_formula_units_Z   2
loop_
 _symmetry_equiv_pos_site_id
 _symmetry_equiv_pos_as_xyz
  1  'x, y, z'
loop_
 _atom_site_type_symbol
 _atom_site_label
 _atom_site_symmetry_multiplicity
 _atom_site_fract_x
 _atom_site_fract_y
 _atom_site_fract_z
 _atom_site_occupancy
  K  K0  1  0.19938700  0.86720213  0.50125821  1
  K  K1  1  0.69812879  0.63279787  0.49874179  1
  K  K2  1  0.80061300  0.13279787  0.49874179  1
  K  K3  1  0.30187121  0.36720213  0.50125821  1
  Na  Na4  1  0.12192821  0.52373823  0.31798766  1
  Na  Na5  1  0.80394055  0.97626177  0.68201234  1
  Na  Na6  1  0.87807179  0.47626177  0.68201234  1
  Na  Na7  1  0.19605945  0.02373823  0.31798766  1
  Eu  Eu8  1  0.39561233  0.05197696  0.87445142  1
  Eu  Eu9  1  0.52116092  0.44802304  0.12554858  1
  Eu  Eu10  1  0.60438767  0.94802304  0.12554858  1
  Eu  Eu11  1  0.47883908  0.55197696  0.87445142  1
  Eu  Eu12  1  0.02913221  0.67448321  0.12509204  1
  Eu  Eu13  1  0.90404017  0.82551679  0.87490796  1
  Eu  Eu14  1  0.97086779  0.32551679  0.87490796  1
  Eu  Eu15  1  0.09595983  0.17448321  0.12509204  1
  Ta  Ta16  1  0.31685754  0.71932299  0.69989765  1
  Ta  Ta17  1  0.61695990  0.78067701  0.30010235  1
  Ta  Ta18  1  0.68314246  0.28067701  0.30010235  1
  Ta  Ta19  1  0.38304010  0.21932299  0.69989765  1
  O  O20  1  0.09315537  0.85792807  0.73686733  1
  O  O21  1  0.35628804  0.64207193  0.26313267  1
  O  O22  1  0.90684463  0.14207193  0.26313267  1
  O  O23  1  0.64371196  0.35792807  0.73686733  1
  O  O24  1  0.14052709  0.12393310  0.73169768  1
  O  O25  1  0.40882941  0.37606690  0.26830232  1
  O  O26  1  0.85947291  0.87606690  0.26830232  1
  O  O27  1  0.59117059  0.62393310  0.73169768  1
  O  O28  1  0.81840377  0.63745296  0.25956493  1
  O  O29  1  0.55883884  0.86254704  0.74043507  1
  O  O30  1  0.18159623  0.36254704  0.74043507  1
  O  O31  1  0.44116116  0.13745296  0.25956493  1
  O  O32  1  0.20349099  0.62534014  0.53115490  1
  O  O33  1  0.67233608  0.87465986  0.46884510  1
  O  O34  1  0.79650901  0.37465986  0.46884510  1
  O  O35  1  0.32766392  0.12534014  0.53115490  1
  O  O36  1  0.75803805  0.75000000  0.00000000  1
  O  O37  1  0.24196195  0.25000000  1.00000000  1
  O  O38  1  0.62808217  0.15950973  0.79722329  1
  O  O39  1  0.83085888  0.34049027  0.20277671  1
  O  O40  1  0.37191783  0.84049027  0.20277671  1
  O  O41  1  0.16914112  0.65950973  0.79722329  1
  O  O42  1  0.24980271  0.97891646  0.00177684  1
  O  O43  1  0.24802587  0.52108354  0.99822316  1
  O  O44  1  0.75019729  0.02108354  0.99822316  1
  O  O45  1  0.75197413  0.47891646  0.00177684  1
