# generated using pymatgen
data_Cs2AsH5O6
_symmetry_space_group_name_H-M   'P 1'
_cell_length_a   8.04930021
_cell_length_b   8.56099002
_cell_length_c   14.42185632
_cell_angle_alpha   90.00000000
_cell_angle_beta   90.00000000
_cell_angle_gamma   120.58571901
_symmetry_Int_Tables_number   1
_chemical_formula_structural   Cs2AsH5O6
_chemical_formula_sum   'Cs8 As4 H20 O24'
_cell_volume   855.53994009
_cell_formula_units_Z   4
loop_
 _symmetry_equiv_pos_site_id
 _symmetry_equiv_pos_as_xyz
  1  'x, y, z'
loop_
 _atom_site_type_symbol
 _atom_site_label
 _atom_site_symmetry_multiplicity
 _atom_site_fract_x
 _atom_site_fract_y
 _atom_site_fract_z
 _atom_site_occupancy
  Cs  Cs0  1  0.25891326  0.75536581  0.23347946  1
  Cs  Cs1  1  0.74108674  0.74463419  0.73347946  1
  Cs  Cs2  1  0.74108674  0.24463419  0.76652054  1
  Cs  Cs3  1  0.25891326  0.25536581  0.26652054  1
  Cs  Cs4  1  0.74996027  0.75352372  0.41685215  1
  Cs  Cs5  1  0.25003973  0.74647628  0.91685215  1
  Cs  Cs6  1  0.25003973  0.24647628  0.58314785  1
  Cs  Cs7  1  0.74996027  0.25352372  0.08314785  1
  As  As8  1  0.74541885  0.23644394  0.35898862  1
  As  As9  1  0.25458115  0.26355606  0.85898862  1
  As  As10  1  0.25458115  0.76355606  0.64101138  1
  As  As11  1  0.74541885  0.73644394  0.14101138  1
  H  H12  1  0.14823065  0.94844748  0.08172283  1
  H  H13  1  0.85176935  0.55155252  0.58172283  1
  H  H14  1  0.85176935  0.05155252  0.91827717  1
  H  H15  1  0.14823065  0.44844748  0.41827717  1
  H  H16  1  0.34857296  0.04882353  0.41680100  1
  H  H17  1  0.65142704  0.45117647  0.91680100  1
  H  H18  1  0.65142704  0.95117647  0.58319900  1
  H  H19  1  0.34857296  0.54882353  0.08319900  1
  H  H20  1  0.77577549  0.48283842  0.26563838  1
  H  H21  1  0.22422451  0.01716158  0.76563838  1
  H  H22  1  0.22422451  0.51716158  0.73436162  1
  H  H23  1  0.77577549  0.98283842  0.23436162  1
  H  H24  1  0.17908684  0.87481546  0.46735517  1
  H  H25  1  0.82091316  0.62518454  0.96735517  1
  H  H26  1  0.82091316  0.12518454  0.53264483  1
  H  H27  1  0.17908684  0.37481546  0.03264483  1
  H  H28  1  0.31583036  0.12238651  0.02987224  1
  H  H29  1  0.68416964  0.37761349  0.52987224  1
  H  H30  1  0.68416964  0.87761349  0.97012776  1
  H  H31  1  0.31583036  0.62238651  0.47012776  1
  O  O32  1  0.86608339  0.44239088  0.29211356  1
  O  O33  1  0.13391661  0.05760912  0.79211356  1
  O  O34  1  0.13391661  0.55760912  0.70788644  1
  O  O35  1  0.86608339  0.94239088  0.20788644  1
  O  O36  1  0.57088224  0.24539775  0.42283094  1
  O  O37  1  0.42911776  0.25460225  0.92283094  1
  O  O38  1  0.42911776  0.75460225  0.57716906  1
  O  O39  1  0.57088224  0.74539775  0.07716906  1
  O  O40  1  0.65162136  0.06181025  0.28037218  1
  O  O41  1  0.34837864  0.43818975  0.78037218  1
  O  O42  1  0.34837864  0.93818975  0.71962782  1
  O  O43  1  0.65162136  0.56181025  0.21962782  1
  O  O44  1  0.92579546  0.24165567  0.42379131  1
  O  O45  1  0.07420454  0.25834433  0.92379131  1
  O  O46  1  0.07420454  0.75834433  0.57620869  1
  O  O47  1  0.92579546  0.74165567  0.07620869  1
  O  O48  1  0.21011006  0.94964165  0.41031736  1
  O  O49  1  0.78988994  0.55035835  0.91031736  1
  O  O50  1  0.78988994  0.05035835  0.58968264  1
  O  O51  1  0.21011006  0.44964165  0.08968264  1
  O  O52  1  0.28689551  0.04742546  0.08654241  1
  O  O53  1  0.71310449  0.45257454  0.58654241  1
  O  O54  1  0.71310449  0.95257454  0.91345759  1
  O  O55  1  0.28689551  0.54742546  0.41345759  1
