# generated using pymatgen
data_LaInCu5
_symmetry_space_group_name_H-M   'P 1'
_cell_length_a   5.13844639
_cell_length_b   10.67222426
_cell_length_c   16.92543145
_cell_angle_alpha   90.00000000
_cell_angle_beta   90.00000000
_cell_angle_gamma   90.00000000
_symmetry_Int_Tables_number   1
_chemical_formula_structural   LaInCu5
_chemical_formula_sum   'La8 In8 Cu40'
_cell_volume   928.16784899
_cell_formula_units_Z   8
loop_
 _symmetry_equiv_pos_site_id
 _symmetry_equiv_pos_as_xyz
  1  'x, y, z'
loop_
 _atom_site_type_symbol
 _atom_site_label
 _atom_site_symmetry_multiplicity
 _atom_site_fract_x
 _atom_site_fract_y
 _atom_site_fract_z
 _atom_site_occupancy
  La  La0  1  0.50000000  0.50000000  0.50000000  1
  La  La1  1  0.00000000  -0.00000000  -0.00000000  1
  La  La2  1  0.50000000  0.50000000  -0.00000000  1
  La  La3  1  0.00000000  -0.00000000  0.50000000  1
  La  La4  1  0.50000000  0.88408652  0.74521847  1
  La  La5  1  0.50000000  0.11591348  0.25478153  1
  La  La6  1  0.00000000  0.61591348  0.24521847  1
  La  La7  1  0.00000000  0.38408652  0.75478153  1
  In  In8  1  0.50000000  0.80769792  0.55233704  1
  In  In9  1  0.50000000  0.19230208  0.44766296  1
  In  In10  1  0.00000000  0.69230208  0.05233704  1
  In  In11  1  0.00000000  0.30769792  0.94766296  1
  In  In12  1  0.50000000  0.58283478  0.80630032  1
  In  In13  1  0.50000000  0.41716522  0.19369968  1
  In  In14  1  0.00000000  0.91716522  0.30630032  1
  In  In15  1  0.00000000  0.08283478  0.69369968  1
  Cu  Cu16  1  0.50000000  0.81021307  0.03394953  1
  Cu  Cu17  1  0.50000000  0.18978693  0.96605047  1
  Cu  Cu18  1  0.00000000  0.68978693  0.53394953  1
  Cu  Cu19  1  0.00000000  0.31021307  0.46605047  1
  Cu  Cu20  1  0.50000000  0.66277777  0.15210751  1
  Cu  Cu21  1  0.50000000  0.33722223  0.84789249  1
  Cu  Cu22  1  0.00000000  0.83722223  0.65210751  1
  Cu  Cu23  1  0.00000000  0.16277777  0.34789249  1
  Cu  Cu24  1  0.50000000  0.57103169  0.33172805  1
  Cu  Cu25  1  0.50000000  0.42896831  0.66827195  1
  Cu  Cu26  1  0.00000000  0.92896831  0.83172805  1
  Cu  Cu27  1  0.00000000  0.07103169  0.16827195  1
  Cu  Cu28  1  0.50000000  0.94817904  0.40416813  1
  Cu  Cu29  1  0.50000000  0.05182096  0.59583187  1
  Cu  Cu30  1  0.00000000  0.55182096  0.90416813  1
  Cu  Cu31  1  0.00000000  0.44817904  0.09583187  1
  Cu  Cu32  1  0.25053088  0.75602309  0.90753732  1
  Cu  Cu33  1  0.25053088  0.24397691  0.09246268  1
  Cu  Cu34  1  0.24946912  0.74397691  0.40753732  1
  Cu  Cu35  1  0.24946912  0.25602309  0.59246268  1
  Cu  Cu36  1  0.74946912  0.24397691  0.09246268  1
  Cu  Cu37  1  0.74946912  0.75602309  0.90753732  1
  Cu  Cu38  1  0.75053088  0.25602309  0.59246268  1
  Cu  Cu39  1  0.75053088  0.74397691  0.40753732  1
  Cu  Cu40  1  0.24989104  0.63319584  0.65866532  1
  Cu  Cu41  1  0.24989104  0.36680416  0.34133468  1
  Cu  Cu42  1  0.25010896  0.86680416  0.15866532  1
  Cu  Cu43  1  0.25010896  0.13319584  0.84133468  1
  Cu  Cu44  1  0.75010896  0.36680416  0.34133468  1
  Cu  Cu45  1  0.75010896  0.63319584  0.65866532  1
  Cu  Cu46  1  0.74989104  0.13319584  0.84133468  1
  Cu  Cu47  1  0.74989104  0.86680416  0.15866532  1
  Cu  Cu48  1  0.50000000  0.79982765  0.28345409  1
  Cu  Cu49  1  0.50000000  0.20017235  0.71654591  1
  Cu  Cu50  1  0.00000000  0.70017235  0.78345409  1
  Cu  Cu51  1  0.00000000  0.29982765  0.21654591  1
  Cu  Cu52  1  0.50000000  0.95815629  0.91399039  1
  Cu  Cu53  1  0.50000000  0.04184371  0.08600961  1
  Cu  Cu54  1  0.00000000  0.54184371  0.41399039  1
  Cu  Cu55  1  0.00000000  0.45815629  0.58600961  1
