# generated using pymatgen
data_Cs2HgCl4
_symmetry_space_group_name_H-M   'P 1'
_cell_length_a   7.92396712
_cell_length_b   9.90183411
_cell_length_c   27.88553551
_cell_angle_alpha   89.59262257
_cell_angle_beta   90.00000000
_cell_angle_gamma   90.00000000
_symmetry_Int_Tables_number   1
_chemical_formula_structural   Cs2HgCl4
_chemical_formula_sum   'Cs16 Hg8 Cl32'
_cell_volume   2187.89422701
_cell_formula_units_Z   8
loop_
 _symmetry_equiv_pos_site_id
 _symmetry_equiv_pos_as_xyz
  1  'x, y, z'
loop_
 _atom_site_type_symbol
 _atom_site_label
 _atom_site_symmetry_multiplicity
 _atom_site_fract_x
 _atom_site_fract_y
 _atom_site_fract_z
 _atom_site_occupancy
  Cs  Cs0  1  0.75417663  0.37985285  0.21100696  1
  Cs  Cs1  1  0.25417663  0.62014715  0.28899304  1
  Cs  Cs2  1  0.24582337  0.62014715  0.78899304  1
  Cs  Cs3  1  0.74582337  0.37985285  0.71100696  1
  Cs  Cs4  1  0.75563380  0.00889366  0.34340672  1
  Cs  Cs5  1  0.25563380  0.99110634  0.15659328  1
  Cs  Cs6  1  0.24436620  0.99110634  0.65659328  1
  Cs  Cs7  1  0.74436620  0.00889366  0.84340672  1
  Cs  Cs8  1  0.23093069  0.12479685  0.94162300  1
  Cs  Cs9  1  0.73093069  0.87520315  0.55837700  1
  Cs  Cs10  1  0.76906931  0.87520315  0.05837700  1
  Cs  Cs11  1  0.26906931  0.12479685  0.44162300  1
  Cs  Cs12  1  0.28572635  0.48423597  0.08748225  1
  Cs  Cs13  1  0.78572635  0.51576403  0.41251775  1
  Cs  Cs14  1  0.71427365  0.51576403  0.91251775  1
  Cs  Cs15  1  0.21427365  0.48423597  0.58748225  1
  Hg  Hg16  1  0.77040847  0.79167072  0.21334005  1
  Hg  Hg17  1  0.27040847  0.20832928  0.28665995  1
  Hg  Hg18  1  0.22959153  0.20832928  0.78665995  1
  Hg  Hg19  1  0.72959153  0.79167072  0.71334005  1
  Hg  Hg20  1  0.21968646  0.72032822  0.95947719  1
  Hg  Hg21  1  0.71968646  0.27967178  0.54052281  1
  Hg  Hg22  1  0.78031354  0.27967178  0.04052281  1
  Hg  Hg23  1  0.28031354  0.72032822  0.45947719  1
  Cl  Cl24  1  0.84357246  0.03511879  0.21738364  1
  Cl  Cl25  1  0.34357246  0.96488121  0.28261636  1
  Cl  Cl26  1  0.15642754  0.96488121  0.78261636  1
  Cl  Cl27  1  0.65642754  0.03511879  0.71738364  1
  Cl  Cl28  1  0.75194658  0.67110769  0.29479369  1
  Cl  Cl29  1  0.25194658  0.32889231  0.20520631  1
  Cl  Cl30  1  0.24805342  0.32889231  0.70520631  1
  Cl  Cl31  1  0.74805342  0.67110769  0.79479369  1
  Cl  Cl32  1  0.02015504  0.68059333  0.16958613  1
  Cl  Cl33  1  0.52015504  0.31940667  0.33041387  1
  Cl  Cl34  1  0.97984496  0.31940667  0.83041387  1
  Cl  Cl35  1  0.47984496  0.68059333  0.66958613  1
  Cl  Cl36  1  0.98602594  0.70031060  0.66985262  1
  Cl  Cl37  1  0.48602594  0.29968940  0.83014738  1
  Cl  Cl38  1  0.01397406  0.29968940  0.33014738  1
  Cl  Cl39  1  0.51397406  0.70031060  0.16985262  1
  Cl  Cl40  1  0.23546225  0.46742483  0.95863778  1
  Cl  Cl41  1  0.73546225  0.53257517  0.54136222  1
  Cl  Cl42  1  0.76453775  0.53257517  0.04136222  1
  Cl  Cl43  1  0.26453775  0.46742483  0.45863778  1
  Cl  Cl44  1  0.30421727  0.82232339  0.03981182  1
  Cl  Cl45  1  0.80421727  0.17767661  0.46018818  1
  Cl  Cl46  1  0.69578273  0.17767661  0.96018818  1
  Cl  Cl47  1  0.19578273  0.82232339  0.53981182  1
  Cl  Cl48  1  0.42092685  0.80323630  0.89449181  1
  Cl  Cl49  1  0.92092685  0.19676370  0.60550819  1
  Cl  Cl50  1  0.57907315  0.19676370  0.10550819  1
  Cl  Cl51  1  0.07907315  0.80323630  0.39449181  1
  Cl  Cl52  1  0.56493081  0.82557979  0.44055470  1
  Cl  Cl53  1  0.06493081  0.17442021  0.05944530  1
  Cl  Cl54  1  0.43506919  0.17442021  0.55944530  1
  Cl  Cl55  1  0.93506919  0.82557979  0.94055470  1
