# generated using pymatgen
data_U2B6W
_symmetry_space_group_name_H-M   'P 1'
_cell_length_a   3.68502668
_cell_length_b   9.28123744
_cell_length_c   11.38297283
_cell_angle_alpha   90.00000000
_cell_angle_beta   90.00000000
_cell_angle_gamma   90.00000000
_symmetry_Int_Tables_number   1
_chemical_formula_structural   U2B6W
_chemical_formula_sum   'U8 B24 W4'
_cell_volume   389.31596994
_cell_formula_units_Z   4
loop_
 _symmetry_equiv_pos_site_id
 _symmetry_equiv_pos_as_xyz
  1  'x, y, z'
loop_
 _atom_site_type_symbol
 _atom_site_label
 _atom_site_symmetry_multiplicity
 _atom_site_fract_x
 _atom_site_fract_y
 _atom_site_fract_z
 _atom_site_occupancy
  U  U0  1  -0.00000000  0.33431311  0.40764241  1
  U  U1  1  -0.00000000  0.66568689  0.59235759  1
  U  U2  1  -0.00000000  0.83431311  0.09235759  1
  U  U3  1  0.00000000  0.16568689  0.90764241  1
  U  U4  1  -0.00000000  0.95634193  0.39493721  1
  U  U5  1  -0.00000000  0.04365807  0.60506279  1
  U  U6  1  0.00000000  0.45634193  0.10506279  1
  U  U7  1  0.00000000  0.54365807  0.89493721  1
  B  B8  1  0.50000000  0.54986415  0.43336838  1
  B  B9  1  0.50000000  0.45013585  0.56663162  1
  B  B10  1  0.50000000  0.04986415  0.06663162  1
  B  B11  1  0.50000000  0.95013585  0.93336838  1
  B  B12  1  0.50000000  0.74365118  0.42433590  1
  B  B13  1  0.50000000  0.25634882  0.57566410  1
  B  B14  1  0.50000000  0.24365118  0.07566410  1
  B  B15  1  0.50000000  0.75634882  0.92433590  1
  B  B16  1  0.50000000  0.80388724  0.27272137  1
  B  B17  1  0.50000000  0.19611276  0.72727863  1
  B  B18  1  0.50000000  0.30388724  0.22727863  1
  B  B19  1  0.50000000  0.69611276  0.77272137  1
  B  B20  1  0.50000000  0.64405625  0.18717022  1
  B  B21  1  0.50000000  0.35594375  0.81282978  1
  B  B22  1  0.50000000  0.14405625  0.31282978  1
  B  B23  1  0.50000000  0.85594375  0.68717022  1
  B  B24  1  0.50000000  0.98494781  0.21853419  1
  B  B25  1  0.50000000  0.01505219  0.78146581  1
  B  B26  1  0.50000000  0.48494781  0.28146581  1
  B  B27  1  0.50000000  0.51505219  0.71853419  1
  B  B28  1  0.50000000  0.64152307  0.03938734  1
  B  B29  1  0.50000000  0.35847693  0.96061266  1
  B  B30  1  0.50000000  0.14152307  0.46061266  1
  B  B31  1  0.50000000  0.85847693  0.53938734  1
  W  W32  1  -0.00000000  0.64494827  0.32027619  1
  W  W33  1  0.00000000  0.35505173  0.67972381  1
  W  W34  1  -0.00000000  0.14494827  0.17972381  1
  W  W35  1  0.00000000  0.85505173  0.82027619  1
