# generated using pymatgen
data_V3As2H4O13
_symmetry_space_group_name_H-M   'P 1'
_cell_length_a   5.25134069
_cell_length_b   7.99040461
_cell_length_c   12.62003044
_cell_angle_alpha   71.55389323
_cell_angle_beta   80.66614451
_cell_angle_gamma   85.65259807
_symmetry_Int_Tables_number   1
_chemical_formula_structural   V3As2H4O13
_chemical_formula_sum   'V6 As4 H8 O26'
_cell_volume   495.51333676
_cell_formula_units_Z   2
loop_
 _symmetry_equiv_pos_site_id
 _symmetry_equiv_pos_as_xyz
  1  'x, y, z'
loop_
 _atom_site_type_symbol
 _atom_site_label
 _atom_site_symmetry_multiplicity
 _atom_site_fract_x
 _atom_site_fract_y
 _atom_site_fract_z
 _atom_site_occupancy
  V  V0  1  0.01736856  0.20849584  0.67913292  1
  V  V1  1  0.98263144  0.79150416  0.32086708  1
  V  V2  1  0.48341670  0.31527822  0.83444963  1
  V  V3  1  0.51658330  0.68472178  0.16555037  1
  V  V4  1  0.24857127  0.76904066  0.74074369  1
  V  V5  1  0.75142873  0.23095934  0.25925631  1
  As  As6  1  0.68346068  0.86714653  0.88598419  1
  As  As7  1  0.31653932  0.13285347  0.11401581  1
  As  As8  1  0.82411937  0.63471215  0.61072640  1
  As  As9  1  0.17588063  0.36528785  0.38927360  1
  H  H10  1  0.74596208  0.21375358  0.50651446  1
  H  H11  1  0.25403792  0.78624642  0.49348554  1
  H  H12  1  0.65525737  0.03876003  0.60931015  1
  H  H13  1  0.34474263  0.96123997  0.39068985  1
  H  H14  1  0.83561843  0.47653345  0.89770175  1
  H  H15  1  0.16438157  0.52346655  0.10229825  1
  H  H16  1  0.74967836  0.29682053  0.00143378  1
  H  H17  1  0.25032164  0.70317947  0.99856622  1
  O  O18  1  0.68283254  0.84529299  0.02584068  1
  O  O19  1  0.31716746  0.15470701  0.97415932  1
  O  O20  1  0.38081137  0.81884992  0.86939293  1
  O  O21  1  0.61918863  0.18115008  0.13060707  1
  O  O22  1  0.90787488  0.71999166  0.84778141  1
  O  O23  1  0.09212512  0.28000834  0.15221859  1
  O  O24  1  0.74191339  0.08889266  0.81209267  1
  O  O25  1  0.25808661  0.91110734  0.18790733  1
  O  O26  1  0.75737635  0.41516216  0.69034568  1
  O  O27  1  0.24262365  0.58483784  0.30965432  1
  O  O28  1  0.13129168  0.67394323  0.62772159  1
  O  O29  1  0.86870832  0.32605677  0.37227841  1
  O  O30  1  0.82011424  0.65286661  0.47336488  1
  O  O31  1  0.17988576  0.34713339  0.52663512  1
  O  O32  1  0.60652326  0.77890063  0.65491940  1
  O  O33  1  0.39347674  0.22109937  0.34508060  1
  O  O34  1  0.24134715  0.24742106  0.75139468  1
  O  O35  1  0.75865285  0.75257894  0.24860532  1
  O  O36  1  0.16879421  0.98353949  0.67240632  1
  O  O37  1  0.83120579  0.01646051  0.32759368  1
  O  O38  1  0.33303282  0.51220985  0.82577366  1
  O  O39  1  0.66696718  0.48779015  0.17422634  1
  O  O40  1  0.73178298  0.15494915  0.58951645  1
  O  O41  1  0.26821702  0.84505085  0.41048355  1
  O  O42  1  0.77022009  0.35575148  0.91770469  1
  O  O43  1  0.22977991  0.64424852  0.08229531  1
