# generated using pymatgen
data_TiI2O7
_symmetry_space_group_name_H-M   'P 1'
_cell_length_a   6.68354821
_cell_length_b   6.68354821
_cell_length_c   7.30179094
_cell_angle_alpha   90.00000000
_cell_angle_beta   90.00000000
_cell_angle_gamma   102.96403266
_symmetry_Int_Tables_number   1
_chemical_formula_structural   TiI2O7
_chemical_formula_sum   'Ti2 I4 O14'
_cell_volume   317.85595192
_cell_formula_units_Z   2
loop_
 _symmetry_equiv_pos_site_id
 _symmetry_equiv_pos_as_xyz
  1  'x, y, z'
loop_
 _atom_site_type_symbol
 _atom_site_label
 _atom_site_symmetry_multiplicity
 _atom_site_fract_x
 _atom_site_fract_y
 _atom_site_fract_z
 _atom_site_occupancy
  Ti  Ti0  1  0.99208455  0.99208455  0.94038158  1
  Ti  Ti1  1  0.00791545  0.00791545  0.44038158  1
  I  I2  1  0.06216511  0.55711756  0.21022469  1
  I  I3  1  0.55711756  0.06216511  0.21022469  1
  I  I4  1  0.93783489  0.44288244  0.71022469  1
  I  I5  1  0.44288244  0.93783489  0.71022469  1
  O  O6  1  0.92741238  0.92741238  0.71116863  1
  O  O7  1  0.07258762  0.07258762  0.21116863  1
  O  O8  1  0.97128040  0.70071934  0.40292516  1
  O  O9  1  0.70071934  0.97128040  0.40292516  1
  O  O10  1  0.02871960  0.29928066  0.90292516  1
  O  O11  1  0.29928066  0.02871960  0.90292516  1
  O  O12  1  0.96923570  0.69588433  0.01541251  1
  O  O13  1  0.69588433  0.96923570  0.01541251  1
  O  O14  1  0.03076430  0.30411567  0.51541251  1
  O  O15  1  0.30411567  0.03076430  0.51541251  1
  O  O16  1  0.33235232  0.67336869  0.20945753  1
  O  O17  1  0.67336869  0.33235232  0.20945753  1
  O  O18  1  0.66764768  0.32663131  0.70945753  1
  O  O19  1  0.32663131  0.66764768  0.70945753  1
