# generated using pymatgen
data_KEu2Cd2Sb3
_symmetry_space_group_name_H-M   'P 1'
_cell_length_a   4.87896273
_cell_length_b   12.65911219
_cell_length_c   16.29576062
_cell_angle_alpha   90.00000000
_cell_angle_beta   90.00000000
_cell_angle_gamma   90.00000000
_symmetry_Int_Tables_number   1
_chemical_formula_structural   KEu2Cd2Sb3
_chemical_formula_sum   'K4 Eu8 Cd8 Sb12'
_cell_volume   1006.48054784
_cell_formula_units_Z   4
loop_
 _symmetry_equiv_pos_site_id
 _symmetry_equiv_pos_as_xyz
  1  'x, y, z'
loop_
 _atom_site_type_symbol
 _atom_site_label
 _atom_site_symmetry_multiplicity
 _atom_site_fract_x
 _atom_site_fract_y
 _atom_site_fract_z
 _atom_site_occupancy
  K  K0  1  0.75000000  0.09220304  0.04609670  1
  K  K1  1  0.75000000  0.59220304  0.45390330  1
  K  K2  1  0.25000000  0.90779696  0.95390330  1
  K  K3  1  0.25000000  0.40779696  0.54609670  1
  Eu  Eu4  1  0.75000000  0.39955462  0.92385491  1
  Eu  Eu5  1  0.75000000  0.89955462  0.57614509  1
  Eu  Eu6  1  0.25000000  0.60044538  0.07614509  1
  Eu  Eu7  1  0.25000000  0.10044538  0.42385491  1
  Eu  Eu8  1  0.75000000  0.13566557  0.78029567  1
  Eu  Eu9  1  0.75000000  0.63566557  0.71970433  1
  Eu  Eu10  1  0.25000000  0.86433443  0.21970433  1
  Eu  Eu11  1  0.25000000  0.36433443  0.28029567  1
  Cd  Cd12  1  0.75000000  0.19731804  0.57619559  1
  Cd  Cd13  1  0.75000000  0.69731804  0.92380441  1
  Cd  Cd14  1  0.25000000  0.80268196  0.42380441  1
  Cd  Cd15  1  0.25000000  0.30268196  0.07619559  1
  Cd  Cd16  1  0.75000000  0.12962417  0.28049685  1
  Cd  Cd17  1  0.75000000  0.62962417  0.21950315  1
  Cd  Cd18  1  0.25000000  0.87037583  0.71950315  1
  Cd  Cd19  1  0.25000000  0.37037583  0.78049685  1
  Sb  Sb20  1  0.75000000  0.42146674  0.12741475  1
  Sb  Sb21  1  0.75000000  0.92146674  0.37258525  1
  Sb  Sb22  1  0.25000000  0.57853326  0.87258525  1
  Sb  Sb23  1  0.25000000  0.07853326  0.62741475  1
  Sb  Sb24  1  0.75000000  0.37743644  0.69217436  1
  Sb  Sb25  1  0.75000000  0.87743644  0.80782564  1
  Sb  Sb26  1  0.25000000  0.62256356  0.30782564  1
  Sb  Sb27  1  0.25000000  0.12256356  0.19217436  1
  Sb  Sb28  1  0.75000000  0.78913482  0.08727103  1
  Sb  Sb29  1  0.75000000  0.28913482  0.41272897  1
  Sb  Sb30  1  0.25000000  0.21086518  0.91272897  1
  Sb  Sb31  1  0.25000000  0.71086518  0.58727103  1
