# generated using pymatgen
data_PuP2H6(CO3)2
_symmetry_space_group_name_H-M   'P 1'
_cell_length_a   8.32123124
_cell_length_b   9.62570538
_cell_length_c   10.88504449
_cell_angle_alpha   90.00000000
_cell_angle_beta   90.00000000
_cell_angle_gamma   92.51756727
_symmetry_Int_Tables_number   1
_chemical_formula_structural   PuP2H6(CO3)2
_chemical_formula_sum   'Pu4 P8 H24 C8 O24'
_cell_volume   871.02572313
_cell_formula_units_Z   4
loop_
 _symmetry_equiv_pos_site_id
 _symmetry_equiv_pos_as_xyz
  1  'x, y, z'
loop_
 _atom_site_type_symbol
 _atom_site_label
 _atom_site_symmetry_multiplicity
 _atom_site_fract_x
 _atom_site_fract_y
 _atom_site_fract_z
 _atom_site_occupancy
  Pu  Pu0  1  0.07438606  0.26256022  0.39147191  1
  Pu  Pu1  1  0.92561394  0.23743978  0.89147191  1
  Pu  Pu2  1  0.92561394  0.73743978  0.60852809  1
  Pu  Pu3  1  0.07438606  0.76256022  0.10852809  1
  P  P4  1  0.17562464  0.06042387  0.65653030  1
  P  P5  1  0.82437536  0.43957613  0.15653030  1
  P  P6  1  0.82437536  0.93957613  0.34346970  1
  P  P7  1  0.17562464  0.56042387  0.84346970  1
  P  P8  1  0.22319161  0.61571319  0.38931314  1
  P  P9  1  0.77680839  0.88428681  0.88931314  1
  P  P10  1  0.77680839  0.38428681  0.61068686  1
  P  P11  1  0.22319161  0.11571319  0.11068686  1
  H  H12  1  0.34741568  0.94719512  0.79742556  1
  H  H13  1  0.65258432  0.55280488  0.29742556  1
  H  H14  1  0.65258432  0.05280488  0.20257444  1
  H  H15  1  0.34741568  0.44719512  0.70257444  1
  H  H16  1  0.43800271  0.96154848  0.64928128  1
  H  H17  1  0.56199729  0.53845152  0.14928128  1
  H  H18  1  0.56199729  0.03845152  0.35071872  1
  H  H19  1  0.43800271  0.46154848  0.85071872  1
  H  H20  1  0.43810821  0.10923301  0.74749613  1
  H  H21  1  0.56189179  0.39076699  0.24749613  1
  H  H22  1  0.56189179  0.89076699  0.25250387  1
  H  H23  1  0.43810821  0.60923301  0.75250387  1
  H  H24  1  0.37978354  0.81106412  0.46280886  1
  H  H25  1  0.62021646  0.68893588  0.96280886  1
  H  H26  1  0.62021646  0.18893588  0.53719114  1
  H  H27  1  0.37978354  0.31106412  0.03719114  1
  H  H28  1  0.39358094  0.66499592  0.56228297  1
  H  H29  1  0.60641906  0.83500408  0.06228297  1
  H  H30  1  0.60641906  0.33500408  0.43771703  1
  H  H31  1  0.39358094  0.16499592  0.93771703  1
  H  H32  1  0.50784158  0.67374397  0.42409701  1
  H  H33  1  0.49215842  0.82625603  0.92409701  1
  H  H34  1  0.49215842  0.32625603  0.57590299  1
  H  H35  1  0.50784158  0.17374397  0.07590299  1
  C  C36  1  0.36798811  0.01618152  0.71813840  1
  C  C37  1  0.63201189  0.48381848  0.21813840  1
  C  C38  1  0.63201189  0.98381848  0.28186160  1
  C  C39  1  0.36798811  0.51618152  0.78186160  1
  C  C40  1  0.39307685  0.69827986  0.46599534  1
  C  C41  1  0.60692315  0.80172014  0.96599534  1
  C  C42  1  0.60692315  0.30172014  0.53400466  1
  C  C43  1  0.39307685  0.19827986  0.03400466  1
  O  O44  1  0.20579786  0.15554091  0.54404098  1
  O  O45  1  0.79420214  0.34445909  0.04404098  1
  O  O46  1  0.79420214  0.84445909  0.45595902  1
  O  O47  1  0.20579786  0.65554091  0.95595902  1
  O  O48  1  0.08319896  0.13364674  0.75908094  1
  O  O49  1  0.91680104  0.36635326  0.25908094  1
  O  O50  1  0.91680104  0.86635326  0.24091906  1
  O  O51  1  0.08319896  0.63364674  0.74091906  1
  O  O52  1  0.08850994  0.92222401  0.61899539  1
  O  O53  1  0.91149006  0.57777599  0.11899539  1
  O  O54  1  0.91149006  0.07777599  0.38100461  1
  O  O55  1  0.08850994  0.42222401  0.88100461  1
  O  O56  1  0.23836491  0.45603523  0.39359431  1
  O  O57  1  0.76163509  0.04396477  0.89359431  1
  O  O58  1  0.76163509  0.54396477  0.60640569  1
  O  O59  1  0.23836491  0.95603523  0.10640569  1
  O  O60  1  0.06985944  0.65721784  0.45737353  1
  O  O61  1  0.93014056  0.84278216  0.95737353  1
  O  O62  1  0.93014056  0.34278216  0.54262647  1
  O  O63  1  0.06985944  0.15721784  0.04262647  1
  O  O64  1  0.22336041  0.66988208  0.25537825  1
  O  O65  1  0.77663959  0.83011792  0.75537825  1
  O  O66  1  0.77663959  0.33011792  0.74462175  1
  O  O67  1  0.22336041  0.16988208  0.24462175  1
