# generated using pymatgen
data_LiAl(CN2)2
_symmetry_space_group_name_H-M   'P 1'
_cell_length_a   5.47871300
_cell_length_b   6.54174072
_cell_length_c   9.21399482
_cell_angle_alpha   90.00000000
_cell_angle_beta   90.00000000
_cell_angle_gamma   90.00000000
_symmetry_Int_Tables_number   1
_chemical_formula_structural   LiAl(CN2)2
_chemical_formula_sum   'Li4 Al4 C8 N16'
_cell_volume   330.23252214
_cell_formula_units_Z   4
loop_
 _symmetry_equiv_pos_site_id
 _symmetry_equiv_pos_as_xyz
  1  'x, y, z'
loop_
 _atom_site_type_symbol
 _atom_site_label
 _atom_site_symmetry_multiplicity
 _atom_site_fract_x
 _atom_site_fract_y
 _atom_site_fract_z
 _atom_site_occupancy
  Li  Li0  1  0.25000000  0.62068015  0.00000000  1
  Li  Li1  1  0.75000000  0.87931985  0.50000000  1
  Li  Li2  1  0.75000000  0.37931985  0.00000000  1
  Li  Li3  1  0.25000000  0.12068015  0.50000000  1
  Al  Al4  1  0.25000000  0.12061859  0.00000000  1
  Al  Al5  1  0.75000000  0.37938141  0.50000000  1
  Al  Al6  1  0.75000000  0.87938141  0.00000000  1
  Al  Al7  1  0.25000000  0.62061859  0.50000000  1
  C  C8  1  0.41202556  0.36883632  0.74605665  1
  C  C9  1  0.91202556  0.13116368  0.75394335  1
  C  C10  1  0.58797444  0.13116368  0.24605665  1
  C  C11  1  0.08797444  0.36883632  0.25394335  1
  C  C12  1  0.58797444  0.63116368  0.25394335  1
  C  C13  1  0.08797444  0.86883632  0.24605665  1
  C  C14  1  0.41202556  0.86883632  0.75394335  1
  C  C15  1  0.91202556  0.63116368  0.74605665  1
  N  N16  1  0.38984170  0.34218237  0.87580627  1
  N  N17  1  0.88984170  0.15781763  0.62419373  1
  N  N18  1  0.61015830  0.15781763  0.37580627  1
  N  N19  1  0.11015830  0.34218237  0.12419373  1
  N  N20  1  0.61015830  0.65781763  0.12419373  1
  N  N21  1  0.11015830  0.84218237  0.37580627  1
  N  N22  1  0.38984170  0.84218237  0.62419373  1
  N  N23  1  0.88984170  0.65781763  0.87580627  1
  N  N24  1  0.43610736  0.40050411  0.61339269  1
  N  N25  1  0.93610736  0.09949589  0.88660731  1
  N  N26  1  0.56389264  0.09949589  0.11339269  1
  N  N27  1  0.06389264  0.40050411  0.38660731  1
  N  N28  1  0.56389264  0.59949589  0.38660731  1
  N  N29  1  0.06389264  0.90050411  0.11339269  1
  N  N30  1  0.43610736  0.90050411  0.88660731  1
  N  N31  1  0.93610736  0.59949589  0.61339269  1
