# generated using pymatgen
data_Tm3C4
_symmetry_space_group_name_H-M   'P 1'
_cell_length_a   7.95558188
_cell_length_b   7.95558188
_cell_length_c   15.80428006
_cell_angle_alpha   90.00000000
_cell_angle_beta   90.00000000
_cell_angle_gamma   90.00000000
_symmetry_Int_Tables_number   1
_chemical_formula_structural   Tm3C4
_chemical_formula_sum   'Tm30 C40'
_cell_volume   1000.27316267
_cell_formula_units_Z   10
loop_
 _symmetry_equiv_pos_site_id
 _symmetry_equiv_pos_as_xyz
  1  'x, y, z'
loop_
 _atom_site_type_symbol
 _atom_site_label
 _atom_site_symmetry_multiplicity
 _atom_site_fract_x
 _atom_site_fract_y
 _atom_site_fract_z
 _atom_site_occupancy
  Tm  Tm0  1  0.50000000  0.50000000  0.50000000  1
  Tm  Tm1  1  0.00000000  0.00000000  -0.00000000  1
  Tm  Tm2  1  0.50000000  0.50000000  0.18730314  1
  Tm  Tm3  1  0.00000000  0.00000000  0.68730314  1
  Tm  Tm4  1  0.50000000  0.50000000  0.81269686  1
  Tm  Tm5  1  0.00000000  0.00000000  0.31269686  1
  Tm  Tm6  1  0.70253223  0.90448501  0.50000000  1
  Tm  Tm7  1  0.29746777  0.09551499  0.50000000  1
  Tm  Tm8  1  0.79746777  0.40448501  -0.00000000  1
  Tm  Tm9  1  0.20253223  0.59551499  -0.00000000  1
  Tm  Tm10  1  0.90448501  0.29746777  0.50000000  1
  Tm  Tm11  1  0.09551499  0.70253223  0.50000000  1
  Tm  Tm12  1  0.40448501  0.20253223  -0.00000000  1
  Tm  Tm13  1  0.59551499  0.79746777  -0.00000000  1
  Tm  Tm14  1  0.78815615  0.60040263  0.35396465  1
  Tm  Tm15  1  0.21184385  0.39959737  0.35396465  1
  Tm  Tm16  1  0.71184385  0.10040263  0.85396465  1
  Tm  Tm17  1  0.28815615  0.89959737  0.85396465  1
  Tm  Tm18  1  0.60040263  0.21184385  0.35396465  1
  Tm  Tm19  1  0.39959737  0.78815615  0.35396465  1
  Tm  Tm20  1  0.10040263  0.28815615  0.85396465  1
  Tm  Tm21  1  0.89959737  0.71184385  0.85396465  1
  Tm  Tm22  1  0.21184385  0.39959737  0.64603535  1
  Tm  Tm23  1  0.78815615  0.60040263  0.64603535  1
  Tm  Tm24  1  0.28815615  0.89959737  0.14603535  1
  Tm  Tm25  1  0.71184385  0.10040263  0.14603535  1
  Tm  Tm26  1  0.39959737  0.78815615  0.64603535  1
  Tm  Tm27  1  0.60040263  0.21184385  0.64603535  1
  Tm  Tm28  1  0.89959737  0.71184385  0.14603535  1
  Tm  Tm29  1  0.10040263  0.28815615  0.14603535  1
  C  C30  1  0.50000000  0.50000000  0.95843844  1
  C  C31  1  0.00000000  0.00000000  0.45843844  1
  C  C32  1  0.50000000  0.50000000  0.04156156  1
  C  C33  1  0.00000000  0.00000000  0.54156156  1
  C  C34  1  0.50000000  0.50000000  0.34304537  1
  C  C35  1  0.00000000  0.00000000  0.84304537  1
  C  C36  1  0.50000000  0.50000000  0.65695463  1
  C  C37  1  0.00000000  0.00000000  0.15695463  1
  C  C38  1  0.60611689  0.19657598  0.50000000  1
  C  C39  1  0.39388311  0.80342402  0.50000000  1
  C  C40  1  0.89388311  0.69657598  -0.00000000  1
  C  C41  1  0.10611689  0.30342402  -0.00000000  1
  C  C42  1  0.19657598  0.39388311  0.50000000  1
  C  C43  1  0.80342402  0.60611689  0.50000000  1
  C  C44  1  0.69657598  0.10611689  -0.00000000  1
  C  C45  1  0.30342402  0.89388311  -0.00000000  1
  C  C46  1  0.69292346  0.90193579  0.32841728  1
  C  C47  1  0.30707654  0.09806421  0.32841728  1
  C  C48  1  0.80707654  0.40193579  0.82841728  1
  C  C49  1  0.19292346  0.59806421  0.82841728  1
  C  C50  1  0.90193579  0.30707654  0.32841728  1
  C  C51  1  0.09806421  0.69292346  0.32841728  1
  C  C52  1  0.40193579  0.19292346  0.82841728  1
  C  C53  1  0.59806421  0.80707654  0.82841728  1
  C  C54  1  0.30707654  0.09806421  0.67158272  1
  C  C55  1  0.69292346  0.90193579  0.67158272  1
  C  C56  1  0.19292346  0.59806421  0.17158272  1
  C  C57  1  0.80707654  0.40193579  0.17158272  1
  C  C58  1  0.09806421  0.69292346  0.67158272  1
  C  C59  1  0.90193579  0.30707654  0.67158272  1
  C  C60  1  0.59806421  0.80707654  0.17158272  1
  C  C61  1  0.40193579  0.19292346  0.17158272  1
  C  C62  1  0.64986128  0.85013872  0.25000000  1
  C  C63  1  0.35013872  0.14986128  0.25000000  1
  C  C64  1  0.85013872  0.35013872  0.75000000  1
  C  C65  1  0.14986128  0.64986128  0.75000000  1
  C  C66  1  0.85013872  0.35013872  0.25000000  1
  C  C67  1  0.14986128  0.64986128  0.25000000  1
  C  C68  1  0.35013872  0.14986128  0.75000000  1
  C  C69  1  0.64986128  0.85013872  0.75000000  1
