# generated using pymatgen
data_H15IrBr3N5
_symmetry_space_group_name_H-M   'P 1'
_cell_length_a   7.16737087
_cell_length_b   11.24749021
_cell_length_c   14.59365758
_cell_angle_alpha   90.00000000
_cell_angle_beta   90.00000000
_cell_angle_gamma   90.00000000
_symmetry_Int_Tables_number   1
_chemical_formula_structural   H15IrBr3N5
_chemical_formula_sum   'H60 Ir4 Br12 N20'
_cell_volume   1176.46673813
_cell_formula_units_Z   4
loop_
 _symmetry_equiv_pos_site_id
 _symmetry_equiv_pos_as_xyz
  1  'x, y, z'
loop_
 _atom_site_type_symbol
 _atom_site_label
 _atom_site_symmetry_multiplicity
 _atom_site_fract_x
 _atom_site_fract_y
 _atom_site_fract_z
 _atom_site_occupancy
  H  H0  1  0.13858486  0.82387564  0.31591661  1
  H  H1  1  0.36141514  0.67612436  0.81591661  1
  H  H2  1  0.86141514  0.32387564  0.68408339  1
  H  H3  1  0.63858486  0.17612436  0.18408339  1
  H  H4  1  0.86141514  0.17612436  0.68408339  1
  H  H5  1  0.63858486  0.32387564  0.18408339  1
  H  H6  1  0.13858486  0.67612436  0.31591661  1
  H  H7  1  0.36141514  0.82387564  0.81591661  1
  H  H8  1  0.01673938  0.75000000  0.23810192  1
  H  H9  1  0.48326062  0.75000000  0.73810192  1
  H  H10  1  0.98326062  0.25000000  0.76189808  1
  H  H11  1  0.51673938  0.25000000  0.26189808  1
  H  H12  1  0.60716157  0.82361538  0.53049611  1
  H  H13  1  0.89283843  0.67638462  0.03049611  1
  H  H14  1  0.39283843  0.32361538  0.46950389  1
  H  H15  1  0.10716157  0.17638462  0.96950389  1
  H  H16  1  0.39283843  0.17638462  0.46950389  1
  H  H17  1  0.10716157  0.32361538  0.96950389  1
  H  H18  1  0.60716157  0.67638462  0.53049611  1
  H  H19  1  0.89283843  0.82361538  0.03049611  1
  H  H20  1  0.47304360  0.75000000  0.45812269  1
  H  H21  1  0.02695640  0.75000000  0.95812269  1
  H  H22  1  0.52695640  0.25000000  0.54187731  1
  H  H23  1  0.97304360  0.25000000  0.04187731  1
  H  H24  1  0.73768022  0.97121612  0.34863161  1
  H  H25  1  0.76231978  0.52878388  0.84863161  1
  H  H26  1  0.26231978  0.47121612  0.65136839  1
  H  H27  1  0.23768022  0.02878388  0.15136839  1
  H  H28  1  0.26231978  0.02878388  0.65136839  1
  H  H29  1  0.23768022  0.47121612  0.15136839  1
  H  H30  1  0.73768022  0.52878388  0.34863161  1
  H  H31  1  0.76231978  0.97121612  0.84863161  1
  H  H32  1  0.79030266  0.96972727  0.45869176  1
  H  H33  1  0.70969734  0.53027273  0.95869176  1
  H  H34  1  0.20969734  0.46972727  0.54130824  1
  H  H35  1  0.29030266  0.03027273  0.04130824  1
  H  H36  1  0.20969734  0.03027273  0.54130824  1
  H  H37  1  0.29030266  0.46972727  0.04130824  1
  H  H38  1  0.79030266  0.53027273  0.45869176  1
  H  H39  1  0.70969734  0.96972727  0.95869176  1
  H  H40  1  0.95896631  0.96951146  0.38193013  1
  H  H41  1  0.54103369  0.53048854  0.88193013  1
  H  H42  1  0.04103369  0.46951146  0.61806987  1
  H  H43  1  0.45896631  0.03048854  0.11806987  1
  H  H44  1  0.04103369  0.03048854  0.61806987  1
  H  H45  1  0.45896631  0.46951146  0.11806987  1
  H  H46  1  0.95896631  0.53048854  0.38193013  1
  H  H47  1  0.54103369  0.96951146  0.88193013  1
  H  H48  1  0.55114436  0.82404106  0.28878028  1
  H  H49  1  0.94885564  0.67595894  0.78878028  1
  H  H50  1  0.44885564  0.32404106  0.71121972  1
  H  H51  1  0.05114436  0.17595894  0.21121972  1
  H  H52  1  0.44885564  0.17595894  0.71121972  1
  H  H53  1  0.05114436  0.32404106  0.21121972  1
  H  H54  1  0.55114436  0.67595894  0.28878028  1
  H  H55  1  0.94885564  0.82404106  0.78878028  1
  H  H56  1  0.69661154  0.75000000  0.22192470  1
  H  H57  1  0.80338846  0.75000000  0.72192470  1
  H  H58  1  0.30338846  0.25000000  0.77807530  1
  H  H59  1  0.19661154  0.25000000  0.27807530  1
  Ir  Ir60  1  0.82666799  0.75000000  0.39541611  1
  Ir  Ir61  1  0.67333201  0.75000000  0.89541611  1
  Ir  Ir62  1  0.17333201  0.25000000  0.60458389  1
  Ir  Ir63  1  0.32666799  0.25000000  0.10458389  1
  Br  Br64  1  0.04899351  0.75000000  0.52854397  1
  Br  Br65  1  0.45100649  0.75000000  0.02854397  1
  Br  Br66  1  0.95100649  0.25000000  0.47145603  1
  Br  Br67  1  0.54899351  0.25000000  0.97145603  1
  Br  Br68  1  0.34226099  0.99311769  0.35175666  1
  Br  Br69  1  0.15773901  0.50688231  0.85175666  1
  Br  Br70  1  0.65773901  0.49311769  0.64824334  1
  Br  Br71  1  0.84226099  0.00688231  0.14824334  1
  Br  Br72  1  0.65773901  0.00688231  0.64824334  1
  Br  Br73  1  0.84226099  0.49311769  0.14824334  1
  Br  Br74  1  0.34226099  0.50688231  0.35175666  1
  Br  Br75  1  0.15773901  0.99311769  0.85175666  1
  N  N76  1  0.05455658  0.75000000  0.30570512  1
  N  N77  1  0.44544342  0.75000000  0.80570512  1
  N  N78  1  0.94544342  0.25000000  0.69429488  1
  N  N79  1  0.55455658  0.25000000  0.19429488  1
  N  N80  1  0.60232446  0.75000000  0.48835406  1
  N  N81  1  0.89767554  0.75000000  0.98835406  1
  N  N82  1  0.39767554  0.25000000  0.51164594  1
  N  N83  1  0.10232446  0.25000000  0.01164594  1
  N  N84  1  0.82811046  0.93599266  0.39614594  1
  N  N85  1  0.67188954  0.56400734  0.89614594  1
  N  N86  1  0.17188954  0.43599266  0.60385406  1
  N  N87  1  0.32811046  0.06400734  0.10385406  1
  N  N88  1  0.17188954  0.06400734  0.60385406  1
  N  N89  1  0.32811046  0.43599266  0.10385406  1
  N  N90  1  0.82811046  0.56400734  0.39614594  1
  N  N91  1  0.67188954  0.93599266  0.89614594  1
  N  N92  1  0.63635938  0.75000000  0.28588688  1
  N  N93  1  0.86364062  0.75000000  0.78588688  1
  N  N94  1  0.36364062  0.25000000  0.71411312  1
  N  N95  1  0.13635938  0.25000000  0.21411312  1
