# generated using pymatgen
data_NpI2O9
_symmetry_space_group_name_H-M   'P 1'
_cell_length_a   7.96484811
_cell_length_b   8.31592802
_cell_length_c   12.53700876
_cell_angle_alpha   90.00000000
_cell_angle_beta   90.00000000
_cell_angle_gamma   90.00000000
_symmetry_Int_Tables_number   1
_chemical_formula_structural   NpI2O9
_chemical_formula_sum   'Np4 I8 O36'
_cell_volume   830.39007371
_cell_formula_units_Z   4
loop_
 _symmetry_equiv_pos_site_id
 _symmetry_equiv_pos_as_xyz
  1  'x, y, z'
loop_
 _atom_site_type_symbol
 _atom_site_label
 _atom_site_symmetry_multiplicity
 _atom_site_fract_x
 _atom_site_fract_y
 _atom_site_fract_z
 _atom_site_occupancy
  Np  Np0  1  0.92890578  0.50000000  0.25000000  1
  Np  Np1  1  0.57109422  0.00000000  0.75000000  1
  Np  Np2  1  0.07109422  0.50000000  0.75000000  1
  Np  Np3  1  0.42890578  0.00000000  0.25000000  1
  I  I4  1  0.10011326  0.82291896  0.04195533  1
  I  I5  1  0.39988674  0.67708104  0.54195533  1
  I  I6  1  0.39988674  0.32291896  0.95804467  1
  I  I7  1  0.10011326  0.17708104  0.45804467  1
  I  I8  1  0.89988674  0.17708104  0.95804467  1
  I  I9  1  0.60011326  0.32291896  0.45804467  1
  I  I10  1  0.60011326  0.67708104  0.04195533  1
  I  I11  1  0.89988674  0.82291896  0.54195533  1
  O  O12  1  0.91716668  0.32072647  0.16942150  1
  O  O13  1  0.58283332  0.17927353  0.66942150  1
  O  O14  1  0.58283332  0.82072647  0.83057850  1
  O  O15  1  0.91716668  0.67927353  0.33057850  1
  O  O16  1  0.08283332  0.67927353  0.83057850  1
  O  O17  1  0.41716668  0.82072647  0.33057850  1
  O  O18  1  0.41716668  0.17927353  0.16942150  1
  O  O19  1  0.08283332  0.32072647  0.66942150  1
  O  O20  1  0.18296444  0.50000000  0.25000000  1
  O  O21  1  0.31703556  -0.00000000  0.75000000  1
  O  O22  1  0.81703556  0.50000000  0.75000000  1
  O  O23  1  0.68296444  -0.00000000  0.25000000  1
  O  O24  1  0.02654849  0.62494303  0.09826328  1
  O  O25  1  0.47345151  0.87505697  0.59826328  1
  O  O26  1  0.47345151  0.12494303  0.90173672  1
  O  O27  1  0.02654849  0.37505697  0.40173672  1
  O  O28  1  0.97345151  0.37505697  0.90173672  1
  O  O29  1  0.52654849  0.12494303  0.40173672  1
  O  O30  1  0.52654849  0.87505697  0.09826328  1
  O  O31  1  0.97345151  0.62494303  0.59826328  1
  O  O32  1  0.88127793  0.89544871  0.03437265  1
  O  O33  1  0.61872207  0.60455129  0.53437265  1
  O  O34  1  0.61872207  0.39544871  0.96562735  1
  O  O35  1  0.88127793  0.10455129  0.46562735  1
  O  O36  1  0.11872207  0.10455129  0.96562735  1
  O  O37  1  0.38127793  0.39544871  0.46562735  1
  O  O38  1  0.38127793  0.60455129  0.03437265  1
  O  O39  1  0.11872207  0.89544871  0.53437265  1
  O  O40  1  0.17231400  0.91021854  0.16658389  1
  O  O41  1  0.32768600  0.58978146  0.66658389  1
  O  O42  1  0.32768600  0.41021854  0.83341611  1
  O  O43  1  0.17231400  0.08978146  0.33341611  1
  O  O44  1  0.82768600  0.08978146  0.83341611  1
  O  O45  1  0.67231400  0.41021854  0.33341611  1
  O  O46  1  0.67231400  0.58978146  0.16658389  1
  O  O47  1  0.82768600  0.91021854  0.66658389  1
