# generated using pymatgen
data_Pr3(TaN3)2
_symmetry_space_group_name_H-M   'P 1'
_cell_length_a   4.06559423
_cell_length_b   4.06559423
_cell_length_c   10.43380345
_cell_angle_alpha   101.23467361
_cell_angle_beta   101.23467361
_cell_angle_gamma   90.00000000
_symmetry_Int_Tables_number   1
_chemical_formula_structural   Pr3(TaN3)2
_chemical_formula_sum   'Pr3 Ta2 N6'
_cell_volume   165.78547215
_cell_formula_units_Z   1
loop_
 _symmetry_equiv_pos_site_id
 _symmetry_equiv_pos_as_xyz
  1  'x, y, z'
loop_
 _atom_site_type_symbol
 _atom_site_label
 _atom_site_symmetry_multiplicity
 _atom_site_fract_x
 _atom_site_fract_y
 _atom_site_fract_z
 _atom_site_occupancy
  Pr  Pr0  1  0.18051743  0.18051743  0.36103486  1
  Pr  Pr1  1  0.81948257  0.81948257  0.63896514  1
  Pr  Pr2  1  -0.00000000  0.00000000  0.00000000  1
  Ta  Ta3  1  0.39958868  0.39958868  0.79917737  1
  Ta  Ta4  1  0.60041132  0.60041132  0.20082263  1
  N  N5  1  0.08474269  0.58474269  0.16948537  1
  N  N6  1  0.91525731  0.41525731  0.83051463  1
  N  N7  1  0.58474269  0.08474269  0.16948537  1
  N  N8  1  0.41525731  0.91525731  0.83051463  1
  N  N9  1  0.30190360  0.30190360  0.60380720  1
  N  N10  1  0.69809640  0.69809640  0.39619280  1
