# generated using pymatgen
data_AgSbS2
_symmetry_space_group_name_H-M   'P 1'
_cell_length_a   4.55676744
_cell_length_b   6.91275883
_cell_length_c   13.30338083
_cell_angle_alpha   97.70256449
_cell_angle_beta   90.00000000
_cell_angle_gamma   109.24395404
_symmetry_Int_Tables_number   1
_chemical_formula_structural   AgSbS2
_chemical_formula_sum   'Ag4 Sb4 S8'
_cell_volume   391.63209261
_cell_formula_units_Z   4
loop_
 _symmetry_equiv_pos_site_id
 _symmetry_equiv_pos_as_xyz
  1  'x, y, z'
loop_
 _atom_site_type_symbol
 _atom_site_label
 _atom_site_symmetry_multiplicity
 _atom_site_fract_x
 _atom_site_fract_y
 _atom_site_fract_z
 _atom_site_occupancy
  Ag  Ag0  1  0.00311612  0.99192411  0.25426020  1
  Ag  Ag1  1  0.98880799  0.99192411  0.75426020  1
  Ag  Ag2  1  0.50419991  0.98649125  0.00416034  1
  Ag  Ag3  1  0.48229133  0.98649125  0.50416034  1
  Sb  Sb4  1  0.71060435  0.47873242  0.88161137  1
  Sb  Sb5  1  0.76812807  0.47873242  0.38161137  1
  Sb  Sb6  1  0.28355604  0.50203303  0.13455593  1
  Sb  Sb7  1  0.21847699  0.50203303  0.63455593  1
  S  S8  1  0.19857224  0.70289302  0.80840264  1
  S  S9  1  0.50432077  0.70289302  0.30840264  1
  S  S10  1  0.78928959  0.28401913  0.20595842  1
  S  S11  1  0.49472954  0.28401913  0.70595842  1
  S  S12  1  0.07779350  0.77255384  0.08981738  1
  S  S13  1  0.69476034  0.77255384  0.58981738  1
  S  S14  1  0.92716636  0.20975320  0.92123371  1
  S  S15  1  0.28258685  0.20975320  0.42123371  1
