# generated using pymatgen
data_ZrSCl6O
_symmetry_space_group_name_H-M   'P 1'
_cell_length_a   6.92448942
_cell_length_b   7.57434434
_cell_length_c   22.33118150
_cell_angle_alpha   90.00000000
_cell_angle_beta   90.00000000
_cell_angle_gamma   114.20688605
_symmetry_Int_Tables_number   1
_chemical_formula_structural   ZrSCl6O
_chemical_formula_sum   'Zr4 S4 Cl24 O4'
_cell_volume   1068.25042607
_cell_formula_units_Z   4
loop_
 _symmetry_equiv_pos_site_id
 _symmetry_equiv_pos_as_xyz
  1  'x, y, z'
loop_
 _atom_site_type_symbol
 _atom_site_label
 _atom_site_symmetry_multiplicity
 _atom_site_fract_x
 _atom_site_fract_y
 _atom_site_fract_z
 _atom_site_occupancy
  Zr  Zr0  1  0.99701470  0.34329431  0.42501647  1
  Zr  Zr1  1  0.99701470  0.84329431  0.07498353  1
  Zr  Zr2  1  0.00298530  0.65670569  0.57498353  1
  Zr  Zr3  1  0.00298530  0.15670569  0.92501647  1
  S  S4  1  0.37513043  0.82253284  0.35896366  1
  S  S5  1  0.37513043  0.32253284  0.14103634  1
  S  S6  1  0.62486957  0.17746716  0.64103634  1
  S  S7  1  0.62486957  0.67746716  0.85896366  1
  Cl  Cl8  1  0.76009299  0.04690967  0.46647372  1
  Cl  Cl9  1  0.76009299  0.54690967  0.03352628  1
  Cl  Cl10  1  0.23990701  0.95309033  0.53352628  1
  Cl  Cl11  1  0.23990701  0.45309033  0.96647372  1
  Cl  Cl12  1  0.20243617  0.46231517  0.52579431  1
  Cl  Cl13  1  0.20243617  0.96231517  0.97420569  1
  Cl  Cl14  1  0.79756383  0.53768483  0.47420569  1
  Cl  Cl15  1  0.79756383  0.03768483  0.02579431  1
  Cl  Cl16  1  0.81441350  0.32418482  0.33286909  1
  Cl  Cl17  1  0.81441350  0.82418482  0.16713091  1
  Cl  Cl18  1  0.18558650  0.67581518  0.66713091  1
  Cl  Cl19  1  0.18558650  0.17581518  0.83286909  1
  Cl  Cl20  1  0.25828181  0.24121261  0.38942841  1
  Cl  Cl21  1  0.25828181  0.74121261  0.11057159  1
  Cl  Cl22  1  0.74171819  0.75878739  0.61057159  1
  Cl  Cl23  1  0.74171819  0.25878739  0.88942841  1
  Cl  Cl24  1  0.21468915  0.81853699  0.28040658  1
  Cl  Cl25  1  0.21468915  0.31853699  0.21959342  1
  Cl  Cl26  1  0.78531085  0.18146301  0.71959342  1
  Cl  Cl27  1  0.78531085  0.68146301  0.78040658  1
  Cl  Cl28  1  0.60212708  0.73849376  0.32526755  1
  Cl  Cl29  1  0.60212708  0.23849376  0.17473245  1
  Cl  Cl30  1  0.39787292  0.26150624  0.67473245  1
  Cl  Cl31  1  0.39787292  0.76150624  0.82526755  1
  O  O32  1  0.22983269  0.66038390  0.39569573  1
  O  O33  1  0.22983269  0.16038390  0.10430427  1
  O  O34  1  0.77016731  0.33961610  0.60430427  1
  O  O35  1  0.77016731  0.83961610  0.89569573  1
