# generated using pymatgen
data_Ba2NdGaSe5
_symmetry_space_group_name_H-M   'P 1'
_cell_length_a   7.43830194
_cell_length_b   8.94167080
_cell_length_c   9.65041336
_cell_angle_alpha   103.78905340
_cell_angle_beta   102.89851960
_cell_angle_gamma   107.66865951
_symmetry_Int_Tables_number   1
_chemical_formula_structural   Ba2NdGaSe5
_chemical_formula_sum   'Ba4 Nd2 Ga2 Se10'
_cell_volume   562.84125257
_cell_formula_units_Z   2
loop_
 _symmetry_equiv_pos_site_id
 _symmetry_equiv_pos_as_xyz
  1  'x, y, z'
loop_
 _atom_site_type_symbol
 _atom_site_label
 _atom_site_symmetry_multiplicity
 _atom_site_fract_x
 _atom_site_fract_y
 _atom_site_fract_z
 _atom_site_occupancy
  Ba  Ba0  1  0.63504764  0.97862954  0.29474730  1
  Ba  Ba1  1  0.36495236  0.02137046  0.70525270  1
  Ba  Ba2  1  0.33834438  0.50867397  0.70400425  1
  Ba  Ba3  1  0.66165562  0.49132603  0.29599575  1
  Nd  Nd4  1  0.99704023  0.73151088  0.99717711  1
  Nd  Nd5  1  0.00295977  0.26848912  0.00282289  1
  Ga  Ga6  1  0.80371593  0.87070153  0.68635847  1
  Ga  Ga7  1  0.19628407  0.12929847  0.31364153  1
  Se  Se8  1  0.98820065  0.68689288  0.67881663  1
  Se  Se9  1  0.01179935  0.31310712  0.32118337  1
  Se  Se10  1  0.98181656  0.14707715  0.68317534  1
  Se  Se11  1  0.01818344  0.85292285  0.31682466  1
  Se  Se12  1  0.70399832  0.90472862  0.92014162  1
  Se  Se13  1  0.29600168  0.09527138  0.07985838  1
  Se  Se14  1  0.69812179  0.40822621  0.94467239  1
  Se  Se15  1  0.30187821  0.59177379  0.05532761  1
  Se  Se16  1  0.48821572  0.73946472  0.49180242  1
  Se  Se17  1  0.51178428  0.26053528  0.50819758  1
