# generated using pymatgen
data_K2FeF5
_symmetry_space_group_name_H-M   'P 1'
_cell_length_a   5.82365425
_cell_length_b   7.22982729
_cell_length_c   7.48776904
_cell_angle_alpha   115.20283185
_cell_angle_beta   90.00000000
_cell_angle_gamma   113.75032623
_symmetry_Int_Tables_number   1
_chemical_formula_structural   K2FeF5
_chemical_formula_sum   'K4 Fe2 F10'
_cell_volume   255.43574650
_cell_formula_units_Z   2
loop_
 _symmetry_equiv_pos_site_id
 _symmetry_equiv_pos_as_xyz
  1  'x, y, z'
loop_
 _atom_site_type_symbol
 _atom_site_label
 _atom_site_symmetry_multiplicity
 _atom_site_fract_x
 _atom_site_fract_y
 _atom_site_fract_z
 _atom_site_occupancy
  K  K0  1  0.47602827  0.95205655  0.75120939  1
  K  K1  1  0.52397173  0.04794345  0.24879061  1
  K  K2  1  0.16653817  0.33307634  0.77280007  1
  K  K3  1  0.83346183  0.66692366  0.22719993  1
  Fe  Fe4  1  0.18962597  0.37925194  0.28479195  1
  Fe  Fe5  1  0.81037403  0.62074806  0.71520805  1
  F  F6  1  0.00000000  0.50000000  0.50000000  1
  F  F7  1  0.50000000  0.50000000  0.50000000  1
  F  F8  1  0.05726676  0.11453352  0.32958540  1
  F  F9  1  0.94273324  0.88546648  0.67041460  1
  F  F10  1  0.34293446  0.68586891  0.31016895  1
  F  F11  1  0.65706554  0.31413109  0.68983105  1
  F  F12  1  0.89780026  0.27754404  0.08497360  1
  F  F13  1  0.37974378  0.27754404  0.08497360  1
  F  F14  1  0.10219974  0.72245596  0.91502640  1
  F  F15  1  0.62025622  0.72245596  0.91502640  1
