# generated using pymatgen
data_NdSiRu2C
_symmetry_space_group_name_H-M   'P 1'
_cell_length_a   3.92827311
_cell_length_b   5.90604229
_cell_length_c   7.23857707
_cell_angle_alpha   90.00000000
_cell_angle_beta   90.00000000
_cell_angle_gamma   109.42447388
_symmetry_Int_Tables_number   1
_chemical_formula_structural   NdSiRu2C
_chemical_formula_sum   'Nd2 Si2 Ru4 C2'
_cell_volume   158.37997906
_cell_formula_units_Z   2
loop_
 _symmetry_equiv_pos_site_id
 _symmetry_equiv_pos_as_xyz
  1  'x, y, z'
loop_
 _atom_site_type_symbol
 _atom_site_label
 _atom_site_symmetry_multiplicity
 _atom_site_fract_x
 _atom_site_fract_y
 _atom_site_fract_z
 _atom_site_occupancy
  Nd  Nd0  1  0.45071994  0.90143989  0.25000000  1
  Nd  Nd1  1  0.54928006  0.09856011  0.75000000  1
  Si  Si2  1  0.72911826  0.45823652  0.25000000  1
  Si  Si3  1  0.27088174  0.54176348  0.75000000  1
  Ru  Ru4  1  0.16467310  0.32934620  0.05908114  1
  Ru  Ru5  1  0.83532690  0.67065380  0.94091886  1
  Ru  Ru6  1  0.83532690  0.67065380  0.55908114  1
  Ru  Ru7  1  0.16467310  0.32934620  0.44091886  1
  C  C8  1  0.00000000  0.00000000  0.00000000  1
  C  C9  1  0.00000000  0.00000000  0.50000000  1
