# generated using pymatgen
data_ThSiRu2C
_symmetry_space_group_name_H-M   'P 1'
_cell_length_a   3.95256609
_cell_length_b   5.96237214
_cell_length_c   7.20666003
_cell_angle_alpha   90.00000000
_cell_angle_beta   90.00000000
_cell_angle_gamma   109.35736643
_symmetry_Int_Tables_number   1
_chemical_formula_structural   ThSiRu2C
_chemical_formula_sum   'Th2 Si2 Ru4 C2'
_cell_volume   160.23601861
_cell_formula_units_Z   2
loop_
 _symmetry_equiv_pos_site_id
 _symmetry_equiv_pos_as_xyz
  1  'x, y, z'
loop_
 _atom_site_type_symbol
 _atom_site_label
 _atom_site_symmetry_multiplicity
 _atom_site_fract_x
 _atom_site_fract_y
 _atom_site_fract_z
 _atom_site_occupancy
  Th  Th0  1  0.44646363  0.89292727  0.25000000  1
  Th  Th1  1  0.55353637  0.10707273  0.75000000  1
  Si  Si2  1  0.72771002  0.45542004  0.25000000  1
  Si  Si3  1  0.27228998  0.54457996  0.75000000  1
  Ru  Ru4  1  0.16465019  0.32930038  0.05622467  1
  Ru  Ru5  1  0.83534981  0.67069962  0.94377533  1
  Ru  Ru6  1  0.83534981  0.67069962  0.55622467  1
  Ru  Ru7  1  0.16465019  0.32930038  0.44377533  1
  C  C8  1  -0.00000000  -0.00000000  -0.00000000  1
  C  C9  1  -0.00000000  -0.00000000  0.50000000  1
