# generated using pymatgen
data_Rb3PbO3
_symmetry_space_group_name_H-M   'P 1'
_cell_length_a   7.35154537
_cell_length_b   7.35154537
_cell_length_c   7.31064062
_cell_angle_alpha   85.66203515
_cell_angle_beta   94.33796485
_cell_angle_gamma   64.71372377
_symmetry_Int_Tables_number   1
_chemical_formula_structural   Rb3PbO3
_chemical_formula_sum   'Rb6 Pb2 O6'
_cell_volume   353.66217728
_cell_formula_units_Z   2
loop_
 _symmetry_equiv_pos_site_id
 _symmetry_equiv_pos_as_xyz
  1  'x, y, z'
loop_
 _atom_site_type_symbol
 _atom_site_label
 _atom_site_symmetry_multiplicity
 _atom_site_fract_x
 _atom_site_fract_y
 _atom_site_fract_z
 _atom_site_occupancy
  Rb  Rb0  1  0.36092297  0.63907703  0.64276026  1
  Rb  Rb1  1  0.80410483  0.80410483  0.50000000  1
  Rb  Rb2  1  0.19589517  0.19589517  0.50000000  1
  Rb  Rb3  1  0.25627152  0.25627152  0.00000000  1
  Rb  Rb4  1  0.74372848  0.74372848  0.00000000  1
  Rb  Rb5  1  0.63907703  0.36092297  0.35723974  1
  Pb  Pb6  1  0.19412627  0.80587373  0.14137375  1
  Pb  Pb7  1  0.80587373  0.19412627  0.85862625  1
  O  O8  1  0.08307898  0.91692102  0.82715401  1
  O  O9  1  0.16151093  0.54736250  0.27841479  1
  O  O10  1  0.45263750  0.83848907  0.27841479  1
  O  O11  1  0.54736250  0.16151093  0.72158521  1
  O  O12  1  0.83848907  0.45263750  0.72158521  1
  O  O13  1  0.91692102  0.08307898  0.17284599  1
