# generated using pymatgen
data_TmSiRu2C
_symmetry_space_group_name_H-M   'P 1'
_cell_length_a   3.75906232
_cell_length_b   5.89132208
_cell_length_c   7.12823944
_cell_angle_alpha   90.00000000
_cell_angle_beta   90.00000000
_cell_angle_gamma   108.60450626
_symmetry_Int_Tables_number   1
_chemical_formula_structural   TmSiRu2C
_chemical_formula_sum   'Tm2 Si2 Ru4 C2'
_cell_volume   149.61161251
_cell_formula_units_Z   2
loop_
 _symmetry_equiv_pos_site_id
 _symmetry_equiv_pos_as_xyz
  1  'x, y, z'
loop_
 _atom_site_type_symbol
 _atom_site_label
 _atom_site_symmetry_multiplicity
 _atom_site_fract_x
 _atom_site_fract_y
 _atom_site_fract_z
 _atom_site_occupancy
  Tm  Tm0  1  0.45430171  0.90860341  0.25000000  1
  Tm  Tm1  1  0.54569829  0.09139659  0.75000000  1
  Si  Si2  1  0.73240761  0.46481521  0.25000000  1
  Si  Si3  1  0.26759239  0.53518479  0.75000000  1
  Ru  Ru4  1  0.16323719  0.32647438  0.05586842  1
  Ru  Ru5  1  0.83676281  0.67352562  0.94413158  1
  Ru  Ru6  1  0.83676281  0.67352562  0.55586842  1
  Ru  Ru7  1  0.16323719  0.32647438  0.44413158  1
  C  C8  1  -0.00000000  0.00000000  0.00000000  1
  C  C9  1  -0.00000000  -0.00000000  0.50000000  1
