# generated using pymatgen
data_YPRu2C
_symmetry_space_group_name_H-M   'P 1'
_cell_length_a   3.79720486
_cell_length_b   5.85338852
_cell_length_c   7.07003917
_cell_angle_alpha   90.00000000
_cell_angle_beta   90.00000000
_cell_angle_gamma   108.92677285
_symmetry_Int_Tables_number   1
_chemical_formula_structural   YPRu2C
_chemical_formula_sum   'Y2 P2 Ru4 C2'
_cell_volume   148.64626046
_cell_formula_units_Z   2
loop_
 _symmetry_equiv_pos_site_id
 _symmetry_equiv_pos_as_xyz
  1  'x, y, z'
loop_
 _atom_site_type_symbol
 _atom_site_label
 _atom_site_symmetry_multiplicity
 _atom_site_fract_x
 _atom_site_fract_y
 _atom_site_fract_z
 _atom_site_occupancy
  Y  Y0  1  0.45562262  0.91124525  0.25000000  1
  Y  Y1  1  0.54437738  0.08875475  0.75000000  1
  P  P2  1  0.73195844  0.46391688  0.25000000  1
  P  P3  1  0.26804156  0.53608312  0.75000000  1
  Ru  Ru4  1  0.16528243  0.33056486  0.05310151  1
  Ru  Ru5  1  0.83471757  0.66943514  0.94689849  1
  Ru  Ru6  1  0.83471757  0.66943514  0.55310151  1
  Ru  Ru7  1  0.16528243  0.33056486  0.44689849  1
  C  C8  1  0.00000000  0.00000000  0.00000000  1
  C  C9  1  0.00000000  0.00000000  0.50000000  1
