# generated using pymatgen
data_Li4NbCu3O8
_symmetry_space_group_name_H-M   'P 1'
_cell_length_a   10.87810893
_cell_length_b   10.19722823
_cell_length_c   14.72149619
_cell_angle_alpha   19.61415169
_cell_angle_beta   19.79047044
_cell_angle_gamma   34.38947625
_symmetry_Int_Tables_number   1
_chemical_formula_structural   Li4NbCu3O8
_chemical_formula_sum   'Li4 Nb1 Cu3 O8'
_cell_volume   156.47854324
_cell_formula_units_Z   1
loop_
 _symmetry_equiv_pos_site_id
 _symmetry_equiv_pos_as_xyz
  1  'x, y, z'
loop_
 _atom_site_type_symbol
 _atom_site_label
 _atom_site_symmetry_multiplicity
 _atom_site_fract_x
 _atom_site_fract_y
 _atom_site_fract_z
 _atom_site_occupancy
  Li  Li0  1  0.99998635  0.99999233  0.50001189  1
  Li  Li1  1  0.99998530  0.49997890  0.50002234  1
  Li  Li2  1  0.49997115  0.99997548  0.50003644  1
  Li  Li3  1  0.50000225  0.49999120  0.50000735  1
  Nb  Nb4  1  0.00005432  0.00005083  0.99994719  1
  Cu  Cu5  1  0.00000537  0.49999323  -0.00000383  1
  Cu  Cu6  1  0.50003298  0.00004736  0.99994479  1
  Cu  Cu7  1  0.49998320  0.49998567  0.00001570  1
  O  O8  1  0.01018424  0.00023611  0.26086025  1
  O  O9  1  0.95685709  0.51543917  0.26329056  1
  O  O10  1  0.52727746  0.00043637  0.24706756  1
  O  O11  1  0.98981025  0.99973896  0.73915388  1
  O  O12  1  0.44107678  0.48304591  0.29506947  1
  O  O13  1  0.04315287  0.48459394  0.73668456  1
  O  O14  1  0.47270607  0.99954836  0.75294911  1
  O  O15  1  0.55891333  0.51694517  0.70494174  1
