# generated using pymatgen
data_ErRe2SiC
_symmetry_space_group_name_H-M   'P 1'
_cell_length_a   3.93041620
_cell_length_b   5.79725420
_cell_length_c   7.30025324
_cell_angle_alpha   90.00000000
_cell_angle_beta   90.00000000
_cell_angle_gamma   109.81531878
_symmetry_Int_Tables_number   1
_chemical_formula_structural   ErRe2SiC
_chemical_formula_sum   'Er2 Re4 Si2 C2'
_cell_volume   156.49179836
_cell_formula_units_Z   2
loop_
 _symmetry_equiv_pos_site_id
 _symmetry_equiv_pos_as_xyz
  1  'x, y, z'
loop_
 _atom_site_type_symbol
 _atom_site_label
 _atom_site_symmetry_multiplicity
 _atom_site_fract_x
 _atom_site_fract_y
 _atom_site_fract_z
 _atom_site_occupancy
  Er  Er0  1  0.45689596  0.91379192  0.25000000  1
  Er  Er1  1  0.54310404  0.08620808  0.75000000  1
  Re  Re2  1  0.17370064  0.34740128  0.06059660  1
  Re  Re3  1  0.82629936  0.65259872  0.93940340  1
  Re  Re4  1  0.82629936  0.65259872  0.56059660  1
  Re  Re5  1  0.17370064  0.34740128  0.43940340  1
  Si  Si6  1  0.73476711  0.46953421  0.25000000  1
  Si  Si7  1  0.26523289  0.53046579  0.75000000  1
  C  C8  1  -0.00000000  -0.00000000  -0.00000000  1
  C  C9  1  -0.00000000  -0.00000000  0.50000000  1
