# generated using pymatgen
data_La4B2N5
_symmetry_space_group_name_H-M   'P 1'
_cell_length_a   3.68532554
_cell_length_b   6.58228949
_cell_length_c   7.33639629
_cell_angle_alpha   82.44711076
_cell_angle_beta   75.45340290
_cell_angle_gamma   73.74322528
_symmetry_Int_Tables_number   1
_chemical_formula_structural   La4B2N5
_chemical_formula_sum   'La4 B2 N5'
_cell_volume   165.01475810
_cell_formula_units_Z   1
loop_
 _symmetry_equiv_pos_site_id
 _symmetry_equiv_pos_as_xyz
  1  'x, y, z'
loop_
 _atom_site_type_symbol
 _atom_site_label
 _atom_site_symmetry_multiplicity
 _atom_site_fract_x
 _atom_site_fract_y
 _atom_site_fract_z
 _atom_site_occupancy
  La  La0  1  0.81223430  0.76131174  0.61421966  1
  La  La1  1  0.18776570  0.23868826  0.38578034  1
  La  La2  1  0.57673930  0.69131578  0.15520562  1
  La  La3  1  0.42326070  0.30868422  0.84479438  1
  B  B4  1  0.91157045  0.06682879  0.11003032  1
  B  B5  1  0.08842955  0.93317121  0.88996968  1
  N  N6  1  0.88346335  0.93923974  0.29383356  1
  N  N7  1  0.11653665  0.06076026  0.70616644  1
  N  N8  1  0.79861897  0.30138398  0.10137808  1
  N  N9  1  0.20138103  0.69861602  0.89862192  1
  N  N10  1  0.50000000  0.50000000  0.50000000  1
