# generated using pymatgen
data_Tm2MgCu2
_symmetry_space_group_name_H-M   'P 1'
_cell_length_a   3.52625596
_cell_length_b   7.60863191
_cell_length_c   7.60863191
_cell_angle_alpha   90.00000000
_cell_angle_beta   90.00000000
_cell_angle_gamma   90.00000000
_symmetry_Int_Tables_number   1
_chemical_formula_structural   Tm2MgCu2
_chemical_formula_sum   'Tm4 Mg2 Cu4'
_cell_volume   204.13946952
_cell_formula_units_Z   2
loop_
 _symmetry_equiv_pos_site_id
 _symmetry_equiv_pos_as_xyz
  1  'x, y, z'
loop_
 _atom_site_type_symbol
 _atom_site_label
 _atom_site_symmetry_multiplicity
 _atom_site_fract_x
 _atom_site_fract_y
 _atom_site_fract_z
 _atom_site_occupancy
  Tm  Tm0  1  0.50000000  0.17063841  0.67063841  1
  Tm  Tm1  1  0.50000000  0.82936159  0.32936159  1
  Tm  Tm2  1  0.50000000  0.32936159  0.17063841  1
  Tm  Tm3  1  0.50000000  0.67063841  0.82936159  1
  Mg  Mg4  1  0.00000000  -0.00000000  0.00000000  1
  Mg  Mg5  1  0.00000000  0.50000000  0.50000000  1
  Cu  Cu6  1  0.00000000  0.62149518  0.12149518  1
  Cu  Cu7  1  -0.00000000  0.37850482  0.87850482  1
  Cu  Cu8  1  -0.00000000  0.87850482  0.62149518  1
  Cu  Cu9  1  0.00000000  0.12149518  0.37850482  1
