# generated using pymatgen
data_Li2Cu2Si8O19
_symmetry_space_group_name_H-M   'P 1'
_cell_length_a   4.92570800
_cell_length_b   7.20734311
_cell_length_c   12.41408554
_cell_angle_alpha   72.55336399
_cell_angle_beta   89.95819428
_cell_angle_gamma   69.78288727
_symmetry_Int_Tables_number   1
_chemical_formula_structural   Li2Cu2Si8O19
_chemical_formula_sum   'Li2 Cu2 Si8 O19'
_cell_volume   391.92388189
_cell_formula_units_Z   1
loop_
 _symmetry_equiv_pos_site_id
 _symmetry_equiv_pos_as_xyz
  1  'x, y, z'
loop_
 _atom_site_type_symbol
 _atom_site_label
 _atom_site_symmetry_multiplicity
 _atom_site_fract_x
 _atom_site_fract_y
 _atom_site_fract_z
 _atom_site_occupancy
  Li  Li0  1  0.74980885  0.79296867  0.63105456  1
  Li  Li1  1  0.54887133  0.21154158  0.36487569  1
  Cu  Cu2  1  0.67178360  0.60009004  0.40468565  1
  Cu  Cu3  1  0.26806555  0.39477431  0.59734405  1
  Si  Si4  1  0.47322972  0.75669234  0.93029128  1
  Si  Si5  1  0.87429924  0.97982292  0.16788771  1
  Si  Si6  1  0.07110473  0.85999911  0.42120256  1
  Si  Si7  1  0.33746754  0.44200006  0.82898307  1
  Si  Si8  1  0.78017577  0.55674075  0.17215785  1
  Si  Si9  1  0.92936389  0.13796910  0.57841981  1
  Si  Si10  1  0.85449634  0.01758830  0.83205462  1
  Si  Si11  1  0.23038594  0.24017203  0.07028143  1
  O  O12  1  0.17739681  0.96674635  0.89170524  1
  O  O13  1  0.74637007  0.83342541  0.90316369  1
  O  O14  1  0.87655725  0.00142551  0.29560867  1
  O  O15  1  0.40255035  0.84941189  0.42847558  1
  O  O16  1  0.45928238  0.61352114  0.85274506  1
  O  O17  1  0.02963627  0.63464867  0.45778440  1
  O  O18  1  0.13524506  0.53781017  0.70808547  1
  O  O19  1  0.88109051  0.75087097  0.17405425  1
  O  O20  1  0.15592905  0.36980167  0.93512714  1
  O  O21  1  0.52419045  0.63222056  0.06614229  1
  O  O22  1  0.63304508  0.24566457  0.82798439  1
  O  O23  1  0.67180240  0.46186852  0.29242161  1
  O  O24  1  0.66266319  0.36457566  0.54244212  1
  O  O25  1  0.07152514  0.38235563  0.14856384  1
  O  O26  1  0.25143270  0.14672471  0.57208407  1
  O  O27  1  0.87589554  0.99727449  0.70395959  1
  O  O28  1  0.87287325  0.00000168  0.49922997  1
  O  O29  1  0.58104367  0.16461785  0.09644794  1
  O  O30  1  0.14519334  0.03078931  0.10755340  1
