# generated using pymatgen
data_Er2CdCu2
_symmetry_space_group_name_H-M   'P 1'
_cell_length_a   3.61683313
_cell_length_b   7.56436070
_cell_length_c   7.56436070
_cell_angle_alpha   90.00000000
_cell_angle_beta   90.00000000
_cell_angle_gamma   90.00000000
_symmetry_Int_Tables_number   1
_chemical_formula_structural   Er2CdCu2
_chemical_formula_sum   'Er4 Cd2 Cu4'
_cell_volume   206.95357425
_cell_formula_units_Z   2
loop_
 _symmetry_equiv_pos_site_id
 _symmetry_equiv_pos_as_xyz
  1  'x, y, z'
loop_
 _atom_site_type_symbol
 _atom_site_label
 _atom_site_symmetry_multiplicity
 _atom_site_fract_x
 _atom_site_fract_y
 _atom_site_fract_z
 _atom_site_occupancy
  Er  Er0  1  0.50000000  0.17744513  0.67744513  1
  Er  Er1  1  0.50000000  0.82255487  0.32255487  1
  Er  Er2  1  0.50000000  0.32255487  0.17744513  1
  Er  Er3  1  0.50000000  0.67744513  0.82255487  1
  Cd  Cd4  1  0.00000000  -0.00000000  -0.00000000  1
  Cd  Cd5  1  0.00000000  0.50000000  0.50000000  1
  Cu  Cu6  1  -0.00000000  0.61696266  0.11696266  1
  Cu  Cu7  1  0.00000000  0.38303734  0.88303734  1
  Cu  Cu8  1  -0.00000000  0.88303734  0.61696266  1
  Cu  Cu9  1  0.00000000  0.11696266  0.38303734  1
