# generated using pymatgen
data_Zn10Ge(B4Rh9)2
_symmetry_space_group_name_H-M   'P 1'
_cell_length_a   2.88088762
_cell_length_b   17.89231153
_cell_length_c   17.89231153
_cell_angle_alpha   90.00000000
_cell_angle_beta   90.00000000
_cell_angle_gamma   90.00000000
_symmetry_Int_Tables_number   1
_chemical_formula_structural   Zn10Ge(B4Rh9)2
_chemical_formula_sum   'Zn20 Ge2 B16 Rh36'
_cell_volume   922.27241630
_cell_formula_units_Z   2
loop_
 _symmetry_equiv_pos_site_id
 _symmetry_equiv_pos_as_xyz
  1  'x, y, z'
loop_
 _atom_site_type_symbol
 _atom_site_label
 _atom_site_symmetry_multiplicity
 _atom_site_fract_x
 _atom_site_fract_y
 _atom_site_fract_z
 _atom_site_occupancy
  Zn  Zn0  1  -0.00000000  0.05021911  0.55021911  1
  Zn  Zn1  1  0.00000000  0.94978089  0.44978089  1
  Zn  Zn2  1  0.00000000  0.44978089  0.05021911  1
  Zn  Zn3  1  -0.00000000  0.55021911  0.94978089  1
  Zn  Zn4  1  0.00000000  0.18990119  0.03212652  1
  Zn  Zn5  1  -0.00000000  0.81009881  0.96787348  1
  Zn  Zn6  1  -0.00000000  0.96787348  0.18990119  1
  Zn  Zn7  1  -0.00000000  0.31009881  0.53212652  1
  Zn  Zn8  1  0.00000000  0.03212652  0.81009881  1
  Zn  Zn9  1  0.00000000  0.68990119  0.46787348  1
  Zn  Zn10  1  0.00000000  0.53212652  0.68990119  1
  Zn  Zn11  1  -0.00000000  0.46787348  0.31009881  1
  Zn  Zn12  1  0.00000000  0.70910602  0.20910602  1
  Zn  Zn13  1  -0.00000000  0.29089398  0.79089398  1
  Zn  Zn14  1  -0.00000000  0.79089398  0.70910602  1
  Zn  Zn15  1  0.00000000  0.20910602  0.29089398  1
  Zn  Zn16  1  -0.00000000  0.16883119  0.66883119  1
  Zn  Zn17  1  0.00000000  0.83116881  0.33116881  1
  Zn  Zn18  1  0.00000000  0.33116881  0.16883119  1
  Zn  Zn19  1  -0.00000000  0.66883119  0.83116881  1
  Ge  Ge20  1  -0.00000000  -0.00000000  -0.00000000  1
  Ge  Ge21  1  -0.00000000  0.50000000  0.50000000  1
  B  B22  1  0.00000000  0.03896182  0.33424195  1
  B  B23  1  -0.00000000  0.96103818  0.66575805  1
  B  B24  1  -0.00000000  0.66575805  0.03896182  1
  B  B25  1  -0.00000000  0.46103818  0.83424195  1
  B  B26  1  0.00000000  0.33424195  0.96103818  1
  B  B27  1  0.00000000  0.53896182  0.16575805  1
  B  B28  1  0.00000000  0.83424195  0.53896182  1
  B  B29  1  -0.00000000  0.16575805  0.46103818  1
  B  B30  1  0.00000000  0.12447935  0.16744244  1
  B  B31  1  -0.00000000  0.87552065  0.83255756  1
  B  B32  1  -0.00000000  0.83255756  0.12447935  1
  B  B33  1  -0.00000000  0.37552065  0.66744244  1
  B  B34  1  0.00000000  0.16744244  0.87552065  1
  B  B35  1  0.00000000  0.62447935  0.33255756  1
  B  B36  1  0.00000000  0.66744244  0.62447935  1
  B  B37  1  -0.00000000  0.33255756  0.37552065  1
  Rh  Rh38  1  0.50000000  0.08732822  0.25462717  1
  Rh  Rh39  1  0.50000000  0.91267178  0.74537283  1
  Rh  Rh40  1  0.50000000  0.74537283  0.08732822  1
  Rh  Rh41  1  0.50000000  0.41267178  0.75462717  1
  Rh  Rh42  1  0.50000000  0.25462717  0.91267178  1
  Rh  Rh43  1  0.50000000  0.58732822  0.24537283  1
  Rh  Rh44  1  0.50000000  0.75462717  0.58732822  1
  Rh  Rh45  1  0.50000000  0.24537283  0.41267178  1
  Rh  Rh46  1  0.50000000  0.32570696  0.04767521  1
  Rh  Rh47  1  0.50000000  0.67429304  0.95232479  1
  Rh  Rh48  1  0.50000000  0.95232479  0.32570696  1
  Rh  Rh49  1  0.50000000  0.17429304  0.54767521  1
  Rh  Rh50  1  0.50000000  0.04767521  0.67429304  1
  Rh  Rh51  1  0.50000000  0.82570696  0.45232479  1
  Rh  Rh52  1  0.50000000  0.54767521  0.82570696  1
  Rh  Rh53  1  0.50000000  0.45232479  0.17429304  1
  Rh  Rh54  1  0.50000000  0.21060067  0.15979953  1
  Rh  Rh55  1  0.50000000  0.78939933  0.84020047  1
  Rh  Rh56  1  0.50000000  0.84020047  0.21060067  1
  Rh  Rh57  1  0.50000000  0.28939933  0.65979953  1
  Rh  Rh58  1  0.50000000  0.15979953  0.78939933  1
  Rh  Rh59  1  0.50000000  0.71060067  0.34020047  1
  Rh  Rh60  1  0.50000000  0.65979953  0.71060067  1
  Rh  Rh61  1  0.50000000  0.34020047  0.28939933  1
  Rh  Rh62  1  0.50000000  0.06650824  0.09737111  1
  Rh  Rh63  1  0.50000000  0.93349176  0.90262889  1
  Rh  Rh64  1  0.50000000  0.90262889  0.06650824  1
  Rh  Rh65  1  0.50000000  0.43349176  0.59737111  1
  Rh  Rh66  1  0.50000000  0.09737111  0.93349176  1
  Rh  Rh67  1  0.50000000  0.56650824  0.40262889  1
  Rh  Rh68  1  0.50000000  0.59737111  0.56650824  1
  Rh  Rh69  1  0.50000000  0.40262889  0.43349176  1
  Rh  Rh70  1  0.50000000  0.58236890  0.08236890  1
  Rh  Rh71  1  0.50000000  0.41763110  0.91763110  1
  Rh  Rh72  1  0.50000000  0.91763110  0.58236890  1
  Rh  Rh73  1  0.50000000  0.08236890  0.41763110  1
