# generated using pymatgen
data_SiPAu
_symmetry_space_group_name_H-M   'P 1'
_cell_length_a   3.51883435
_cell_length_b   3.51883435
_cell_length_c   6.14106215
_cell_angle_alpha   73.35143920
_cell_angle_beta   73.35143920
_cell_angle_gamma   59.99999297
_symmetry_Int_Tables_number   1
_chemical_formula_structural   SiPAu
_chemical_formula_sum   'Si1 P1 Au1'
_cell_volume   62.14447343
_cell_formula_units_Z   1
loop_
 _symmetry_equiv_pos_site_id
 _symmetry_equiv_pos_as_xyz
  1  'x, y, z'
loop_
 _atom_site_type_symbol
 _atom_site_label
 _atom_site_symmetry_multiplicity
 _atom_site_fract_x
 _atom_site_fract_y
 _atom_site_fract_z
 _atom_site_occupancy
  Si  Si0  1  0.72792600  0.72792600  0.81622199  1
  P  P1  1  0.00130297  0.00130297  0.99609110  1
  Au  Au2  1  0.86347103  0.86347103  0.40958690  1
