# generated using pymatgen
data_YCCl
_symmetry_space_group_name_H-M   'P 1'
_cell_length_a   3.77589595
_cell_length_b   3.92916631
_cell_length_c   9.62221549
_cell_angle_alpha   95.00162238
_cell_angle_beta   90.00000000
_cell_angle_gamma   118.71778952
_symmetry_Int_Tables_number   1
_chemical_formula_structural   YCCl
_chemical_formula_sum   'Y2 C2 Cl2'
_cell_volume   124.57673477
_cell_formula_units_Z   2
loop_
 _symmetry_equiv_pos_site_id
 _symmetry_equiv_pos_as_xyz
  1  'x, y, z'
loop_
 _atom_site_type_symbol
 _atom_site_label
 _atom_site_symmetry_multiplicity
 _atom_site_fract_x
 _atom_site_fract_y
 _atom_site_fract_z
 _atom_site_occupancy
  Y  Y0  1  0.85567514  0.71135028  0.84510074  1
  Y  Y1  1  0.14432486  0.28864972  0.15489926  1
  C  C2  1  0.57333582  0.14667164  0.95982062  1
  C  C3  1  0.42666418  0.85332836  0.04017938  1
  Cl  Cl4  1  0.82285191  0.64570382  0.33244352  1
  Cl  Cl5  1  0.17714809  0.35429618  0.66755648  1
