# generated using pymatgen
data_LiNb(PO3)4
_symmetry_space_group_name_H-M   'P 1'
_cell_length_a   7.78614879
_cell_length_b   7.78614879
_cell_length_c   17.11503345
_cell_angle_alpha   90.00000000
_cell_angle_beta   90.00000000
_cell_angle_gamma   100.28855918
_symmetry_Int_Tables_number   1
_chemical_formula_structural   LiNb(PO3)4
_chemical_formula_sum   'Li4 Nb4 P16 O48'
_cell_volume   1020.90012496
_cell_formula_units_Z   4
loop_
 _symmetry_equiv_pos_site_id
 _symmetry_equiv_pos_as_xyz
  1  'x, y, z'
loop_
 _atom_site_type_symbol
 _atom_site_label
 _atom_site_symmetry_multiplicity
 _atom_site_fract_x
 _atom_site_fract_y
 _atom_site_fract_z
 _atom_site_occupancy
  Li  Li0  1  0.20574116  0.08698791  0.38975957  1
  Li  Li1  1  0.91301209  0.79425884  0.61024043  1
  Li  Li2  1  0.79425884  0.91301209  0.88975957  1
  Li  Li3  1  0.08698791  0.20574116  0.11024043  1
  Nb  Nb4  1  0.58599964  0.98110202  0.61657463  1
  Nb  Nb5  1  0.01889798  0.41400036  0.38342537  1
  Nb  Nb6  1  0.41400036  0.01889798  0.11657463  1
  Nb  Nb7  1  0.98110202  0.58599964  0.88342537  1
  P  P8  1  0.03732443  0.74875711  0.09035384  1
  P  P9  1  0.25124289  0.96267557  0.90964616  1
  P  P10  1  0.31627865  0.78145253  0.76448720  1
  P  P11  1  0.21854747  0.68372135  0.23551280  1
  P  P12  1  0.36776024  0.63223976  0.50000000  1
  P  P13  1  0.67075031  0.73077434  0.05934728  1
  P  P14  1  0.26922566  0.32924969  0.94065272  1
  P  P15  1  0.34833678  0.34833678  0.25000000  1
  P  P16  1  0.65166322  0.65166322  0.75000000  1
  P  P17  1  0.32924969  0.26922566  0.55934728  1
  P  P18  1  0.73077434  0.67075031  0.44065272  1
  P  P19  1  0.63223976  0.36776024  0.00000000  1
  P  P20  1  0.78145253  0.31627865  0.73551280  1
  P  P21  1  0.68372135  0.21854747  0.26448720  1
  P  P22  1  0.74875711  0.03732443  0.40964616  1
  P  P23  1  0.96267557  0.25124289  0.59035384  1
  O  O24  1  0.12895350  0.93746085  0.10207514  1
  O  O25  1  0.06253915  0.87104650  0.89792486  1
  O  O26  1  0.34941490  0.95201895  0.98374804  1
  O  O27  1  0.04798105  0.65058510  0.01625196  1
  O  O28  1  0.31667858  0.86727690  0.22821144  1
  O  O29  1  0.13272310  0.68332142  0.77178856  1
  O  O30  1  0.36972917  0.89904056  0.84143618  1
  O  O31  1  0.10095944  0.63027083  0.15856382  1
  O  O32  1  0.10510176  0.63683683  0.30603955  1
  O  O33  1  0.36316317  0.89489824  0.69396045  1
  O  O34  1  0.40230421  0.79926647  0.54532900  1
  O  O35  1  0.20073353  0.59769579  0.45467100  1
  O  O36  1  0.52919545  0.79222771  0.10482952  1
  O  O37  1  0.20777229  0.47080455  0.89517048  1
  O  O38  1  0.35478212  0.54953937  0.22968979  1
  O  O39  1  0.45046063  0.64521788  0.77031021  1
  O  O40  1  0.75388245  0.83998220  0.38360422  1
  O  O41  1  0.16001780  0.24611755  0.61639578  1
  O  O42  1  0.52091770  0.61772311  0.43923482  1
  O  O43  1  0.38227689  0.47908230  0.56076518  1
  O  O44  1  0.23934578  0.29674142  0.32220488  1
  O  O45  1  0.70325858  0.76065422  0.67779512  1
  O  O46  1  0.19593480  0.28112550  0.01906301  1
  O  O47  1  0.71887450  0.80406520  0.98093699  1
  O  O48  1  0.28112550  0.19593480  0.48093699  1
  O  O49  1  0.80406520  0.71887450  0.51906301  1
  O  O50  1  0.29674142  0.23934578  0.17779512  1
  O  O51  1  0.76065422  0.70325858  0.82220488  1
  O  O52  1  0.61772311  0.52091770  0.06076518  1
  O  O53  1  0.47908230  0.38227689  0.93923482  1
  O  O54  1  0.24611755  0.16001780  0.88360422  1
  O  O55  1  0.83998220  0.75388245  0.11639578  1
  O  O56  1  0.64521788  0.45046063  0.72968979  1
  O  O57  1  0.54953937  0.35478212  0.27031021  1
  O  O58  1  0.79222771  0.52919545  0.39517048  1
  O  O59  1  0.47080455  0.20777229  0.60482952  1
  O  O60  1  0.79926647  0.40230421  0.95467100  1
  O  O61  1  0.59769579  0.20073353  0.04532900  1
  O  O62  1  0.63683683  0.10510176  0.19396045  1
  O  O63  1  0.89489824  0.36316317  0.80603955  1
  O  O64  1  0.63027083  0.10095944  0.34143618  1
  O  O65  1  0.89904056  0.36972917  0.65856382  1
  O  O66  1  0.86727690  0.31667858  0.27178856  1
  O  O67  1  0.68332142  0.13272310  0.72821144  1
  O  O68  1  0.65058510  0.04798105  0.48374804  1
  O  O69  1  0.95201895  0.34941490  0.51625196  1
  O  O70  1  0.93746085  0.12895350  0.39792486  1
  O  O71  1  0.87104650  0.06253915  0.60207514  1
