# generated using pymatgen
data_ZrFeAs
_symmetry_space_group_name_H-M   'P 1'
_cell_length_a   3.93079864
_cell_length_b   6.49078438
_cell_length_c   7.26774451
_cell_angle_alpha   90.00000000
_cell_angle_beta   90.00000000
_cell_angle_gamma   90.00000000
_symmetry_Int_Tables_number   1
_chemical_formula_structural   ZrFeAs
_chemical_formula_sum   'Zr4 Fe4 As4'
_cell_volume   185.42898933
_cell_formula_units_Z   4
loop_
 _symmetry_equiv_pos_site_id
 _symmetry_equiv_pos_as_xyz
  1  'x, y, z'
loop_
 _atom_site_type_symbol
 _atom_site_label
 _atom_site_symmetry_multiplicity
 _atom_site_fract_x
 _atom_site_fract_y
 _atom_site_fract_z
 _atom_site_occupancy
  Zr  Zr0  1  0.75000000  0.01325186  0.31130534  1
  Zr  Zr1  1  0.25000000  0.98674814  0.68869466  1
  Zr  Zr2  1  0.25000000  0.48674814  0.81130534  1
  Zr  Zr3  1  0.75000000  0.51325186  0.18869466  1
  Fe  Fe4  1  0.75000000  0.64665662  0.56233080  1
  Fe  Fe5  1  0.25000000  0.35334338  0.43766920  1
  Fe  Fe6  1  0.25000000  0.85334338  0.06233080  1
  Fe  Fe7  1  0.75000000  0.14665662  0.93766920  1
  As  As8  1  0.75000000  0.77846449  0.88605283  1
  As  As9  1  0.25000000  0.22153551  0.11394717  1
  As  As10  1  0.25000000  0.72153551  0.38605283  1
  As  As11  1  0.75000000  0.27846449  0.61394717  1
