# generated using pymatgen
data_Zr6MnCl14
_symmetry_space_group_name_H-M   'P 1'
_cell_length_a   10.00740481
_cell_length_b   10.00740481
_cell_length_c   12.04720486
_cell_angle_alpha   90.00000000
_cell_angle_beta   90.00000000
_cell_angle_gamma   95.51194631
_symmetry_Int_Tables_number   1
_chemical_formula_structural   Zr6MnCl14
_chemical_formula_sum   'Zr12 Mn2 Cl28'
_cell_volume   1200.92664427
_cell_formula_units_Z   2
loop_
 _symmetry_equiv_pos_site_id
 _symmetry_equiv_pos_as_xyz
  1  'x, y, z'
loop_
 _atom_site_type_symbol
 _atom_site_label
 _atom_site_symmetry_multiplicity
 _atom_site_fract_x
 _atom_site_fract_y
 _atom_site_fract_z
 _atom_site_occupancy
  Zr  Zr0  1  0.19032101  0.95000497  0.12113835  1
  Zr  Zr1  1  0.80967899  0.04999503  0.87886165  1
  Zr  Zr2  1  0.30967899  0.54999503  0.62113835  1
  Zr  Zr3  1  0.45000497  0.69032101  0.37886165  1
  Zr  Zr4  1  0.69032101  0.45000497  0.37886165  1
  Zr  Zr5  1  0.54999503  0.30967899  0.62113835  1
  Zr  Zr6  1  0.04999503  0.80967899  0.87886165  1
  Zr  Zr7  1  0.95000497  0.19032101  0.12113835  1
  Zr  Zr8  1  0.35236959  0.35236959  0.39355688  1
  Zr  Zr9  1  0.64763041  0.64763041  0.60644312  1
  Zr  Zr10  1  0.14763041  0.14763041  0.89355688  1
  Zr  Zr11  1  0.85236959  0.85236959  0.10644312  1
  Mn  Mn12  1  -0.00000000  -0.00000000  0.00000000  1
  Mn  Mn13  1  0.50000000  0.50000000  0.50000000  1
  Cl  Cl14  1  0.53502351  0.29211114  0.25795979  1
  Cl  Cl15  1  0.46497649  0.70788886  0.74204021  1
  Cl  Cl16  1  0.96497649  0.20788886  0.75795979  1
  Cl  Cl17  1  0.79211114  0.03502351  0.24204021  1
  Cl  Cl18  1  0.03502351  0.79211114  0.24204021  1
  Cl  Cl19  1  0.20788886  0.96497649  0.75795979  1
  Cl  Cl20  1  0.70788886  0.46497649  0.74204021  1
  Cl  Cl21  1  0.29211114  0.53502351  0.25795979  1
  Cl  Cl22  1  0.35479737  0.11195343  0.01121697  1
  Cl  Cl23  1  0.64520263  0.88804657  0.98878303  1
  Cl  Cl24  1  0.14520263  0.38804657  0.51121697  1
  Cl  Cl25  1  0.61195343  0.85479737  0.48878303  1
  Cl  Cl26  1  0.85479737  0.61195343  0.48878303  1
  Cl  Cl27  1  0.38804657  0.14520263  0.51121697  1
  Cl  Cl28  1  0.88804657  0.64520263  0.98878303  1
  Cl  Cl29  1  0.11195343  0.35479737  0.01121697  1
  Cl  Cl30  1  0.39388862  0.89388862  0.25000000  1
  Cl  Cl31  1  0.60611138  0.10611138  0.75000000  1
  Cl  Cl32  1  0.10611138  0.60611138  0.75000000  1
  Cl  Cl33  1  0.89388862  0.39388862  0.25000000  1
  Cl  Cl34  1  0.24698945  0.75301055  0.00000000  1
  Cl  Cl35  1  0.75301055  0.24698945  0.00000000  1
  Cl  Cl36  1  0.25301055  0.74698945  0.50000000  1
  Cl  Cl37  1  0.74698945  0.25301055  0.50000000  1
  Cl  Cl38  1  0.15218879  0.15218879  0.25715762  1
  Cl  Cl39  1  0.84781121  0.84781121  0.74284238  1
  Cl  Cl40  1  0.34781121  0.34781121  0.75715762  1
  Cl  Cl41  1  0.65218879  0.65218879  0.24284238  1
