# generated using pymatgen
data_Yb3(Si3Pd10)2
_symmetry_space_group_name_H-M   'P 1'
_cell_length_a   8.68993157
_cell_length_b   8.68993157
_cell_length_c   8.68993157
_cell_angle_alpha   60.00000000
_cell_angle_beta   60.00000000
_cell_angle_gamma   60.00000000
_symmetry_Int_Tables_number   1
_chemical_formula_structural   Yb3(Si3Pd10)2
_chemical_formula_sum   'Yb3 Si6 Pd20'
_cell_volume   464.01719196
_cell_formula_units_Z   1
loop_
 _symmetry_equiv_pos_site_id
 _symmetry_equiv_pos_as_xyz
  1  'x, y, z'
loop_
 _atom_site_type_symbol
 _atom_site_label
 _atom_site_symmetry_multiplicity
 _atom_site_fract_x
 _atom_site_fract_y
 _atom_site_fract_z
 _atom_site_occupancy
  Yb  Yb0  1  0.75000000  0.75000000  0.75000000  1
  Yb  Yb1  1  0.25000000  0.25000000  0.25000000  1
  Yb  Yb2  1  0.00000000  -0.00000000  -0.00000000  1
  Si  Si3  1  0.73098234  0.73098234  0.26901766  1
  Si  Si4  1  0.26901766  0.26901766  0.73098234  1
  Si  Si5  1  0.73098234  0.26901766  0.73098234  1
  Si  Si6  1  0.26901766  0.73098234  0.26901766  1
  Si  Si7  1  0.26901766  0.73098234  0.73098234  1
  Si  Si8  1  0.73098234  0.26901766  0.26901766  1
  Pd  Pd9  1  0.61686519  0.61686519  0.61686519  1
  Pd  Pd10  1  0.38313481  0.38313481  0.38313481  1
  Pd  Pd11  1  0.14940444  0.61686519  0.61686519  1
  Pd  Pd12  1  0.61686519  0.14940444  0.61686519  1
  Pd  Pd13  1  0.85059556  0.38313481  0.38313481  1
  Pd  Pd14  1  0.38313481  0.85059556  0.38313481  1
  Pd  Pd15  1  0.61686519  0.61686519  0.14940444  1
  Pd  Pd16  1  0.38313481  0.38313481  0.85059556  1
  Pd  Pd17  1  -0.00000000  0.00000000  0.65663381  1
  Pd  Pd18  1  0.00000000  -0.00000000  0.34336619  1
  Pd  Pd19  1  0.34336619  0.65663381  0.00000000  1
  Pd  Pd20  1  0.65663381  0.34336619  0.00000000  1
  Pd  Pd21  1  -0.00000000  0.65663381  0.00000000  1
  Pd  Pd22  1  0.65663381  0.00000000  0.34336619  1
  Pd  Pd23  1  0.00000000  0.34336619  -0.00000000  1
  Pd  Pd24  1  0.34336619  -0.00000000  0.65663381  1
  Pd  Pd25  1  0.65663381  0.00000000  -0.00000000  1
  Pd  Pd26  1  0.34336619  0.00000000  -0.00000000  1
  Pd  Pd27  1  0.00000000  0.65663381  0.34336619  1
  Pd  Pd28  1  -0.00000000  0.34336619  0.65663381  1
