# generated using pymatgen
data_Tm2Be2SiO7
_symmetry_space_group_name_H-M   'P 1'
_cell_length_a   4.74145854
_cell_length_b   7.26224764
_cell_length_c   7.26224764
_cell_angle_alpha   90.00000000
_cell_angle_beta   90.00000000
_cell_angle_gamma   90.00000000
_symmetry_Int_Tables_number   1
_chemical_formula_structural   Tm2Be2SiO7
_chemical_formula_sum   'Tm4 Be4 Si2 O14'
_cell_volume   250.06566507
_cell_formula_units_Z   2
loop_
 _symmetry_equiv_pos_site_id
 _symmetry_equiv_pos_as_xyz
  1  'x, y, z'
loop_
 _atom_site_type_symbol
 _atom_site_label
 _atom_site_symmetry_multiplicity
 _atom_site_fract_x
 _atom_site_fract_y
 _atom_site_fract_z
 _atom_site_occupancy
  Tm  Tm0  1  0.51077096  0.15784460  0.65784460  1
  Tm  Tm1  1  0.51077096  0.84215540  0.34215540  1
  Tm  Tm2  1  0.48922904  0.65784460  0.84215540  1
  Tm  Tm3  1  0.48922904  0.34215540  0.15784460  1
  Be  Be4  1  0.95786860  0.63709333  0.13709333  1
  Be  Be5  1  0.95786860  0.36290667  0.86290667  1
  Be  Be6  1  0.04213140  0.13709333  0.36290667  1
  Be  Be7  1  0.04213140  0.86290667  0.63709333  1
  Si  Si8  1  -0.00000000  0.00000000  0.00000000  1
  Si  Si9  1  -0.00000000  0.50000000  0.50000000  1
  O  O10  1  0.18748078  0.00000000  0.50000000  1
  O  O11  1  0.81251922  0.50000000  -0.00000000  1
  O  O12  1  0.29321960  0.64094669  0.14094669  1
  O  O13  1  0.29321960  0.35905331  0.85905331  1
  O  O14  1  0.70678040  0.14094669  0.35905331  1
  O  O15  1  0.70678040  0.85905331  0.64094669  1
  O  O16  1  0.20376876  0.08356621  0.16242117  1
  O  O17  1  0.20376876  0.91643379  0.83757883  1
  O  O18  1  0.79623124  0.16242117  0.91643379  1
  O  O19  1  0.79623124  0.41643379  0.66242117  1
  O  O20  1  0.79623124  0.83757883  0.08356621  1
  O  O21  1  0.79623124  0.58356621  0.33757883  1
  O  O22  1  0.20376876  0.33757883  0.41643379  1
  O  O23  1  0.20376876  0.66242117  0.58356621  1
