# generated using pymatgen
data_Y2(Al3Pd)3
_symmetry_space_group_name_H-M   'P 1'
_cell_length_a   7.67016686
_cell_length_b   7.67016686
_cell_length_c   9.51153788
_cell_angle_alpha   90.00000000
_cell_angle_beta   90.00000000
_cell_angle_gamma   119.68627389
_symmetry_Int_Tables_number   1
_chemical_formula_structural   Y2(Al3Pd)3
_chemical_formula_sum   'Y4 Al18 Pd6'
_cell_volume   486.13319303
_cell_formula_units_Z   2
loop_
 _symmetry_equiv_pos_site_id
 _symmetry_equiv_pos_as_xyz
  1  'x, y, z'
loop_
 _atom_site_type_symbol
 _atom_site_label
 _atom_site_symmetry_multiplicity
 _atom_site_fract_x
 _atom_site_fract_y
 _atom_site_fract_z
 _atom_site_occupancy
  Y  Y0  1  0.66932664  0.99439893  0.25000000  1
  Y  Y1  1  0.33067336  0.00560107  0.75000000  1
  Y  Y2  1  0.99439893  0.66932664  0.25000000  1
  Y  Y3  1  0.00560107  0.33067336  0.75000000  1
  Al  Al4  1  0.12768081  0.12768081  0.25000000  1
  Al  Al5  1  0.87231919  0.87231919  0.75000000  1
  Al  Al6  1  0.33412853  0.00050923  0.07571162  1
  Al  Al7  1  0.66587147  0.99949077  0.92428838  1
  Al  Al8  1  0.66587147  0.99949077  0.57571162  1
  Al  Al9  1  0.00050923  0.33412853  0.42428838  1
  Al  Al10  1  0.33412853  0.00050923  0.42428838  1
  Al  Al11  1  0.99949077  0.66587147  0.57571162  1
  Al  Al12  1  0.99949077  0.66587147  0.92428838  1
  Al  Al13  1  0.00050923  0.33412853  0.07571162  1
  Al  Al14  1  0.33392908  0.33392908  0.55930440  1
  Al  Al15  1  0.66607092  0.66607092  0.44069560  1
  Al  Al16  1  0.66607092  0.66607092  0.05930440  1
  Al  Al17  1  0.33392908  0.33392908  0.94069560  1
  Al  Al18  1  0.54521373  0.33690981  0.25000000  1
  Al  Al19  1  0.45478627  0.66309019  0.75000000  1
  Al  Al20  1  0.33690981  0.54521373  0.25000000  1
  Al  Al21  1  0.66309019  0.45478627  0.75000000  1
  Pd  Pd22  1  0.32864643  0.67135357  0.00000000  1
  Pd  Pd23  1  0.67135357  0.32864643  0.00000000  1
  Pd  Pd24  1  0.67135357  0.32864643  0.50000000  1
  Pd  Pd25  1  0.32864643  0.67135357  0.50000000  1
  Pd  Pd26  1  -0.00000000  0.00000000  0.00000000  1
  Pd  Pd27  1  -0.00000000  0.00000000  0.50000000  1
