# generated using pymatgen
data_TmFeB4
_symmetry_space_group_name_H-M   'P 1'
_cell_length_a   3.33955525
_cell_length_b   5.84641986
_cell_length_c   11.30758576
_cell_angle_alpha   90.00000000
_cell_angle_beta   90.00000000
_cell_angle_gamma   90.00000000
_symmetry_Int_Tables_number   1
_chemical_formula_structural   TmFeB4
_chemical_formula_sum   'Tm4 Fe4 B16'
_cell_volume   220.77430388
_cell_formula_units_Z   4
loop_
 _symmetry_equiv_pos_site_id
 _symmetry_equiv_pos_as_xyz
  1  'x, y, z'
loop_
 _atom_site_type_symbol
 _atom_site_label
 _atom_site_symmetry_multiplicity
 _atom_site_fract_x
 _atom_site_fract_y
 _atom_site_fract_z
 _atom_site_occupancy
  Tm  Tm0  1  0.50000000  0.37368149  0.15018298  1
  Tm  Tm1  1  0.50000000  0.62631851  0.84981702  1
  Tm  Tm2  1  0.50000000  0.12631851  0.65018298  1
  Tm  Tm3  1  0.50000000  0.87368149  0.34981702  1
  Fe  Fe4  1  0.50000000  0.36617643  0.41093265  1
  Fe  Fe5  1  0.50000000  0.63382357  0.58906735  1
  Fe  Fe6  1  0.50000000  0.13382357  0.91093265  1
  Fe  Fe7  1  0.50000000  0.86617643  0.08906735  1
  B  B8  1  -0.00000000  0.11198291  0.04625092  1
  B  B9  1  0.00000000  0.88801709  0.95374908  1
  B  B10  1  -0.00000000  0.38801709  0.54625092  1
  B  B11  1  0.00000000  0.61198291  0.45374908  1
  B  B12  1  0.00000000  0.13799316  0.46830164  1
  B  B13  1  -0.00000000  0.86200684  0.53169836  1
  B  B14  1  -0.00000000  0.36200684  0.96830164  1
  B  B15  1  0.00000000  0.63799316  0.03169836  1
  B  B16  1  0.00000000  0.02484211  0.19102137  1
  B  B17  1  0.00000000  0.97515789  0.80897863  1
  B  B18  1  -0.00000000  0.47515789  0.69102137  1
  B  B19  1  -0.00000000  0.52484211  0.30897863  1
  B  B20  1  -0.00000000  0.21687386  0.31566081  1
  B  B21  1  -0.00000000  0.78312614  0.68433919  1
  B  B22  1  -0.00000000  0.28312614  0.81566081  1
  B  B23  1  -0.00000000  0.71687386  0.18433919  1
