# generated using pymatgen
data_YMnGaO5
_symmetry_space_group_name_H-M   'P 1'
_cell_length_a   5.75920950
_cell_length_b   7.39335514
_cell_length_c   8.55636685
_cell_angle_alpha   90.00000000
_cell_angle_beta   90.00000000
_cell_angle_gamma   90.00000000
_symmetry_Int_Tables_number   1
_chemical_formula_structural   YMnGaO5
_chemical_formula_sum   'Y4 Mn4 Ga4 O20'
_cell_volume   364.32908363
_cell_formula_units_Z   4
loop_
 _symmetry_equiv_pos_site_id
 _symmetry_equiv_pos_as_xyz
  1  'x, y, z'
loop_
 _atom_site_type_symbol
 _atom_site_label
 _atom_site_symmetry_multiplicity
 _atom_site_fract_x
 _atom_site_fract_y
 _atom_site_fract_z
 _atom_site_occupancy
  Y  Y0  1  0.50000000  0.36649723  0.33161612  1
  Y  Y1  1  0.50000000  0.63350277  0.66838388  1
  Y  Y2  1  0.50000000  0.13350277  0.83161612  1
  Y  Y3  1  0.50000000  0.86649723  0.16838388  1
  Mn  Mn4  1  0.24861331  0.00000000  0.50000000  1
  Mn  Mn5  1  0.75138669  0.00000000  0.50000000  1
  Mn  Mn6  1  0.75138669  0.50000000  -0.00000000  1
  Mn  Mn7  1  0.24861331  0.50000000  -0.00000000  1
  Ga  Ga8  1  -0.00000000  0.10956346  0.14608219  1
  Ga  Ga9  1  0.00000000  0.89043654  0.85391781  1
  Ga  Ga10  1  0.00000000  0.39043654  0.64608219  1
  Ga  Ga11  1  -0.00000000  0.60956346  0.35391781  1
  O  O12  1  0.50000000  0.33992179  0.05821274  1
  O  O13  1  0.50000000  0.66007821  0.94178726  1
  O  O14  1  0.50000000  0.16007821  0.55821274  1
  O  O15  1  0.50000000  0.83992179  0.44178726  1
  O  O16  1  0.22832344  0.00000000  -0.00000000  1
  O  O17  1  0.77167656  0.00000000  -0.00000000  1
  O  O18  1  0.77167656  0.50000000  0.50000000  1
  O  O19  1  0.22832344  0.50000000  0.50000000  1
  O  O20  1  0.25824743  0.10803650  0.29384306  1
  O  O21  1  0.74175257  0.89196350  0.70615694  1
  O  O22  1  0.25824743  0.89196350  0.70615694  1
  O  O23  1  0.74175257  0.39196350  0.79384306  1
  O  O24  1  0.74175257  0.10803650  0.29384306  1
  O  O25  1  0.25824743  0.60803650  0.20615694  1
  O  O26  1  0.74175257  0.60803650  0.20615694  1
  O  O27  1  0.25824743  0.39196350  0.79384306  1
  O  O28  1  0.00000000  0.35047499  0.07198377  1
  O  O29  1  0.00000000  0.64952501  0.92801623  1
  O  O30  1  -0.00000000  0.14952501  0.57198377  1
  O  O31  1  -0.00000000  0.85047499  0.42801623  1
