# generated using pymatgen
data_Li2CuCO4
_symmetry_space_group_name_H-M   'P 1'
_cell_length_a   6.90131294
_cell_length_b   5.05213829
_cell_length_c   10.71298397
_cell_angle_alpha   90.00000000
_cell_angle_beta   98.79250420
_cell_angle_gamma   90.00000000
_symmetry_Int_Tables_number   1
_chemical_formula_structural   Li2CuCO4
_chemical_formula_sum   'Li8 Cu4 C4 O16'
_cell_volume   369.13355068
_cell_formula_units_Z   4
loop_
 _symmetry_equiv_pos_site_id
 _symmetry_equiv_pos_as_xyz
  1  'x, y, z'
loop_
 _atom_site_type_symbol
 _atom_site_label
 _atom_site_symmetry_multiplicity
 _atom_site_fract_x
 _atom_site_fract_y
 _atom_site_fract_z
 _atom_site_occupancy
  Li  Li0  1  0.11648777  0.33901786  0.79123256  1
  Li  Li1  1  0.11648777  0.16098214  0.29123256  1
  Li  Li2  1  0.22380369  0.17591654  0.56767677  1
  Li  Li3  1  0.22380369  0.32408346  0.06767677  1
  Li  Li4  1  0.77619631  0.67591654  0.93232323  1
  Li  Li5  1  0.77619631  0.82408346  0.43232323  1
  Li  Li6  1  0.88351223  0.83901786  0.70876744  1
  Li  Li7  1  0.88351223  0.66098214  0.20876744  1
  Cu  Cu8  1  0.53745834  0.16225771  0.82173548  1
  Cu  Cu9  1  0.46254166  0.66225771  0.67826452  1
  Cu  Cu10  1  0.53745834  0.33774229  0.32173548  1
  Cu  Cu11  1  0.46254166  0.83774229  0.17826452  1
  C  C12  1  0.18405576  0.82605256  0.93910094  1
  C  C13  1  0.18405576  0.67394744  0.43910094  1
  C  C14  1  0.81594424  0.32605256  0.56089906  1
  C  C15  1  0.81594424  0.17394744  0.06089906  1
  O  O16  1  0.05962731  0.69214609  0.85952362  1
  O  O17  1  0.05962731  0.80785391  0.35952362  1
  O  O18  1  0.20503717  0.07634586  0.92740172  1
  O  O19  1  0.20503717  0.42365414  0.42740172  1
  O  O20  1  0.28587961  0.80557593  0.53183121  1
  O  O21  1  0.35350826  0.34502938  0.71581646  1
  O  O22  1  0.28587961  0.69442407  0.03183121  1
  O  O23  1  0.35350826  0.15497062  0.21581646  1
  O  O24  1  0.64649174  0.84502938  0.78418354  1
  O  O25  1  0.71412039  0.30557593  0.96816879  1
  O  O26  1  0.64649174  0.65497062  0.28418354  1
  O  O27  1  0.71412039  0.19442407  0.46816879  1
  O  O28  1  0.79496283  0.57634586  0.57259828  1
  O  O29  1  0.79496283  0.92365414  0.07259828  1
  O  O30  1  0.94037269  0.19214609  0.64047638  1
  O  O31  1  0.94037269  0.30785391  0.14047638  1
