# generated using pymatgen
data_YPtF7
_symmetry_space_group_name_H-M   'P 1'
_cell_length_a   5.54246152
_cell_length_b   8.95430078
_cell_length_c   11.18916735
_cell_angle_alpha   107.54600901
_cell_angle_beta   90.00000000
_cell_angle_gamma   90.00000000
_symmetry_Int_Tables_number   1
_chemical_formula_structural   YPtF7
_chemical_formula_sum   'Y4 Pt4 F28'
_cell_volume   529.47020258
_cell_formula_units_Z   4
loop_
 _symmetry_equiv_pos_site_id
 _symmetry_equiv_pos_as_xyz
  1  'x, y, z'
loop_
 _atom_site_type_symbol
 _atom_site_label
 _atom_site_symmetry_multiplicity
 _atom_site_fract_x
 _atom_site_fract_y
 _atom_site_fract_z
 _atom_site_occupancy
  Y  Y0  1  0.73626839  0.92161606  0.73693977  1
  Y  Y1  1  0.26373161  0.07838394  0.26306023  1
  Y  Y2  1  0.23626839  0.57838394  0.76306023  1
  Y  Y3  1  0.76373161  0.42161606  0.23693977  1
  Pt  Pt4  1  0.24117089  0.23090149  0.95801424  1
  Pt  Pt5  1  0.75882911  0.76909851  0.04198576  1
  Pt  Pt6  1  0.74117089  0.26909851  0.54198576  1
  Pt  Pt7  1  0.25882911  0.73090149  0.45801424  1
  F  F8  1  0.06179875  0.87791364  0.58756310  1
  F  F9  1  0.93820125  0.12208636  0.41243690  1
  F  F10  1  0.56179875  0.62208636  0.91243690  1
  F  F11  1  0.43820125  0.37791364  0.08756310  1
  F  F12  1  0.53473157  0.13761450  0.86732987  1
  F  F13  1  0.46526843  0.86238550  0.13267013  1
  F  F14  1  0.03473157  0.36238550  0.63267013  1
  F  F15  1  0.96526843  0.63761450  0.36732987  1
  F  F16  1  0.04957933  0.08425106  0.82525321  1
  F  F17  1  0.95042067  0.91574894  0.17474679  1
  F  F18  1  0.54957933  0.41574894  0.67474679  1
  F  F19  1  0.45042067  0.58425106  0.32525321  1
  F  F20  1  0.23273993  0.38201170  0.86147785  1
  F  F21  1  0.76726007  0.61798830  0.13852215  1
  F  F22  1  0.73273993  0.11798830  0.63852215  1
  F  F23  1  0.26726007  0.88201170  0.36147785  1
  F  F24  1  0.05833112  0.67546717  0.95663638  1
  F  F25  1  0.94166888  0.32453283  0.04336362  1
  F  F26  1  0.55833112  0.82453283  0.54336362  1
  F  F27  1  0.44166888  0.17546717  0.45663638  1
  F  F28  1  0.26239378  0.57776641  0.55215522  1
  F  F29  1  0.73760622  0.42223359  0.44784478  1
  F  F30  1  0.76239378  0.92223359  0.94784478  1
  F  F31  1  0.23760622  0.07776641  0.05215522  1
  F  F32  1  0.40607818  0.80041288  0.76847615  1
  F  F33  1  0.59392182  0.19958712  0.23152385  1
  F  F34  1  0.90607818  0.69958712  0.73152385  1
  F  F35  1  0.09392182  0.30041288  0.26847615  1
