# generated using pymatgen
data_UGaAu
_symmetry_space_group_name_H-M   'P 1'
_cell_length_a   4.89788383
_cell_length_b   5.72146377
_cell_length_c   8.48022259
_cell_angle_alpha   90.00000000
_cell_angle_beta   90.00000000
_cell_angle_gamma   90.00000000
_symmetry_Int_Tables_number   1
_chemical_formula_structural   UGaAu
_chemical_formula_sum   'U4 Ga4 Au4'
_cell_volume   237.64182786
_cell_formula_units_Z   4
loop_
 _symmetry_equiv_pos_site_id
 _symmetry_equiv_pos_as_xyz
  1  'x, y, z'
loop_
 _atom_site_type_symbol
 _atom_site_label
 _atom_site_symmetry_multiplicity
 _atom_site_fract_x
 _atom_site_fract_y
 _atom_site_fract_z
 _atom_site_occupancy
  U  U0  1  0.75000000  0.00016934  0.24992275  1
  U  U1  1  0.25000000  0.99983066  0.75007725  1
  U  U2  1  0.25000000  0.49983066  0.74992275  1
  U  U3  1  0.75000000  0.50016934  0.25007725  1
  Ga  Ga4  1  0.75000000  0.74957569  0.58270448  1
  Ga  Ga5  1  0.25000000  0.25042431  0.41729552  1
  Ga  Ga6  1  0.25000000  0.75042431  0.08270448  1
  Ga  Ga7  1  0.75000000  0.24957569  0.91729552  1
  Au  Au8  1  0.75000000  0.74954932  0.91639654  1
  Au  Au9  1  0.25000000  0.25045068  0.08360346  1
  Au  Au10  1  0.25000000  0.75045068  0.41639654  1
  Au  Au11  1  0.75000000  0.24954932  0.58360346  1
