# generated using pymatgen
data_UMn(MoO4)4
_symmetry_space_group_name_H-M   'P 1'
_cell_length_a   6.64153946
_cell_length_b   8.07925036
_cell_length_c   11.64384308
_cell_angle_alpha   90.40424662
_cell_angle_beta   89.94604116
_cell_angle_gamma   89.82128087
_symmetry_Int_Tables_number   1
_chemical_formula_structural   UMn(MoO4)4
_chemical_formula_sum   'U2 Mn2 Mo8 O32'
_cell_volume   624.77413707
_cell_formula_units_Z   2
loop_
 _symmetry_equiv_pos_site_id
 _symmetry_equiv_pos_as_xyz
  1  'x, y, z'
loop_
 _atom_site_type_symbol
 _atom_site_label
 _atom_site_symmetry_multiplicity
 _atom_site_fract_x
 _atom_site_fract_y
 _atom_site_fract_z
 _atom_site_occupancy
  U  U0  1  0.70170369  0.24912264  0.24985417  1
  U  U1  1  0.29829631  0.75087736  0.75014583  1
  Mn  Mn2  1  0.29919031  0.25023001  0.74982844  1
  Mn  Mn3  1  0.70080969  0.74976999  0.25017156  1
  Mo  Mo4  1  0.16943708  0.28814760  0.09004452  1
  Mo  Mo5  1  0.83056292  0.71185240  0.90995548  1
  Mo  Mo6  1  0.16835642  0.20831165  0.40961179  1
  Mo  Mo7  1  0.83164358  0.79168835  0.59038821  1
  Mo  Mo8  1  0.17429399  0.79006001  0.09827318  1
  Mo  Mo9  1  0.82570601  0.20993999  0.90172682  1
  Mo  Mo10  1  0.17475458  0.70855484  0.40183217  1
  Mo  Mo11  1  0.82524542  0.29144516  0.59816783  1
  O  O12  1  0.15303044  0.75252566  0.56566057  1
  O  O13  1  0.84696956  0.24747434  0.43433943  1
  O  O14  1  0.15214012  0.49204226  0.40322557  1
  O  O15  1  0.84785988  0.50795774  0.59677443  1
  O  O16  1  0.15669615  0.50522644  0.09644744  1
  O  O17  1  0.84330385  0.49477356  0.90355256  1
  O  O18  1  0.05876637  0.74851553  0.24992010  1
  O  O19  1  0.94123363  0.25148447  0.75007990  1
  O  O20  1  0.70099836  0.47904673  0.25126341  1
  O  O21  1  0.29900164  0.52095327  0.74873659  1
  O  O22  1  0.57022821  0.26173566  0.63053182  1
  O  O23  1  0.42977179  0.73826434  0.36946818  1
  O  O24  1  0.84785722  0.25219693  0.06543960  1
  O  O25  1  0.15214278  0.74780307  0.93456040  1
  O  O26  1  0.70113016  0.02014615  0.24797440  1
  O  O27  1  0.29886984  0.97985385  0.75202560  1
  O  O28  1  0.15543908  0.24836405  0.93357276  1
  O  O29  1  0.84456092  0.75163595  0.06642724  1
  O  O30  1  0.42818542  0.25129831  0.12811970  1
  O  O31  1  0.57181458  0.74870169  0.87188030  1
  O  O32  1  0.42904419  0.75845047  0.13010160  1
  O  O33  1  0.57095581  0.24154953  0.86989840  1
  O  O34  1  0.84334507  0.00867619  0.59668317  1
  O  O35  1  0.15665493  0.99132381  0.40331683  1
  O  O36  1  0.05857747  0.24769762  0.24986242  1
  O  O37  1  0.94142253  0.75230238  0.75013758  1
  O  O38  1  0.42706612  0.24393536  0.37161422  1
  O  O39  1  0.57293388  0.75606464  0.62838578  1
  O  O40  1  0.15305974  0.00671645  0.09735375  1
  O  O41  1  0.84694026  0.99328355  0.90264625  1
  O  O42  1  0.15399403  0.24772061  0.56617644  1
  O  O43  1  0.84600597  0.75227939  0.43382356  1
