# generated using pymatgen
data_Li2Nb(PO4)2
_symmetry_space_group_name_H-M   'P 1'
_cell_length_a   7.77879195
_cell_length_b   12.61217542
_cell_length_c   6.44146363
_cell_angle_alpha   90.00000000
_cell_angle_beta   98.87343367
_cell_angle_gamma   90.00000000
_symmetry_Int_Tables_number   1
_chemical_formula_structural   Li2Nb(PO4)2
_chemical_formula_sum   'Li8 Nb4 P8 O32'
_cell_volume   624.39225362
_cell_formula_units_Z   4
loop_
 _symmetry_equiv_pos_site_id
 _symmetry_equiv_pos_as_xyz
  1  'x, y, z'
loop_
 _atom_site_type_symbol
 _atom_site_label
 _atom_site_symmetry_multiplicity
 _atom_site_fract_x
 _atom_site_fract_y
 _atom_site_fract_z
 _atom_site_occupancy
  Li  Li0  1  0.07124861  0.77161700  0.64683450  1
  Li  Li1  1  0.07124861  0.72838300  0.14683450  1
  Li  Li2  1  0.55298195  0.37762334  0.93965270  1
  Li  Li3  1  0.44701805  0.87762334  0.56034730  1
  Li  Li4  1  0.55298195  0.12237666  0.43965270  1
  Li  Li5  1  0.44701805  0.62237666  0.06034730  1
  Li  Li6  1  0.92875139  0.27161700  0.85316550  1
  Li  Li7  1  0.92875139  0.22838300  0.35316550  1
  Nb  Nb8  1  0.22196762  0.08350165  0.74978517  1
  Nb  Nb9  1  0.22196762  0.41649835  0.24978517  1
  Nb  Nb10  1  0.77803238  0.58350165  0.75021483  1
  Nb  Nb11  1  0.77803238  0.91649835  0.25021483  1
  P  P12  1  0.18170229  0.47440648  0.74156205  1
  P  P13  1  0.18170229  0.02559352  0.24156205  1
  P  P14  1  0.35670374  0.64582470  0.54037638  1
  P  P15  1  0.35670374  0.85417530  0.04037638  1
  P  P16  1  0.64329626  0.14582470  0.95962362  1
  P  P17  1  0.64329626  0.35417530  0.45962362  1
  P  P18  1  0.81829771  0.97440648  0.75843795  1
  P  P19  1  0.81829771  0.52559352  0.25843795  1
  O  O20  1  0.00856118  0.96505133  0.72726727  1
  O  O21  1  0.00856118  0.53494867  0.22726727  1
  O  O22  1  0.08178454  0.19279278  0.66345953  1
  O  O23  1  0.08178454  0.30720722  0.16345953  1
  O  O24  1  0.20606805  0.59319735  0.66082510  1
  O  O25  1  0.30880327  0.46236868  0.95144531  1
  O  O26  1  0.23422405  0.39855812  0.57793485  1
  O  O27  1  0.28442879  0.74289426  0.99723051  1
  O  O28  1  0.20606805  0.90680265  0.16082510  1
  O  O29  1  0.30880327  0.03763132  0.45144531  1
  O  O30  1  0.23422405  0.10144188  0.07793485  1
  O  O31  1  0.28442879  0.75710574  0.49723051  1
  O  O32  1  0.36701255  0.92167743  0.84563845  1
  O  O33  1  0.36701255  0.57832257  0.34563845  1
  O  O34  1  0.47724075  0.14617954  0.79413657  1
  O  O35  1  0.47724075  0.35382046  0.29413657  1
  O  O36  1  0.52275925  0.64617954  0.70586343  1
  O  O37  1  0.52275925  0.85382046  0.20586343  1
  O  O38  1  0.63298745  0.42167743  0.65436155  1
  O  O39  1  0.63298745  0.07832257  0.15436155  1
  O  O40  1  0.71557121  0.24289426  0.50276949  1
  O  O41  1  0.76577595  0.89855812  0.92206515  1
  O  O42  1  0.69119673  0.96236868  0.54855469  1
  O  O43  1  0.79393195  0.09319735  0.83917490  1
  O  O44  1  0.71557121  0.25710574  0.00276949  1
  O  O45  1  0.76577595  0.60144188  0.42206515  1
  O  O46  1  0.69119673  0.53763132  0.04855469  1
  O  O47  1  0.79393195  0.40680265  0.33917490  1
  O  O48  1  0.91821546  0.69279278  0.83654047  1
  O  O49  1  0.91821546  0.80720722  0.33654047  1
  O  O50  1  0.99143882  0.46505133  0.77273273  1
  O  O51  1  0.99143882  0.03494867  0.27273273  1
