# generated using pymatgen
data_TbPPd
_symmetry_space_group_name_H-M   'P 1'
_cell_length_a   4.04026491
_cell_length_b   6.96098694
_cell_length_c   7.76171280
_cell_angle_alpha   90.00000000
_cell_angle_beta   90.00000000
_cell_angle_gamma   90.00000000
_symmetry_Int_Tables_number   1
_chemical_formula_structural   TbPPd
_chemical_formula_sum   'Tb4 P4 Pd4'
_cell_volume   218.29220586
_cell_formula_units_Z   4
loop_
 _symmetry_equiv_pos_site_id
 _symmetry_equiv_pos_as_xyz
  1  'x, y, z'
loop_
 _atom_site_type_symbol
 _atom_site_label
 _atom_site_symmetry_multiplicity
 _atom_site_fract_x
 _atom_site_fract_y
 _atom_site_fract_z
 _atom_site_occupancy
  Tb  Tb0  1  0.75000000  0.97168749  0.31182636  1
  Tb  Tb1  1  0.25000000  0.02831251  0.68817364  1
  Tb  Tb2  1  0.25000000  0.52831251  0.81182636  1
  Tb  Tb3  1  0.75000000  0.47168749  0.18817364  1
  P  P4  1  0.75000000  0.74702910  0.62157522  1
  P  P5  1  0.25000000  0.25297090  0.37842478  1
  P  P6  1  0.25000000  0.75297090  0.12157522  1
  P  P7  1  0.75000000  0.24702910  0.87842478  1
  Pd  Pd8  1  0.75000000  0.84975850  0.93870815  1
  Pd  Pd9  1  0.25000000  0.15024150  0.06129185  1
  Pd  Pd10  1  0.25000000  0.65024150  0.43870815  1
  Pd  Pd11  1  0.75000000  0.34975850  0.56129185  1
