# generated using pymatgen
data_TlVSeO5
_symmetry_space_group_name_H-M   'P 1'
_cell_length_a   7.22608858
_cell_length_b   8.02725585
_cell_length_c   8.81029336
_cell_angle_alpha   90.00000000
_cell_angle_beta   90.00000000
_cell_angle_gamma   90.00000000
_symmetry_Int_Tables_number   1
_chemical_formula_structural   TlVSeO5
_chemical_formula_sum   'Tl4 V4 Se4 O20'
_cell_volume   511.04689723
_cell_formula_units_Z   4
loop_
 _symmetry_equiv_pos_site_id
 _symmetry_equiv_pos_as_xyz
  1  'x, y, z'
loop_
 _atom_site_type_symbol
 _atom_site_label
 _atom_site_symmetry_multiplicity
 _atom_site_fract_x
 _atom_site_fract_y
 _atom_site_fract_z
 _atom_site_occupancy
  Tl  Tl0  1  0.97409308  0.80603833  0.38732099  1
  Tl  Tl1  1  0.02590692  0.30603833  0.61267901  1
  Tl  Tl2  1  0.47409308  0.80603833  0.11267901  1
  Tl  Tl3  1  0.52590692  0.30603833  0.88732099  1
  V  V4  1  0.78815760  0.70889660  0.76013991  1
  V  V5  1  0.21184240  0.20889660  0.23986009  1
  V  V6  1  0.28815760  0.70889660  0.73986009  1
  V  V7  1  0.71184240  0.20889660  0.26013991  1
  Se  Se8  1  0.95317152  0.99961233  0.98373723  1
  Se  Se9  1  0.04682848  0.49961233  0.01626277  1
  Se  Se10  1  0.45317152  0.99961233  0.51626277  1
  Se  Se11  1  0.54682848  0.49961233  0.48373723  1
  O  O12  1  0.89092448  0.47351791  0.87164045  1
  O  O13  1  0.10907552  0.97351791  0.12835955  1
  O  O14  1  0.39092448  0.47351791  0.62835955  1
  O  O15  1  0.60907552  0.97351791  0.37164045  1
  O  O16  1  0.75168101  0.55997327  0.58099064  1
  O  O17  1  0.24831899  0.05997327  0.41900936  1
  O  O18  1  0.25168101  0.55997327  0.91900936  1
  O  O19  1  0.74831899  0.05997327  0.08099064  1
  O  O20  1  0.88978349  0.78955008  0.95706335  1
  O  O21  1  0.11021651  0.28955008  0.04293665  1
  O  O22  1  0.38978349  0.78955008  0.54293665  1
  O  O23  1  0.61021651  0.28955008  0.45706335  1
  O  O24  1  0.56515276  0.67524092  0.82290952  1
  O  O25  1  0.43484724  0.17524092  0.17709048  1
  O  O26  1  0.06515276  0.67524092  0.67709048  1
  O  O27  1  0.93484724  0.17524092  0.32290952  1
  O  O28  1  0.77883580  0.89572056  0.67904385  1
  O  O29  1  0.22116420  0.39572056  0.32095615  1
  O  O30  1  0.27883580  0.89572056  0.82095615  1
  O  O31  1  0.72116420  0.39572056  0.17904385  1
