# generated using pymatgen
data_U2Nb3Si4
_symmetry_space_group_name_H-M   'P 1'
_cell_length_a   7.05412037
_cell_length_b   7.05412037
_cell_length_c   12.99670869
_cell_angle_alpha   90.00000000
_cell_angle_beta   90.00000000
_cell_angle_gamma   90.00000000
_symmetry_Int_Tables_number   1
_chemical_formula_structural   U2Nb3Si4
_chemical_formula_sum   'U8 Nb12 Si16'
_cell_volume   646.72420692
_cell_formula_units_Z   4
loop_
 _symmetry_equiv_pos_site_id
 _symmetry_equiv_pos_as_xyz
  1  'x, y, z'
loop_
 _atom_site_type_symbol
 _atom_site_label
 _atom_site_symmetry_multiplicity
 _atom_site_fract_x
 _atom_site_fract_y
 _atom_site_fract_z
 _atom_site_occupancy
  U  U0  1  0.99542659  0.33347755  0.21879157  1
  U  U1  1  0.00457341  0.66652245  0.71879157  1
  U  U2  1  0.16652245  0.49542659  0.46879157  1
  U  U3  1  0.50457341  0.83347755  0.03120843  1
  U  U4  1  0.83347755  0.50457341  0.96879157  1
  U  U5  1  0.49542659  0.16652245  0.53120843  1
  U  U6  1  0.33347755  0.99542659  0.78120843  1
  U  U7  1  0.66652245  0.00457341  0.28120843  1
  Nb  Nb8  1  0.16830007  0.16830007  0.00000000  1
  Nb  Nb9  1  0.83169993  0.83169993  0.50000000  1
  Nb  Nb10  1  0.33169993  0.66830007  0.25000000  1
  Nb  Nb11  1  0.66830007  0.33169993  0.75000000  1
  Nb  Nb12  1  0.15657777  0.99883444  0.37517083  1
  Nb  Nb13  1  0.84342223  0.00116556  0.87517083  1
  Nb  Nb14  1  0.50116556  0.65657777  0.62517083  1
  Nb  Nb15  1  0.34342223  0.49883444  0.87482917  1
  Nb  Nb16  1  0.49883444  0.34342223  0.12517083  1
  Nb  Nb17  1  0.65657777  0.50116556  0.37482917  1
  Nb  Nb18  1  0.99883444  0.15657777  0.62482917  1
  Nb  Nb19  1  0.00116556  0.84342223  0.12482917  1
  Si  Si20  1  0.29529797  0.04049603  0.18543172  1
  Si  Si21  1  0.70470203  0.95950397  0.68543172  1
  Si  Si22  1  0.45950397  0.79529797  0.43543172  1
  Si  Si23  1  0.20470203  0.54049603  0.06456828  1
  Si  Si24  1  0.54049603  0.20470203  0.93543172  1
  Si  Si25  1  0.79529797  0.45950397  0.56456828  1
  Si  Si26  1  0.04049603  0.29529797  0.81456828  1
  Si  Si27  1  0.95950397  0.70470203  0.31456828  1
  Si  Si28  1  0.37077255  0.29279381  0.31701078  1
  Si  Si29  1  0.62922745  0.70720619  0.81701078  1
  Si  Si30  1  0.20720619  0.87077255  0.56701078  1
  Si  Si31  1  0.12922745  0.79279381  0.93298922  1
  Si  Si32  1  0.79279381  0.12922745  0.06701078  1
  Si  Si33  1  0.87077255  0.20720619  0.43298922  1
  Si  Si34  1  0.29279381  0.37077255  0.68298922  1
  Si  Si35  1  0.70720619  0.62922745  0.18298922  1
