# generated using pymatgen
data_Th2Al4Si2Au3
_symmetry_space_group_name_H-M   'P 1'
_cell_length_a   4.28657828
_cell_length_b   4.32253543
_cell_length_c   12.07360303
_cell_angle_alpha   100.31196552
_cell_angle_beta   90.00000000
_cell_angle_gamma   90.00000000
_symmetry_Int_Tables_number   1
_chemical_formula_structural   Th2Al4Si2Au3
_chemical_formula_sum   'Th2 Al4 Si2 Au3'
_cell_volume   220.09697683
_cell_formula_units_Z   1
loop_
 _symmetry_equiv_pos_site_id
 _symmetry_equiv_pos_as_xyz
  1  'x, y, z'
loop_
 _atom_site_type_symbol
 _atom_site_label
 _atom_site_symmetry_multiplicity
 _atom_site_fract_x
 _atom_site_fract_y
 _atom_site_fract_z
 _atom_site_occupancy
  Th  Th0  1  -0.00000000  0.17847346  0.35694693  1
  Th  Th1  1  0.00000000  0.82152654  0.64305307  1
  Al  Al2  1  0.00000000  0.43671172  0.87342344  1
  Al  Al3  1  0.00000000  0.56328828  0.12657656  1
  Al  Al4  1  0.50000000  0.06295673  0.12591346  1
  Al  Al5  1  0.50000000  0.93704327  0.87408654  1
  Si  Si6  1  0.50000000  0.27312254  0.54624508  1
  Si  Si7  1  0.50000000  0.72687746  0.45375492  1
  Au  Au8  1  0.50000000  0.37680640  0.75361279  1
  Au  Au9  1  0.50000000  0.62319360  0.24638721  1
  Au  Au10  1  0.00000000  -0.00000000  -0.00000000  1
