# generated using pymatgen
data_SmAs2Pd3
_symmetry_space_group_name_H-M   'P 1'
_cell_length_a   4.12302732
_cell_length_b   8.63217882
_cell_length_c   10.05219707
_cell_angle_alpha   107.46601554
_cell_angle_beta   90.00000000
_cell_angle_gamma   103.81674411
_symmetry_Int_Tables_number   1
_chemical_formula_structural   SmAs2Pd3
_chemical_formula_sum   'Sm3 As6 Pd9'
_cell_volume   330.40162680
_cell_formula_units_Z   3
loop_
 _symmetry_equiv_pos_site_id
 _symmetry_equiv_pos_as_xyz
  1  'x, y, z'
loop_
 _atom_site_type_symbol
 _atom_site_label
 _atom_site_symmetry_multiplicity
 _atom_site_fract_x
 _atom_site_fract_y
 _atom_site_fract_z
 _atom_site_occupancy
  Sm  Sm0  1  0.84556634  0.69113269  0.29948697  1
  Sm  Sm1  1  0.15443366  0.30886731  0.70051303  1
  Sm  Sm2  1  0.00000000  -0.00000000  -0.00000000  1
  As  As3  1  0.80084953  0.60169906  0.86873689  1
  As  As4  1  0.19915047  0.39830094  0.13126311  1
  As  As5  1  0.53933300  0.07866600  0.78676252  1
  As  As6  1  0.46066700  0.92133400  0.21323748  1
  As  As7  1  0.63611344  0.27222688  0.45415297  1
  As  As8  1  0.36388656  0.72777312  0.54584703  1
  Pd  Pd9  1  0.95743230  0.91486459  0.66851971  1
  Pd  Pd10  1  0.04256770  0.08513541  0.33148029  1
  Pd  Pd11  1  0.77894949  0.55789898  0.60966023  1
  Pd  Pd12  1  0.22105051  0.44210102  0.39033977  1
  Pd  Pd13  1  0.37800837  0.75601675  0.80122400  1
  Pd  Pd14  1  0.62199163  0.24398325  0.19877600  1
  Pd  Pd15  1  0.50000000  -0.00000000  0.50000000  1
  Pd  Pd16  1  0.68004949  0.36009897  0.96676198  1
  Pd  Pd17  1  0.31995051  0.63990103  0.03323802  1
