# generated using pymatgen
data_TaSiPt
_symmetry_space_group_name_H-M   'P 1'
_cell_length_a   3.85623902
_cell_length_b   6.45174595
_cell_length_c   7.42902817
_cell_angle_alpha   90.00000000
_cell_angle_beta   90.00000000
_cell_angle_gamma   90.00000000
_symmetry_Int_Tables_number   1
_chemical_formula_structural   TaSiPt
_chemical_formula_sum   'Ta4 Si4 Pt4'
_cell_volume   184.83031676
_cell_formula_units_Z   4
loop_
 _symmetry_equiv_pos_site_id
 _symmetry_equiv_pos_as_xyz
  1  'x, y, z'
loop_
 _atom_site_type_symbol
 _atom_site_label
 _atom_site_symmetry_multiplicity
 _atom_site_fract_x
 _atom_site_fract_y
 _atom_site_fract_z
 _atom_site_occupancy
  Ta  Ta0  1  0.75000000  0.97409530  0.33546941  1
  Ta  Ta1  1  0.25000000  0.02590470  0.66453059  1
  Ta  Ta2  1  0.25000000  0.52590470  0.83546941  1
  Ta  Ta3  1  0.75000000  0.47409530  0.16453059  1
  Si  Si4  1  0.75000000  0.73229759  0.62497431  1
  Si  Si5  1  0.25000000  0.26770241  0.37502569  1
  Si  Si6  1  0.25000000  0.76770241  0.12497431  1
  Si  Si7  1  0.75000000  0.23229759  0.87502569  1
  Pt  Pt8  1  0.75000000  0.84708833  0.93242758  1
  Pt  Pt9  1  0.25000000  0.15291167  0.06757242  1
  Pt  Pt10  1  0.25000000  0.65291167  0.43242758  1
  Pt  Pt11  1  0.75000000  0.34708833  0.56757242  1
