# generated using pymatgen
data_Sm4(TmS2)11
_symmetry_space_group_name_H-M   'P 1'
_cell_length_a   3.90705078
_cell_length_b   11.26917295
_cell_length_c   19.49488176
_cell_angle_alpha   91.39735199
_cell_angle_beta   95.75109582
_cell_angle_gamma   90.00000000
_symmetry_Int_Tables_number   1
_chemical_formula_structural   Sm4(TmS2)11
_chemical_formula_sum   'Sm4 Tm11 S22'
_cell_volume   853.76771351
_cell_formula_units_Z   1
loop_
 _symmetry_equiv_pos_site_id
 _symmetry_equiv_pos_as_xyz
  1  'x, y, z'
loop_
 _atom_site_type_symbol
 _atom_site_label
 _atom_site_symmetry_multiplicity
 _atom_site_fract_x
 _atom_site_fract_y
 _atom_site_fract_z
 _atom_site_occupancy
  Sm  Sm0  1  0.36705887  0.34802948  0.73411774  1
  Sm  Sm1  1  0.63294113  0.65197052  0.26588226  1
  Sm  Sm2  1  0.10494263  0.01174745  0.20988526  1
  Sm  Sm3  1  0.89505737  0.98825255  0.79011474  1
  Tm  Tm4  1  0.46127469  0.27046743  0.92254939  1
  Tm  Tm5  1  0.53872531  0.72953257  0.07745061  1
  Tm  Tm6  1  0.06986332  0.35965370  0.13972665  1
  Tm  Tm7  1  0.93013668  0.64034630  0.86027335  1
  Tm  Tm8  1  0.26393414  0.35240413  0.52786827  1
  Tm  Tm9  1  0.73606586  0.64759587  0.47213173  1
  Tm  Tm10  1  0.79797805  0.05845931  0.59595611  1
  Tm  Tm11  1  0.20202195  0.94154069  0.40404389  1
  Tm  Tm12  1  -0.00000000  0.00000000  -0.00000000  1
  Tm  Tm13  1  0.65751424  0.30158592  0.31502848  1
  Tm  Tm14  1  0.34248576  0.69841408  0.68497152  1
  S  S15  1  0.59279621  0.21048601  0.18559243  1
  S  S16  1  0.40720379  0.78951399  0.81440757  1
  S  S17  1  0.08839113  0.75365407  0.17678227  1
  S  S18  1  0.91160887  0.24634593  0.82321773  1
  S  S19  1  0.00780471  0.23939609  0.01560943  1
  S  S20  1  0.99219529  0.76060391  0.98439057  1
  S  S21  1  0.35082027  0.09324331  0.70164054  1
  S  S22  1  0.64917973  0.90675669  0.29835946  1
  S  S23  1  0.45248301  0.03055347  0.90496603  1
  S  S24  1  0.54751699  0.96944653  0.09503397  1
  S  S25  1  0.16840228  0.14999805  0.33680457  1
  S  S26  1  0.83159772  0.85000195  0.66319543  1
  S  S27  1  0.25484412  0.11964116  0.50968825  1
  S  S28  1  0.74515588  0.88035884  0.49031175  1
  S  S29  1  0.18843729  0.69113466  0.37687457  1
  S  S30  1  0.81156271  0.30886534  0.62312543  1
  S  S31  1  0.44460266  0.49328574  0.88920532  1
  S  S32  1  0.55539734  0.50671426  0.11079468  1
  S  S33  1  0.13495097  0.45469830  0.26990194  1
  S  S34  1  0.86504903  0.54530170  0.73009806  1
  S  S35  1  0.28030618  0.58968746  0.56061236  1
  S  S36  1  0.71969382  0.41031254  0.43938764  1
