# generated using pymatgen
data_Tb4C2Br3
_symmetry_space_group_name_H-M   'P 1'
_cell_length_a   3.71202983
_cell_length_b   10.80596579
_cell_length_c   20.48773571
_cell_angle_alpha   90.00000000
_cell_angle_beta   90.00000000
_cell_angle_gamma   90.00000000
_symmetry_Int_Tables_number   1
_chemical_formula_structural   Tb4C2Br3
_chemical_formula_sum   'Tb16 C8 Br12'
_cell_volume   821.80543474
_cell_formula_units_Z   4
loop_
 _symmetry_equiv_pos_site_id
 _symmetry_equiv_pos_as_xyz
  1  'x, y, z'
loop_
 _atom_site_type_symbol
 _atom_site_label
 _atom_site_symmetry_multiplicity
 _atom_site_fract_x
 _atom_site_fract_y
 _atom_site_fract_z
 _atom_site_occupancy
  Tb  Tb0  1  0.75000000  0.63671434  0.92118088  1
  Tb  Tb1  1  0.25000000  0.36328566  0.07881912  1
  Tb  Tb2  1  0.25000000  0.86328566  0.42118088  1
  Tb  Tb3  1  0.75000000  0.13671434  0.57881912  1
  Tb  Tb4  1  0.75000000  0.63792461  0.75639687  1
  Tb  Tb5  1  0.25000000  0.36207539  0.24360313  1
  Tb  Tb6  1  0.25000000  0.86207539  0.25639687  1
  Tb  Tb7  1  0.75000000  0.13792461  0.74360313  1
  Tb  Tb8  1  0.75000000  0.62822922  0.33256504  1
  Tb  Tb9  1  0.25000000  0.37177078  0.66743496  1
  Tb  Tb10  1  0.25000000  0.87177078  0.83256504  1
  Tb  Tb11  1  0.75000000  0.12822922  0.16743496  1
  Tb  Tb12  1  0.75000000  0.59750366  0.17160702  1
  Tb  Tb13  1  0.25000000  0.40249634  0.82839298  1
  Tb  Tb14  1  0.25000000  0.90249634  0.67160702  1
  Tb  Tb15  1  0.75000000  0.09750366  0.32839298  1
  C  C16  1  0.75000000  0.88818155  0.75021966  1
  C  C17  1  0.25000000  0.11181845  0.24978034  1
  C  C18  1  0.25000000  0.61181845  0.25021966  1
  C  C19  1  0.75000000  0.38818155  0.74978034  1
  C  C20  1  0.75000000  0.86290610  0.34495431  1
  C  C21  1  0.25000000  0.13709390  0.65504569  1
  C  C22  1  0.25000000  0.63709390  0.84495431  1
  C  C23  1  0.75000000  0.36290610  0.15504569  1
  Br  Br24  1  0.75000000  0.88962312  0.94717709  1
  Br  Br25  1  0.25000000  0.11037688  0.05282291  1
  Br  Br26  1  0.25000000  0.61037688  0.44717709  1
  Br  Br27  1  0.75000000  0.38962312  0.55282291  1
  Br  Br28  1  0.75000000  0.87341437  0.54795007  1
  Br  Br29  1  0.25000000  0.12658563  0.45204993  1
  Br  Br30  1  0.25000000  0.62658563  0.04795007  1
  Br  Br31  1  0.75000000  0.37341437  0.95204993  1
  Br  Br32  1  0.75000000  0.86122754  0.14359215  1
  Br  Br33  1  0.25000000  0.13877246  0.85640785  1
  Br  Br34  1  0.25000000  0.63877246  0.64359215  1
  Br  Br35  1  0.75000000  0.36122754  0.35640785  1
