# generated using pymatgen
data_Sn4Rh
_symmetry_space_group_name_H-M   'P 1'
_cell_length_a   6.86574808
_cell_length_b   6.86574808
_cell_length_c   8.79735677
_cell_angle_alpha   90.00000000
_cell_angle_beta   90.00000000
_cell_angle_gamma   119.99999728
_symmetry_Int_Tables_number   1
_chemical_formula_structural   Sn4Rh
_chemical_formula_sum   'Sn12 Rh3'
_cell_volume   359.13569828
_cell_formula_units_Z   3
loop_
 _symmetry_equiv_pos_site_id
 _symmetry_equiv_pos_as_xyz
  1  'x, y, z'
loop_
 _atom_site_type_symbol
 _atom_site_label
 _atom_site_symmetry_multiplicity
 _atom_site_fract_x
 _atom_site_fract_y
 _atom_site_fract_z
 _atom_site_occupancy
  Sn  Sn0  1  0.76372644  0.26270739  0.56961763  1
  Sn  Sn1  1  0.49898094  0.23627356  0.23628463  1
  Sn  Sn2  1  0.50101906  0.73729261  0.43038237  1
  Sn  Sn3  1  0.73729261  0.50101906  0.90295063  1
  Sn  Sn4  1  0.26270739  0.76372644  0.76371537  1
  Sn  Sn5  1  0.23627356  0.49898094  0.09704937  1
  Sn  Sn6  1  0.37011985  0.37011985  0.66666700  1
  Sn  Sn7  1  1.00000000  0.62988015  0.33333300  1
  Sn  Sn8  1  0.62988015  1.00000000  -0.00000000  1
  Sn  Sn9  1  0.90782581  0.90782581  0.66666700  1
  Sn  Sn10  1  0.00000000  0.09217419  0.33333300  1
  Sn  Sn11  1  0.09217419  0.00000000  0.00000000  1
  Rh  Rh12  1  0.69014172  0.69014172  0.16666700  1
  Rh  Rh13  1  1.00000000  0.30985828  0.83333300  1
  Rh  Rh14  1  0.30985828  1.00000000  0.50000000  1
