# generated using pymatgen
data_Ta3Se12I
_symmetry_space_group_name_H-M   'P 1'
_cell_length_a   9.71919161
_cell_length_b   9.71919161
_cell_length_c   19.36260884
_cell_angle_alpha   90.00000000
_cell_angle_beta   90.00000000
_cell_angle_gamma   90.00000000
_symmetry_Int_Tables_number   1
_chemical_formula_structural   Ta3Se12I
_chemical_formula_sum   'Ta12 Se48 I4'
_cell_volume   1829.04403032
_cell_formula_units_Z   4
loop_
 _symmetry_equiv_pos_site_id
 _symmetry_equiv_pos_as_xyz
  1  'x, y, z'
loop_
 _atom_site_type_symbol
 _atom_site_label
 _atom_site_symmetry_multiplicity
 _atom_site_fract_x
 _atom_site_fract_y
 _atom_site_fract_z
 _atom_site_occupancy
  Ta  Ta0  1  -0.00000000  0.50000000  0.07916143  1
  Ta  Ta1  1  0.00000000  0.50000000  0.92083857  1
  Ta  Ta2  1  0.50000000  0.00000000  0.07916143  1
  Ta  Ta3  1  0.50000000  0.00000000  0.42083857  1
  Ta  Ta4  1  0.50000000  0.00000000  0.92083857  1
  Ta  Ta5  1  0.50000000  0.00000000  0.57916143  1
  Ta  Ta6  1  0.00000000  0.50000000  0.42083857  1
  Ta  Ta7  1  0.00000000  0.50000000  0.57916143  1
  Ta  Ta8  1  0.00000000  0.50000000  0.25000000  1
  Ta  Ta9  1  0.00000000  0.50000000  0.75000000  1
  Ta  Ta10  1  0.50000000  0.00000000  0.25000000  1
  Ta  Ta11  1  0.50000000  0.00000000  0.75000000  1
  Se  Se12  1  0.22176049  0.48073104  0.00000000  1
  Se  Se13  1  0.77823951  0.51926896  0.00000000  1
  Se  Se14  1  0.51926896  0.22176049  0.00000000  1
  Se  Se15  1  0.27823951  0.98073104  0.50000000  1
  Se  Se16  1  0.48073104  0.77823951  0.00000000  1
  Se  Se17  1  0.72176049  0.01926896  0.50000000  1
  Se  Se18  1  0.98073104  0.72176049  0.50000000  1
  Se  Se19  1  0.01926896  0.27823951  0.50000000  1
  Se  Se20  1  0.29012751  0.04852990  0.32845769  1
  Se  Se21  1  0.70987249  0.95147010  0.67154231  1
  Se  Se22  1  0.70987249  0.95147010  0.32845769  1
  Se  Se23  1  0.95147010  0.29012751  0.32845769  1
  Se  Se24  1  0.20987249  0.54852990  0.17154231  1
  Se  Se25  1  0.29012751  0.04852990  0.67154231  1
  Se  Se26  1  0.04852990  0.70987249  0.67154231  1
  Se  Se27  1  0.79012751  0.45147010  0.82845769  1
  Se  Se28  1  0.04852990  0.70987249  0.32845769  1
  Se  Se29  1  0.79012751  0.45147010  0.17154231  1
  Se  Se30  1  0.95147010  0.29012751  0.67154231  1
  Se  Se31  1  0.20987249  0.54852990  0.82845769  1
  Se  Se32  1  0.54852990  0.79012751  0.17154231  1
  Se  Se33  1  0.45147010  0.20987249  0.82845769  1
  Se  Se34  1  0.45147010  0.20987249  0.17154231  1
  Se  Se35  1  0.54852990  0.79012751  0.82845769  1
  Se  Se36  1  0.12307709  0.31592663  0.16010521  1
  Se  Se37  1  0.87692291  0.68407337  0.83989479  1
  Se  Se38  1  0.87692291  0.68407337  0.16010521  1
  Se  Se39  1  0.68407337  0.12307709  0.16010521  1
  Se  Se40  1  0.37692291  0.81592663  0.33989479  1
  Se  Se41  1  0.12307709  0.31592663  0.83989479  1
  Se  Se42  1  0.31592663  0.87692291  0.83989479  1
  Se  Se43  1  0.62307709  0.18407337  0.66010521  1
  Se  Se44  1  0.31592663  0.87692291  0.16010521  1
  Se  Se45  1  0.62307709  0.18407337  0.33989479  1
  Se  Se46  1  0.68407337  0.12307709  0.83989479  1
  Se  Se47  1  0.37692291  0.81592663  0.66010521  1
  Se  Se48  1  0.81592663  0.62307709  0.33989479  1
  Se  Se49  1  0.18407337  0.37692291  0.66010521  1
  Se  Se50  1  0.18407337  0.37692291  0.33989479  1
  Se  Se51  1  0.81592663  0.62307709  0.66010521  1
  Se  Se52  1  0.30322311  0.10585052  0.00000000  1
  Se  Se53  1  0.69677689  0.89414948  0.00000000  1
  Se  Se54  1  0.89414948  0.30322311  0.00000000  1
  Se  Se55  1  0.19677689  0.60585052  0.50000000  1
  Se  Se56  1  0.10585052  0.69677689  0.00000000  1
  Se  Se57  1  0.80322311  0.39414948  0.50000000  1
  Se  Se58  1  0.60585052  0.80322311  0.50000000  1
  Se  Se59  1  0.39414948  0.19677689  0.50000000  1
  I  I60  1  0.00000000  0.00000000  0.13019802  1
  I  I61  1  -0.00000000  0.00000000  0.86980198  1
  I  I62  1  0.50000000  0.50000000  0.36980198  1
  I  I63  1  0.50000000  0.50000000  0.63019802  1
