# generated using pymatgen
data_Sr2VBrO4
_symmetry_space_group_name_H-M   'P 1'
_cell_length_a   6.68723796
_cell_length_b   7.61702519
_cell_length_c   11.81136758
_cell_angle_alpha   90.00000000
_cell_angle_beta   90.00000000
_cell_angle_gamma   90.00000000
_symmetry_Int_Tables_number   1
_chemical_formula_structural   Sr2VBrO4
_chemical_formula_sum   'Sr8 V4 Br4 O16'
_cell_volume   601.63397675
_cell_formula_units_Z   4
loop_
 _symmetry_equiv_pos_site_id
 _symmetry_equiv_pos_as_xyz
  1  'x, y, z'
loop_
 _atom_site_type_symbol
 _atom_site_label
 _atom_site_symmetry_multiplicity
 _atom_site_fract_x
 _atom_site_fract_y
 _atom_site_fract_z
 _atom_site_occupancy
  Sr  Sr0  1  0.62501969  0.25000000  0.00000000  1
  Sr  Sr1  1  0.37498031  0.75000000  -0.00000000  1
  Sr  Sr2  1  0.37498031  0.75000000  0.50000000  1
  Sr  Sr3  1  0.62501969  0.25000000  0.50000000  1
  Sr  Sr4  1  0.12198243  0.03055182  0.25000000  1
  Sr  Sr5  1  0.87801757  0.96944818  0.75000000  1
  Sr  Sr6  1  0.87801757  0.53055182  0.25000000  1
  Sr  Sr7  1  0.12198243  0.46944818  0.75000000  1
  V  V8  1  0.12485074  0.25000000  -0.00000000  1
  V  V9  1  0.87514926  0.75000000  0.00000000  1
  V  V10  1  0.87514926  0.75000000  0.50000000  1
  V  V11  1  0.12485074  0.25000000  0.50000000  1
  Br  Br12  1  0.47206981  0.32357109  0.25000000  1
  Br  Br13  1  0.52793019  0.67642891  0.75000000  1
  Br  Br14  1  0.52793019  0.82357109  0.25000000  1
  Br  Br15  1  0.47206981  0.17642891  0.75000000  1
  O  O16  1  0.03180787  0.77117530  0.11859305  1
  O  O17  1  0.96819213  0.22882470  0.88140695  1
  O  O18  1  0.96819213  0.22882470  0.61859305  1
  O  O19  1  0.96819213  0.27117530  0.38140695  1
  O  O20  1  0.03180787  0.77117530  0.38140695  1
  O  O21  1  0.03180787  0.72882470  0.61859305  1
  O  O22  1  0.03180787  0.72882470  0.88140695  1
  O  O23  1  0.96819213  0.27117530  0.11859305  1
  O  O24  1  0.28056610  0.07239608  0.02761974  1
  O  O25  1  0.71943390  0.92760392  0.97238026  1
  O  O26  1  0.71943390  0.92760392  0.52761974  1
  O  O27  1  0.71943390  0.57239608  0.47238026  1
  O  O28  1  0.28056610  0.07239608  0.47238026  1
  O  O29  1  0.28056610  0.42760392  0.52761974  1
  O  O30  1  0.28056610  0.42760392  0.97238026  1
  O  O31  1  0.71943390  0.57239608  0.02761974  1
