# generated using pymatgen
data_TbCrGeO5
_symmetry_space_group_name_H-M   'P 1'
_cell_length_a   5.81362437
_cell_length_b   7.44662787
_cell_length_c   8.51386588
_cell_angle_alpha   90.00000000
_cell_angle_beta   90.00000000
_cell_angle_gamma   90.00000000
_symmetry_Int_Tables_number   1
_chemical_formula_structural   TbCrGeO5
_chemical_formula_sum   'Tb4 Cr4 Ge4 O20'
_cell_volume   368.58140696
_cell_formula_units_Z   4
loop_
 _symmetry_equiv_pos_site_id
 _symmetry_equiv_pos_as_xyz
  1  'x, y, z'
loop_
 _atom_site_type_symbol
 _atom_site_label
 _atom_site_symmetry_multiplicity
 _atom_site_fract_x
 _atom_site_fract_y
 _atom_site_fract_z
 _atom_site_occupancy
  Tb  Tb0  1  0.50000000  0.35781174  0.32617490  1
  Tb  Tb1  1  0.50000000  0.64218826  0.67382510  1
  Tb  Tb2  1  0.50000000  0.14218826  0.82617490  1
  Tb  Tb3  1  0.50000000  0.85781174  0.17382510  1
  Cr  Cr4  1  0.24928960  -0.00000000  0.50000000  1
  Cr  Cr5  1  0.75071040  -0.00000000  0.50000000  1
  Cr  Cr6  1  0.75071040  0.50000000  -0.00000000  1
  Cr  Cr7  1  0.24928960  0.50000000  -0.00000000  1
  Ge  Ge8  1  -0.00000000  0.11626091  0.14451228  1
  Ge  Ge9  1  -0.00000000  0.88373909  0.85548772  1
  Ge  Ge10  1  -0.00000000  0.38373909  0.64451228  1
  Ge  Ge11  1  -0.00000000  0.61626091  0.35548772  1
  O  O12  1  0.24940059  0.10979642  0.28235407  1
  O  O13  1  0.75059941  0.89020358  0.71764593  1
  O  O14  1  0.24940059  0.89020358  0.71764593  1
  O  O15  1  0.75059941  0.39020358  0.78235407  1
  O  O16  1  0.75059941  0.10979642  0.28235407  1
  O  O17  1  0.24940059  0.60979642  0.21764593  1
  O  O18  1  0.75059941  0.60979642  0.21764593  1
  O  O19  1  0.24940059  0.39020358  0.78235407  1
  O  O20  1  -0.00000000  0.34213328  0.08033616  1
  O  O21  1  -0.00000000  0.65786672  0.91966384  1
  O  O22  1  -0.00000000  0.15786672  0.58033616  1
  O  O23  1  -0.00000000  0.84213328  0.41966384  1
  O  O24  1  0.50000000  0.33114285  0.05638832  1
  O  O25  1  0.50000000  0.66885715  0.94361168  1
  O  O26  1  0.50000000  0.16885715  0.55638832  1
  O  O27  1  0.50000000  0.83114285  0.44361168  1
  O  O28  1  0.21138542  -0.00000000  -0.00000000  1
  O  O29  1  0.78861458  -0.00000000  0.00000000  1
  O  O30  1  0.78861458  0.50000000  0.50000000  1
  O  O31  1  0.21138542  0.50000000  0.50000000  1
