# generated using pymatgen
data_ThNb4O12
_symmetry_space_group_name_H-M   'P 1'
_cell_length_a   5.61209739
_cell_length_b   5.61209739
_cell_length_c   8.90265701
_cell_angle_alpha   71.62757851
_cell_angle_beta   71.62757851
_cell_angle_gamma   90.00000000
_symmetry_Int_Tables_number   1
_chemical_formula_structural   ThNb4O12
_chemical_formula_sum   'Th1 Nb4 O12'
_cell_volume   250.99766860
_cell_formula_units_Z   1
loop_
 _symmetry_equiv_pos_site_id
 _symmetry_equiv_pos_as_xyz
  1  'x, y, z'
loop_
 _atom_site_type_symbol
 _atom_site_label
 _atom_site_symmetry_multiplicity
 _atom_site_fract_x
 _atom_site_fract_y
 _atom_site_fract_z
 _atom_site_occupancy
  Th  Th0  1  0.25000000  0.25000000  0.50000000  1
  Nb  Nb1  1  0.62205266  0.12205266  0.75589468  1
  Nb  Nb2  1  0.87794734  0.37794734  0.24410532  1
  Nb  Nb3  1  0.12205266  0.62205266  0.75589468  1
  Nb  Nb4  1  0.37794734  0.87794734  0.24410532  1
  O  O5  1  0.00000000  0.50000000  0.00000000  1
  O  O6  1  0.12728410  0.12728410  0.27524314  1
  O  O7  1  0.50000000  0.00000000  0.00000000  1
  O  O8  1  0.12728410  0.59747276  0.27524314  1
  O  O9  1  0.59747276  0.12728410  0.27524314  1
  O  O10  1  0.59747276  0.59747276  0.27524314  1
  O  O11  1  0.75000000  0.25000000  0.50000000  1
  O  O12  1  0.37271590  0.37271590  0.72475686  1
  O  O13  1  0.25000000  0.75000000  0.50000000  1
  O  O14  1  0.90252724  0.37271590  0.72475686  1
  O  O15  1  0.37271590  0.90252724  0.72475686  1
  O  O16  1  0.90252724  0.90252724  0.72475686  1
