# generated using pymatgen
data_LiTi(PO3)4
_symmetry_space_group_name_H-M   'P 1'
_cell_length_a   6.91846474
_cell_length_b   7.12500517
_cell_length_c   8.96115669
_cell_angle_alpha   90.00000000
_cell_angle_beta   90.00000000
_cell_angle_gamma   82.23691317
_symmetry_Int_Tables_number   1
_chemical_formula_structural   LiTi(PO3)4
_chemical_formula_sum   'Li2 Ti2 P8 O24'
_cell_volume   437.68368392
_cell_formula_units_Z   2
loop_
 _symmetry_equiv_pos_site_id
 _symmetry_equiv_pos_as_xyz
  1  'x, y, z'
loop_
 _atom_site_type_symbol
 _atom_site_label
 _atom_site_symmetry_multiplicity
 _atom_site_fract_x
 _atom_site_fract_y
 _atom_site_fract_z
 _atom_site_occupancy
  Li  Li0  1  0.17620601  0.18008487  0.07075829  1
  Li  Li1  1  0.82379399  0.81991513  0.57075829  1
  Ti  Ti2  1  0.21759309  0.72710911  0.36130742  1
  Ti  Ti3  1  0.78240691  0.27289089  0.86130742  1
  P  P4  1  0.97601892  0.44414085  0.36024894  1
  P  P5  1  0.09214267  0.12677481  0.56016129  1
  P  P6  1  0.42429316  0.56989578  0.71024226  1
  P  P7  1  0.45756791  0.08516284  0.39950643  1
  P  P8  1  0.54243209  0.91483716  0.89950643  1
  P  P9  1  0.57570684  0.43010422  0.21024226  1
  P  P10  1  0.90785733  0.87322519  0.06016129  1
  P  P11  1  0.02398108  0.55585915  0.86024894  1
  O  O12  1  0.04507438  0.75295384  0.93852914  1
  O  O13  1  0.08594554  0.92027820  0.52255183  1
  O  O14  1  0.02138511  0.39563807  0.97099602  1
  O  O15  1  0.01681242  0.18409995  0.71207377  1
  O  O16  1  0.21342374  0.53044163  0.76261662  1
  O  O17  1  0.15632575  0.43177256  0.26605841  1
  O  O18  1  0.30574602  0.18397888  0.53128343  1
  O  O19  1  0.32826875  0.98904401  0.29559004  1
  O  O20  1  0.55454215  0.38621609  0.74204462  1
  O  O21  1  0.46919723  0.73447475  0.82010058  1
  O  O22  1  0.37147701  0.02450852  0.97152690  1
  O  O23  1  0.40736628  0.63422574  0.55111402  1
  O  O24  1  0.59263372  0.36577426  0.05111402  1
  O  O25  1  0.62852299  0.97549148  0.47152690  1
  O  O26  1  0.53080277  0.26552525  0.32010058  1
  O  O27  1  0.44545785  0.61378391  0.24204462  1
  O  O28  1  0.67173125  0.01095599  0.79559004  1
  O  O29  1  0.69425398  0.81602112  0.03128343  1
  O  O30  1  0.84367425  0.56822744  0.76605841  1
  O  O31  1  0.78657626  0.46955837  0.26261662  1
  O  O32  1  0.98318758  0.81590005  0.21207377  1
  O  O33  1  0.97861489  0.60436193  0.47099602  1
  O  O34  1  0.91405446  0.07972180  0.02255183  1
  O  O35  1  0.95492562  0.24704616  0.43852914  1
