# generated using pymatgen
data_RbYb2Cl7
_symmetry_space_group_name_H-M   'P 1'
_cell_length_a   7.54207001
_cell_length_b   10.59684043
_cell_length_c   14.16208954
_cell_angle_alpha   90.00000000
_cell_angle_beta   90.00000000
_cell_angle_gamma   90.00000000
_symmetry_Int_Tables_number   1
_chemical_formula_structural   RbYb2Cl7
_chemical_formula_sum   'Rb4 Yb8 Cl28'
_cell_volume   1131.86411215
_cell_formula_units_Z   4
loop_
 _symmetry_equiv_pos_site_id
 _symmetry_equiv_pos_as_xyz
  1  'x, y, z'
loop_
 _atom_site_type_symbol
 _atom_site_label
 _atom_site_symmetry_multiplicity
 _atom_site_fract_x
 _atom_site_fract_y
 _atom_site_fract_z
 _atom_site_occupancy
  Rb  Rb0  1  0.75000000  0.92405759  0.22551895  1
  Rb  Rb1  1  0.25000000  0.07594241  0.77448105  1
  Rb  Rb2  1  0.25000000  0.57594241  0.72551895  1
  Rb  Rb3  1  0.75000000  0.42405759  0.27448105  1
  Yb  Yb4  1  0.75000000  0.76849554  0.57088140  1
  Yb  Yb5  1  0.25000000  0.23150446  0.42911860  1
  Yb  Yb6  1  0.25000000  0.73150446  0.07088140  1
  Yb  Yb7  1  0.75000000  0.26849554  0.92911860  1
  Yb  Yb8  1  0.75000000  0.79083768  0.82815781  1
  Yb  Yb9  1  0.25000000  0.20916232  0.17184219  1
  Yb  Yb10  1  0.25000000  0.70916232  0.32815781  1
  Yb  Yb11  1  0.75000000  0.29083768  0.67184219  1
  Cl  Cl12  1  0.00063692  0.83630409  0.69738331  1
  Cl  Cl13  1  0.99936308  0.16369591  0.30261669  1
  Cl  Cl14  1  0.99936308  0.66369591  0.19738331  1
  Cl  Cl15  1  0.50063692  0.16369591  0.30261669  1
  Cl  Cl16  1  0.00063692  0.33630409  0.80261669  1
  Cl  Cl17  1  0.49936308  0.83630409  0.69738331  1
  Cl  Cl18  1  0.49936308  0.33630409  0.80261669  1
  Cl  Cl19  1  0.50063692  0.66369591  0.19738331  1
  Cl  Cl20  1  0.00211826  0.84753838  0.43947684  1
  Cl  Cl21  1  0.99788174  0.15246162  0.56052316  1
  Cl  Cl22  1  0.99788174  0.65246162  0.93947684  1
  Cl  Cl23  1  0.50211826  0.15246162  0.56052316  1
  Cl  Cl24  1  0.00211826  0.34753838  0.06052316  1
  Cl  Cl25  1  0.49788174  0.84753838  0.43947684  1
  Cl  Cl26  1  0.49788174  0.34753838  0.06052316  1
  Cl  Cl27  1  0.50211826  0.65246162  0.93947684  1
  Cl  Cl28  1  0.99821293  0.89651338  0.97827735  1
  Cl  Cl29  1  0.00178707  0.10348662  0.02172265  1
  Cl  Cl30  1  0.00178707  0.60348662  0.47827735  1
  Cl  Cl31  1  0.49821293  0.10348662  0.02172265  1
  Cl  Cl32  1  0.99821293  0.39651338  0.52172265  1
  Cl  Cl33  1  0.50178707  0.89651338  0.97827735  1
  Cl  Cl34  1  0.50178707  0.39651338  0.52172265  1
  Cl  Cl35  1  0.49821293  0.60348662  0.47827735  1
  Cl  Cl36  1  0.75000000  0.56889455  0.69241922  1
  Cl  Cl37  1  0.25000000  0.43110545  0.30758078  1
  Cl  Cl38  1  0.25000000  0.93110545  0.19241922  1
  Cl  Cl39  1  0.75000000  0.06889455  0.80758078  1
