# generated using pymatgen
data_Pr5Ge3O13
_symmetry_space_group_name_H-M   'P 1'
_cell_length_a   7.28446163
_cell_length_b   9.92988277
_cell_length_c   9.92988277
_cell_angle_alpha   120.00000463
_cell_angle_beta   90.00000000
_cell_angle_gamma   90.00000000
_symmetry_Int_Tables_number   1
_chemical_formula_structural   Pr5Ge3O13
_chemical_formula_sum   'Pr10 Ge6 O26'
_cell_volume   622.03713811
_cell_formula_units_Z   2
loop_
 _symmetry_equiv_pos_site_id
 _symmetry_equiv_pos_as_xyz
  1  'x, y, z'
loop_
 _atom_site_type_symbol
 _atom_site_label
 _atom_site_symmetry_multiplicity
 _atom_site_fract_x
 _atom_site_fract_y
 _atom_site_fract_z
 _atom_site_occupancy
  Pr  Pr0  1  0.99934905  0.66666700  0.33333300  1
  Pr  Pr1  1  0.00065095  0.33333300  0.66666700  1
  Pr  Pr2  1  0.49934905  0.33333300  0.66666700  1
  Pr  Pr3  1  0.50065095  0.66666700  0.33333300  1
  Pr  Pr4  1  0.75000000  0.76167684  0.99363539  1
  Pr  Pr5  1  0.25000000  0.23832316  0.00636461  1
  Pr  Pr6  1  0.75000000  0.23195855  0.23832316  1
  Pr  Pr7  1  0.25000000  0.76804145  0.76167684  1
  Pr  Pr8  1  0.75000000  0.00636461  0.76804145  1
  Pr  Pr9  1  0.25000000  0.99363539  0.23195855  1
  Ge  Ge10  1  0.75000000  0.97441291  0.37292854  1
  Ge  Ge11  1  0.25000000  0.02558709  0.62707146  1
  Ge  Ge12  1  0.75000000  0.39851562  0.02558709  1
  Ge  Ge13  1  0.25000000  0.60148438  0.97441291  1
  Ge  Ge14  1  0.75000000  0.62707146  0.60148438  1
  Ge  Ge15  1  0.25000000  0.37292854  0.39851562  1
  O  O16  1  0.75000000  0.50955073  0.68938477  1
  O  O17  1  0.25000000  0.49044927  0.31061523  1
  O  O18  1  0.75000000  0.17983404  0.49044927  1
  O  O19  1  0.25000000  0.82016596  0.50955073  1
  O  O20  1  0.75000000  0.31061523  0.82016596  1
  O  O21  1  0.25000000  0.68938477  0.17983404  1
  O  O22  1  0.94549509  0.90058555  0.24777350  1
  O  O23  1  0.05450491  0.09941445  0.75222650  1
  O  O24  1  0.94549509  0.34718795  0.09941445  1
  O  O25  1  0.44549509  0.09941445  0.75222650  1
  O  O26  1  0.05450491  0.65281205  0.90058555  1
  O  O27  1  0.55450491  0.90058555  0.24777350  1
  O  O28  1  0.94549509  0.75222650  0.65281205  1
  O  O29  1  0.44549509  0.65281205  0.90058555  1
  O  O30  1  0.05450491  0.24777350  0.34718795  1
  O  O31  1  0.55450491  0.34718795  0.09941445  1
  O  O32  1  0.44549509  0.24777350  0.34718795  1
  O  O33  1  0.55450491  0.75222650  0.65281205  1
  O  O34  1  0.75000000  0.00000000  -0.00000000  1
  O  O35  1  0.25000000  0.00000000  -0.00000000  1
  O  O36  1  0.75000000  0.87055897  0.47736849  1
  O  O37  1  0.25000000  0.12944103  0.52263151  1
  O  O38  1  0.75000000  0.60680952  0.12944103  1
  O  O39  1  0.25000000  0.39319048  0.87055897  1
  O  O40  1  0.75000000  0.52263151  0.39319048  1
  O  O41  1  0.25000000  0.47736849  0.60680952  1
