# generated using pymatgen
data_RbTbP2O7
_symmetry_space_group_name_H-M   'P 1'
_cell_length_a   7.90044879
_cell_length_b   8.85672753
_cell_length_c   11.13592816
_cell_angle_alpha   90.00000000
_cell_angle_beta   90.00000000
_cell_angle_gamma   105.51594036
_symmetry_Int_Tables_number   1
_chemical_formula_structural   RbTbP2O7
_chemical_formula_sum   'Rb4 Tb4 P8 O28'
_cell_volume   750.80724964
_cell_formula_units_Z   4
loop_
 _symmetry_equiv_pos_site_id
 _symmetry_equiv_pos_as_xyz
  1  'x, y, z'
loop_
 _atom_site_type_symbol
 _atom_site_label
 _atom_site_symmetry_multiplicity
 _atom_site_fract_x
 _atom_site_fract_y
 _atom_site_fract_z
 _atom_site_occupancy
  Rb  Rb0  1  0.81846599  0.94354199  0.31798146  1
  Rb  Rb1  1  0.18153401  0.05645801  0.68201854  1
  Rb  Rb2  1  0.18153401  0.55645801  0.81798146  1
  Rb  Rb3  1  0.81846599  0.44354199  0.18201854  1
  Tb  Tb4  1  0.76197667  0.74253049  0.90068474  1
  Tb  Tb5  1  0.23802333  0.25746951  0.09931526  1
  Tb  Tb6  1  0.23802333  0.75746951  0.40068474  1
  Tb  Tb7  1  0.76197667  0.24253049  0.59931526  1
  P  P8  1  0.56676027  0.80822216  0.63316362  1
  P  P9  1  0.43323973  0.19177784  0.36683638  1
  P  P10  1  0.43323973  0.69177784  0.13316362  1
  P  P11  1  0.56676027  0.30822216  0.86683638  1
  P  P12  1  0.86754571  0.67695301  0.59819995  1
  P  P13  1  0.13245429  0.32304699  0.40180005  1
  P  P14  1  0.13245429  0.82304699  0.09819995  1
  P  P15  1  0.86754571  0.17695301  0.90180005  1
  O  O16  1  0.38555018  0.76566962  0.57432235  1
  O  O17  1  0.61444982  0.23433038  0.42567765  1
  O  O18  1  0.61444982  0.73433038  0.07432235  1
  O  O19  1  0.38555018  0.26566962  0.92567765  1
  O  O20  1  0.91863957  0.74150574  0.72517228  1
  O  O21  1  0.08136043  0.25849426  0.27482772  1
  O  O22  1  0.08136043  0.75849426  0.22517228  1
  O  O23  1  0.91863957  0.24150574  0.77482772  1
  O  O24  1  0.55251971  0.76109874  0.76584082  1
  O  O25  1  0.44748029  0.23890126  0.23415918  1
  O  O26  1  0.44748029  0.73890126  0.26584082  1
  O  O27  1  0.55251971  0.26109874  0.73415918  1
  O  O28  1  0.67072261  0.97740403  0.60829254  1
  O  O29  1  0.32927739  0.02259597  0.39170746  1
  O  O30  1  0.32927739  0.52259597  0.10829254  1
  O  O31  1  0.67072261  0.47740403  0.89170746  1
  O  O32  1  0.84970346  0.00211132  0.90998531  1
  O  O33  1  0.15029654  0.99788868  0.09001469  1
  O  O34  1  0.15029654  0.49788868  0.40998531  1
  O  O35  1  0.84970346  0.50211132  0.59001469  1
  O  O36  1  0.67383255  0.69803667  0.56534303  1
  O  O37  1  0.32616745  0.30196333  0.43465697  1
  O  O38  1  0.32616745  0.80196333  0.06534303  1
  O  O39  1  0.67383255  0.19803667  0.93465697  1
  O  O40  1  0.00834247  0.72688560  0.00321182  1
  O  O41  1  0.99165753  0.27311440  0.99678818  1
  O  O42  1  0.99165753  0.77311440  0.50321182  1
  O  O43  1  0.00834247  0.22688560  0.49678818  1
