# generated using pymatgen
data_Rb2LaI5
_symmetry_space_group_name_H-M   'P 1'
_cell_length_a   9.55873575
_cell_length_b   10.14505345
_cell_length_c   15.17900508
_cell_angle_alpha   90.00000000
_cell_angle_beta   90.00000000
_cell_angle_gamma   90.00000000
_symmetry_Int_Tables_number   1
_chemical_formula_structural   Rb2LaI5
_chemical_formula_sum   'Rb8 La4 I20'
_cell_volume   1471.96709453
_cell_formula_units_Z   4
loop_
 _symmetry_equiv_pos_site_id
 _symmetry_equiv_pos_as_xyz
  1  'x, y, z'
loop_
 _atom_site_type_symbol
 _atom_site_label
 _atom_site_symmetry_multiplicity
 _atom_site_fract_x
 _atom_site_fract_y
 _atom_site_fract_z
 _atom_site_occupancy
  Rb  Rb0  1  0.55856500  0.49755501  0.67442372  1
  Rb  Rb1  1  0.44143500  0.50244499  0.32557628  1
  Rb  Rb2  1  0.05856500  0.50244499  0.82557628  1
  Rb  Rb3  1  0.44143500  0.99755501  0.32557628  1
  Rb  Rb4  1  0.94143500  0.49755501  0.17442372  1
  Rb  Rb5  1  0.55856500  0.00244499  0.67442372  1
  Rb  Rb6  1  0.94143500  0.00244499  0.17442372  1
  Rb  Rb7  1  0.05856500  0.99755501  0.82557628  1
  La  La8  1  0.57671594  0.75000000  0.99457568  1
  La  La9  1  0.42328406  0.25000000  0.00542432  1
  La  La10  1  0.07671594  0.25000000  0.50542432  1
  La  La11  1  0.92328406  0.75000000  0.49457568  1
  I  I12  1  0.37707212  0.75000000  0.82408045  1
  I  I13  1  0.62292788  0.25000000  0.17591955  1
  I  I14  1  0.87707212  0.25000000  0.67591955  1
  I  I15  1  0.12292788  0.75000000  0.32408045  1
  I  I16  1  0.66470052  0.45405091  0.92543027  1
  I  I17  1  0.33529948  0.54594909  0.07456973  1
  I  I18  1  0.16470052  0.54594909  0.57456973  1
  I  I19  1  0.33529948  0.95405091  0.07456973  1
  I  I20  1  0.83529948  0.45405091  0.42543027  1
  I  I21  1  0.66470052  0.04594909  0.92543027  1
  I  I22  1  0.83529948  0.04594909  0.42543027  1
  I  I23  1  0.16470052  0.95405091  0.57456973  1
  I  I24  1  0.91862079  0.75000000  0.98958328  1
  I  I25  1  0.08137921  0.25000000  0.01041672  1
  I  I26  1  0.41862079  0.25000000  0.51041672  1
  I  I27  1  0.58137921  0.75000000  0.48958328  1
  I  I28  1  0.84252207  0.75000000  0.70098109  1
  I  I29  1  0.15747793  0.25000000  0.29901891  1
  I  I30  1  0.34252207  0.25000000  0.79901891  1
  I  I31  1  0.65747793  0.75000000  0.20098109  1
