# generated using pymatgen
data_PrGaGe2O7
_symmetry_space_group_name_H-M   'P 1'
_cell_length_a   6.68286681
_cell_length_b   7.39618201
_cell_length_c   11.65945964
_cell_angle_alpha   96.50860902
_cell_angle_beta   90.00000000
_cell_angle_gamma   90.00000000
_symmetry_Int_Tables_number   1
_chemical_formula_structural   PrGaGe2O7
_chemical_formula_sum   'Pr4 Ga4 Ge8 O28'
_cell_volume   572.58591506
_cell_formula_units_Z   4
loop_
 _symmetry_equiv_pos_site_id
 _symmetry_equiv_pos_as_xyz
  1  'x, y, z'
loop_
 _atom_site_type_symbol
 _atom_site_label
 _atom_site_symmetry_multiplicity
 _atom_site_fract_x
 _atom_site_fract_y
 _atom_site_fract_z
 _atom_site_occupancy
  Pr  Pr0  1  0.64644409  0.73532675  0.47451672  1
  Pr  Pr1  1  0.35355591  0.26467325  0.52548328  1
  Pr  Pr2  1  0.14644409  0.76467325  0.02548328  1
  Pr  Pr3  1  0.85355591  0.23532675  0.97451672  1
  Ga  Ga4  1  0.60061145  0.01653083  0.73147630  1
  Ga  Ga5  1  0.39938855  0.98346917  0.26852370  1
  Ga  Ga6  1  0.10061145  0.48346917  0.76852370  1
  Ga  Ga7  1  0.89938855  0.51653083  0.23147630  1
  Ge  Ge8  1  0.34142043  0.24075703  0.95332119  1
  Ge  Ge9  1  0.65857957  0.75924297  0.04667881  1
  Ge  Ge10  1  0.84142043  0.25924297  0.54667881  1
  Ge  Ge11  1  0.15857957  0.74075703  0.45332119  1
  Ge  Ge12  1  0.08871524  0.91757402  0.71793695  1
  Ge  Ge13  1  0.91128476  0.08242598  0.28206305  1
  Ge  Ge14  1  0.58871524  0.58242598  0.78206305  1
  Ge  Ge15  1  0.41128476  0.41757402  0.21793695  1
  O  O16  1  0.62653480  0.76279205  0.69569025  1
  O  O17  1  0.37346520  0.23720795  0.30430975  1
  O  O18  1  0.12653480  0.73720795  0.80430975  1
  O  O19  1  0.87346520  0.26279205  0.19569025  1
  O  O20  1  0.17636333  0.06989373  0.97747163  1
  O  O21  1  0.82363667  0.93010627  0.02252837  1
  O  O22  1  0.67636333  0.43010627  0.52252837  1
  O  O23  1  0.32363667  0.56989373  0.47747163  1
  O  O24  1  0.39097280  0.44497330  0.72125264  1
  O  O25  1  0.60902720  0.55502670  0.27874736  1
  O  O26  1  0.89097280  0.05502670  0.77874736  1
  O  O27  1  0.10902720  0.94497330  0.22125264  1
  O  O28  1  0.00296604  0.82531320  0.57387314  1
  O  O29  1  0.99703396  0.17468680  0.42612686  1
  O  O30  1  0.50296604  0.67468680  0.92612686  1
  O  O31  1  0.49703396  0.32531320  0.07387314  1
  O  O32  1  0.55124600  0.16607860  0.86938692  1
  O  O33  1  0.44875400  0.83392140  0.13061308  1
  O  O34  1  0.05124600  0.33392140  0.63061308  1
  O  O35  1  0.94875400  0.66607860  0.36938692  1
  O  O36  1  0.16172558  0.40892309  0.91902158  1
  O  O37  1  0.83827442  0.59107691  0.08097842  1
  O  O38  1  0.66172558  0.09107691  0.58097842  1
  O  O39  1  0.33827442  0.90892309  0.41902158  1
  O  O40  1  0.31226045  0.02886510  0.68528329  1
  O  O41  1  0.68773955  0.97113490  0.31471671  1
  O  O42  1  0.81226045  0.47113490  0.81471671  1
  O  O43  1  0.18773955  0.52886510  0.18528329  1
