# generated using pymatgen
data_RbAl(SO4)2
_symmetry_space_group_name_H-M   'P 1'
_cell_length_a   4.94204034
_cell_length_b   4.94204034
_cell_length_c   8.42441305
_cell_angle_alpha   90.00000000
_cell_angle_beta   90.00000000
_cell_angle_gamma   119.99999335
_symmetry_Int_Tables_number   1
_chemical_formula_structural   RbAl(SO4)2
_chemical_formula_sum   'Rb1 Al1 S2 O8'
_cell_volume   178.18981858
_cell_formula_units_Z   1
loop_
 _symmetry_equiv_pos_site_id
 _symmetry_equiv_pos_as_xyz
  1  'x, y, z'
loop_
 _atom_site_type_symbol
 _atom_site_label
 _atom_site_symmetry_multiplicity
 _atom_site_fract_x
 _atom_site_fract_y
 _atom_site_fract_z
 _atom_site_occupancy
  Rb  Rb0  1  0.00000000  0.00000000  0.50000000  1
  Al  Al1  1  0.00000000  0.00000000  -0.00000000  1
  S  S2  1  0.66666700  0.33333300  0.80148219  1
  S  S3  1  0.33333300  0.66666700  0.19851781  1
  O  O4  1  0.87876425  0.22338971  0.86068571  1
  O  O5  1  0.34462545  0.12123575  0.86068571  1
  O  O6  1  0.65537455  0.77661029  0.13931429  1
  O  O7  1  0.77661029  0.65537455  0.86068571  1
  O  O8  1  0.22338971  0.87876425  0.13931429  1
  O  O9  1  0.12123575  0.34462545  0.13931429  1
  O  O10  1  0.66666700  0.33333300  0.62838690  1
  O  O11  1  0.33333300  0.66666700  0.37161310  1
