# generated using pymatgen
data_Pr3Cr10N11
_symmetry_space_group_name_H-M   'P 1'
_cell_length_a   9.09844369
_cell_length_b   9.09844369
_cell_length_c   9.09844369
_cell_angle_alpha   60.00000000
_cell_angle_beta   60.00000000
_cell_angle_gamma   60.00000000
_symmetry_Int_Tables_number   1
_chemical_formula_structural   Pr3Cr10N11
_chemical_formula_sum   'Pr6 Cr20 N22'
_cell_volume   532.58181901
_cell_formula_units_Z   2
loop_
 _symmetry_equiv_pos_site_id
 _symmetry_equiv_pos_as_xyz
  1  'x, y, z'
loop_
 _atom_site_type_symbol
 _atom_site_label
 _atom_site_symmetry_multiplicity
 _atom_site_fract_x
 _atom_site_fract_y
 _atom_site_fract_z
 _atom_site_occupancy
  Pr  Pr0  1  0.69835830  0.69835830  0.30164170  1
  Pr  Pr1  1  0.30164170  0.30164170  0.69835830  1
  Pr  Pr2  1  0.69835830  0.30164170  0.69835830  1
  Pr  Pr3  1  0.30164170  0.69835830  0.30164170  1
  Pr  Pr4  1  0.30164170  0.69835830  0.69835830  1
  Pr  Pr5  1  0.69835830  0.30164170  0.30164170  1
  Cr  Cr6  1  0.90423028  0.90423028  0.90423028  1
  Cr  Cr7  1  0.09576972  0.09576972  0.09576972  1
  Cr  Cr8  1  0.28730916  0.90423028  0.90423028  1
  Cr  Cr9  1  0.90423028  0.28730916  0.90423028  1
  Cr  Cr10  1  0.71269084  0.09576972  0.09576972  1
  Cr  Cr11  1  0.09576972  0.71269084  0.09576972  1
  Cr  Cr12  1  0.90423028  0.90423028  0.28730916  1
  Cr  Cr13  1  0.09576972  0.09576972  0.71269084  1
  Cr  Cr14  1  0.89838296  0.89838296  0.60161704  1
  Cr  Cr15  1  0.10161704  0.10161704  0.39838296  1
  Cr  Cr16  1  0.60161704  0.60161704  0.89838296  1
  Cr  Cr17  1  0.89838296  0.60161704  0.89838296  1
  Cr  Cr18  1  0.39838296  0.10161704  0.39838296  1
  Cr  Cr19  1  0.39838296  0.39838296  0.10161704  1
  Cr  Cr20  1  0.10161704  0.39838296  0.10161704  1
  Cr  Cr21  1  0.60161704  0.89838296  0.60161704  1
  Cr  Cr22  1  0.60161704  0.89838296  0.89838296  1
  Cr  Cr23  1  0.39838296  0.10161704  0.10161704  1
  Cr  Cr24  1  0.89838296  0.60161704  0.60161704  1
  Cr  Cr25  1  0.10161704  0.39838296  0.39838296  1
  N  N26  1  -0.00000000  -0.00000000  0.65523597  1
  N  N27  1  -0.00000000  -0.00000000  0.34476403  1
  N  N28  1  0.34476403  0.65523597  0.00000000  1
  N  N29  1  0.65523597  0.34476403  0.00000000  1
  N  N30  1  0.00000000  0.65523597  -0.00000000  1
  N  N31  1  0.65523597  -0.00000000  0.34476403  1
  N  N32  1  -0.00000000  0.34476403  0.00000000  1
  N  N33  1  0.34476403  -0.00000000  0.65523597  1
  N  N34  1  0.65523597  -0.00000000  0.00000000  1
  N  N35  1  0.34476403  0.00000000  -0.00000000  1
  N  N36  1  -0.00000000  0.65523597  0.34476403  1
  N  N37  1  -0.00000000  0.34476403  0.65523597  1
  N  N38  1  0.64712782  0.64712782  0.64712782  1
  N  N39  1  0.35287218  0.35287218  0.35287218  1
  N  N40  1  0.05861655  0.64712782  0.64712782  1
  N  N41  1  0.64712782  0.05861655  0.64712782  1
  N  N42  1  0.94138345  0.35287218  0.35287218  1
  N  N43  1  0.35287218  0.94138345  0.35287218  1
  N  N44  1  0.64712782  0.64712782  0.05861655  1
  N  N45  1  0.35287218  0.35287218  0.94138345  1
  N  N46  1  0.50000000  0.50000000  0.50000000  1
  N  N47  1  -0.00000000  -0.00000000  0.00000000  1
