# generated using pymatgen
data_Pr12(OsC3)5
_symmetry_space_group_name_H-M   'P 1'
_cell_length_a   5.40142346
_cell_length_b   11.05211563
_cell_length_c   11.05211563
_cell_angle_alpha   119.99999609
_cell_angle_beta   90.00000000
_cell_angle_gamma   90.00000000
_symmetry_Int_Tables_number   1
_chemical_formula_structural   Pr12(OsC3)5
_chemical_formula_sum   'Pr12 Os5 C15'
_cell_volume   571.38615748
_cell_formula_units_Z   1
loop_
 _symmetry_equiv_pos_site_id
 _symmetry_equiv_pos_as_xyz
  1  'x, y, z'
loop_
 _atom_site_type_symbol
 _atom_site_label
 _atom_site_symmetry_multiplicity
 _atom_site_fract_x
 _atom_site_fract_y
 _atom_site_fract_z
 _atom_site_occupancy
  Pr  Pr0  1  0.50000000  0.20644140  0.20644140  1
  Pr  Pr1  1  0.50000000  0.00000000  0.79355860  1
  Pr  Pr2  1  0.50000000  0.79355860  0.00000000  1
  Pr  Pr3  1  0.00000000  0.72599310  0.18393999  1
  Pr  Pr4  1  -0.00000000  0.45794690  0.27400690  1
  Pr  Pr5  1  -0.00000000  0.54205310  0.81606001  1
  Pr  Pr6  1  -0.00000000  0.81606001  0.54205310  1
  Pr  Pr7  1  0.00000000  0.18393999  0.72599310  1
  Pr  Pr8  1  -0.00000000  0.27400690  0.45794690  1
  Pr  Pr9  1  0.50000000  0.57348136  0.57348136  1
  Pr  Pr10  1  0.50000000  1.00000000  0.42651864  1
  Pr  Pr11  1  0.50000000  0.42651864  1.00000000  1
  Os  Os12  1  -0.00000000  0.83989204  0.83989204  1
  Os  Os13  1  0.00000000  1.00000000  0.16010796  1
  Os  Os14  1  0.00000000  0.16010796  1.00000000  1
  Os  Os15  1  0.50000000  0.66666700  0.33333300  1
  Os  Os16  1  0.50000000  0.33333300  0.66666700  1
  C  C17  1  -0.00000000  0.66960759  0.66960759  1
  C  C18  1  0.00000000  0.00000000  0.33039241  1
  C  C19  1  0.00000000  0.33039241  0.00000000  1
  C  C20  1  -0.00000000  0.19875000  0.19875000  1
  C  C21  1  0.00000000  1.00000000  0.80125000  1
  C  C22  1  0.00000000  0.80125000  1.00000000  1
  C  C23  1  0.00000000  0.54897454  0.54897454  1
  C  C24  1  -0.00000000  0.00000000  0.45102546  1
  C  C25  1  -0.00000000  0.45102546  0.00000000  1
  C  C26  1  0.50000000  0.71183592  0.18721818  1
  C  C27  1  0.50000000  0.47538226  0.28816408  1
  C  C28  1  0.50000000  0.52461774  0.81278182  1
  C  C29  1  0.50000000  0.81278182  0.52461774  1
  C  C30  1  0.50000000  0.18721818  0.71183592  1
  C  C31  1  0.50000000  0.28816408  0.47538226  1
