# generated using pymatgen
data_Nb6HSI9
_symmetry_space_group_name_H-M   'P 1'
_cell_length_a   10.55065964
_cell_length_b   10.70919962
_cell_length_c   11.92257592
_cell_angle_alpha   106.30074551
_cell_angle_beta   105.01799713
_cell_angle_gamma   113.78407586
_symmetry_Int_Tables_number   1
_chemical_formula_structural   Nb6HSI9
_chemical_formula_sum   'Nb12 H2 S2 I18'
_cell_volume   1071.59097041
_cell_formula_units_Z   2
loop_
 _symmetry_equiv_pos_site_id
 _symmetry_equiv_pos_as_xyz
  1  'x, y, z'
loop_
 _atom_site_type_symbol
 _atom_site_label
 _atom_site_symmetry_multiplicity
 _atom_site_fract_x
 _atom_site_fract_y
 _atom_site_fract_z
 _atom_site_occupancy
  Nb  Nb0  1  0.98188835  0.05516406  0.17606629  1
  Nb  Nb1  1  0.01811165  0.94483594  0.82393371  1
  Nb  Nb2  1  0.11465312  0.24103383  0.04243673  1
  Nb  Nb3  1  0.88534688  0.75896617  0.95756327  1
  Nb  Nb4  1  0.20879958  0.02113379  0.08595154  1
  Nb  Nb5  1  0.79120042  0.97886621  0.91404846  1
  Nb  Nb6  1  0.27992472  0.35314658  0.47317615  1
  Nb  Nb7  1  0.72007528  0.64685342  0.52682385  1
  Nb  Nb8  1  0.50926921  0.32137024  0.38618744  1
  Nb  Nb9  1  0.49073079  0.67862976  0.61381256  1
  Nb  Nb10  1  0.40226131  0.52719111  0.32851227  1
  Nb  Nb11  1  0.59773869  0.47280889  0.67148773  1
  H  H12  1  0.50000000  0.50000000  0.50000000  1
  H  H13  1  -0.00000000  -0.00000000  -0.00000000  1
  S  S14  1  0.24972140  0.25454347  0.24784538  1
  S  S15  1  0.75027860  0.74545653  0.75215462  1
  I  I16  1  0.32568705  0.19293567  0.94717894  1
  I  I17  1  0.67431295  0.80706433  0.05282106  1
  I  I18  1  0.02906723  0.85459565  0.57618529  1
  I  I19  1  0.97093277  0.14540435  0.42381471  1
  I  I20  1  0.38904747  0.15516896  0.52706993  1
  I  I21  1  0.61095253  0.84483104  0.47293007  1
  I  I22  1  0.26896586  0.55873747  0.10223162  1
  I  I23  1  0.73103414  0.44126253  0.89776838  1
  I  I24  1  0.87942934  0.25457269  0.11997312  1
  I  I25  1  0.12057066  0.74542731  0.88002688  1
  I  I26  1  0.50470367  0.06313704  0.21896743  1
  I  I27  1  0.49529633  0.93686296  0.78103257  1
  I  I28  1  0.07602117  0.84308226  0.21575487  1
  I  I29  1  0.92397883  0.15691774  0.78424513  1
  I  I30  1  0.19068086  0.56662471  0.42901699  1
  I  I31  1  0.80931914  0.43337529  0.57098301  1
  I  I32  1  0.63868538  0.50242560  0.25752366  1
  I  I33  1  0.36131462  0.49757440  0.74247634  1
