# generated using pymatgen
data_NdNiGe
_symmetry_space_group_name_H-M   'P 1'
_cell_length_a   4.40021521
_cell_length_b   7.29576036
_cell_length_c   7.23344529
_cell_angle_alpha   90.00000000
_cell_angle_beta   90.00000000
_cell_angle_gamma   90.00000000
_symmetry_Int_Tables_number   1
_chemical_formula_structural   NdNiGe
_chemical_formula_sum   'Nd4 Ni4 Ge4'
_cell_volume   232.21468440
_cell_formula_units_Z   4
loop_
 _symmetry_equiv_pos_site_id
 _symmetry_equiv_pos_as_xyz
  1  'x, y, z'
loop_
 _atom_site_type_symbol
 _atom_site_label
 _atom_site_symmetry_multiplicity
 _atom_site_fract_x
 _atom_site_fract_y
 _atom_site_fract_z
 _atom_site_occupancy
  Nd  Nd0  1  0.75000000  0.01872679  0.30324532  1
  Nd  Nd1  1  0.25000000  0.98127321  0.69675468  1
  Nd  Nd2  1  0.25000000  0.48127321  0.80324532  1
  Nd  Nd3  1  0.75000000  0.51872679  0.19675468  1
  Ni  Ni4  1  0.75000000  0.82659923  0.92012669  1
  Ni  Ni5  1  0.25000000  0.17340077  0.07987331  1
  Ni  Ni6  1  0.25000000  0.67340077  0.42012669  1
  Ni  Ni7  1  0.75000000  0.32659923  0.57987331  1
  Ge  Ge8  1  0.75000000  0.68919037  0.59450224  1
  Ge  Ge9  1  0.25000000  0.31080963  0.40549776  1
  Ge  Ge10  1  0.25000000  0.81080963  0.09450224  1
  Ge  Ge11  1  0.75000000  0.18919037  0.90549776  1
