# generated using pymatgen
data_Na3Sr3GaSb4
_symmetry_space_group_name_H-M   'P 1'
_cell_length_a   7.99553747
_cell_length_b   10.30882872
_cell_length_c   10.30882872
_cell_angle_alpha   119.99999753
_cell_angle_beta   90.00000000
_cell_angle_gamma   90.00000000
_symmetry_Int_Tables_number   1
_chemical_formula_structural   Na3Sr3GaSb4
_chemical_formula_sum   'Na6 Sr6 Ga2 Sb8'
_cell_volume   735.86297661
_cell_formula_units_Z   2
loop_
 _symmetry_equiv_pos_site_id
 _symmetry_equiv_pos_as_xyz
  1  'x, y, z'
loop_
 _atom_site_type_symbol
 _atom_site_label
 _atom_site_symmetry_multiplicity
 _atom_site_fract_x
 _atom_site_fract_y
 _atom_site_fract_z
 _atom_site_occupancy
  Na  Na0  1  0.95660717  0.85541954  0.71083909  1
  Na  Na1  1  0.95660717  0.85541954  0.14458046  1
  Na  Na2  1  0.45660717  0.14458046  0.28916091  1
  Na  Na3  1  0.95660717  0.28916091  0.14458046  1
  Na  Na4  1  0.45660717  0.14458046  0.85541954  1
  Na  Na5  1  0.45660717  0.71083909  0.85541954  1
  Sr  Sr6  1  0.78140858  0.48151319  0.96302637  1
  Sr  Sr7  1  0.78140858  0.48151319  0.51848681  1
  Sr  Sr8  1  0.28140858  0.51848681  0.03697363  1
  Sr  Sr9  1  0.78140858  0.03697363  0.51848681  1
  Sr  Sr10  1  0.28140858  0.51848681  0.48151319  1
  Sr  Sr11  1  0.28140858  0.96302637  0.48151319  1
  Ga  Ga12  1  0.64867066  0.66666700  0.33333300  1
  Ga  Ga13  1  0.14867066  0.33333300  0.66666700  1
  Sb  Sb14  1  0.00268823  0.66666700  0.33333300  1
  Sb  Sb15  1  0.50268823  0.33333300  0.66666700  1
  Sb  Sb16  1  0.55366462  0.81322984  0.62645968  1
  Sb  Sb17  1  0.55366462  0.81322984  0.18677016  1
  Sb  Sb18  1  0.05366462  0.18677016  0.37354032  1
  Sb  Sb19  1  0.55366462  0.37354032  0.18677016  1
  Sb  Sb20  1  0.05366462  0.18677016  0.81322984  1
  Sb  Sb21  1  0.05366462  0.62645968  0.81322984  1
