# generated using pymatgen
data_Pr3Ge5
_symmetry_space_group_name_H-M   'P 1'
_cell_length_a   6.00892168
_cell_length_b   7.71891611
_cell_length_c   9.52897290
_cell_angle_alpha   82.95064217
_cell_angle_beta   71.62122860
_cell_angle_gamma   67.09318522
_symmetry_Int_Tables_number   1
_chemical_formula_structural   Pr3Ge5
_chemical_formula_sum   'Pr6 Ge10'
_cell_volume   386.35553968
_cell_formula_units_Z   2
loop_
 _symmetry_equiv_pos_site_id
 _symmetry_equiv_pos_as_xyz
  1  'x, y, z'
loop_
 _atom_site_type_symbol
 _atom_site_label
 _atom_site_symmetry_multiplicity
 _atom_site_fract_x
 _atom_site_fract_y
 _atom_site_fract_z
 _atom_site_occupancy
  Pr  Pr0  1  0.03843569  0.61801419  0.83518356  1
  Pr  Pr1  1  0.34355012  0.61801419  0.16481644  1
  Pr  Pr2  1  0.12361925  0.11801419  0.66481644  1
  Pr  Pr3  1  0.75836656  0.11801419  0.33518356  1
  Pr  Pr4  1  0.44786868  0.10426265  -0.00000000  1
  Pr  Pr5  1  0.69786868  0.60426265  0.50000000  1
  Ge  Ge6  1  0.52618817  0.27487346  0.67447864  1
  Ge  Ge7  1  0.19893837  0.27487346  0.32552136  1
  Ge  Ge8  1  0.45066681  0.77487346  0.82552136  1
  Ge  Ge9  1  0.77445973  0.77487346  0.17447864  1
  Ge  Ge10  1  0.30398371  0.91735904  0.36517011  1
  Ge  Ge11  1  0.77865725  0.91735904  0.63482989  1
  Ge  Ge12  1  0.91915382  0.41735904  0.13482989  1
  Ge  Ge13  1  0.66348714  0.41735904  0.86517011  1
  Ge  Ge14  1  0.00387801  0.99224397  -0.00000000  1
  Ge  Ge15  1  0.25387801  0.49224397  0.50000000  1
