# generated using pymatgen
data_LiCuPO4
_symmetry_space_group_name_H-M   'P 1'
_cell_length_a   7.59471863
_cell_length_b   8.03024970
_cell_length_c   5.65704384
_cell_angle_alpha   90.00000000
_cell_angle_beta   90.00000000
_cell_angle_gamma   90.00000000
_symmetry_Int_Tables_number   1
_chemical_formula_structural   LiCuPO4
_chemical_formula_sum   'Li4 Cu4 P4 O16'
_cell_volume   345.00888765
_cell_formula_units_Z   4
loop_
 _symmetry_equiv_pos_site_id
 _symmetry_equiv_pos_as_xyz
  1  'x, y, z'
loop_
 _atom_site_type_symbol
 _atom_site_label
 _atom_site_symmetry_multiplicity
 _atom_site_fract_x
 _atom_site_fract_y
 _atom_site_fract_z
 _atom_site_occupancy
  Li  Li0  1  0.94956101  0.76868834  0.71467339  1
  Li  Li1  1  0.55043899  0.26868834  0.21467339  1
  Li  Li2  1  0.44956101  0.73131166  0.71467339  1
  Li  Li3  1  0.05043899  0.23131166  0.21467339  1
  Cu  Cu4  1  0.22005994  0.57865784  0.21895264  1
  Cu  Cu5  1  0.27994006  0.07865784  0.71895264  1
  Cu  Cu6  1  0.72005994  0.92134216  0.21895264  1
  Cu  Cu7  1  0.77994006  0.42134216  0.71895264  1
  P  P8  1  0.19060690  0.44937944  0.72392281  1
  P  P9  1  0.30939310  0.94937944  0.22392281  1
  P  P10  1  0.69060690  0.05062056  0.72392281  1
  P  P11  1  0.80939310  0.55062056  0.22392281  1
  O  O12  1  0.00837178  0.53459643  0.68574585  1
  O  O13  1  0.28828875  0.42975953  0.48510719  1
  O  O14  1  0.16882239  0.27687316  0.84846286  1
  O  O15  1  0.29988646  0.57041046  0.88413526  1
  O  O16  1  0.20011354  0.07041046  0.38413526  1
  O  O17  1  0.33117761  0.77687316  0.34846286  1
  O  O18  1  0.21171125  0.92975953  0.98510719  1
  O  O19  1  0.49162822  0.03459643  0.18574585  1
  O  O20  1  0.50837178  0.96540357  0.68574585  1
  O  O21  1  0.78828875  0.07024047  0.48510719  1
  O  O22  1  0.66882239  0.22312684  0.84846286  1
  O  O23  1  0.79988646  0.92958954  0.88413526  1
  O  O24  1  0.70011354  0.42958954  0.38413526  1
  O  O25  1  0.83117761  0.72312684  0.34846286  1
  O  O26  1  0.71171125  0.57024047  0.98510719  1
  O  O27  1  0.99162822  0.46540357  0.18574585  1
