# generated using pymatgen
data_NaCe(CO3)2
_symmetry_space_group_name_H-M   'P 1'
_cell_length_a   5.19954890
_cell_length_b   6.44930135
_cell_length_c   7.19932610
_cell_angle_alpha   90.00000000
_cell_angle_beta   90.00000000
_cell_angle_gamma   90.00000000
_symmetry_Int_Tables_number   1
_chemical_formula_structural   NaCe(CO3)2
_chemical_formula_sum   'Na2 Ce2 C4 O12'
_cell_volume   241.41829753
_cell_formula_units_Z   2
loop_
 _symmetry_equiv_pos_site_id
 _symmetry_equiv_pos_as_xyz
  1  'x, y, z'
loop_
 _atom_site_type_symbol
 _atom_site_label
 _atom_site_symmetry_multiplicity
 _atom_site_fract_x
 _atom_site_fract_y
 _atom_site_fract_z
 _atom_site_occupancy
  Na  Na0  1  0.00000000  0.48239999  0.02795644  1
  Na  Na1  1  0.00000000  0.51760001  0.52795644  1
  Ce  Ce2  1  0.50000000  0.13040750  0.32622461  1
  Ce  Ce3  1  0.50000000  0.86959250  0.82622461  1
  C  C4  1  0.50000000  0.58077837  0.24321422  1
  C  C5  1  0.50000000  0.41922163  0.74321422  1
  C  C6  1  0.00000000  0.03596244  0.99833000  1
  C  C7  1  0.00000000  0.96403756  0.49833000  1
  O  O8  1  0.00000000  0.14137881  0.41544884  1
  O  O9  1  0.00000000  0.85862119  0.91544884  1
  O  O10  1  0.28786432  0.48429051  0.28052589  1
  O  O11  1  0.71213568  0.51570949  0.78052589  1
  O  O12  1  0.28786432  0.51570949  0.78052589  1
  O  O13  1  0.71213568  0.48429051  0.28052589  1
  O  O14  1  0.21912949  0.12513984  0.03416687  1
  O  O15  1  0.78087051  0.87486016  0.53416687  1
  O  O16  1  0.21912949  0.87486016  0.53416687  1
  O  O17  1  0.78087051  0.12513984  0.03416687  1
  O  O18  1  0.50000000  0.23657424  0.66544035  1
  O  O19  1  0.50000000  0.76342576  0.16544035  1
