# generated using pymatgen
data_Na3HoBr6
_symmetry_space_group_name_H-M   'P 1'
_cell_length_a   7.37295054
_cell_length_b   7.73724090
_cell_length_c   10.93561447
_cell_angle_alpha   90.00000000
_cell_angle_beta   90.54569988
_cell_angle_gamma   90.00000000
_symmetry_Int_Tables_number   1
_chemical_formula_structural   Na3HoBr6
_chemical_formula_sum   'Na6 Ho2 Br12'
_cell_volume   623.80798928
_cell_formula_units_Z   2
loop_
 _symmetry_equiv_pos_site_id
 _symmetry_equiv_pos_as_xyz
  1  'x, y, z'
loop_
 _atom_site_type_symbol
 _atom_site_label
 _atom_site_symmetry_multiplicity
 _atom_site_fract_x
 _atom_site_fract_y
 _atom_site_fract_z
 _atom_site_occupancy
  Na  Na0  1  0.00000000  -0.00000000  0.50000000  1
  Na  Na1  1  0.50000000  0.50000000  -0.00000000  1
  Na  Na2  1  0.98324894  0.56389270  0.26217536  1
  Na  Na3  1  0.01675106  0.43610730  0.73782464  1
  Na  Na4  1  0.51675106  0.06389270  0.23782464  1
  Na  Na5  1  0.48324894  0.93610730  0.76217536  1
  Ho  Ho6  1  0.00000000  -0.00000000  -0.00000000  1
  Ho  Ho7  1  0.50000000  0.50000000  0.50000000  1
  Br  Br8  1  0.83029144  0.30370939  0.07855892  1
  Br  Br9  1  0.16970856  0.69629061  0.92144108  1
  Br  Br10  1  0.66970856  0.80370939  0.42144108  1
  Br  Br11  1  0.33029144  0.19629061  0.57855892  1
  Br  Br12  1  0.13250993  0.93522170  0.23821681  1
  Br  Br13  1  0.86749007  0.06477830  0.76178319  1
  Br  Br14  1  0.36749007  0.43522170  0.26178319  1
  Br  Br15  1  0.63250993  0.56477830  0.73821681  1
  Br  Br16  1  0.68728032  0.82017732  0.06096767  1
  Br  Br17  1  0.31271968  0.17982268  0.93903233  1
  Br  Br18  1  0.81271968  0.32017732  0.43903233  1
  Br  Br19  1  0.18728032  0.67982268  0.56096767  1
