# generated using pymatgen
data_Na3CrO4
_symmetry_space_group_name_H-M   'P 1'
_cell_length_a   5.66152323
_cell_length_b   7.14857989
_cell_length_c   12.35139153
_cell_angle_alpha   90.00000000
_cell_angle_beta   90.00000000
_cell_angle_gamma   90.00000000
_symmetry_Int_Tables_number   1
_chemical_formula_structural   Na3CrO4
_chemical_formula_sum   'Na12 Cr4 O16'
_cell_volume   499.88367899
_cell_formula_units_Z   4
loop_
 _symmetry_equiv_pos_site_id
 _symmetry_equiv_pos_as_xyz
  1  'x, y, z'
loop_
 _atom_site_type_symbol
 _atom_site_label
 _atom_site_symmetry_multiplicity
 _atom_site_fract_x
 _atom_site_fract_y
 _atom_site_fract_z
 _atom_site_occupancy
  Na  Na0  1  0.70340234  0.49940794  0.66330356  1
  Na  Na1  1  0.29659766  0.50059206  0.33669644  1
  Na  Na2  1  0.20340234  0.50059206  0.83669644  1
  Na  Na3  1  0.29659766  0.99940794  0.33669644  1
  Na  Na4  1  0.79659766  0.49940794  0.16330356  1
  Na  Na5  1  0.70340234  0.00059206  0.66330356  1
  Na  Na6  1  0.79659766  0.00059206  0.16330356  1
  Na  Na7  1  0.20340234  0.99940794  0.83669644  1
  Na  Na8  1  0.28813608  0.75000000  0.57580599  1
  Na  Na9  1  0.71186392  0.25000000  0.42419401  1
  Na  Na10  1  0.78813608  0.25000000  0.92419401  1
  Na  Na11  1  0.21186392  0.75000000  0.07580599  1
  Cr  Cr12  1  0.69373404  0.75000000  0.91213794  1
  Cr  Cr13  1  0.30626596  0.25000000  0.08786206  1
  Cr  Cr14  1  0.19373404  0.25000000  0.58786206  1
  Cr  Cr15  1  0.80626596  0.75000000  0.41213794  1
  O  O16  1  0.38844278  0.75000000  0.91160695  1
  O  O17  1  0.61155722  0.25000000  0.08839305  1
  O  O18  1  0.88844278  0.25000000  0.58839305  1
  O  O19  1  0.11155722  0.75000000  0.41160695  1
  O  O20  1  0.79233331  0.94759687  0.84336629  1
  O  O21  1  0.20766669  0.05240313  0.15663371  1
  O  O22  1  0.29233331  0.05240313  0.65663371  1
  O  O23  1  0.20766669  0.44759687  0.15663371  1
  O  O24  1  0.70766669  0.94759687  0.34336629  1
  O  O25  1  0.79233331  0.55240313  0.84336629  1
  O  O26  1  0.70766669  0.55240313  0.34336629  1
  O  O27  1  0.29233331  0.44759687  0.65663371  1
  O  O28  1  0.71231207  0.75000000  0.54550134  1
  O  O29  1  0.28768793  0.25000000  0.45449866  1
  O  O30  1  0.21231207  0.25000000  0.95449866  1
  O  O31  1  0.78768793  0.75000000  0.04550134  1
