# generated using pymatgen
data_MgZn2(PO4)2
_symmetry_space_group_name_H-M   'P 1'
_cell_length_a   5.13416547
_cell_length_b   7.68252943
_cell_length_c   8.40710890
_cell_angle_alpha   90.00000000
_cell_angle_beta   90.00000000
_cell_angle_gamma   95.27775516
_symmetry_Int_Tables_number   1
_chemical_formula_structural   MgZn2(PO4)2
_chemical_formula_sum   'Mg2 Zn4 P4 O16'
_cell_volume   330.19892552
_cell_formula_units_Z   2
loop_
 _symmetry_equiv_pos_site_id
 _symmetry_equiv_pos_as_xyz
  1  'x, y, z'
loop_
 _atom_site_type_symbol
 _atom_site_label
 _atom_site_symmetry_multiplicity
 _atom_site_fract_x
 _atom_site_fract_y
 _atom_site_fract_z
 _atom_site_occupancy
  Mg  Mg0  1  -0.00000000  0.00000000  0.00000000  1
  Mg  Mg1  1  0.50000000  0.50000000  0.50000000  1
  Zn  Zn2  1  0.91582642  0.87973744  0.63832926  1
  Zn  Zn3  1  0.08417358  0.12026256  0.36167074  1
  Zn  Zn4  1  0.58417358  0.62026256  0.13832926  1
  Zn  Zn5  1  0.41582642  0.37973744  0.86167074  1
  P  P6  1  0.03627394  0.69907868  0.30817998  1
  P  P7  1  0.96372606  0.30092132  0.69182002  1
  P  P8  1  0.46372606  0.80092132  0.80817998  1
  P  P9  1  0.53627394  0.19907868  0.19182002  1
  O  O10  1  0.30259243  0.62014298  0.30011994  1
  O  O11  1  0.69740757  0.37985702  0.69988006  1
  O  O12  1  0.19740757  0.87985702  0.80011994  1
  O  O13  1  0.80259243  0.12014298  0.19988006  1
  O  O14  1  0.93917088  0.75715238  0.14085214  1
  O  O15  1  0.06082912  0.24284762  0.85914786  1
  O  O16  1  0.56082912  0.74284762  0.64085214  1
  O  O17  1  0.43917088  0.25715238  0.35914786  1
  O  O18  1  0.06813338  0.86156281  0.42088773  1
  O  O19  1  0.93186662  0.13843719  0.57911227  1
  O  O20  1  0.43186662  0.63843719  0.92088773  1
  O  O21  1  0.56813338  0.36156281  0.07911227  1
  O  O22  1  0.82221408  0.56380095  0.37185485  1
  O  O23  1  0.17778592  0.43619905  0.62814515  1
  O  O24  1  0.67778592  0.93619905  0.87185485  1
  O  O25  1  0.32221408  0.06380095  0.12814515  1
