# generated using pymatgen
data_Na6Ni(SO4)4
_symmetry_space_group_name_H-M   'P 1'
_cell_length_a   8.36672168
_cell_length_b   9.28197886
_cell_length_c   9.93384852
_cell_angle_alpha   90.00000000
_cell_angle_beta   113.95570435
_cell_angle_gamma   90.00000000
_symmetry_Int_Tables_number   1
_chemical_formula_structural   Na6Ni(SO4)4
_chemical_formula_sum   'Na12 Ni2 S8 O32'
_cell_volume   705.00618214
_cell_formula_units_Z   2
loop_
 _symmetry_equiv_pos_site_id
 _symmetry_equiv_pos_as_xyz
  1  'x, y, z'
loop_
 _atom_site_type_symbol
 _atom_site_label
 _atom_site_symmetry_multiplicity
 _atom_site_fract_x
 _atom_site_fract_y
 _atom_site_fract_z
 _atom_site_occupancy
  Na  Na0  1  0.91028278  0.84869515  0.55359572  1
  Na  Na1  1  0.08971722  0.15130485  0.44640428  1
  Na  Na2  1  0.58971722  0.34869515  0.44640428  1
  Na  Na3  1  0.41028278  0.65130485  0.55359572  1
  Na  Na4  1  0.53268319  0.98465696  0.68932175  1
  Na  Na5  1  0.46731681  0.01534304  0.31067825  1
  Na  Na6  1  0.96731681  0.48465696  0.31067825  1
  Na  Na7  1  0.03268319  0.51534304  0.68932175  1
  Na  Na8  1  0.81599537  0.36224272  0.88960874  1
  Na  Na9  1  0.18400463  0.63775728  0.11039126  1
  Na  Na10  1  0.68400463  0.86224272  0.11039126  1
  Na  Na11  1  0.31599537  0.13775728  0.88960874  1
  Ni  Ni12  1  0.00000000  -0.00000000  -0.00000000  1
  Ni  Ni13  1  0.50000000  0.50000000  -0.00000000  1
  S  S14  1  0.77539896  0.69481694  0.86031277  1
  S  S15  1  0.22460104  0.30518306  0.13968723  1
  S  S16  1  0.72460104  0.19481694  0.13968723  1
  S  S17  1  0.27539896  0.80518306  0.86031277  1
  S  S18  1  0.65217009  0.64688785  0.33683098  1
  S  S19  1  0.34782991  0.35311215  0.66316902  1
  S  S20  1  0.84782991  0.14688785  0.66316902  1
  S  S21  1  0.15217009  0.85311215  0.33683098  1
  O  O22  1  0.84514963  0.81614768  0.96973138  1
  O  O23  1  0.15485037  0.18385232  0.03026862  1
  O  O24  1  0.65485037  0.31614768  0.03026862  1
  O  O25  1  0.34514963  0.68385232  0.96973138  1
  O  O26  1  0.92309835  0.60350622  0.86468072  1
  O  O27  1  0.07690165  0.39649378  0.13531928  1
  O  O28  1  0.57690165  0.10350622  0.13531928  1
  O  O29  1  0.42309835  0.89649378  0.86468072  1
  O  O30  1  0.99896319  0.91573704  0.35320055  1
  O  O31  1  0.00103681  0.08426296  0.64679945  1
  O  O32  1  0.50103681  0.41573704  0.64679945  1
  O  O33  1  0.49896319  0.58426296  0.35320055  1
  O  O34  1  0.67852027  0.75533385  0.71126878  1
  O  O35  1  0.32147973  0.24466615  0.28873122  1
  O  O36  1  0.82147973  0.25533385  0.28873122  1
  O  O37  1  0.17852027  0.74466615  0.71126878  1
  O  O38  1  0.65863424  0.60600379  0.90638702  1
  O  O39  1  0.34136576  0.39399621  0.09361298  1
  O  O40  1  0.84136576  0.10600379  0.09361298  1
  O  O41  1  0.15863424  0.89399621  0.90638702  1
  O  O42  1  0.81732081  0.60289735  0.46147062  1
  O  O43  1  0.18267919  0.39710265  0.53852938  1
  O  O44  1  0.68267919  0.10289735  0.53852938  1
  O  O45  1  0.31732081  0.89710265  0.46147062  1
  O  O46  1  0.33481748  0.40688410  0.80214260  1
  O  O47  1  0.66518252  0.59311590  0.19785740  1
  O  O48  1  0.16518252  0.90688410  0.19785740  1
  O  O49  1  0.83481748  0.09311590  0.80214260  1
  O  O50  1  0.85938346  0.30686219  0.67000324  1
  O  O51  1  0.14061654  0.69313781  0.32999676  1
  O  O52  1  0.64061654  0.80686219  0.32999676  1
  O  O53  1  0.35938346  0.19313781  0.67000324  1
