# generated using pymatgen
data_NdFeGe2O7
_symmetry_space_group_name_H-M   'P 1'
_cell_length_a   6.68978649
_cell_length_b   7.37833906
_cell_length_c   11.67851865
_cell_angle_alpha   96.18841374
_cell_angle_beta   90.00000000
_cell_angle_gamma   90.00000000
_symmetry_Int_Tables_number   1
_chemical_formula_structural   NdFeGe2O7
_chemical_formula_sum   'Nd4 Fe4 Ge8 O28'
_cell_volume   573.08691677
_cell_formula_units_Z   4
loop_
 _symmetry_equiv_pos_site_id
 _symmetry_equiv_pos_as_xyz
  1  'x, y, z'
loop_
 _atom_site_type_symbol
 _atom_site_label
 _atom_site_symmetry_multiplicity
 _atom_site_fract_x
 _atom_site_fract_y
 _atom_site_fract_z
 _atom_site_occupancy
  Nd  Nd0  1  0.64606089  0.73379080  0.47475287  1
  Nd  Nd1  1  0.35393911  0.26620920  0.52524713  1
  Nd  Nd2  1  0.14606089  0.76620920  0.02524713  1
  Nd  Nd3  1  0.85393911  0.23379080  0.97475287  1
  Fe  Fe4  1  0.60029697  0.01793831  0.73067107  1
  Fe  Fe5  1  0.39970303  0.98206169  0.26932893  1
  Fe  Fe6  1  0.10029697  0.48206169  0.76932893  1
  Fe  Fe7  1  0.89970303  0.51793831  0.23067107  1
  Ge  Ge8  1  0.34226486  0.24243201  0.95907925  1
  Ge  Ge9  1  0.65773514  0.75756799  0.04092075  1
  Ge  Ge10  1  0.84226486  0.25756799  0.54092075  1
  Ge  Ge11  1  0.15773514  0.74243201  0.45907925  1
  Ge  Ge12  1  0.08892377  0.92284751  0.72031373  1
  Ge  Ge13  1  0.91107623  0.07715249  0.27968627  1
  Ge  Ge14  1  0.58892377  0.57715249  0.77968627  1
  Ge  Ge15  1  0.41107623  0.42284751  0.22031373  1
  O  O16  1  0.62511630  0.75833566  0.69326025  1
  O  O17  1  0.37488370  0.24166434  0.30673975  1
  O  O18  1  0.12511630  0.74166434  0.80673975  1
  O  O19  1  0.87488370  0.25833566  0.19326025  1
  O  O20  1  0.17498577  0.07078016  0.98048086  1
  O  O21  1  0.82501423  0.92921984  0.01951914  1
  O  O22  1  0.67498577  0.42921984  0.51951914  1
  O  O23  1  0.32501423  0.57078016  0.48048086  1
  O  O24  1  0.39037334  0.44065787  0.72039946  1
  O  O25  1  0.60962666  0.55934213  0.27960054  1
  O  O26  1  0.89037334  0.05934213  0.77960054  1
  O  O27  1  0.10962666  0.94065787  0.22039946  1
  O  O28  1  0.00134639  0.82366021  0.57907268  1
  O  O29  1  0.99865361  0.17633979  0.42092732  1
  O  O30  1  0.50134639  0.67633979  0.92092732  1
  O  O31  1  0.49865361  0.32366021  0.07907268  1
  O  O32  1  0.54852162  0.16806529  0.87323495  1
  O  O33  1  0.45147838  0.83193471  0.12676505  1
  O  O34  1  0.04852162  0.33193471  0.62676505  1
  O  O35  1  0.95147838  0.66806529  0.37323495  1
  O  O36  1  0.16250294  0.40994253  0.92424357  1
  O  O37  1  0.83749706  0.59005747  0.07575643  1
  O  O38  1  0.66250294  0.09005747  0.57575643  1
  O  O39  1  0.33749706  0.90994253  0.42424357  1
  O  O40  1  0.31143991  0.03257578  0.68487210  1
  O  O41  1  0.68856009  0.96742422  0.31512790  1
  O  O42  1  0.81143991  0.46742422  0.81512790  1
  O  O43  1  0.18856009  0.53257578  0.18487210  1
