# generated using pymatgen
data_UB6H36(C2N)3
_symmetry_space_group_name_H-M   'P 1'
_cell_length_a   11.02759347
_cell_length_b   12.49021481
_cell_length_c   14.93827169
_cell_angle_alpha   95.75613966
_cell_angle_beta   90.00000000
_cell_angle_gamma   90.00000000
_symmetry_Int_Tables_number   1
_chemical_formula_structural   UB6H36(C2N)3
_chemical_formula_sum   'U4 B24 H144 C24 N12'
_cell_volume   2047.17825612
_cell_formula_units_Z   4
loop_
 _symmetry_equiv_pos_site_id
 _symmetry_equiv_pos_as_xyz
  1  'x, y, z'
loop_
 _atom_site_type_symbol
 _atom_site_label
 _atom_site_symmetry_multiplicity
 _atom_site_fract_x
 _atom_site_fract_y
 _atom_site_fract_z
 _atom_site_occupancy
  U  U0  1  0.44750310  0.19433183  0.29343566  1
  U  U1  1  0.94750310  0.80566817  0.20656434  1
  U  U2  1  0.55249690  0.80566817  0.70656434  1
  U  U3  1  0.05249690  0.19433183  0.79343566  1
  B  B4  1  0.65891327  0.26097052  0.39631530  1
  B  B5  1  0.15891327  0.73902948  0.10368470  1
  B  B6  1  0.34108673  0.73902948  0.60368470  1
  B  B7  1  0.84108673  0.26097052  0.89631530  1
  B  B8  1  0.47323868  0.21371169  0.48277092  1
  B  B9  1  0.97323868  0.78628831  0.01722908  1
  B  B10  1  0.52676132  0.78628831  0.51722908  1
  B  B11  1  0.02676132  0.21371169  0.98277092  1
  B  B12  1  0.48897522  0.30924237  0.14356771  1
  B  B13  1  0.98897522  0.69075763  0.35643229  1
  B  B14  1  0.51102478  0.69075763  0.85643229  1
  B  B15  1  0.01102478  0.30924237  0.64356771  1
  B  B16  1  0.34414265  0.39537203  0.26014339  1
  B  B17  1  0.84414265  0.60462797  0.23985661  1
  B  B18  1  0.65585735  0.60462797  0.73985661  1
  B  B19  1  0.15585735  0.39537203  0.76014339  1
  B  B20  1  0.23100367  0.11833593  0.31701147  1
  B  B21  1  0.73100367  0.88166407  0.18298853  1
  B  B22  1  0.76899633  0.88166407  0.68298853  1
  B  B23  1  0.26899633  0.11833593  0.81701147  1
  B  B24  1  0.04853465  0.97989546  0.28991590  1
  B  B25  1  0.54853465  0.02010454  0.21008410  1
  B  B26  1  0.95146535  0.02010454  0.71008410  1
  B  B27  1  0.45146535  0.97989546  0.78991590  1
  H  H28  1  0.64627049  0.15827039  0.60518832  1
  H  H29  1  0.14627049  0.84172961  0.89481168  1
  H  H30  1  0.35372951  0.84172961  0.39481168  1
  H  H31  1  0.85372951  0.15827039  0.10518832  1
  H  H32  1  0.67491034  0.08876580  0.49683792  1
  H  H33  1  0.17491034  0.91123420  0.00316208  1
  H  H34  1  0.32508966  0.91123420  0.50316208  1
  H  H35  1  0.82508966  0.08876580  0.99683792  1
  H  H36  1  0.77710503  0.19212132  0.54278592  1
  H  H37  1  0.27710503  0.80787868  0.95721408  1
  H  H38  1  0.22289497  0.80787868  0.45721408  1
  H  H39  1  0.72289497  0.19212132  0.04278592  1
  H  H40  1  0.71581319  0.37541229  0.56091526  1
  H  H41  1  0.21581319  0.62458771  0.93908474  1
  H  H42  1  0.28418681  0.62458771  0.43908474  1
  H  H43  1  0.78418681  0.37541229  0.06091526  1
  H  H44  1  0.56895053  0.41472493  0.52436704  1
  H  H45  1  0.06895053  0.58527507  0.97563296  1
  H  H46  1  0.43104947  0.58527507  0.47563296  1
  H  H47  1  0.93104947  0.41472493  0.02436704  1
  H  H48  1  0.58252973  0.34092996  0.62029718  1
  H  H49  1  0.08252973  0.65907004  0.87970282  1
  H  H50  1  0.41747027  0.65907004  0.37970282  1
  H  H51  1  0.91747027  0.34092996  0.12029718  1
  H  H52  1  0.59376398  0.32704146  0.36220993  1
  H  H53  1  0.09376398  0.67295854  0.13779007  1
  H  H54  1  0.40623602  0.67295854  0.63779007  1
  H  H55  1  0.90623602  0.32704146  0.86220993  1
  H  H56  1  0.64973650  0.17228889  0.35185718  1
  H  H57  1  0.14973650  0.82771111  0.14814282  1
  H  H58  1  0.35026350  0.82771111  0.64814282  1
  H  H59  1  0.85026350  0.17228889  0.85185718  1
  H  H60  1  0.76391910  0.28994753  0.39608290  1
  H  H61  1  0.26391910  0.71005247  0.10391710  1
  H  H62  1  0.23608090  0.71005247  0.60391710  1
  H  H63  1  0.73608090  0.28994753  0.89608290  1
  H  H64  1  0.47078990  0.12654682  0.43436640  1
  H  H65  1  0.97078990  0.87345318  0.06563360  1
  H  H66  1  0.52921010  0.87345318  0.56563360  1
  H  H67  1  0.02921010  0.12654682  0.93436640  1
  H  H68  1  0.41944167  0.28308229  0.44337931  1
  H  H69  1  0.91944167  0.71691771  0.05662069  1
  H  H70  1  0.58055833  0.71691771  0.55662069  1
  H  H71  1  0.08055833  0.28308229  0.94337931  1
  H  H72  1  0.42378599  0.20224744  0.55375565  1
  H  H73  1  0.92378599  0.79775256  0.94624435  1
  H  H74  1  0.57621401  0.79775256  0.44624435  1
  H  H75  1  0.07621401  0.20224744  0.05375565  1
  H  H76  1  0.35356470  0.41980914  0.02940865  1
  H  H77  1  0.85356470  0.58019086  0.47059135  1
  H  H78  1  0.64643530  0.58019086  0.97059135  1
  H  H79  1  0.14643530  0.41980914  0.52940865  1
  H  H80  1  0.25316876  0.34306551  0.09203292  1
  H  H81  1  0.75316876  0.65693449  0.40796708  1
  H  H82  1  0.74683124  0.65693449  0.90796708  1
  H  H83  1  0.24683124  0.34306551  0.59203292  1
  H  H84  1  0.25314076  0.48690319  0.11117750  1
  H  H85  1  0.75314076  0.51309681  0.38882250  1
  H  H86  1  0.74685924  0.51309681  0.88882250  1
  H  H87  1  0.24685924  0.48690319  0.61117750  1
  H  H88  1  0.41407650  0.58080699  0.18285266  1
  H  H89  1  0.91407650  0.41919301  0.31714734  1
  H  H90  1  0.58592350  0.41919301  0.81714734  1
  H  H91  1  0.08592350  0.58080699  0.68285266  1
  H  H92  1  0.54391282  0.51337535  0.22338658  1
  H  H93  1  0.04391282  0.48662465  0.27661342  1
  H  H94  1  0.45608718  0.48662465  0.77661342  1
  H  H95  1  0.95608718  0.51337535  0.72338658  1
  H  H96  1  0.52262479  0.51693415  0.10535517  1
  H  H97  1  0.02262479  0.48306585  0.39464483  1
  H  H98  1  0.47737521  0.48306585  0.89464483  1
  H  H99  1  0.97737521  0.51693415  0.60535517  1
  H  H100  1  0.42360578  0.22754870  0.14198324  1
  H  H101  1  0.92360578  0.77245130  0.35801676  1
  H  H102  1  0.57639422  0.77245130  0.85801676  1
  H  H103  1  0.07639422  0.22754870  0.64198324  1
  H  H104  1  0.56528320  0.30650447  0.20475098  1
  H  H105  1  0.06528320  0.69349553  0.29524902  1
  H  H106  1  0.43471680  0.69349553  0.79524902  1
  H  H107  1  0.93471680  0.30650447  0.70475098  1
  H  H108  1  0.53973870  0.30973914  0.07157414  1
  H  H109  1  0.03973870  0.69026086  0.42842586  1
  H  H110  1  0.46026130  0.69026086  0.92842586  1
  H  H111  1  0.96026130  0.30973914  0.57157414  1
  H  H112  1  0.42631773  0.38628691  0.31599583  1
  H  H113  1  0.92631773  0.61371309  0.18400417  1
  H  H114  1  0.57368227  0.61371309  0.68400417  1
  H  H115  1  0.07368227  0.38628691  0.81599583  1
  H  H116  1  0.28497727  0.31120041  0.25045335  1
  H  H117  1  0.78497727  0.68879959  0.24954665  1
  H  H118  1  0.71502273  0.68879959  0.74954665  1
  H  H119  1  0.21502273  0.31120041  0.75045335  1
  H  H120  1  0.27878896  0.46967348  0.28723507  1
  H  H121  1  0.77878896  0.53032652  0.21276493  1
  H  H122  1  0.72121104  0.53032652  0.71276493  1
  H  H123  1  0.22121104  0.46967348  0.78723507  1
  H  H124  1  0.04791883  0.25751828  0.33417826  1
  H  H125  1  0.54791883  0.74248172  0.16582174  1
  H  H126  1  0.95208117  0.74248172  0.66582174  1
  H  H127  1  0.45208117  0.25751828  0.83417826  1
  H  H128  1  0.02457952  0.17771761  0.22929322  1
  H  H129  1  0.52457952  0.82228239  0.27070678  1
  H  H130  1  0.97542048  0.82228239  0.77070678  1
  H  H131  1  0.47542048  0.17771761  0.72929322  1
  H  H132  1  0.92189334  0.16667603  0.32103961  1
  H  H133  1  0.42189334  0.83332397  0.17896039  1
  H  H134  1  0.07810666  0.83332397  0.67896039  1
  H  H135  1  0.57810666  0.16667603  0.82103961  1
  H  H136  1  0.98035272  0.08718341  0.44928319  1
  H  H137  1  0.48035272  0.91281659  0.05071681  1
  H  H138  1  0.01964728  0.91281659  0.55071681  1
  H  H139  1  0.51964728  0.08718341  0.94928319  1
  H  H140  1  0.12817999  0.03058965  0.46042724  1
  H  H141  1  0.62817999  0.96941035  0.03957276  1
  H  H142  1  0.87182001  0.96941035  0.53957276  1
  H  H143  1  0.37182001  0.03058965  0.96042724  1
  H  H144  1  0.10954978  0.17339607  0.46718367  1
  H  H145  1  0.60954978  0.82660393  0.03281633  1
  H  H146  1  0.89045022  0.82660393  0.53281633  1
  H  H147  1  0.39045022  0.17339607  0.96718367  1
  H  H148  1  0.25356254  0.20788065  0.35822506  1
  H  H149  1  0.75356254  0.79211935  0.14177494  1
  H  H150  1  0.74643746  0.79211935  0.64177494  1
  H  H151  1  0.24643746  0.20788065  0.85822506  1
  H  H152  1  0.30365487  0.05377161  0.34416890  1
  H  H153  1  0.80365487  0.94622839  0.15583110  1
  H  H154  1  0.69634513  0.94622839  0.65583110  1
  H  H155  1  0.19634513  0.05377161  0.84416890  1
  H  H156  1  0.25343268  0.12588944  0.23632122  1
  H  H157  1  0.75343268  0.87411056  0.26367878  1
  H  H158  1  0.74656732  0.87411056  0.76367878  1
  H  H159  1  0.24656732  0.12588944  0.73632122  1
  H  H160  1  0.11114074  0.90326730  0.30842930  1
  H  H161  1  0.61114074  0.09673270  0.19157070  1
  H  H162  1  0.88885926  0.09673270  0.69157070  1
  H  H163  1  0.38885926  0.90326730  0.80842930  1
  H  H164  1  0.94336500  0.96403695  0.31563788  1
  H  H165  1  0.44336500  0.03596305  0.18436212  1
  H  H166  1  0.05663500  0.03596305  0.68436212  1
  H  H167  1  0.55663500  0.96403695  0.81563788  1
  H  H168  1  0.04424641  0.97868763  0.20673094  1
  H  H169  1  0.54424641  0.02131237  0.29326906  1
  H  H170  1  0.95575359  0.02131237  0.79326906  1
  H  H171  1  0.45575359  0.97868763  0.70673094  1
  C  C172  1  0.68191192  0.16677740  0.53754392  1
  C  C173  1  0.18191192  0.83322260  0.96245608  1
  C  C174  1  0.31808808  0.83322260  0.46245608  1
  C  C175  1  0.81808808  0.16677740  0.03754392  1
  C  C176  1  0.62024324  0.35152294  0.55381051  1
  C  C177  1  0.12024324  0.64847706  0.94618949  1
  C  C178  1  0.37975676  0.64847706  0.44618949  1
  C  C179  1  0.87975676  0.35152294  0.05381051  1
  C  C180  1  0.31003208  0.41537802  0.09517588  1
  C  C181  1  0.81003208  0.58462198  0.40482412  1
  C  C182  1  0.68996792  0.58462198  0.90482412  1
  C  C183  1  0.18996792  0.41537802  0.59517588  1
  C  C184  1  0.47589384  0.51198007  0.16976165  1
  C  C185  1  0.97589384  0.48801993  0.33023835  1
  C  C186  1  0.52410616  0.48801993  0.83023835  1
  C  C187  1  0.02410616  0.51198007  0.66976165  1
  C  C188  1  0.01669754  0.17915370  0.30248867  1
  C  C189  1  0.51669754  0.82084630  0.19751133  1
  C  C190  1  0.98330246  0.82084630  0.69751133  1
  C  C191  1  0.48330246  0.17915370  0.80248867  1
  C  C192  1  0.07701839  0.09597135  0.43464215  1
  C  C193  1  0.57701839  0.90402865  0.06535785  1
  C  C194  1  0.92298161  0.90402865  0.56535785  1
  C  C195  1  0.42298161  0.09597135  0.93464215  1
  N  N196  1  0.61033597  0.24879057  0.49476671  1
  N  N197  1  0.11033597  0.75120943  0.00523329  1
  N  N198  1  0.38966403  0.75120943  0.50523329  1
  N  N199  1  0.88966403  0.24879057  0.99476671  1
  N  N200  1  0.40460301  0.41065126  0.16581873  1
  N  N201  1  0.90460301  0.58934874  0.33418127  1
  N  N202  1  0.59539699  0.58934874  0.83418127  1
  N  N203  1  0.09539699  0.41065126  0.66581873  1
  N  N204  1  0.09413794  0.09216674  0.33499551  1
  N  N205  1  0.59413794  0.90783326  0.16500449  1
  N  N206  1  0.90586206  0.90783326  0.66500449  1
  N  N207  1  0.40586206  0.09216674  0.83499551  1
