# generated using pymatgen
data_NaGaGeO4
_symmetry_space_group_name_H-M   'P 1'
_cell_length_a   8.43683056
_cell_length_b   9.01812667
_cell_length_c   15.76310650
_cell_angle_alpha   89.72524286
_cell_angle_beta   90.00000000
_cell_angle_gamma   90.00000000
_symmetry_Int_Tables_number   1
_chemical_formula_structural   NaGaGeO4
_chemical_formula_sum   'Na12 Ga12 Ge12 O48'
_cell_volume   1199.31281619
_cell_formula_units_Z   12
loop_
 _symmetry_equiv_pos_site_id
 _symmetry_equiv_pos_as_xyz
  1  'x, y, z'
loop_
 _atom_site_type_symbol
 _atom_site_label
 _atom_site_symmetry_multiplicity
 _atom_site_fract_x
 _atom_site_fract_y
 _atom_site_fract_z
 _atom_site_occupancy
  Na  Na0  1  0.96983453  0.26559631  0.58632609  1
  Na  Na1  1  0.03016547  0.73440369  0.41367391  1
  Na  Na2  1  0.46983453  0.23440369  0.91367391  1
  Na  Na3  1  0.53016547  0.76559631  0.08632609  1
  Na  Na4  1  0.47450612  0.75381000  0.74756797  1
  Na  Na5  1  0.52549388  0.24619000  0.25243203  1
  Na  Na6  1  0.97450612  0.74619000  0.75243203  1
  Na  Na7  1  0.02549388  0.25381000  0.24756797  1
  Na  Na8  1  0.53201246  0.23089091  0.56960788  1
  Na  Na9  1  0.46798754  0.76910909  0.43039212  1
  Na  Na10  1  0.03201246  0.26910909  0.93039212  1
  Na  Na11  1  0.96798754  0.73089091  0.06960788  1
  Ga  Ga12  1  0.17109374  0.93552145  0.90927098  1
  Ga  Ga13  1  0.82890626  0.06447855  0.09072902  1
  Ga  Ga14  1  0.67109374  0.56447855  0.59072902  1
  Ga  Ga15  1  0.32890626  0.43552145  0.40927098  1
  Ga  Ga16  1  0.67207568  0.59915713  0.92056827  1
  Ga  Ga17  1  0.32792432  0.40084287  0.07943173  1
  Ga  Ga18  1  0.17207568  0.90084287  0.57943173  1
  Ga  Ga19  1  0.82792432  0.09915713  0.42056827  1
  Ga  Ga20  1  0.67224927  0.08140595  0.73854797  1
  Ga  Ga21  1  0.32775073  0.91859405  0.26145203  1
  Ga  Ga22  1  0.17224927  0.41859405  0.76145203  1
  Ga  Ga23  1  0.82775073  0.58140595  0.23854797  1
  Ge  Ge24  1  0.78368765  0.89274600  0.58049654  1
  Ge  Ge25  1  0.21631235  0.10725400  0.41950346  1
  Ge  Ge26  1  0.28368765  0.60725400  0.91950346  1
  Ge  Ge27  1  0.71631235  0.39274600  0.08049654  1
  Ge  Ge28  1  0.78198288  0.93586767  0.90821001  1
  Ge  Ge29  1  0.21801712  0.06413233  0.09178999  1
  Ge  Ge30  1  0.28198288  0.56413233  0.59178999  1
  Ge  Ge31  1  0.71801712  0.43586767  0.40821001  1
  Ge  Ge32  1  0.28485964  0.07948914  0.73540587  1
  Ge  Ge33  1  0.71514036  0.92051086  0.26459413  1
  Ge  Ge34  1  0.78485964  0.42051086  0.76459413  1
  Ge  Ge35  1  0.21514036  0.57948914  0.23540587  1
  O  O36  1  0.77643385  0.91975930  0.69176053  1
  O  O37  1  0.22356615  0.08024070  0.30823947  1
  O  O38  1  0.27643385  0.58024070  0.80823947  1
  O  O39  1  0.72356615  0.41975930  0.19176053  1
  O  O40  1  0.74014978  0.06203300  0.52750037  1
  O  O41  1  0.25985022  0.93796700  0.47249963  1
  O  O42  1  0.24014978  0.43796700  0.97249963  1
  O  O43  1  0.75985022  0.56203300  0.02750037  1
  O  O44  1  0.64656881  0.05373735  0.85425246  1
  O  O45  1  0.35343119  0.94626265  0.14574754  1
  O  O46  1  0.14656881  0.44626265  0.64574754  1
  O  O47  1  0.85343119  0.55373735  0.35425246  1
  O  O48  1  0.76413059  0.42665318  0.51807447  1
  O  O49  1  0.23586941  0.57334682  0.48192553  1
  O  O50  1  0.26413059  0.07334682  0.98192553  1
  O  O51  1  0.73586941  0.92665318  0.01807447  1
  O  O52  1  0.64904219  0.75426881  0.54631949  1
  O  O53  1  0.35095781  0.24573119  0.45368051  1
  O  O54  1  0.14904219  0.74573119  0.95368051  1
  O  O55  1  0.85095781  0.25426881  0.04631949  1
  O  O56  1  0.75897085  0.26000185  0.70195631  1
  O  O57  1  0.24102915  0.73999815  0.29804369  1
  O  O58  1  0.25897085  0.23999815  0.79804369  1
  O  O59  1  0.74102915  0.76000185  0.20195631  1
  O  O60  1  0.27223271  0.92402429  0.80490378  1
  O  O61  1  0.72776729  0.07597571  0.19509622  1
  O  O62  1  0.77223271  0.57597571  0.69509622  1
  O  O63  1  0.22776729  0.42402429  0.30490378  1
  O  O64  1  0.64900794  0.43522749  0.85035522  1
  O  O65  1  0.35099206  0.56477251  0.14964478  1
  O  O66  1  0.14900794  0.06477251  0.64964478  1
  O  O67  1  0.85099206  0.93522749  0.35035522  1
  O  O68  1  0.97038172  0.01561673  0.88949156  1
  O  O69  1  0.02961828  0.98438327  0.11050844  1
  O  O70  1  0.47038172  0.48438327  0.61050844  1
  O  O71  1  0.52961828  0.51561673  0.38949156  1
  O  O72  1  0.47358510  0.07641531  0.68681230  1
  O  O73  1  0.52641490  0.92358469  0.31318770  1
  O  O74  1  0.97358510  0.42358469  0.81318770  1
  O  O75  1  0.02641490  0.57641531  0.18681230  1
  O  O76  1  0.78115143  0.75266896  0.86703033  1
  O  O77  1  0.21884857  0.24733104  0.13296967  1
  O  O78  1  0.28115143  0.74733104  0.63296967  1
  O  O79  1  0.71884857  0.25266896  0.36703033  1
  O  O80  1  0.47303394  0.67679814  0.94616557  1
  O  O81  1  0.52696606  0.32320186  0.05383443  1
  O  O82  1  0.97303394  0.82320186  0.55383443  1
  O  O83  1  0.02696606  0.17679814  0.44616557  1
