# generated using pymatgen
data_Li3Ti3(PO4)4
_symmetry_space_group_name_H-M   'P 1'
_cell_length_a   6.45598881
_cell_length_b   10.17459525
_cell_length_c   10.71357686
_cell_angle_alpha   88.74783325
_cell_angle_beta   90.00000000
_cell_angle_gamma   71.50268431
_symmetry_Int_Tables_number   1
_chemical_formula_structural   Li3Ti3(PO4)4
_chemical_formula_sum   'Li6 Ti6 P8 O32'
_cell_volume   667.20986491
_cell_formula_units_Z   2
loop_
 _symmetry_equiv_pos_site_id
 _symmetry_equiv_pos_as_xyz
  1  'x, y, z'
loop_
 _atom_site_type_symbol
 _atom_site_label
 _atom_site_symmetry_multiplicity
 _atom_site_fract_x
 _atom_site_fract_y
 _atom_site_fract_z
 _atom_site_occupancy
  Li  Li0  1  0.20826982  0.86232096  0.97113505  1
  Li  Li1  1  0.92940922  0.86232096  0.47113505  1
  Li  Li2  1  0.07059078  0.13767904  0.52886495  1
  Li  Li3  1  0.79173018  0.13767904  0.02886495  1
  Li  Li4  1  0.59062805  0.00000000  0.75000000  1
  Li  Li5  1  0.40937195  0.00000000  0.25000000  1
  Ti  Ti6  1  0.63416314  0.69082771  0.74848125  1
  Ti  Ti7  1  0.67500914  0.69082771  0.24848125  1
  Ti  Ti8  1  0.50000000  0.50000000  0.50000000  1
  Ti  Ti9  1  0.00000000  0.50000000  0.00000000  1
  Ti  Ti10  1  0.32499086  0.30917229  0.75151875  1
  Ti  Ti11  1  0.36583686  0.30917229  0.25151875  1
  P  P12  1  0.74402101  0.83959469  0.99172267  1
  P  P13  1  0.41638430  0.83959469  0.49172267  1
  P  P14  1  0.18090174  0.60238854  0.74358462  1
  P  P15  1  0.21670972  0.60238854  0.24358462  1
  P  P16  1  0.78329028  0.39761146  0.75641538  1
  P  P17  1  0.81909826  0.39761146  0.25641538  1
  P  P18  1  0.58361570  0.16040531  0.50827733  1
  P  P19  1  0.25597899  0.16040531  0.00827733  1
  O  O20  1  0.81557753  0.96487717  0.96157315  1
  O  O21  1  0.21954531  0.96487717  0.46157315  1
  O  O22  1  0.52953783  0.84603511  0.62007879  1
  O  O23  1  0.57870500  0.82836599  0.88666179  1
  O  O24  1  0.62442706  0.84603511  0.12007879  1
  O  O25  1  0.59292901  0.82836599  0.38666179  1
  O  O26  1  0.94842719  0.70742834  0.99261027  1
  O  O27  1  0.94628313  0.69080913  0.71189961  1
  O  O28  1  0.34414446  0.70742834  0.49261027  1
  O  O29  1  0.32069201  0.69255394  0.77747304  1
  O  O30  1  0.36290774  0.69080913  0.21189961  1
  O  O31  1  0.98675406  0.69255394  0.27747304  1
  O  O32  1  0.77127945  0.50596784  0.86249173  1
  O  O33  1  0.69126248  0.50856191  0.64664959  1
  O  O34  1  0.72275271  0.50596784  0.36249173  1
  O  O35  1  0.80017561  0.50856191  0.14664959  1
  O  O36  1  0.19982439  0.49143809  0.85335041  1
  O  O37  1  0.27724729  0.49403216  0.63750827  1
  O  O38  1  0.30873752  0.49143809  0.35335041  1
  O  O39  1  0.22872055  0.49403216  0.13750827  1
  O  O40  1  0.01324594  0.30744606  0.72252696  1
  O  O41  1  0.63709226  0.30919087  0.78810039  1
  O  O42  1  0.67930799  0.30744606  0.22252696  1
  O  O43  1  0.65585554  0.29257166  0.50738973  1
  O  O44  1  0.05371687  0.30919087  0.28810039  1
  O  O45  1  0.05157281  0.29257166  0.00738973  1
  O  O46  1  0.40707099  0.17163401  0.61333821  1
  O  O47  1  0.37557294  0.15396489  0.87992121  1
  O  O48  1  0.42129500  0.17163401  0.11333821  1
  O  O49  1  0.47046217  0.15396489  0.37992121  1
  O  O50  1  0.78045469  0.03512283  0.53842685  1
  O  O51  1  0.18442247  0.03512283  0.03842685  1
