# generated using pymatgen
data_LuZnRh
_symmetry_space_group_name_H-M   'P 1'
_cell_length_a   4.03335214
_cell_length_b   6.86973994
_cell_length_c   8.04517238
_cell_angle_alpha   90.00000000
_cell_angle_beta   90.00000000
_cell_angle_gamma   90.00000000
_symmetry_Int_Tables_number   1
_chemical_formula_structural   LuZnRh
_chemical_formula_sum   'Lu4 Zn4 Rh4'
_cell_volume   222.91628224
_cell_formula_units_Z   4
loop_
 _symmetry_equiv_pos_site_id
 _symmetry_equiv_pos_as_xyz
  1  'x, y, z'
loop_
 _atom_site_type_symbol
 _atom_site_label
 _atom_site_symmetry_multiplicity
 _atom_site_fract_x
 _atom_site_fract_y
 _atom_site_fract_z
 _atom_site_occupancy
  Lu  Lu0  1  0.75000000  0.97277921  0.31855324  1
  Lu  Lu1  1  0.25000000  0.02722079  0.68144676  1
  Lu  Lu2  1  0.25000000  0.52722079  0.81855324  1
  Lu  Lu3  1  0.75000000  0.47277921  0.18144676  1
  Zn  Zn4  1  0.75000000  0.85783950  0.93583699  1
  Zn  Zn5  1  0.25000000  0.14216050  0.06416301  1
  Zn  Zn6  1  0.25000000  0.64216050  0.43583699  1
  Zn  Zn7  1  0.75000000  0.35783950  0.56416301  1
  Rh  Rh8  1  0.75000000  0.73905321  0.62474546  1
  Rh  Rh9  1  0.25000000  0.26094679  0.37525454  1
  Rh  Rh10  1  0.25000000  0.76094679  0.12474546  1
  Rh  Rh11  1  0.75000000  0.23905321  0.87525454  1
