# generated using pymatgen
data_Li8Ag5
_symmetry_space_group_name_H-M   'P 1'
_cell_length_a   8.32774750
_cell_length_b   8.32774750
_cell_length_c   8.32774750
_cell_angle_alpha   109.47122063
_cell_angle_beta   109.47122063
_cell_angle_gamma   109.47122063
_symmetry_Int_Tables_number   1
_chemical_formula_structural   Li8Ag5
_chemical_formula_sum   'Li16 Ag10'
_cell_volume   444.59109048
_cell_formula_units_Z   2
loop_
 _symmetry_equiv_pos_site_id
 _symmetry_equiv_pos_as_xyz
  1  'x, y, z'
loop_
 _atom_site_type_symbol
 _atom_site_label
 _atom_site_symmetry_multiplicity
 _atom_site_fract_x
 _atom_site_fract_y
 _atom_site_fract_z
 _atom_site_occupancy
  Li  Li0  1  0.36949846  0.65248613  0.65248613  1
  Li  Li1  1  0.63050154  0.28298767  0.28298767  1
  Li  Li2  1  0.00000000  0.34751387  0.71701233  1
  Li  Li3  1  0.65248613  0.65248613  0.36949846  1
  Li  Li4  1  -0.00000000  0.71701233  0.34751387  1
  Li  Li5  1  0.28298767  0.28298767  0.63050154  1
  Li  Li6  1  0.34751387  0.71701233  -0.00000000  1
  Li  Li7  1  0.71701233  0.34751387  -0.00000000  1
  Li  Li8  1  0.65248613  0.36949846  0.65248613  1
  Li  Li9  1  0.71701233  -0.00000000  0.34751387  1
  Li  Li10  1  0.34751387  -0.00000000  0.71701233  1
  Li  Li11  1  0.28298767  0.63050154  0.28298767  1
  Li  Li12  1  0.76970484  0.76970484  0.76970484  1
  Li  Li13  1  0.23029516  -0.00000000  -0.00000000  1
  Li  Li14  1  0.00000000  0.23029516  -0.00000000  1
  Li  Li15  1  0.00000000  0.00000000  0.23029516  1
  Ag  Ag16  1  0.34441314  0.34441314  0.34441314  1
  Ag  Ag17  1  0.65558686  0.00000000  0.00000000  1
  Ag  Ag18  1  -0.00000000  0.65558686  0.00000000  1
  Ag  Ag19  1  -0.00000000  0.00000000  0.65558686  1
  Ag  Ag20  1  0.64662484  0.64662484  0.00000000  1
  Ag  Ag21  1  0.35337516  0.35337516  0.00000000  1
  Ag  Ag22  1  0.64662484  -0.00000000  0.64662484  1
  Ag  Ag23  1  0.35337516  -0.00000000  0.35337516  1
  Ag  Ag24  1  -0.00000000  0.64662484  0.64662484  1
  Ag  Ag25  1  -0.00000000  0.35337516  0.35337516  1
