# generated using pymatgen
data_MnSi(AgSe2)2
_symmetry_space_group_name_H-M   'P 1'
_cell_length_a   6.89569555
_cell_length_b   7.31556924
_cell_length_c   8.05084190
_cell_angle_alpha   90.00000000
_cell_angle_beta   90.00000000
_cell_angle_gamma   90.00000000
_symmetry_Int_Tables_number   1
_chemical_formula_structural   MnSi(AgSe2)2
_chemical_formula_sum   'Mn2 Si2 Ag4 Se8'
_cell_volume   406.13227338
_cell_formula_units_Z   2
loop_
 _symmetry_equiv_pos_site_id
 _symmetry_equiv_pos_as_xyz
  1  'x, y, z'
loop_
 _atom_site_type_symbol
 _atom_site_label
 _atom_site_symmetry_multiplicity
 _atom_site_fract_x
 _atom_site_fract_y
 _atom_site_fract_z
 _atom_site_occupancy
  Mn  Mn0  1  0.50241359  0.35632228  -0.00000000  1
  Mn  Mn1  1  0.00241359  0.64367772  0.50000000  1
  Si  Si2  1  0.99975791  0.66388191  -0.00000000  1
  Si  Si3  1  0.49975791  0.33611809  0.50000000  1
  Ag  Ag4  1  0.51999445  0.82662374  0.75137897  1
  Ag  Ag5  1  0.01999445  0.17337626  0.74862103  1
  Ag  Ag6  1  0.01999445  0.17337626  0.25137897  1
  Ag  Ag7  1  0.51999445  0.82662374  0.24862103  1
  Se  Se8  1  0.87168913  0.37398958  -0.00000000  1
  Se  Se9  1  0.37168913  0.62601042  0.50000000  1
  Se  Se10  1  0.90197247  0.82280368  0.76429439  1
  Se  Se11  1  0.40197247  0.17719632  0.73570561  1
  Se  Se12  1  0.40197247  0.17719632  0.26429439  1
  Se  Se13  1  0.90197247  0.82280368  0.23570561  1
  Se  Se14  1  0.33470552  0.66003327  -0.00000000  1
  Se  Se15  1  0.83470552  0.33996673  0.50000000  1
