# generated using pymatgen
data_Lu4InRh
_symmetry_space_group_name_H-M   'P 1'
_cell_length_a   9.47609106
_cell_length_b   9.47609106
_cell_length_c   9.47609106
_cell_angle_alpha   60.00000000
_cell_angle_beta   60.00000000
_cell_angle_gamma   60.00000000
_symmetry_Int_Tables_number   1
_chemical_formula_structural   Lu4InRh
_chemical_formula_sum   'Lu16 In4 Rh4'
_cell_volume   601.68984093
_cell_formula_units_Z   4
loop_
 _symmetry_equiv_pos_site_id
 _symmetry_equiv_pos_as_xyz
  1  'x, y, z'
loop_
 _atom_site_type_symbol
 _atom_site_label
 _atom_site_symmetry_multiplicity
 _atom_site_fract_x
 _atom_site_fract_y
 _atom_site_fract_z
 _atom_site_occupancy
  Lu  Lu0  1  0.65044243  0.65044243  0.65044243  1
  Lu  Lu1  1  0.04867271  0.65044243  0.65044243  1
  Lu  Lu2  1  0.65044243  0.04867271  0.65044243  1
  Lu  Lu3  1  0.65044243  0.65044243  0.04867271  1
  Lu  Lu4  1  0.81144384  0.81144384  0.18855616  1
  Lu  Lu5  1  0.18855616  0.18855616  0.81144384  1
  Lu  Lu6  1  0.81144384  0.18855616  0.81144384  1
  Lu  Lu7  1  0.18855616  0.81144384  0.18855616  1
  Lu  Lu8  1  0.18855616  0.81144384  0.81144384  1
  Lu  Lu9  1  0.81144384  0.18855616  0.18855616  1
  Lu  Lu10  1  0.43826968  0.43826968  0.06173032  1
  Lu  Lu11  1  0.06173032  0.06173032  0.43826968  1
  Lu  Lu12  1  0.43826968  0.06173032  0.43826968  1
  Lu  Lu13  1  0.06173032  0.43826968  0.06173032  1
  Lu  Lu14  1  0.06173032  0.43826968  0.43826968  1
  Lu  Lu15  1  0.43826968  0.06173032  0.06173032  1
  In  In16  1  0.41618196  0.41618196  0.41618196  1
  In  In17  1  0.75145411  0.41618196  0.41618196  1
  In  In18  1  0.41618196  0.75145411  0.41618196  1
  In  In19  1  0.41618196  0.41618196  0.75145411  1
  Rh  Rh20  1  0.85723963  0.85723963  0.85723963  1
  Rh  Rh21  1  0.42828110  0.85723963  0.85723963  1
  Rh  Rh22  1  0.85723963  0.42828110  0.85723963  1
  Rh  Rh23  1  0.85723963  0.85723963  0.42828110  1
