# generated using pymatgen
data_Lu7(TeRu)2
_symmetry_space_group_name_H-M   'P 1'
_cell_length_a   3.87907592
_cell_length_b   9.19215439
_cell_length_c   9.19215439
_cell_angle_alpha   60.06903991
_cell_angle_beta   77.81908096
_cell_angle_gamma   77.81908096
_symmetry_Int_Tables_number   1
_chemical_formula_structural   Lu7(TeRu)2
_chemical_formula_sum   'Lu7 Te2 Ru2'
_cell_volume   275.48452609
_cell_formula_units_Z   1
loop_
 _symmetry_equiv_pos_site_id
 _symmetry_equiv_pos_as_xyz
  1  'x, y, z'
loop_
 _atom_site_type_symbol
 _atom_site_label
 _atom_site_symmetry_multiplicity
 _atom_site_fract_x
 _atom_site_fract_y
 _atom_site_fract_z
 _atom_site_occupancy
  Lu  Lu0  1  0.35221521  0.38266885  0.91290073  1
  Lu  Lu1  1  0.64778479  0.08709927  0.61733115  1
  Lu  Lu2  1  0.00000000  0.00184735  0.99815265  1
  Lu  Lu3  1  0.13447186  0.44946306  0.28159321  1
  Lu  Lu4  1  0.86552814  0.71840679  0.55053694  1
  Lu  Lu5  1  0.31404663  0.06016882  0.31173792  1
  Lu  Lu6  1  0.68595337  0.68826208  0.93983118  1
  Te  Te7  1  0.50000000  0.73728566  0.26271434  1
  Te  Te8  1  0.00000000  0.33932185  0.66067815  1
  Ru  Ru9  1  0.23712165  0.83518649  0.69057022  1
  Ru  Ru10  1  0.76287835  0.30942978  0.16481351  1
