# generated using pymatgen
data_KTl(SO4)2
_symmetry_space_group_name_H-M   'P 1'
_cell_length_a   4.96859964
_cell_length_b   4.96859964
_cell_length_c   9.18445559
_cell_angle_alpha   74.30659903
_cell_angle_beta   74.30659903
_cell_angle_gamma   59.99999462
_symmetry_Int_Tables_number   1
_chemical_formula_structural   KTl(SO4)2
_chemical_formula_sum   'K1 Tl1 S2 O8'
_cell_volume   186.53611832
_cell_formula_units_Z   1
loop_
 _symmetry_equiv_pos_site_id
 _symmetry_equiv_pos_as_xyz
  1  'x, y, z'
loop_
 _atom_site_type_symbol
 _atom_site_label
 _atom_site_symmetry_multiplicity
 _atom_site_fract_x
 _atom_site_fract_y
 _atom_site_fract_z
 _atom_site_occupancy
  K  K0  1  0.50000000  0.50000000  0.50000000  1
  Tl  Tl1  1  -0.00000000  -0.00000000  0.00000000  1
  S  S2  1  0.74172650  0.74172650  0.77482051  1
  S  S3  1  0.25827350  0.25827350  0.22517949  1
  O  O4  1  0.56799462  0.26705155  0.16740699  1
  O  O5  1  0.99754684  0.56799462  0.16740699  1
  O  O6  1  0.00245316  0.73294845  0.83259301  1
  O  O7  1  0.26705155  0.99754684  0.16740699  1
  O  O8  1  0.73294845  0.43200538  0.83259301  1
  O  O9  1  0.43200538  0.00245316  0.83259301  1
  O  O10  1  0.79766710  0.79766710  0.60699870  1
  O  O11  1  0.20233290  0.20233290  0.39300130  1
