# generated using pymatgen
data_KRbGeO3
_symmetry_space_group_name_H-M   'P 1'
_cell_length_a   5.68509381
_cell_length_b   13.43349068
_cell_length_c   11.84920794
_cell_angle_alpha   90.00000000
_cell_angle_beta   90.00000000
_cell_angle_gamma   90.00000000
_symmetry_Int_Tables_number   1
_chemical_formula_structural   KRbGeO3
_chemical_formula_sum   'K8 Rb8 Ge8 O24'
_cell_volume   904.93176819
_cell_formula_units_Z   8
loop_
 _symmetry_equiv_pos_site_id
 _symmetry_equiv_pos_as_xyz
  1  'x, y, z'
loop_
 _atom_site_type_symbol
 _atom_site_label
 _atom_site_symmetry_multiplicity
 _atom_site_fract_x
 _atom_site_fract_y
 _atom_site_fract_z
 _atom_site_occupancy
  K  K0  1  0.75000000  0.82377126  0.13326314  1
  K  K1  1  0.25000000  0.17622874  0.86673686  1
  K  K2  1  0.25000000  0.67622874  0.63326314  1
  K  K3  1  0.75000000  0.32377126  0.36673686  1
  K  K4  1  0.75000000  0.99834416  0.90256611  1
  K  K5  1  0.25000000  0.00165584  0.09743389  1
  K  K6  1  0.25000000  0.50165584  0.40256611  1
  K  K7  1  0.75000000  0.49834416  0.59743389  1
  Rb  Rb8  1  0.75000000  0.56204058  0.91557767  1
  Rb  Rb9  1  0.25000000  0.43795942  0.08442233  1
  Rb  Rb10  1  0.25000000  0.93795942  0.41557767  1
  Rb  Rb11  1  0.75000000  0.06204058  0.58442233  1
  Rb  Rb12  1  0.75000000  0.75402897  0.44507720  1
  Rb  Rb13  1  0.25000000  0.24597103  0.55492280  1
  Rb  Rb14  1  0.25000000  0.74597103  0.94507720  1
  Rb  Rb15  1  0.75000000  0.25402897  0.05492280  1
  Ge  Ge16  1  0.75000000  0.79419439  0.74748872  1
  Ge  Ge17  1  0.25000000  0.20580561  0.25251128  1
  Ge  Ge18  1  0.25000000  0.70580561  0.24748872  1
  Ge  Ge19  1  0.75000000  0.29419439  0.75251128  1
  Ge  Ge20  1  0.75000000  0.55688923  0.23218847  1
  Ge  Ge21  1  0.25000000  0.44311077  0.76781153  1
  Ge  Ge22  1  0.25000000  0.94311077  0.73218847  1
  Ge  Ge23  1  0.75000000  0.05688923  0.26781153  1
  O  O24  1  0.75000000  0.79001830  0.89463887  1
  O  O25  1  0.25000000  0.20998170  0.10536113  1
  O  O26  1  0.25000000  0.70998170  0.39463887  1
  O  O27  1  0.75000000  0.29001830  0.60536113  1
  O  O28  1  0.75000000  0.68146512  0.67509487  1
  O  O29  1  0.25000000  0.31853488  0.32490513  1
  O  O30  1  0.25000000  0.81853488  0.17509487  1
  O  O31  1  0.75000000  0.18146512  0.82490513  1
  O  O32  1  0.75000000  0.53348392  0.37717500  1
  O  O33  1  0.25000000  0.46651608  0.62282500  1
  O  O34  1  0.25000000  0.96651608  0.87717500  1
  O  O35  1  0.75000000  0.03348392  0.12282500  1
  O  O36  1  0.99961571  0.86485292  0.68890346  1
  O  O37  1  0.00038429  0.13514708  0.31109654  1
  O  O38  1  0.00038429  0.63514708  0.18890346  1
  O  O39  1  0.49961571  0.13514708  0.31109654  1
  O  O40  1  0.99961571  0.36485292  0.81109654  1
  O  O41  1  0.50038429  0.86485292  0.68890346  1
  O  O42  1  0.50038429  0.36485292  0.81109654  1
  O  O43  1  0.49961571  0.63514708  0.18890346  1
  O  O44  1  0.75000000  0.95436995  0.35746038  1
  O  O45  1  0.25000000  0.04563005  0.64253962  1
  O  O46  1  0.25000000  0.54563005  0.85746038  1
  O  O47  1  0.75000000  0.45436995  0.14253962  1
