# generated using pymatgen
data_LiCu3(CO3)3
_symmetry_space_group_name_H-M   'P 1'
_cell_length_a   14.01203822
_cell_length_b   14.03601828
_cell_length_c   3.20035727
_cell_angle_alpha   93.90116799
_cell_angle_beta   91.11134204
_cell_angle_gamma   59.18698819
_symmetry_Int_Tables_number   1
_chemical_formula_structural   LiCu3(CO3)3
_chemical_formula_sum   'Li3 Cu9 C9 O27'
_cell_volume   539.23695652
_cell_formula_units_Z   3
loop_
 _symmetry_equiv_pos_site_id
 _symmetry_equiv_pos_as_xyz
  1  'x, y, z'
loop_
 _atom_site_type_symbol
 _atom_site_label
 _atom_site_symmetry_multiplicity
 _atom_site_fract_x
 _atom_site_fract_y
 _atom_site_fract_z
 _atom_site_occupancy
  Li  Li0  1  0.17824857  0.25132301  0.00241102  1
  Li  Li1  1  0.51993684  0.58380679  0.01150655  1
  Li  Li2  1  0.87355233  0.89901016  0.97461898  1
  Cu  Cu3  1  0.12089773  0.76981822  0.51059536  1
  Cu  Cu4  1  0.44910480  0.81285852  0.50114213  1
  Cu  Cu5  1  0.10898888  0.46182012  0.44723792  1
  Cu  Cu6  1  0.44112359  0.42945846  0.57693375  1
  Cu  Cu7  1  0.11064063  0.08972008  0.48978508  1
  Cu  Cu8  1  0.79452114  0.73926731  0.51367253  1
  Cu  Cu9  1  0.75839127  0.44187856  0.52894639  1
  Cu  Cu10  1  0.44494321  0.11308997  0.43321500  1
  Cu  Cu11  1  0.78198004  0.12861173  0.49014190  1
  C  C12  1  0.00540277  0.66183614  0.99807762  1
  C  C13  1  0.33505855  0.68241419  0.53762015  1
  C  C14  1  0.68656864  0.98351367  0.46474117  1
  C  C15  1  0.33370347  0.32992628  0.00518516  1
  C  C16  1  0.66242660  0.66696930  0.01658925  1
  C  C17  1  0.65218878  0.33820826  0.99220193  1
  C  C18  1  0.33289059  0.01450876  0.01052758  1
  C  C19  1  0.98995700  0.32828709  0.51135604  1
  C  C20  1  0.99732276  0.99808338  0.97800747  1
  O  O21  1  0.01302313  0.89834232  0.92746851  1
  O  O22  1  0.07853228  0.67868301  0.17036695  1
  O  O23  1  0.34431658  0.91773637  0.92570389  1
  O  O24  1  0.02540344  0.55909101  0.94555887  1
  O  O25  1  0.25046574  0.78010110  0.51061729  1
  O  O26  1  0.32299604  0.59919346  0.57930889  1
  O  O27  1  0.68225087  0.89481653  0.47655152  1
  O  O28  1  0.43528595  0.66935561  0.52497040  1
  O  O29  1  0.08716214  0.32129271  0.51404694  1
  O  O30  1  0.78439212  0.97783088  0.49459828  1
  O  O31  1  0.56681735  0.75632099  0.08176335  1
  O  O32  1  0.22850507  0.36036126  0.02883932  1
  O  O33  1  0.36369314  0.40327970  0.07218810  1
  O  O34  1  0.07945962  0.01473597  0.93792781  1
  O  O35  1  0.66626721  0.57331680  0.92271649  1
  O  O36  1  0.75274039  0.67082052  0.03515280  1
  O  O37  1  0.55020393  0.42714218  0.03213784  1
  O  O38  1  0.23652900  0.09722842  0.14215672  1
  O  O39  1  0.40541589  0.22738172  0.91322469  1
  O  O40  1  0.91058199  0.74359207  0.88306783  1
  O  O41  1  0.73677435  0.34671088  0.10008556  1
  O  O42  1  0.41700013  0.02867455  0.96874935  1
  O  O43  1  0.66185028  0.24700380  0.83934172  1
  O  O44  1  0.90256872  0.42395463  0.48845116  1
  O  O45  1  0.60090416  0.07715148  0.42001339  1
  O  O46  1  0.98433515  0.24057035  0.53336531  1
  O  O47  1  0.89859715  0.08116969  0.06802806  1
