# generated using pymatgen
data_La2Si3Rh
_symmetry_space_group_name_H-M   'P 1'
_cell_length_a   8.34744097
_cell_length_b   8.34744097
_cell_length_c   8.63326455
_cell_angle_alpha   90.00000000
_cell_angle_beta   90.00000000
_cell_angle_gamma   120.00000218
_symmetry_Int_Tables_number   1
_chemical_formula_structural   La2Si3Rh
_chemical_formula_sum   'La8 Si12 Rh4'
_cell_volume   520.96960392
_cell_formula_units_Z   4
loop_
 _symmetry_equiv_pos_site_id
 _symmetry_equiv_pos_as_xyz
  1  'x, y, z'
loop_
 _atom_site_type_symbol
 _atom_site_label
 _atom_site_symmetry_multiplicity
 _atom_site_fract_x
 _atom_site_fract_y
 _atom_site_fract_z
 _atom_site_occupancy
  La  La0  1  0.00000000  0.00000000  0.75000000  1
  La  La1  1  0.00000000  0.00000000  0.25000000  1
  La  La2  1  0.99732116  0.49678554  0.75000000  1
  La  La3  1  0.49946438  0.00267884  0.75000000  1
  La  La4  1  0.50053562  0.50321446  0.25000000  1
  La  La5  1  0.50321446  0.50053562  0.75000000  1
  La  La6  1  0.49678554  0.99732116  0.25000000  1
  La  La7  1  0.00267884  0.49946438  0.25000000  1
  Si  Si8  1  0.83382604  0.16561089  0.00166151  1
  Si  Si9  1  0.33178485  0.16617396  0.00166151  1
  Si  Si10  1  0.83382604  0.16561089  0.49833849  1
  Si  Si11  1  0.66821515  0.83438911  0.99833849  1
  Si  Si12  1  0.83438911  0.66821515  0.00166151  1
  Si  Si13  1  0.33178485  0.16617396  0.49833849  1
  Si  Si14  1  0.16561089  0.83382604  0.99833849  1
  Si  Si15  1  0.66821515  0.83438911  0.50166151  1
  Si  Si16  1  0.83438911  0.66821515  0.49833849  1
  Si  Si17  1  0.16561089  0.83382604  0.50166151  1
  Si  Si18  1  0.16617396  0.33178485  0.99833849  1
  Si  Si19  1  0.16617396  0.33178485  0.50166151  1
  Rh  Rh20  1  0.66666700  0.33333300  0.00251099  1
  Rh  Rh21  1  0.66666700  0.33333300  0.49748901  1
  Rh  Rh22  1  0.33333300  0.66666700  0.99748901  1
  Rh  Rh23  1  0.33333300  0.66666700  0.50251099  1
