# generated using pymatgen
data_KNdTiO4
_symmetry_space_group_name_H-M   'P 1'
_cell_length_a   5.47994902
_cell_length_b   13.41183909
_cell_length_c   5.44195179
_cell_angle_alpha   90.00000000
_cell_angle_beta   90.00000000
_cell_angle_gamma   90.00000000
_symmetry_Int_Tables_number   1
_chemical_formula_structural   KNdTiO4
_chemical_formula_sum   'K4 Nd4 Ti4 O16'
_cell_volume   399.96274710
_cell_formula_units_Z   4
loop_
 _symmetry_equiv_pos_site_id
 _symmetry_equiv_pos_as_xyz
  1  'x, y, z'
loop_
 _atom_site_type_symbol
 _atom_site_label
 _atom_site_symmetry_multiplicity
 _atom_site_fract_x
 _atom_site_fract_y
 _atom_site_fract_z
 _atom_site_occupancy
  K  K0  1  0.00836077  0.40720567  0.75000000  1
  K  K1  1  0.99163923  0.59279433  0.25000000  1
  K  K2  1  0.50836077  0.59279433  0.75000000  1
  K  K3  1  0.49163923  0.40720567  0.25000000  1
  Nd  Nd4  1  0.51458100  0.89564830  0.75000000  1
  Nd  Nd5  1  0.48541900  0.10435170  0.25000000  1
  Nd  Nd6  1  0.01458100  0.10435170  0.75000000  1
  Nd  Nd7  1  0.98541900  0.89564830  0.25000000  1
  Ti  Ti8  1  0.00283412  0.74589615  0.75000000  1
  Ti  Ti9  1  0.99716588  0.25410385  0.25000000  1
  Ti  Ti10  1  0.50283412  0.25410385  0.75000000  1
  Ti  Ti11  1  0.49716588  0.74589615  0.25000000  1
  O  O12  1  0.95851032  0.93318673  0.75000000  1
  O  O13  1  0.04148968  0.06681327  0.25000000  1
  O  O14  1  0.45851032  0.06681327  0.75000000  1
  O  O15  1  0.54148968  0.93318673  0.25000000  1
  O  O16  1  0.75000000  0.77052500  -0.00000000  1
  O  O17  1  0.25000000  0.22947500  0.00000000  1
  O  O18  1  0.25000000  0.22947500  0.50000000  1
  O  O19  1  0.75000000  0.77052500  0.50000000  1
  O  O20  1  0.51323833  0.38551972  0.75000000  1
  O  O21  1  0.48676167  0.61448028  0.25000000  1
  O  O22  1  0.01323833  0.61448028  0.75000000  1
  O  O23  1  0.98676167  0.38551972  0.25000000  1
  O  O24  1  0.75000000  0.21687763  0.00000000  1
  O  O25  1  0.25000000  0.78312237  0.00000000  1
  O  O26  1  0.25000000  0.78312237  0.50000000  1
  O  O27  1  0.75000000  0.21687763  0.50000000  1
