# generated using pymatgen
data_La3SbO7
_symmetry_space_group_name_H-M   'P 1'
_cell_length_a   7.80951671
_cell_length_b   7.71801771
_cell_length_c   11.21108562
_cell_angle_alpha   90.00000000
_cell_angle_beta   90.00000000
_cell_angle_gamma   90.00000000
_symmetry_Int_Tables_number   1
_chemical_formula_structural   La3SbO7
_chemical_formula_sum   'La12 Sb4 O28'
_cell_volume   675.73684320
_cell_formula_units_Z   4
loop_
 _symmetry_equiv_pos_site_id
 _symmetry_equiv_pos_as_xyz
  1  'x, y, z'
loop_
 _atom_site_type_symbol
 _atom_site_label
 _atom_site_symmetry_multiplicity
 _atom_site_fract_x
 _atom_site_fract_y
 _atom_site_fract_z
 _atom_site_occupancy
  La  La0  1  0.50231041  0.23400624  0.75000000  1
  La  La1  1  0.49768959  0.76599376  0.25000000  1
  La  La2  1  0.99768959  0.73400624  0.25000000  1
  La  La3  1  0.00231041  0.26599376  0.75000000  1
  La  La4  1  0.74734980  0.54484119  0.97823795  1
  La  La5  1  0.25265020  0.45515881  0.02176205  1
  La  La6  1  0.75265020  0.04484119  0.02176205  1
  La  La7  1  0.25265020  0.45515881  0.47823795  1
  La  La8  1  0.24734980  0.95515881  0.97823795  1
  La  La9  1  0.74734980  0.54484119  0.52176205  1
  La  La10  1  0.24734980  0.95515881  0.52176205  1
  La  La11  1  0.75265020  0.04484119  0.47823795  1
  Sb  Sb12  1  0.99762454  0.74815026  0.75000000  1
  Sb  Sb13  1  0.00237546  0.25184974  0.25000000  1
  Sb  Sb14  1  0.50237546  0.24815026  0.25000000  1
  Sb  Sb15  1  0.49762454  0.75184974  0.75000000  1
  O  O16  1  0.74695378  0.67076233  0.75000000  1
  O  O17  1  0.25304622  0.32923767  0.25000000  1
  O  O18  1  0.75304622  0.17076233  0.25000000  1
  O  O19  1  0.24695378  0.82923767  0.75000000  1
  O  O20  1  0.96271812  0.92610440  0.87808681  1
  O  O21  1  0.03728188  0.07389560  0.12191319  1
  O  O22  1  0.53728188  0.42610440  0.12191319  1
  O  O23  1  0.03728188  0.07389560  0.37808681  1
  O  O24  1  0.46271812  0.57389560  0.87808681  1
  O  O25  1  0.96271812  0.92610440  0.62191319  1
  O  O26  1  0.46271812  0.57389560  0.62191319  1
  O  O27  1  0.53728188  0.42610440  0.37808681  1
  O  O28  1  0.74975568  0.77350437  0.38088555  1
  O  O29  1  0.25024432  0.22649563  0.61911445  1
  O  O30  1  0.75024432  0.27350437  0.61911445  1
  O  O31  1  0.25024432  0.22649563  0.88088555  1
  O  O32  1  0.24975568  0.72649563  0.38088555  1
  O  O33  1  0.74975568  0.77350437  0.11911445  1
  O  O34  1  0.24975568  0.72649563  0.11911445  1
  O  O35  1  0.75024432  0.27350437  0.88088555  1
  O  O36  1  0.53196967  0.94030865  0.87332501  1
  O  O37  1  0.46803033  0.05969135  0.12667499  1
  O  O38  1  0.96803033  0.44030865  0.12667499  1
  O  O39  1  0.46803033  0.05969135  0.37332501  1
  O  O40  1  0.03196967  0.55969135  0.87332501  1
  O  O41  1  0.53196967  0.94030865  0.62667499  1
  O  O42  1  0.03196967  0.55969135  0.62667499  1
  O  O43  1  0.96803033  0.44030865  0.37332501  1
