# generated using pymatgen
data_KLa(SeO4)2
_symmetry_space_group_name_H-M   'P 1'
_cell_length_a   7.56236964
_cell_length_b   8.94465037
_cell_length_c   11.27635860
_cell_angle_alpha   91.62990732
_cell_angle_beta   90.00000000
_cell_angle_gamma   90.00000000
_symmetry_Int_Tables_number   1
_chemical_formula_structural   KLa(SeO4)2
_chemical_formula_sum   'K4 La4 Se8 O32'
_cell_volume   762.45532178
_cell_formula_units_Z   4
loop_
 _symmetry_equiv_pos_site_id
 _symmetry_equiv_pos_as_xyz
  1  'x, y, z'
loop_
 _atom_site_type_symbol
 _atom_site_label
 _atom_site_symmetry_multiplicity
 _atom_site_fract_x
 _atom_site_fract_y
 _atom_site_fract_z
 _atom_site_occupancy
  K  K0  1  0.84767251  0.43320433  0.66276693  1
  K  K1  1  0.15232749  0.56679567  0.33723307  1
  K  K2  1  0.34767251  0.56679567  0.83723307  1
  K  K3  1  0.65232749  0.43320433  0.16276693  1
  La  La4  1  0.66211834  0.94105878  0.65266855  1
  La  La5  1  0.33788166  0.05894122  0.34733145  1
  La  La6  1  0.16211834  0.05894122  0.84733145  1
  La  La7  1  0.83788166  0.94105878  0.15266855  1
  Se  Se8  1  0.66280448  0.19376865  0.89431251  1
  Se  Se9  1  0.33719552  0.80623135  0.10568749  1
  Se  Se10  1  0.16280448  0.80623135  0.60568749  1
  Se  Se11  1  0.83719552  0.19376865  0.39431251  1
  Se  Se12  1  0.83744359  0.71572796  0.91105857  1
  Se  Se13  1  0.16255641  0.28427204  0.08894143  1
  Se  Se14  1  0.33744359  0.28427204  0.58894143  1
  Se  Se15  1  0.66255641  0.71572796  0.41105857  1
  O  O16  1  0.31524475  0.86346627  0.96724111  1
  O  O17  1  0.68475525  0.13653373  0.03275889  1
  O  O18  1  0.81524475  0.13653373  0.53275889  1
  O  O19  1  0.18475525  0.86346627  0.46724111  1
  O  O20  1  0.00119083  0.90710257  0.67713195  1
  O  O21  1  0.99880917  0.09289743  0.32286805  1
  O  O22  1  0.50119083  0.09289743  0.82286805  1
  O  O23  1  0.49880917  0.90710257  0.17713195  1
  O  O24  1  0.63177823  0.37485709  0.89355984  1
  O  O25  1  0.36822177  0.62514291  0.10644016  1
  O  O26  1  0.13177823  0.62514291  0.60644016  1
  O  O27  1  0.86822177  0.37485709  0.39355984  1
  O  O28  1  0.75282516  0.69401829  0.54548757  1
  O  O29  1  0.24717484  0.30598171  0.45451243  1
  O  O30  1  0.25282516  0.30598171  0.95451243  1
  O  O31  1  0.74717484  0.69401829  0.04548757  1
  O  O32  1  0.93568403  0.88536743  0.93891224  1
  O  O33  1  0.06431597  0.11463257  0.06108776  1
  O  O34  1  0.43568403  0.11463257  0.56108776  1
  O  O35  1  0.56431597  0.88536743  0.43891224  1
  O  O36  1  0.97950708  0.58629174  0.86932368  1
  O  O37  1  0.02049292  0.41370826  0.13067632  1
  O  O38  1  0.47950708  0.41370826  0.63067632  1
  O  O39  1  0.52049292  0.58629174  0.36932368  1
  O  O40  1  0.33779024  0.85485909  0.69411217  1
  O  O41  1  0.66220976  0.14514091  0.30588783  1
  O  O42  1  0.83779024  0.14514091  0.80588783  1
  O  O43  1  0.16220976  0.85485909  0.19411217  1
  O  O44  1  0.68096169  0.73928861  0.80722908  1
  O  O45  1  0.31903831  0.26071139  0.19277092  1
  O  O46  1  0.18096169  0.26071139  0.69277092  1
  O  O47  1  0.81903831  0.73928861  0.30722908  1
