# generated using pymatgen
data_KHo2Cl7
_symmetry_space_group_name_H-M   'P 1'
_cell_length_a   6.92151945
_cell_length_b   12.61280573
_cell_length_c   13.19924650
_cell_angle_alpha   90.00000000
_cell_angle_beta   90.79394348
_cell_angle_gamma   90.00000000
_symmetry_Int_Tables_number   1
_chemical_formula_structural   KHo2Cl7
_chemical_formula_sum   'K4 Ho8 Cl28'
_cell_volume   1152.18069190
_cell_formula_units_Z   4
loop_
 _symmetry_equiv_pos_site_id
 _symmetry_equiv_pos_as_xyz
  1  'x, y, z'
loop_
 _atom_site_type_symbol
 _atom_site_label
 _atom_site_symmetry_multiplicity
 _atom_site_fract_x
 _atom_site_fract_y
 _atom_site_fract_z
 _atom_site_occupancy
  K  K0  1  0.26916543  0.79848826  0.03792777  1
  K  K1  1  0.73083457  0.20151174  0.96207223  1
  K  K2  1  0.73083457  0.29848826  0.46207223  1
  K  K3  1  0.26916543  0.70151174  0.53792777  1
  Ho  Ho4  1  0.22057604  0.46284977  0.23762485  1
  Ho  Ho5  1  0.77942396  0.53715023  0.76237515  1
  Ho  Ho6  1  0.77942396  0.96284977  0.26237515  1
  Ho  Ho7  1  0.22057604  0.03715023  0.73762485  1
  Ho  Ho8  1  0.27478117  0.16094921  0.24886059  1
  Ho  Ho9  1  0.72521883  0.83905079  0.75113941  1
  Ho  Ho10  1  0.72521883  0.66094921  0.25113941  1
  Ho  Ho11  1  0.27478117  0.33905079  0.74886059  1
  Cl  Cl12  1  0.05672632  0.02714298  0.13370273  1
  Cl  Cl13  1  0.94327368  0.97285702  0.86629727  1
  Cl  Cl14  1  0.94327368  0.52714298  0.36629727  1
  Cl  Cl15  1  0.05672632  0.47285702  0.63370273  1
  Cl  Cl16  1  0.25829721  0.31497437  0.39263290  1
  Cl  Cl17  1  0.74170279  0.68502563  0.60736710  1
  Cl  Cl18  1  0.74170279  0.81497437  0.10736710  1
  Cl  Cl19  1  0.25829721  0.18502563  0.89263290  1
  Cl  Cl20  1  0.48368065  0.32264598  0.17277965  1
  Cl  Cl21  1  0.51631935  0.67735402  0.82722035  1
  Cl  Cl22  1  0.51631935  0.82264598  0.32722035  1
  Cl  Cl23  1  0.48368065  0.17735402  0.67277965  1
  Cl  Cl24  1  0.02659446  0.07409031  0.37963344  1
  Cl  Cl25  1  0.97340554  0.92590969  0.62036656  1
  Cl  Cl26  1  0.97340554  0.57409031  0.12036656  1
  Cl  Cl27  1  0.02659446  0.42590969  0.87963344  1
  Cl  Cl28  1  0.53699814  0.05895653  0.13053580  1
  Cl  Cl29  1  0.46300186  0.94104347  0.86946420  1
  Cl  Cl30  1  0.46300186  0.55895653  0.36946420  1
  Cl  Cl31  1  0.53699814  0.44104347  0.63053580  1
  Cl  Cl32  1  0.00336876  0.29703500  0.17594740  1
  Cl  Cl33  1  0.99663124  0.70296500  0.82405260  1
  Cl  Cl34  1  0.99663124  0.79703500  0.32405260  1
  Cl  Cl35  1  0.00336876  0.20296500  0.67594740  1
  Cl  Cl36  1  0.54502108  0.08669633  0.37836352  1
  Cl  Cl37  1  0.45497892  0.91330367  0.62163648  1
  Cl  Cl38  1  0.45497892  0.58669633  0.12163648  1
  Cl  Cl39  1  0.54502108  0.41330367  0.87836352  1
