# generated using pymatgen
data_KMo2(P2O7)2
_symmetry_space_group_name_H-M   'P 1'
_cell_length_a   4.99851280
_cell_length_b   7.39491310
_cell_length_c   8.29783186
_cell_angle_alpha   90.21613432
_cell_angle_beta   93.07394039
_cell_angle_gamma   105.33939407
_symmetry_Int_Tables_number   1
_chemical_formula_structural   KMo2(P2O7)2
_chemical_formula_sum   'K1 Mo2 P4 O14'
_cell_volume   295.31393868
_cell_formula_units_Z   1
loop_
 _symmetry_equiv_pos_site_id
 _symmetry_equiv_pos_as_xyz
  1  'x, y, z'
loop_
 _atom_site_type_symbol
 _atom_site_label
 _atom_site_symmetry_multiplicity
 _atom_site_fract_x
 _atom_site_fract_y
 _atom_site_fract_z
 _atom_site_occupancy
  K  K0  1  0.00000000  0.50000000  -0.00000000  1
  Mo  Mo1  1  0.00000000  0.50000000  0.50000000  1
  Mo  Mo2  1  0.50000000  0.00000000  -0.00000000  1
  P  P3  1  0.37780715  0.25866302  0.30315764  1
  P  P4  1  0.62219285  0.74133698  0.69684236  1
  P  P5  1  0.01160433  0.11527194  0.75109442  1
  P  P6  1  0.98839567  0.88472806  0.24890558  1
  O  O7  1  0.26765107  0.04896581  0.80583570  1
  O  O8  1  0.73234893  0.95103419  0.19416430  1
  O  O9  1  0.14850066  0.85243543  0.09952728  1
  O  O10  1  0.85149934  0.14756457  0.90047272  1
  O  O11  1  0.19295943  0.04941647  0.35452234  1
  O  O12  1  0.80704057  0.95058353  0.64547766  1
  O  O13  1  0.19095059  0.39221275  0.30504389  1
  O  O14  1  0.80904941  0.60778725  0.69495611  1
  O  O15  1  0.61929260  0.30017549  0.42632481  1
  O  O16  1  0.38070740  0.69982451  0.57367519  1
  O  O17  1  0.09274186  0.29232478  0.65684634  1
  O  O18  1  0.90725814  0.70767522  0.34315366  1
  O  O19  1  0.45545309  0.23840666  0.12625373  1
  O  O20  1  0.54454691  0.76159334  0.87374627  1
