# generated using pymatgen
data_LaTi3(BiO4)3
_symmetry_space_group_name_H-M   'P 1'
_cell_length_a   5.44671239
_cell_length_b   16.98336210
_cell_length_c   5.46928047
_cell_angle_alpha   98.95855083
_cell_angle_beta   90.00000000
_cell_angle_gamma   90.00000000
_symmetry_Int_Tables_number   1
_chemical_formula_structural   LaTi3(BiO4)3
_chemical_formula_sum   'La2 Ti6 Bi6 O24'
_cell_volume   499.75584158
_cell_formula_units_Z   2
loop_
 _symmetry_equiv_pos_site_id
 _symmetry_equiv_pos_as_xyz
  1  'x, y, z'
loop_
 _atom_site_type_symbol
 _atom_site_label
 _atom_site_symmetry_multiplicity
 _atom_site_fract_x
 _atom_site_fract_y
 _atom_site_fract_z
 _atom_site_occupancy
  La  La0  1  0.25208533  0.11826294  0.76838583  1
  La  La1  1  0.74791467  0.11826294  0.26838583  1
  Ti  Ti2  1  0.74710084  0.72952986  0.57372598  1
  Ti  Ti3  1  0.25289916  0.72952986  0.07372598  1
  Ti  Ti4  1  0.75139637  0.98854864  0.69378741  1
  Ti  Ti5  1  0.24860363  0.98854864  0.19378741  1
  Ti  Ti6  1  0.75094967  0.24474218  0.83471308  1
  Ti  Ti7  1  0.24905033  0.24474218  0.33471308  1
  Bi  Bi8  1  0.77404271  0.40959283  0.37752451  1
  Bi  Bi9  1  0.22595729  0.40959283  0.87752451  1
  Bi  Bi10  1  0.24284980  0.85383499  0.58529520  1
  Bi  Bi11  1  0.75715020  0.85383499  0.08529520  1
  Bi  Bi12  1  0.72652654  0.56315590  0.95748005  1
  Bi  Bi13  1  0.27347346  0.56315590  0.45748005  1
  O  O14  1  0.45606637  0.97348835  0.91633333  1
  O  O15  1  0.54393363  0.97348835  0.41633333  1
  O  O16  1  0.48269213  0.22952608  0.59734795  1
  O  O17  1  0.51730787  0.22952608  0.09734795  1
  O  O18  1  0.98720847  0.21016838  0.56035654  1
  O  O19  1  0.01279153  0.21016838  0.06035654  1
  O  O20  1  0.49661361  0.48473013  0.68032336  1
  O  O21  1  0.50338639  0.48473013  0.18032336  1
  O  O22  1  0.80149499  0.35000885  0.89495469  1
  O  O23  1  0.19850501  0.35000885  0.39495469  1
  O  O24  1  0.82290614  0.87041835  0.68314208  1
  O  O25  1  0.17709386  0.87041835  0.18314208  1
  O  O26  1  0.99578648  0.48874263  0.68021528  1
  O  O27  1  0.00421352  0.48874263  0.18021528  1
  O  O28  1  0.69707348  0.10192718  0.76868579  1
  O  O29  1  0.30292652  0.10192718  0.26868579  1
  O  O30  1  0.47199189  0.76563653  0.83004674  1
  O  O31  1  0.52800811  0.76563653  0.33004674  1
  O  O32  1  0.95527667  0.00375997  0.01961978  1
  O  O33  1  0.04472333  0.00375997  0.51961978  1
  O  O34  1  0.95395151  0.73945919  0.89137898  1
  O  O35  1  0.04604849  0.73945919  0.39137898  1
  O  O36  1  0.68946652  0.62546702  0.52508340  1
  O  O37  1  0.31053348  0.62546702  0.02508340  1
