# generated using pymatgen
data_K2LuF5
_symmetry_space_group_name_H-M   'P 1'
_cell_length_a   7.15648447
_cell_length_b   11.06002944
_cell_length_c   6.60975926
_cell_angle_alpha   90.00000000
_cell_angle_beta   90.00000000
_cell_angle_gamma   90.00000000
_symmetry_Int_Tables_number   1
_chemical_formula_structural   K2LuF5
_chemical_formula_sum   'K8 Lu4 F20'
_cell_volume   523.16858540
_cell_formula_units_Z   4
loop_
 _symmetry_equiv_pos_site_id
 _symmetry_equiv_pos_as_xyz
  1  'x, y, z'
loop_
 _atom_site_type_symbol
 _atom_site_label
 _atom_site_symmetry_multiplicity
 _atom_site_fract_x
 _atom_site_fract_y
 _atom_site_fract_z
 _atom_site_occupancy
  K  K0  1  0.00217201  0.67329381  0.97378370  1
  K  K1  1  0.99782799  0.32670619  0.02621630  1
  K  K2  1  0.99782799  0.82670619  0.47378370  1
  K  K3  1  0.50217201  0.32670619  0.02621630  1
  K  K4  1  0.00217201  0.17329381  0.52621630  1
  K  K5  1  0.49782799  0.67329381  0.97378370  1
  K  K6  1  0.49782799  0.17329381  0.52621630  1
  K  K7  1  0.50217201  0.82670619  0.47378370  1
  Lu  Lu8  1  0.75000000  0.99995114  0.93471766  1
  Lu  Lu9  1  0.25000000  0.00004886  0.06528234  1
  Lu  Lu10  1  0.25000000  0.50004886  0.43471766  1
  Lu  Lu11  1  0.75000000  0.49995114  0.56528234  1
  F  F12  1  0.75000000  0.68751800  0.66582292  1
  F  F13  1  0.25000000  0.31248200  0.33417708  1
  F  F14  1  0.25000000  0.81248200  0.16582292  1
  F  F15  1  0.75000000  0.18751800  0.83417708  1
  F  F16  1  0.75000000  0.84283065  0.12945906  1
  F  F17  1  0.25000000  0.15716935  0.87054094  1
  F  F18  1  0.25000000  0.65716935  0.62945906  1
  F  F19  1  0.75000000  0.34283065  0.37054094  1
  F  F20  1  0.75000000  0.98669848  0.60950973  1
  F  F21  1  0.25000000  0.01330152  0.39049027  1
  F  F22  1  0.25000000  0.51330152  0.10950973  1
  F  F23  1  0.75000000  0.48669848  0.89049027  1
  F  F24  1  0.46609212  0.92272239  0.86005408  1
  F  F25  1  0.53390788  0.07727761  0.13994592  1
  F  F26  1  0.53390788  0.57727761  0.36005408  1
  F  F27  1  0.96609212  0.07727761  0.13994592  1
  F  F28  1  0.46609212  0.42272239  0.63994592  1
  F  F29  1  0.03390788  0.92272239  0.86005408  1
  F  F30  1  0.03390788  0.42272239  0.63994592  1
  F  F31  1  0.96609212  0.57727761  0.36005408  1
