# generated using pymatgen
data_K9Nd(PS4)4
_symmetry_space_group_name_H-M   'P 1'
_cell_length_a   9.86805361
_cell_length_b   11.37849783
_cell_length_c   16.98229687
_cell_angle_alpha   75.06727742
_cell_angle_beta   73.10974652
_cell_angle_gamma   64.30202379
_symmetry_Int_Tables_number   1
_chemical_formula_structural   K9Nd(PS4)4
_chemical_formula_sum   'K18 Nd2 P8 S32'
_cell_volume   1624.82173421
_cell_formula_units_Z   2
loop_
 _symmetry_equiv_pos_site_id
 _symmetry_equiv_pos_as_xyz
  1  'x, y, z'
loop_
 _atom_site_type_symbol
 _atom_site_label
 _atom_site_symmetry_multiplicity
 _atom_site_fract_x
 _atom_site_fract_y
 _atom_site_fract_z
 _atom_site_occupancy
  K  K0  1  0.41066679  0.05988803  0.10380180  1
  K  K1  1  0.58933321  0.94011197  0.89619820  1
  K  K2  1  0.57435662  0.44011197  0.39619820  1
  K  K3  1  0.42564338  0.55988803  0.60380180  1
  K  K4  1  0.08856841  0.81452381  0.02211886  1
  K  K5  1  0.91143159  0.18547619  0.97788114  1
  K  K6  1  0.92521107  0.68547619  0.47788114  1
  K  K7  1  0.07478893  0.31452381  0.52211886  1
  K  K8  1  0.24906188  0.75000000  0.25000000  1
  K  K9  1  0.75093812  0.25000000  0.75000000  1
  K  K10  1  0.50190035  0.11741380  0.37082681  1
  K  K11  1  0.49809965  0.88258620  0.62917319  1
  K  K12  1  0.99014095  0.38258620  0.12917319  1
  K  K13  1  0.00985905  0.61741380  0.87082681  1
  K  K14  1  0.48621064  0.39062744  0.12827472  1
  K  K15  1  0.51378936  0.60937256  0.87172528  1
  K  K16  1  0.00511280  0.10937256  0.37172528  1
  K  K17  1  0.99488720  0.89062744  0.62827472  1
  Nd  Nd18  1  0.74911774  0.75000000  0.25000000  1
  Nd  Nd19  1  0.25088226  0.25000000  0.75000000  1
  P  P20  1  0.37757199  0.83897024  0.41622910  1
  P  P21  1  0.62242801  0.16102976  0.58377090  1
  P  P22  1  0.63277133  0.66102976  0.08377090  1
  P  P23  1  0.36722867  0.33897024  0.91622910  1
  P  P24  1  0.86506531  0.04372822  0.21127849  1
  P  P25  1  0.13493469  0.95627178  0.78872151  1
  P  P26  1  0.12007202  0.45627178  0.28872151  1
  P  P27  1  0.87992798  0.54372822  0.71127849  1
  S  S28  1  0.41301275  0.92041996  0.29156520  1
  S  S29  1  0.58698725  0.07958004  0.70843480  1
  S  S30  1  0.62499792  0.57958004  0.20843480  1
  S  S31  1  0.37500208  0.42041996  0.79156520  1
  S  S32  1  0.87281210  0.89783379  0.31448865  1
  S  S33  1  0.12718790  0.10216621  0.68551135  1
  S  S34  1  0.08513453  0.60216621  0.18551135  1
  S  S35  1  0.91486547  0.39783379  0.81448865  1
  S  S36  1  0.24352024  0.47224047  0.35992616  1
  S  S37  1  0.75647976  0.52775953  0.64007384  1
  S  S38  1  0.07568687  0.02775953  0.14007384  1
  S  S39  1  0.92431313  0.97224047  0.85992616  1
  S  S40  1  0.75078770  0.00581705  0.14209683  1
  S  S41  1  0.24921230  0.99418295  0.85790317  1
  S  S42  1  0.89870158  0.49418295  0.35790317  1
  S  S43  1  0.10129842  0.50581705  0.64209683  1
  S  S44  1  0.75352645  0.22698304  0.24578714  1
  S  S45  1  0.24647355  0.77301696  0.75421286  1
  S  S46  1  0.22629662  0.27301696  0.25421286  1
  S  S47  1  0.77370338  0.72698304  0.74578714  1
  S  S48  1  0.72952671  0.01747305  0.50950607  1
  S  S49  1  0.27047329  0.98252695  0.49049393  1
  S  S50  1  0.25650583  0.48252695  0.99049393  1
  S  S51  1  0.74349417  0.51747305  0.00950607  1
  S  S52  1  0.59901746  0.71671768  0.43196301  1
  S  S53  1  0.40098254  0.28328232  0.56803699  1
  S  S54  1  0.74769814  0.78328232  0.06803699  1
  S  S55  1  0.25230186  0.21671768  0.93196301  1
  S  S56  1  0.42245701  0.77624694  0.05589729  1
  S  S57  1  0.57754299  0.22375306  0.94410271  1
  S  S58  1  0.25460123  0.72375306  0.44410271  1
  S  S59  1  0.74539877  0.27624694  0.55589729  1
