# generated using pymatgen
data_K(SiAs)3
_symmetry_space_group_name_H-M   'P 1'
_cell_length_a   3.71757512
_cell_length_b   10.15172807
_cell_length_c   19.45009801
_cell_angle_alpha   90.00000000
_cell_angle_beta   90.00000000
_cell_angle_gamma   90.00000000
_symmetry_Int_Tables_number   1
_chemical_formula_structural   K(SiAs)3
_chemical_formula_sum   'K4 Si12 As12'
_cell_volume   734.04303641
_cell_formula_units_Z   4
loop_
 _symmetry_equiv_pos_site_id
 _symmetry_equiv_pos_as_xyz
  1  'x, y, z'
loop_
 _atom_site_type_symbol
 _atom_site_label
 _atom_site_symmetry_multiplicity
 _atom_site_fract_x
 _atom_site_fract_y
 _atom_site_fract_z
 _atom_site_occupancy
  K  K0  1  -0.00000000  0.30402178  0.30476146  1
  K  K1  1  -0.00000000  0.69597822  0.69523854  1
  K  K2  1  0.00000000  0.19597822  0.80476146  1
  K  K3  1  -0.00000000  0.80402178  0.19523854  1
  Si  Si4  1  0.50000000  0.40742948  0.03608508  1
  Si  Si5  1  0.50000000  0.59257052  0.96391492  1
  Si  Si6  1  0.50000000  0.09257052  0.53608508  1
  Si  Si7  1  0.50000000  0.90742948  0.46391492  1
  Si  Si8  1  0.00000000  0.11181410  0.01516239  1
  Si  Si9  1  -0.00000000  0.88818590  0.98483761  1
  Si  Si10  1  -0.00000000  0.38818590  0.51516239  1
  Si  Si11  1  0.00000000  0.61181410  0.48483761  1
  Si  Si12  1  0.00000000  0.17437996  0.13162511  1
  Si  Si13  1  0.00000000  0.82562004  0.86837489  1
  Si  Si14  1  0.00000000  0.32562004  0.63162511  1
  Si  Si15  1  -0.00000000  0.67437996  0.36837489  1
  As  As16  1  0.50000000  0.10077392  0.19656887  1
  As  As17  1  0.50000000  0.89922608  0.80343113  1
  As  As18  1  0.50000000  0.39922608  0.69656887  1
  As  As19  1  0.50000000  0.60077392  0.30343113  1
  As  As20  1  0.50000000  0.28110450  0.45933069  1
  As  As21  1  0.50000000  0.71889550  0.54066931  1
  As  As22  1  0.50000000  0.21889550  0.95933069  1
  As  As23  1  0.50000000  0.78110450  0.04066931  1
  As  As24  1  0.00000000  0.41321391  0.11469920  1
  As  As25  1  0.00000000  0.58678609  0.88530080  1
  As  As26  1  0.00000000  0.08678609  0.61469920  1
  As  As27  1  0.00000000  0.91321391  0.38530080  1
