# generated using pymatgen
data_LiCuPO4
_symmetry_space_group_name_H-M   'P 1'
_cell_length_a   8.26096256
_cell_length_b   7.43572349
_cell_length_c   15.23128583
_cell_angle_alpha   90.00000000
_cell_angle_beta   87.90374776
_cell_angle_gamma   90.00000000
_symmetry_Int_Tables_number   1
_chemical_formula_structural   LiCuPO4
_chemical_formula_sum   'Li12 Cu12 P12 O48'
_cell_volume   934.97440387
_cell_formula_units_Z   12
loop_
 _symmetry_equiv_pos_site_id
 _symmetry_equiv_pos_as_xyz
  1  'x, y, z'
loop_
 _atom_site_type_symbol
 _atom_site_label
 _atom_site_symmetry_multiplicity
 _atom_site_fract_x
 _atom_site_fract_y
 _atom_site_fract_z
 _atom_site_occupancy
  Li  Li0  1  0.04840006  0.73932815  0.09038876  1
  Li  Li1  1  0.09194859  0.77575305  0.72842021  1
  Li  Li2  1  0.12018721  0.73245286  0.41967805  1
  Li  Li3  1  0.37981279  0.23245286  0.08032195  1
  Li  Li4  1  0.40805141  0.27575305  0.77157979  1
  Li  Li5  1  0.45159994  0.23932815  0.40961124  1
  Li  Li6  1  0.54840006  0.76067185  0.59038876  1
  Li  Li7  1  0.59194859  0.72424695  0.22842021  1
  Li  Li8  1  0.62018721  0.76754714  0.91967805  1
  Li  Li9  1  0.87981279  0.26754714  0.58032195  1
  Li  Li10  1  0.90805141  0.22424695  0.27157979  1
  Li  Li11  1  0.95159994  0.26067185  0.90961124  1
  Cu  Cu12  1  0.22273413  0.01601011  0.56065373  1
  Cu  Cu13  1  0.24854178  0.97307284  0.91208077  1
  Cu  Cu14  1  0.23399714  0.10702977  0.25734686  1
  Cu  Cu15  1  0.26600286  0.60702977  0.24265314  1
  Cu  Cu16  1  0.25145822  0.47307284  0.58791923  1
  Cu  Cu17  1  0.27726587  0.51601011  0.93934627  1
  Cu  Cu18  1  0.72273413  0.48398989  0.06065373  1
  Cu  Cu19  1  0.74854178  0.52692716  0.41208077  1
  Cu  Cu20  1  0.73399714  0.39297023  0.75734686  1
  Cu  Cu21  1  0.76600286  0.89297023  0.74265314  1
  Cu  Cu22  1  0.75145822  0.02692716  0.08791923  1
  Cu  Cu23  1  0.77726587  0.98398989  0.43934627  1
  P  P24  1  0.03883321  0.32086119  0.09225767  1
  P  P25  1  0.08455749  0.18574746  0.72972849  1
  P  P26  1  0.09743217  0.31854363  0.42891151  1
  P  P27  1  0.40256783  0.81854363  0.07108849  1
  P  P28  1  0.41544251  0.68574746  0.77027151  1
  P  P29  1  0.46116679  0.82086119  0.40774233  1
  P  P30  1  0.53883321  0.17913881  0.59225767  1
  P  P31  1  0.58455749  0.31425254  0.22972849  1
  P  P32  1  0.59743217  0.18145637  0.92891151  1
  P  P33  1  0.90256783  0.68145637  0.57108849  1
  P  P34  1  0.91544251  0.81425254  0.27027151  1
  P  P35  1  0.96116679  0.67913881  0.90774233  1
  O  O36  1  0.05819064  0.50211381  0.88945958  1
  O  O37  1  0.05793789  0.63602191  0.62123338  1
  O  O38  1  0.06666264  0.80851957  0.96272651  1
  O  O39  1  0.07766729  0.71844768  0.29318121  1
  O  O40  1  0.06122275  0.18553316  0.50562771  1
  O  O41  1  0.08619147  0.01199780  0.67099038  1
  O  O42  1  0.09094082  0.13533416  0.82685961  1
  O  O43  1  0.08267603  0.23524125  0.18008977  1
  O  O44  1  0.17469730  0.49317697  0.46539142  1
  O  O45  1  0.19903479  0.36870011  0.04023314  1
  O  O46  1  0.22957842  0.23633932  0.36537796  1
  O  O47  1  0.22656809  0.30705097  0.69879817  1
  O  O48  1  0.27042158  0.73633932  0.13462204  1
  O  O49  1  0.27343191  0.80705097  0.80120183  1
  O  O50  1  0.30096521  0.86870011  0.45976686  1
  O  O51  1  0.32530270  0.99317697  0.03460858  1
  O  O52  1  0.41732397  0.73524125  0.31991023  1
  O  O53  1  0.40905918  0.63533416  0.67314039  1
  O  O54  1  0.41380853  0.51199780  0.82900962  1
  O  O55  1  0.42233271  0.21844768  0.20681879  1
  O  O56  1  0.43877725  0.68553316  0.99437229  1
  O  O57  1  0.43333736  0.30851957  0.53727349  1
  O  O58  1  0.44206211  0.13602191  0.87876662  1
  O  O59  1  0.44180936  0.00211381  0.61054042  1
  O  O60  1  0.55819064  0.99788619  0.38945958  1
  O  O61  1  0.55793789  0.86397809  0.12123338  1
  O  O62  1  0.56666264  0.69148043  0.46272651  1
  O  O63  1  0.56122275  0.31446684  0.00562771  1
  O  O64  1  0.57766729  0.78155232  0.79318121  1
  O  O65  1  0.58619147  0.48800220  0.17099038  1
  O  O66  1  0.59094082  0.36466584  0.32685961  1
  O  O67  1  0.58267603  0.26475875  0.68008977  1
  O  O68  1  0.67469730  0.00682303  0.96539142  1
  O  O69  1  0.69903479  0.13129989  0.54023314  1
  O  O70  1  0.72656809  0.19294903  0.19879817  1
  O  O71  1  0.72957842  0.26366068  0.86537796  1
  O  O72  1  0.77343191  0.69294903  0.30120183  1
  O  O73  1  0.77042158  0.76366068  0.63462204  1
  O  O74  1  0.80096521  0.63129989  0.95976686  1
  O  O75  1  0.82530270  0.50682303  0.53460858  1
  O  O76  1  0.91732397  0.76475875  0.81991023  1
  O  O77  1  0.90905918  0.86466584  0.17314039  1
  O  O78  1  0.91380853  0.98800220  0.32900962  1
  O  O79  1  0.93877725  0.81446684  0.49437229  1
  O  O80  1  0.92233271  0.28155232  0.70681879  1
  O  O81  1  0.93333736  0.19148043  0.03727349  1
  O  O82  1  0.94206211  0.36397809  0.37876662  1
  O  O83  1  0.94180936  0.49788619  0.11054042  1
