# generated using pymatgen
data_KIn(PSe3)2
_symmetry_space_group_name_H-M   'P 1'
_cell_length_a   6.61888370
_cell_length_b   7.74793584
_cell_length_c   23.21970466
_cell_angle_alpha   98.28223661
_cell_angle_beta   90.00000000
_cell_angle_gamma   90.00000000
_symmetry_Int_Tables_number   1
_chemical_formula_structural   KIn(PSe3)2
_chemical_formula_sum   'K4 In4 P8 Se24'
_cell_volume   1178.34969984
_cell_formula_units_Z   4
loop_
 _symmetry_equiv_pos_site_id
 _symmetry_equiv_pos_as_xyz
  1  'x, y, z'
loop_
 _atom_site_type_symbol
 _atom_site_label
 _atom_site_symmetry_multiplicity
 _atom_site_fract_x
 _atom_site_fract_y
 _atom_site_fract_z
 _atom_site_occupancy
  K  K0  1  0.48725628  0.04503967  0.71861614  1
  K  K1  1  0.51274372  0.95496033  0.28138386  1
  K  K2  1  0.98725628  0.45496033  0.78138386  1
  K  K3  1  0.01274372  0.54503967  0.21861614  1
  In  In4  1  0.74871807  0.04520896  0.95388494  1
  In  In5  1  0.25128193  0.95479104  0.04611506  1
  In  In6  1  0.24871807  0.45479104  0.54611506  1
  In  In7  1  0.75128193  0.54520896  0.45388494  1
  P  P8  1  0.24390657  0.96300712  0.86754965  1
  P  P9  1  0.75609343  0.03699288  0.13245035  1
  P  P10  1  0.74390657  0.53699288  0.63245035  1
  P  P11  1  0.25609343  0.46300712  0.36754965  1
  P  P12  1  0.25194505  0.24939414  0.90833647  1
  P  P13  1  0.74805495  0.75060586  0.09166353  1
  P  P14  1  0.75194505  0.25060586  0.59166353  1
  P  P15  1  0.24805495  0.74939414  0.40833647  1
  Se  Se16  1  0.43173596  0.16692514  0.57992629  1
  Se  Se17  1  0.56826404  0.83307486  0.42007371  1
  Se  Se18  1  0.93173596  0.33307486  0.92007371  1
  Se  Se19  1  0.06826404  0.66692514  0.07992629  1
  Se  Se20  1  0.58454103  0.67896661  0.56692333  1
  Se  Se21  1  0.41545897  0.32103339  0.43307667  1
  Se  Se22  1  0.08454103  0.82103339  0.93307667  1
  Se  Se23  1  0.91545897  0.17896661  0.06692333  1
  Se  Se24  1  0.41166676  0.24672116  0.99489697  1
  Se  Se25  1  0.58833324  0.75327884  0.00510303  1
  Se  Se26  1  0.91166676  0.25327884  0.50510303  1
  Se  Se27  1  0.08833324  0.74672116  0.49489697  1
  Se  Se28  1  0.07276707  0.93051918  0.78737418  1
  Se  Se29  1  0.92723293  0.06948082  0.21262582  1
  Se  Se30  1  0.57276707  0.56948082  0.71262582  1
  Se  Se31  1  0.42723293  0.43051918  0.28737418  1
  Se  Se32  1  0.56638061  0.88805242  0.85317808  1
  Se  Se33  1  0.43361939  0.11194758  0.14682192  1
  Se  Se34  1  0.06638061  0.61194758  0.64682192  1
  Se  Se35  1  0.93361939  0.38805242  0.35317808  1
  Se  Se36  1  0.41769624  0.39936075  0.85312370  1
  Se  Se37  1  0.58230376  0.60063925  0.14687630  1
  Se  Se38  1  0.91769624  0.10063925  0.64687630  1
  Se  Se39  1  0.08230376  0.89936075  0.35312370  1
