# generated using pymatgen
data_KCo3Cu(AsO4)3
_symmetry_space_group_name_H-M   'P 1'
_cell_length_a   6.92258210
_cell_length_b   8.95525949
_cell_length_c   8.95525949
_cell_angle_alpha   92.34510495
_cell_angle_beta   106.04918886
_cell_angle_gamma   106.04918886
_symmetry_Int_Tables_number   1
_chemical_formula_structural   KCo3Cu(AsO4)3
_chemical_formula_sum   'K2 Co6 Cu2 As6 O24'
_cell_volume   508.57991734
_cell_formula_units_Z   2
loop_
 _symmetry_equiv_pos_site_id
 _symmetry_equiv_pos_as_xyz
  1  'x, y, z'
loop_
 _atom_site_type_symbol
 _atom_site_label
 _atom_site_symmetry_multiplicity
 _atom_site_fract_x
 _atom_site_fract_y
 _atom_site_fract_z
 _atom_site_occupancy
  K  K0  1  0.75000000  0.51373699  0.48626301  1
  K  K1  1  0.25000000  0.48626301  0.51373699  1
  Co  Co2  1  0.62927084  0.56042045  0.87627699  1
  Co  Co3  1  0.37072916  0.43957955  0.12372301  1
  Co  Co4  1  0.87072916  0.12372301  0.43957955  1
  Co  Co5  1  0.12927084  0.87627699  0.56042045  1
  Co  Co6  1  0.75000000  0.24113521  0.75886479  1
  Co  Co7  1  0.25000000  0.75886479  0.24113521  1
  Cu  Cu8  1  0.75000000  0.99791242  0.00208758  1
  Cu  Cu9  1  0.25000000  0.00208758  0.99791242  1
  As  As10  1  0.87262038  0.37771830  0.14726783  1
  As  As11  1  0.12737962  0.62228170  0.85273217  1
  As  As12  1  0.62737962  0.85273217  0.62228170  1
  As  As13  1  0.37262038  0.14726783  0.37771830  1
  As  As14  1  0.75000000  0.78544583  0.21455417  1
  As  As15  1  0.25000000  0.21455417  0.78544583  1
  O  O16  1  0.81405345  0.22386702  0.99989275  1
  O  O17  1  0.18594655  0.77613298  0.00010725  1
  O  O18  1  0.68594655  0.00010725  0.77613298  1
  O  O19  1  0.31405345  0.99989275  0.22386702  1
  O  O20  1  0.68054248  0.47114296  0.09291389  1
  O  O21  1  0.31945752  0.52885704  0.90708611  1
  O  O22  1  0.81945752  0.90708611  0.52885704  1
  O  O23  1  0.18054248  0.09291389  0.47114296  1
  O  O24  1  0.88140919  0.49070506  0.83039956  1
  O  O25  1  0.11859081  0.50929494  0.16960044  1
  O  O26  1  0.61859081  0.16960044  0.50929494  1
  O  O27  1  0.38140919  0.83039956  0.49070506  1
  O  O28  1  0.52330275  0.67369321  0.25021388  1
  O  O29  1  0.47669725  0.32630679  0.74978612  1
  O  O30  1  0.97669725  0.74978612  0.32630679  1
  O  O31  1  0.02330275  0.25021388  0.67369321  1
  O  O32  1  0.73814664  0.77642904  0.01612103  1
  O  O33  1  0.26185336  0.22357096  0.98387897  1
  O  O34  1  0.76185336  0.98387897  0.22357096  1
  O  O35  1  0.23814664  0.01612103  0.77642904  1
  O  O36  1  0.62610951  0.67479197  0.68441627  1
  O  O37  1  0.37389049  0.32520803  0.31558373  1
  O  O38  1  0.87389049  0.31558373  0.32520803  1
  O  O39  1  0.12610951  0.68441627  0.67479197  1
