# generated using pymatgen
data_KNp2F9
_symmetry_space_group_name_H-M   'P 1'
_cell_length_a   6.99929665
_cell_length_b   8.72212141
_cell_length_c   11.57132512
_cell_angle_alpha   90.00000000
_cell_angle_beta   90.00000000
_cell_angle_gamma   90.00000000
_symmetry_Int_Tables_number   1
_chemical_formula_structural   KNp2F9
_chemical_formula_sum   'K4 Np8 F36'
_cell_volume   706.41453134
_cell_formula_units_Z   4
loop_
 _symmetry_equiv_pos_site_id
 _symmetry_equiv_pos_as_xyz
  1  'x, y, z'
loop_
 _atom_site_type_symbol
 _atom_site_label
 _atom_site_symmetry_multiplicity
 _atom_site_fract_x
 _atom_site_fract_y
 _atom_site_fract_z
 _atom_site_occupancy
  K  K0  1  0.64334855  0.03430538  0.25000000  1
  K  K1  1  0.35665145  0.96569462  0.75000000  1
  K  K2  1  0.14334855  0.46569462  0.75000000  1
  K  K3  1  0.85665145  0.53430538  0.25000000  1
  Np  Np4  1  0.15842393  0.17176493  0.05079079  1
  Np  Np5  1  0.84157607  0.82823507  0.94920921  1
  Np  Np6  1  0.65842393  0.32823507  0.94920921  1
  Np  Np7  1  0.84157607  0.82823507  0.55079079  1
  Np  Np8  1  0.34157607  0.67176493  0.05079079  1
  Np  Np9  1  0.15842393  0.17176493  0.44920921  1
  Np  Np10  1  0.34157607  0.67176493  0.44920921  1
  Np  Np11  1  0.65842393  0.32823507  0.55079079  1
  F  F12  1  0.19451213  0.43328884  0.07815918  1
  F  F13  1  0.80548787  0.56671116  0.92184082  1
  F  F14  1  0.69451213  0.06671116  0.92184082  1
  F  F15  1  0.80548787  0.56671116  0.57815918  1
  F  F16  1  0.30548787  0.93328884  0.07815918  1
  F  F17  1  0.19451213  0.43328884  0.42184082  1
  F  F18  1  0.30548787  0.93328884  0.42184082  1
  F  F19  1  0.69451213  0.06671116  0.57815918  1
  F  F20  1  0.07211655  0.00394787  0.59828289  1
  F  F21  1  0.92788345  0.99605213  0.40171711  1
  F  F22  1  0.57211655  0.49605213  0.40171711  1
  F  F23  1  0.92788345  0.99605213  0.09828289  1
  F  F24  1  0.42788345  0.50394787  0.59828289  1
  F  F25  1  0.07211655  0.00394787  0.90171711  1
  F  F26  1  0.42788345  0.50394787  0.90171711  1
  F  F27  1  0.57211655  0.49605213  0.09828289  1
  F  F28  1  0.46938857  0.21004026  0.09586822  1
  F  F29  1  0.53061143  0.78995974  0.90413178  1
  F  F30  1  0.96938857  0.28995974  0.90413178  1
  F  F31  1  0.53061143  0.78995974  0.59586822  1
  F  F32  1  0.03061143  0.71004026  0.09586822  1
  F  F33  1  0.46938857  0.21004026  0.40413178  1
  F  F34  1  0.03061143  0.71004026  0.40413178  1
  F  F35  1  0.96938857  0.28995974  0.59586822  1
  F  F36  1  0.15806447  0.17502062  0.25000000  1
  F  F37  1  0.84193553  0.82497938  0.75000000  1
  F  F38  1  0.65806447  0.32497938  0.75000000  1
  F  F39  1  0.34193553  0.67502062  0.25000000  1
  F  F40  1  0.35217987  0.21589163  0.60580412  1
  F  F41  1  0.64782013  0.78410837  0.39419588  1
  F  F42  1  0.85217987  0.28410837  0.39419588  1
  F  F43  1  0.64782013  0.78410837  0.10580412  1
  F  F44  1  0.14782013  0.71589163  0.60580412  1
  F  F45  1  0.35217987  0.21589163  0.89419588  1
  F  F46  1  0.14782013  0.71589163  0.89419588  1
  F  F47  1  0.85217987  0.28410837  0.10580412  1
