# generated using pymatgen
data_K3DyCl6
_symmetry_space_group_name_H-M   'P 1'
_cell_length_a   7.80179816
_cell_length_b   13.23678460
_cell_length_c   12.75064912
_cell_angle_alpha   108.78208791
_cell_angle_beta   90.00000000
_cell_angle_gamma   90.00000000
_symmetry_Int_Tables_number   1
_chemical_formula_structural   K3DyCl6
_chemical_formula_sum   'K12 Dy4 Cl24'
_cell_volume   1246.65075253
_cell_formula_units_Z   4
loop_
 _symmetry_equiv_pos_site_id
 _symmetry_equiv_pos_as_xyz
  1  'x, y, z'
loop_
 _atom_site_type_symbol
 _atom_site_label
 _atom_site_symmetry_multiplicity
 _atom_site_fract_x
 _atom_site_fract_y
 _atom_site_fract_z
 _atom_site_occupancy
  K  K0  1  0.43455419  0.68538654  0.73338860  1
  K  K1  1  0.56544581  0.31461346  0.26661140  1
  K  K2  1  0.93455419  0.31461346  0.76661140  1
  K  K3  1  0.06544581  0.68538654  0.23338860  1
  K  K4  1  0.96689278  0.90217173  0.64175308  1
  K  K5  1  0.03310722  0.09782827  0.35824692  1
  K  K6  1  0.46689278  0.09782827  0.85824692  1
  K  K7  1  0.53310722  0.90217173  0.14175308  1
  K  K8  1  0.93478005  0.67940257  0.88769170  1
  K  K9  1  0.06521995  0.32059743  0.11230830  1
  K  K10  1  0.43478005  0.32059743  0.61230830  1
  K  K11  1  0.56521995  0.67940257  0.38769170  1
  Dy  Dy12  1  0.00000000  0.50000000  0.50000000  1
  Dy  Dy13  1  0.50000000  0.50000000  0.00000000  1
  Dy  Dy14  1  0.00000000  0.00000000  0.00000000  1
  Dy  Dy15  1  0.50000000  0.00000000  0.50000000  1
  Cl  Cl16  1  0.49852395  0.88081057  0.62984605  1
  Cl  Cl17  1  0.50147605  0.11918943  0.37015395  1
  Cl  Cl18  1  0.99852395  0.11918943  0.87015395  1
  Cl  Cl19  1  0.00147605  0.88081057  0.12984605  1
  Cl  Cl20  1  0.29082136  0.65437617  0.99506567  1
  Cl  Cl21  1  0.70917864  0.34562383  0.00493433  1
  Cl  Cl22  1  0.79082136  0.34562383  0.50493433  1
  Cl  Cl23  1  0.20917864  0.65437617  0.49506567  1
  Cl  Cl24  1  0.78474690  0.65242053  0.60662147  1
  Cl  Cl25  1  0.21525310  0.34757947  0.39337853  1
  Cl  Cl26  1  0.28474690  0.34757947  0.89337853  1
  Cl  Cl27  1  0.71525310  0.65242053  0.10662147  1
  Cl  Cl28  1  0.64222373  0.50058042  0.80929081  1
  Cl  Cl29  1  0.35777627  0.49941958  0.19070919  1
  Cl  Cl30  1  0.14222373  0.49941958  0.69070919  1
  Cl  Cl31  1  0.85777627  0.50058042  0.30929081  1
  Cl  Cl32  1  0.17949054  0.86113503  0.84570562  1
  Cl  Cl33  1  0.82050946  0.13886497  0.15429438  1
  Cl  Cl34  1  0.67949054  0.13886497  0.65429438  1
  Cl  Cl35  1  0.32050946  0.86113503  0.34570562  1
  Cl  Cl36  1  0.71613728  0.89865894  0.90583309  1
  Cl  Cl37  1  0.28386272  0.10134106  0.09416691  1
  Cl  Cl38  1  0.21613728  0.10134106  0.59416691  1
  Cl  Cl39  1  0.78386272  0.89865894  0.40583309  1
