# generated using pymatgen
data_K3Nd(BO3)2
_symmetry_space_group_name_H-M   'P 1'
_cell_length_a   7.25221788
_cell_length_b   9.15666316
_cell_length_c   11.33933990
_cell_angle_alpha   90.00000000
_cell_angle_beta   90.00000000
_cell_angle_gamma   90.00000000
_symmetry_Int_Tables_number   1
_chemical_formula_structural   K3Nd(BO3)2
_chemical_formula_sum   'K12 Nd4 B8 O24'
_cell_volume   753.00152405
_cell_formula_units_Z   4
loop_
 _symmetry_equiv_pos_site_id
 _symmetry_equiv_pos_as_xyz
  1  'x, y, z'
loop_
 _atom_site_type_symbol
 _atom_site_label
 _atom_site_symmetry_multiplicity
 _atom_site_fract_x
 _atom_site_fract_y
 _atom_site_fract_z
 _atom_site_occupancy
  K  K0  1  0.75000000  0.56102999  0.36958342  1
  K  K1  1  0.25000000  0.43897001  0.63041658  1
  K  K2  1  0.25000000  0.93897001  0.86958342  1
  K  K3  1  0.75000000  0.06102999  0.13041658  1
  K  K4  1  0.49574492  0.80046064  0.59760376  1
  K  K5  1  0.50425508  0.19953936  0.40239624  1
  K  K6  1  0.50425508  0.69953936  0.09760376  1
  K  K7  1  0.99574492  0.19953936  0.40239624  1
  K  K8  1  0.49574492  0.30046064  0.90239624  1
  K  K9  1  0.00425508  0.80046064  0.59760376  1
  K  K10  1  0.00425508  0.30046064  0.90239624  1
  K  K11  1  0.99574492  0.69953936  0.09760376  1
  Nd  Nd12  1  0.75000000  0.62599866  0.83131050  1
  Nd  Nd13  1  0.25000000  0.37400134  0.16868950  1
  Nd  Nd14  1  0.25000000  0.87400134  0.33131050  1
  Nd  Nd15  1  0.75000000  0.12599866  0.66868950  1
  B  B16  1  0.75000000  0.93788306  0.87409569  1
  B  B17  1  0.25000000  0.06211694  0.12590431  1
  B  B18  1  0.25000000  0.56211694  0.37409569  1
  B  B19  1  0.75000000  0.43788306  0.62590431  1
  B  B20  1  0.75000000  0.91056810  0.38316500  1
  B  B21  1  0.25000000  0.08943190  0.61683500  1
  B  B22  1  0.25000000  0.58943190  0.88316500  1
  B  B23  1  0.75000000  0.41056810  0.11683500  1
  O  O24  1  0.91717261  0.87155845  0.33041208  1
  O  O25  1  0.08282739  0.12844155  0.66958792  1
  O  O26  1  0.08282739  0.62844155  0.83041208  1
  O  O27  1  0.41717261  0.12844155  0.66958792  1
  O  O28  1  0.91717261  0.37155845  0.16958792  1
  O  O29  1  0.58282739  0.87155845  0.33041208  1
  O  O30  1  0.58282739  0.37155845  0.16958792  1
  O  O31  1  0.41717261  0.62844155  0.83041208  1
  O  O32  1  0.75000000  0.99089852  0.48844494  1
  O  O33  1  0.25000000  0.00910148  0.51155506  1
  O  O34  1  0.25000000  0.50910148  0.98844494  1
  O  O35  1  0.75000000  0.49089852  0.01155506  1
  O  O36  1  0.75000000  0.87897067  0.75852783  1
  O  O37  1  0.25000000  0.12102933  0.24147217  1
  O  O38  1  0.25000000  0.62102933  0.25852783  1
  O  O39  1  0.75000000  0.37897067  0.74147217  1
  O  O40  1  0.75000000  0.84047375  0.96715759  1
  O  O41  1  0.25000000  0.15952625  0.03284241  1
  O  O42  1  0.25000000  0.65952625  0.46715759  1
  O  O43  1  0.75000000  0.34047375  0.53284241  1
  O  O44  1  0.75000000  0.58780383  0.61467517  1
  O  O45  1  0.25000000  0.41219617  0.38532483  1
  O  O46  1  0.25000000  0.91219617  0.11467517  1
  O  O47  1  0.75000000  0.08780383  0.88532483  1
