# generated using pymatgen
data_K2CeI5
_symmetry_space_group_name_H-M   'P 1'
_cell_length_a   9.34278665
_cell_length_b   9.93940334
_cell_length_c   14.67385812
_cell_angle_alpha   90.00000000
_cell_angle_beta   90.00000000
_cell_angle_gamma   90.00000000
_symmetry_Int_Tables_number   1
_chemical_formula_structural   K2CeI5
_chemical_formula_sum   'K8 Ce4 I20'
_cell_volume   1362.63977499
_cell_formula_units_Z   4
loop_
 _symmetry_equiv_pos_site_id
 _symmetry_equiv_pos_as_xyz
  1  'x, y, z'
loop_
 _atom_site_type_symbol
 _atom_site_label
 _atom_site_symmetry_multiplicity
 _atom_site_fract_x
 _atom_site_fract_y
 _atom_site_fract_z
 _atom_site_occupancy
  K  K0  1  0.55165755  0.49561570  0.67167636  1
  K  K1  1  0.44834245  0.50438430  0.32832364  1
  K  K2  1  0.05165755  0.50438430  0.82832364  1
  K  K3  1  0.44834245  0.99561570  0.32832364  1
  K  K4  1  0.94834245  0.49561570  0.17167636  1
  K  K5  1  0.55165755  0.00438430  0.67167636  1
  K  K6  1  0.94834245  0.00438430  0.17167636  1
  K  K7  1  0.05165755  0.99561570  0.82832364  1
  Ce  Ce8  1  0.57784428  0.75000000  0.99476544  1
  Ce  Ce9  1  0.42215572  0.25000000  0.00523456  1
  Ce  Ce10  1  0.07784428  0.25000000  0.50523456  1
  Ce  Ce11  1  0.92215572  0.75000000  0.49476544  1
  I  I12  1  0.37153729  0.75000000  0.81875399  1
  I  I13  1  0.62846271  0.25000000  0.18124601  1
  I  I14  1  0.87153729  0.25000000  0.68124601  1
  I  I15  1  0.12846271  0.75000000  0.31875399  1
  I  I16  1  0.66532481  0.45518839  0.92228224  1
  I  I17  1  0.33467519  0.54481161  0.07771776  1
  I  I18  1  0.16532481  0.54481161  0.57771776  1
  I  I19  1  0.33467519  0.95518839  0.07771776  1
  I  I20  1  0.83467519  0.45518839  0.42228224  1
  I  I21  1  0.66532481  0.04481161  0.92228224  1
  I  I22  1  0.83467519  0.04481161  0.42228224  1
  I  I23  1  0.16532481  0.95518839  0.57771776  1
  I  I24  1  0.92906832  0.75000000  0.99300320  1
  I  I25  1  0.07093168  0.25000000  0.00699680  1
  I  I26  1  0.42906832  0.25000000  0.50699680  1
  I  I27  1  0.57093168  0.75000000  0.49300320  1
  I  I28  1  0.83550161  0.75000000  0.70568471  1
  I  I29  1  0.16449839  0.25000000  0.29431529  1
  I  I30  1  0.33550161  0.25000000  0.79431529  1
  I  I31  1  0.66449839  0.75000000  0.20568471  1
