# generated using pymatgen
data_La23Cd4Rh7
_symmetry_space_group_name_H-M   'P 1'
_cell_length_a   10.13802567
_cell_length_b   10.13802567
_cell_length_c   23.06958895
_cell_angle_alpha   90.00000000
_cell_angle_beta   90.00000000
_cell_angle_gamma   119.99999958
_symmetry_Int_Tables_number   1
_chemical_formula_structural   La23Cd4Rh7
_chemical_formula_sum   'La46 Cd8 Rh14'
_cell_volume   2053.41752152
_cell_formula_units_Z   2
loop_
 _symmetry_equiv_pos_site_id
 _symmetry_equiv_pos_as_xyz
  1  'x, y, z'
loop_
 _atom_site_type_symbol
 _atom_site_label
 _atom_site_symmetry_multiplicity
 _atom_site_fract_x
 _atom_site_fract_y
 _atom_site_fract_z
 _atom_site_occupancy
  La  La0  1  0.20708810  0.41417620  0.71926878  1
  La  La1  1  0.20708810  0.79291190  0.71926878  1
  La  La2  1  0.79291190  0.58582380  0.21926878  1
  La  La3  1  0.58582380  0.79291190  0.71926878  1
  La  La4  1  0.79291190  0.20708810  0.21926878  1
  La  La5  1  0.41417620  0.20708810  0.21926878  1
  La  La6  1  0.79350689  0.58701378  0.94783901  1
  La  La7  1  0.79350689  0.20649311  0.94783901  1
  La  La8  1  0.20649311  0.41298622  0.44783901  1
  La  La9  1  0.41298622  0.20649311  0.94783901  1
  La  La10  1  0.20649311  0.79350689  0.44783901  1
  La  La11  1  0.58701378  0.79350689  0.44783901  1
  La  La12  1  0.20962888  0.41925776  0.99027314  1
  La  La13  1  0.20962888  0.79037112  0.99027314  1
  La  La14  1  0.79037112  0.58074224  0.49027314  1
  La  La15  1  0.58074224  0.79037112  0.99027314  1
  La  La16  1  0.79037112  0.20962888  0.49027314  1
  La  La17  1  0.41925776  0.20962888  0.49027314  1
  La  La18  1  0.87239464  0.74478928  0.63487344  1
  La  La19  1  0.87239464  0.12760536  0.63487344  1
  La  La20  1  0.12760536  0.25521072  0.13487344  1
  La  La21  1  0.25521072  0.12760536  0.63487344  1
  La  La22  1  0.12760536  0.87239464  0.13487344  1
  La  La23  1  0.74478928  0.87239464  0.13487344  1
  La  La24  1  0.45921748  0.91843496  0.85609690  1
  La  La25  1  0.45921748  0.54078252  0.85609690  1
  La  La26  1  0.54078252  0.08156504  0.35609690  1
  La  La27  1  0.08156504  0.54078252  0.85609690  1
  La  La28  1  0.54078252  0.45921748  0.35609690  1
  La  La29  1  0.91843496  0.45921748  0.35609690  1
  La  La30  1  0.00000000  -0.00000000  0.99926080  1
  La  La31  1  0.00000000  -0.00000000  0.49926080  1
  La  La32  1  0.45941351  0.91882701  0.58527914  1
  La  La33  1  0.45941351  0.54058649  0.58527914  1
  La  La34  1  0.54058649  0.08117299  0.08527914  1
  La  La35  1  0.08117299  0.54058649  0.58527914  1
  La  La36  1  0.54058649  0.45941351  0.08527914  1
  La  La37  1  0.91882701  0.45941351  0.08527914  1
  La  La38  1  0.79664004  0.59328007  0.78174366  1
  La  La39  1  0.79664004  0.20335996  0.78174366  1
  La  La40  1  0.20335996  0.40671993  0.28174366  1
  La  La41  1  0.40671993  0.20335996  0.78174366  1
  La  La42  1  0.20335996  0.79664004  0.28174366  1
  La  La43  1  0.59328007  0.79664004  0.28174366  1
  La  La44  1  0.66666700  0.33333300  0.64554139  1
  La  La45  1  0.33333300  0.66666700  0.14554139  1
  Cd  Cd46  1  0.00000000  -0.00000000  0.74939755  1
  Cd  Cd47  1  0.00000000  -0.00000000  0.24939755  1
  Cd  Cd48  1  0.10625112  0.21250225  0.86310283  1
  Cd  Cd49  1  0.10625112  0.89374888  0.86310283  1
  Cd  Cd50  1  0.89374888  0.78749775  0.36310283  1
  Cd  Cd51  1  0.78749775  0.89374888  0.86310283  1
  Cd  Cd52  1  0.89374888  0.10625112  0.36310283  1
  Cd  Cd53  1  0.21250225  0.10625112  0.36310283  1
  Rh  Rh54  1  0.52024563  0.04049125  0.71067532  1
  Rh  Rh55  1  0.52024563  0.47975437  0.71067532  1
  Rh  Rh56  1  0.47975437  0.95950875  0.21067532  1
  Rh  Rh57  1  0.95950875  0.47975437  0.71067532  1
  Rh  Rh58  1  0.47975437  0.52024563  0.21067532  1
  Rh  Rh59  1  0.04049125  0.52024563  0.21067532  1
  Rh  Rh60  1  0.66666700  0.33333300  0.86553978  1
  Rh  Rh61  1  0.33333300  0.66666700  0.36553978  1
  Rh  Rh62  1  0.14417646  0.28835291  0.56317462  1
  Rh  Rh63  1  0.14417646  0.85582354  0.56317462  1
  Rh  Rh64  1  0.85582354  0.71164709  0.06317462  1
  Rh  Rh65  1  0.71164709  0.85582354  0.56317462  1
  Rh  Rh66  1  0.85582354  0.14417646  0.06317462  1
  Rh  Rh67  1  0.28835291  0.14417646  0.06317462  1
