# generated using pymatgen
data_Ho3B7Mo
_symmetry_space_group_name_H-M   'P 1'
_cell_length_a   3.46284223
_cell_length_b   8.14948755
_cell_length_c   9.45423527
_cell_angle_alpha   90.00000000
_cell_angle_beta   90.00000000
_cell_angle_gamma   102.26641687
_symmetry_Int_Tables_number   1
_chemical_formula_structural   Ho3B7Mo
_chemical_formula_sum   'Ho6 B14 Mo2'
_cell_volume   260.71118116
_cell_formula_units_Z   2
loop_
 _symmetry_equiv_pos_site_id
 _symmetry_equiv_pos_as_xyz
  1  'x, y, z'
loop_
 _atom_site_type_symbol
 _atom_site_label
 _atom_site_symmetry_multiplicity
 _atom_site_fract_x
 _atom_site_fract_y
 _atom_site_fract_z
 _atom_site_occupancy
  Ho  Ho0  1  0.74304033  0.48608066  0.25000000  1
  Ho  Ho1  1  0.25695967  0.51391934  0.75000000  1
  Ho  Ho2  1  0.39341341  0.78682681  0.05995143  1
  Ho  Ho3  1  0.60658659  0.21317319  0.94004857  1
  Ho  Ho4  1  0.60658659  0.21317319  0.55995143  1
  Ho  Ho5  1  0.39341341  0.78682681  0.44004857  1
  B  B6  1  0.01946528  0.03893056  0.09180233  1
  B  B7  1  0.98053472  0.96106944  0.90819767  1
  B  B8  1  0.98053472  0.96106944  0.59180233  1
  B  B9  1  0.01946528  0.03893056  0.40819767  1
  B  B10  1  0.22761885  0.45523770  0.03314622  1
  B  B11  1  0.77238115  0.54476230  0.96685378  1
  B  B12  1  0.77238115  0.54476230  0.53314622  1
  B  B13  1  0.22761885  0.45523770  0.46685378  1
  B  B14  1  0.13466345  0.26932689  0.14696539  1
  B  B15  1  0.86533655  0.73067311  0.85303461  1
  B  B16  1  0.86533655  0.73067311  0.64696539  1
  B  B17  1  0.13466345  0.26932689  0.35303461  1
  B  B18  1  0.95547608  0.91095216  0.25000000  1
  B  B19  1  0.04452392  0.08904784  0.75000000  1
  Mo  Mo20  1  0.55319631  0.10639262  0.25000000  1
  Mo  Mo21  1  0.44680369  0.89360738  0.75000000  1
