# generated using pymatgen
data_HoAsSe
_symmetry_space_group_name_H-M   'P 1'
_cell_length_a   3.90157477
_cell_length_b   3.91798570
_cell_length_c   17.45881709
_cell_angle_alpha   90.00000000
_cell_angle_beta   90.00000000
_cell_angle_gamma   90.16122764
_symmetry_Int_Tables_number   1
_chemical_formula_structural   HoAsSe
_chemical_formula_sum   'Ho4 As4 Se4'
_cell_volume   266.87990643
_cell_formula_units_Z   4
loop_
 _symmetry_equiv_pos_site_id
 _symmetry_equiv_pos_as_xyz
  1  'x, y, z'
loop_
 _atom_site_type_symbol
 _atom_site_label
 _atom_site_symmetry_multiplicity
 _atom_site_fract_x
 _atom_site_fract_y
 _atom_site_fract_z
 _atom_site_occupancy
  Ho  Ho0  1  0.24981541  0.73056758  0.63913525  1
  Ho  Ho1  1  0.75018459  0.26943242  0.36086475  1
  Ho  Ho2  1  0.25018459  0.76943242  0.13913525  1
  Ho  Ho3  1  0.74981541  0.23056758  0.86086475  1
  As  As4  1  0.75027465  0.71614165  0.99812412  1
  As  As5  1  0.24972535  0.28385835  0.00187588  1
  As  As6  1  0.74972535  0.78385835  0.49812412  1
  As  As7  1  0.25027465  0.21614165  0.50187588  1
  Se  Se8  1  0.24963251  0.73177035  0.81231628  1
  Se  Se9  1  0.75036749  0.26822965  0.18768372  1
  Se  Se10  1  0.25036749  0.76822965  0.31231628  1
  Se  Se11  1  0.74963251  0.23177035  0.68768372  1
