# generated using pymatgen
data_Ho4(Al8Pd3)3
_symmetry_space_group_name_H-M   'P 1'
_cell_length_a   7.47779191
_cell_length_b   7.55685761
_cell_length_c   13.24698708
_cell_angle_alpha   84.61933868
_cell_angle_beta   79.38335617
_cell_angle_gamma   60.09573554
_symmetry_Int_Tables_number   1
_chemical_formula_structural   Ho4(Al8Pd3)3
_chemical_formula_sum   'Ho4 Al24 Pd9'
_cell_volume   637.79444829
_cell_formula_units_Z   1
loop_
 _symmetry_equiv_pos_site_id
 _symmetry_equiv_pos_as_xyz
  1  'x, y, z'
loop_
 _atom_site_type_symbol
 _atom_site_label
 _atom_site_symmetry_multiplicity
 _atom_site_fract_x
 _atom_site_fract_y
 _atom_site_fract_z
 _atom_site_occupancy
  Ho  Ho0  1  0.39285909  0.16923189  0.80881840  1
  Ho  Ho1  1  0.60714091  0.83076811  0.19118160  1
  Ho  Ho2  1  0.73409665  0.49781328  0.80850609  1
  Ho  Ho3  1  0.26590335  0.50218672  0.19149391  1
  Al  Al4  1  0.68517895  0.83386516  0.94491817  1
  Al  Al5  1  0.31482105  0.16613484  0.05508183  1
  Al  Al6  1  0.14585310  0.83333949  0.56042868  1
  Al  Al7  1  0.85414690  0.16666051  0.43957132  1
  Al  Al8  1  0.47881516  0.16676357  0.55831826  1
  Al  Al9  1  0.52118484  0.83323643  0.44168174  1
  Al  Al10  1  0.21584406  0.16543371  0.32924124  1
  Al  Al11  1  0.78415594  0.83456629  0.67075876  1
  Al  Al12  1  0.43715723  0.50584230  0.67078697  1
  Al  Al13  1  0.56284277  0.49415770  0.32921303  1
  Al  Al14  1  0.10874396  0.15981582  0.66971270  1
  Al  Al15  1  0.89125604  0.84018418  0.33028730  1
  Al  Al16  1  0.35328341  0.49969526  0.94511376  1
  Al  Al17  1  0.64671659  0.50030474  0.05488624  1
  Al  Al18  1  0.01581289  0.16733320  0.95340520  1
  Al  Al19  1  0.98418711  0.83266680  0.04659480  1
  Al  Al20  1  0.18697057  0.49945516  0.44111451  1
  Al  Al21  1  0.81302943  0.50054484  0.55888549  1
  Al  Al22  1  0.73359798  0.16343580  0.18311801  1
  Al  Al23  1  0.26640202  0.83656420  0.81688199  1
  Al  Al24  1  0.06157758  0.63119041  0.81530846  1
  Al  Al25  1  0.93842242  0.36880959  0.18469154  1
  Al  Al26  1  0.85501165  0.04153049  0.81613235  1
  Al  Al27  1  0.14498835  0.95846951  0.18386765  1
  Pd  Pd28  1  0.11978702  0.49334740  0.63809075  1
  Pd  Pd29  1  0.88021298  0.50665260  0.36190925  1
  Pd  Pd30  1  0.65734334  0.17094824  0.99955534  1
  Pd  Pd31  1  0.34265666  0.82905176  0.00044466  1
  Pd  Pd32  1  0.53899154  0.16671972  0.36145672  1
  Pd  Pd33  1  0.46100846  0.83328028  0.63854328  1
  Pd  Pd34  1  0.77856296  0.17403697  0.63721134  1
  Pd  Pd35  1  0.22143704  0.82596303  0.36278866  1
  Pd  Pd36  1  0.00000000  0.50000000  -0.00000000  1
