# generated using pymatgen
data_LiCuCO3
_symmetry_space_group_name_H-M   'P 1'
_cell_length_a   3.21087127
_cell_length_b   14.15843687
_cell_length_c   14.24021639
_cell_angle_alpha   119.81272202
_cell_angle_beta   84.93115045
_cell_angle_gamma   90.00336514
_symmetry_Int_Tables_number   1
_chemical_formula_structural   LiCuCO3
_chemical_formula_sum   'Li9 Cu9 C9 O27'
_cell_volume   558.77891256
_cell_formula_units_Z   9
loop_
 _symmetry_equiv_pos_site_id
 _symmetry_equiv_pos_as_xyz
  1  'x, y, z'
loop_
 _atom_site_type_symbol
 _atom_site_label
 _atom_site_symmetry_multiplicity
 _atom_site_fract_x
 _atom_site_fract_y
 _atom_site_fract_z
 _atom_site_occupancy
  Li  Li0  1  0.00126681  0.89455710  0.12289532  1
  Li  Li1  1  0.00286891  0.89911366  0.42284550  1
  Li  Li2  1  0.02241342  0.87583344  0.76986248  1
  Li  Li3  1  0.99129487  0.52563532  0.10324202  1
  Li  Li4  1  0.99491073  0.57775789  0.47659528  1
  Li  Li5  1  0.00474643  0.57116679  0.75543791  1
  Li  Li6  1  0.97105303  0.22963912  0.10500843  1
  Li  Li7  1  0.07281375  0.18477862  0.43186661  1
  Li  Li8  1  0.93766949  0.24778463  0.81774065  1
  Cu  Cu9  1  0.50675375  0.74300546  0.19783582  1
  Cu  Cu10  1  0.49385213  0.80409336  0.54496284  1
  Cu  Cu11  1  0.50006230  0.78507894  0.90512678  1
  Cu  Cu12  1  0.51189822  0.45218243  0.25530147  1
  Cu  Cu13  1  0.46050439  0.42804001  0.54626271  1
  Cu  Cu14  1  0.48895028  0.12277705  0.21476629  1
  Cu  Cu15  1  0.44951609  0.45217817  0.87585257  1
  Cu  Cu16  1  0.56872688  0.11800889  0.56791869  1
  Cu  Cu17  1  0.50131314  0.09186405  0.87881436  1
  C  C18  1  0.52744479  0.98759943  0.31773349  1
  C  C19  1  0.97398381  0.99938022  0.99935468  1
  C  C20  1  0.02986967  0.66637873  0.33316928  1
  C  C21  1  0.51054745  0.68248556  0.66853293  1
  C  C22  1  0.46274203  0.33087206  0.01461859  1
  C  C23  1  0.98122736  0.33535968  0.34393839  1
  C  C24  1  0.03069396  0.65676628  0.99031483  1
  C  C25  1  0.00233605  0.33295968  0.66699345  1
  C  C26  1  0.99231874  0.01059191  0.66466550  1
  O  O27  1  0.47382921  0.97164351  0.22150996  1
  O  O28  1  0.52228280  0.90609292  0.33615461  1
  O  O29  1  0.87926244  0.74232778  0.07954821  1
  O  O30  1  0.12235699  0.92240301  0.66189203  1
  O  O31  1  0.10828791  0.65943668  0.23854290  1
  O  O32  1  0.92369538  0.76054884  0.41869122  1
  O  O33  1  0.90373626  0.90597146  0.99323398  1
  O  O34  1  0.05342526  0.57889185  0.34080279  1
  O  O35  1  0.53085517  0.78120867  0.74939274  1
  O  O36  1  0.47202101  0.66588391  0.57103139  1
  O  O37  1  0.49341109  0.42995299  0.09445144  1
  O  O38  1  0.52851135  0.60097350  0.68494106  1
  O  O39  1  0.49536039  0.24878331  0.03115143  1
  O  O40  1  0.89449923  0.33917890  0.25846305  1
  O  O41  1  0.17133734  0.66422952  0.90594357  1
  O  O42  1  0.90888302  0.42264110  0.44051411  1
  O  O43  1  0.06248074  0.41585250  0.65339807  1
  O  O44  1  0.14730495  0.24778029  0.33586255  1
  O  O45  1  0.03980146  0.56168134  0.98422776  1
  O  O46  1  0.94653824  0.08801411  0.09364295  1
  O  O47  1  0.85288561  0.34758200  0.76162115  1
  O  O48  1  0.08783743  0.23434194  0.58721699  1
  O  O49  1  0.58643341  0.08453903  0.39561080  1
  O  O50  1  0.39885287  0.31419302  0.91946802  1
  O  O51  1  0.03061156  0.01835783  0.57653021  1
  O  O52  1  0.82337972  0.09257935  0.75480310  1
  O  O53  1  0.07663267  0.00378518  0.91127803  1
