# generated using pymatgen
data_Hf6CCl14
_symmetry_space_group_name_H-M   'P 1'
_cell_length_a   9.54613937
_cell_length_b   9.54613937
_cell_length_c   11.54281061
_cell_angle_alpha   90.00000000
_cell_angle_beta   90.00000000
_cell_angle_gamma   95.26226200
_symmetry_Int_Tables_number   1
_chemical_formula_structural   Hf6CCl14
_chemical_formula_sum   'Hf12 C2 Cl28'
_cell_volume   1047.44886784
_cell_formula_units_Z   2
loop_
 _symmetry_equiv_pos_site_id
 _symmetry_equiv_pos_as_xyz
  1  'x, y, z'
loop_
 _atom_site_type_symbol
 _atom_site_label
 _atom_site_symmetry_multiplicity
 _atom_site_fract_x
 _atom_site_fract_y
 _atom_site_fract_z
 _atom_site_occupancy
  Hf  Hf0  1  0.18245263  0.95330653  0.11629723  1
  Hf  Hf1  1  0.81754737  0.04669347  0.88370277  1
  Hf  Hf2  1  0.31754737  0.54669347  0.61629723  1
  Hf  Hf3  1  0.45330653  0.68245263  0.38370277  1
  Hf  Hf4  1  0.68245263  0.45330653  0.38370277  1
  Hf  Hf5  1  0.54669347  0.31754737  0.61629723  1
  Hf  Hf6  1  0.04669347  0.81754737  0.88370277  1
  Hf  Hf7  1  0.95330653  0.18245263  0.11629723  1
  Hf  Hf8  1  0.35687671  0.35687671  0.39645624  1
  Hf  Hf9  1  0.64312329  0.64312329  0.60354376  1
  Hf  Hf10  1  0.14312329  0.14312329  0.89645624  1
  Hf  Hf11  1  0.85687671  0.85687671  0.10354376  1
  C  C12  1  -0.00000000  -0.00000000  0.00000000  1
  C  C13  1  0.50000000  0.50000000  0.50000000  1
  Cl  Cl14  1  0.53465212  0.28719019  0.25442709  1
  Cl  Cl15  1  0.46534788  0.71280981  0.74557291  1
  Cl  Cl16  1  0.96534788  0.21280981  0.75442709  1
  Cl  Cl17  1  0.78719019  0.03465212  0.24557291  1
  Cl  Cl18  1  0.03465212  0.78719019  0.24557291  1
  Cl  Cl19  1  0.21280981  0.96534788  0.75442709  1
  Cl  Cl20  1  0.71280981  0.46534788  0.74557291  1
  Cl  Cl21  1  0.28719019  0.53465212  0.25442709  1
  Cl  Cl22  1  0.36176066  0.11501213  0.01012215  1
  Cl  Cl23  1  0.63823934  0.88498787  0.98987785  1
  Cl  Cl24  1  0.13823934  0.38498787  0.51012215  1
  Cl  Cl25  1  0.61501213  0.86176066  0.48987785  1
  Cl  Cl26  1  0.86176066  0.61501213  0.48987785  1
  Cl  Cl27  1  0.38498787  0.13823934  0.51012215  1
  Cl  Cl28  1  0.88498787  0.63823934  0.98987785  1
  Cl  Cl29  1  0.11501213  0.36176066  0.01012215  1
  Cl  Cl30  1  0.39735390  0.89735390  0.25000000  1
  Cl  Cl31  1  0.60264610  0.10264610  0.75000000  1
  Cl  Cl32  1  0.10264610  0.60264610  0.75000000  1
  Cl  Cl33  1  0.89735390  0.39735390  0.25000000  1
  Cl  Cl34  1  0.24998482  0.75001518  0.00000000  1
  Cl  Cl35  1  0.75001518  0.24998482  0.00000000  1
  Cl  Cl36  1  0.25001518  0.74998482  0.50000000  1
  Cl  Cl37  1  0.74998482  0.25001518  0.50000000  1
  Cl  Cl38  1  0.15291021  0.15291021  0.26270629  1
  Cl  Cl39  1  0.84708979  0.84708979  0.73729371  1
  Cl  Cl40  1  0.34708979  0.34708979  0.76270629  1
  Cl  Cl41  1  0.65291021  0.65291021  0.23729371  1
