# generated using pymatgen
data_Hg2H18C3I7N9
_symmetry_space_group_name_H-M   'P 1'
_cell_length_a   8.19746087
_cell_length_b   8.19746087
_cell_length_c   23.50782284
_cell_angle_alpha   99.08136921
_cell_angle_beta   99.08136921
_cell_angle_gamma   97.62556970
_symmetry_Int_Tables_number   1
_chemical_formula_structural   Hg2H18C3I7N9
_chemical_formula_sum   'Hg4 H36 C6 I14 N18'
_cell_volume   1520.07805941
_cell_formula_units_Z   2
loop_
 _symmetry_equiv_pos_site_id
 _symmetry_equiv_pos_as_xyz
  1  'x, y, z'
loop_
 _atom_site_type_symbol
 _atom_site_label
 _atom_site_symmetry_multiplicity
 _atom_site_fract_x
 _atom_site_fract_y
 _atom_site_fract_z
 _atom_site_occupancy
  Hg  Hg0  1  0.94446762  0.96941229  0.64447504  1
  Hg  Hg1  1  0.05553238  0.03058771  0.35552496  1
  Hg  Hg2  1  0.03058771  0.05553238  0.85552496  1
  Hg  Hg3  1  0.96941229  0.94446762  0.14447504  1
  H  H4  1  0.56091937  0.40445723  0.56413209  1
  H  H5  1  0.43908063  0.59554277  0.43586791  1
  H  H6  1  0.59554277  0.43908063  0.93586791  1
  H  H7  1  0.40445723  0.56091937  0.06413209  1
  H  H8  1  0.59969769  0.76238712  0.46815788  1
  H  H9  1  0.40030231  0.23761288  0.53184212  1
  H  H10  1  0.23761288  0.40030231  0.03184212  1
  H  H11  1  0.76238712  0.59969769  0.96815788  1
  H  H12  1  0.30262292  0.70399332  0.90101461  1
  H  H13  1  0.69737708  0.29600668  0.09898539  1
  H  H14  1  0.29600668  0.69737708  0.59898539  1
  H  H15  1  0.70399332  0.30262292  0.40101461  1
  H  H16  1  0.60967835  0.77924975  0.76657152  1
  H  H17  1  0.39032165  0.22075025  0.23342848  1
  H  H18  1  0.22075025  0.39032165  0.73342848  1
  H  H19  1  0.77924975  0.60967835  0.26657152  1
  H  H20  1  0.53726771  0.92400525  0.93519395  1
  H  H21  1  0.46273229  0.07599475  0.06480605  1
  H  H22  1  0.07599475  0.46273229  0.56480605  1
  H  H23  1  0.92400525  0.53726771  0.43519395  1
  H  H24  1  0.40585312  0.82155347  0.75747773  1
  H  H25  1  0.59414688  0.17844653  0.24252227  1
  H  H26  1  0.17844653  0.59414688  0.74252227  1
  H  H27  1  0.82155347  0.40585312  0.25747773  1
  H  H28  1  0.49480722  0.33805780  0.74177004  1
  H  H29  1  0.50519278  0.66194220  0.25822996  1
  H  H30  1  0.66194220  0.50519278  0.75822996  1
  H  H31  1  0.33805780  0.49480722  0.24177004  1
  H  H32  1  0.33742093  0.49876479  0.90032361  1
  H  H33  1  0.66257907  0.50123521  0.09967639  1
  H  H34  1  0.50123521  0.66257907  0.59967639  1
  H  H35  1  0.49876479  0.33742093  0.40032361  1
  H  H36  1  0.72726448  0.87794066  0.96712686  1
  H  H37  1  0.27273552  0.12205934  0.03287314  1
  H  H38  1  0.12205934  0.27273552  0.53287314  1
  H  H39  1  0.87794066  0.72726448  0.46712686  1
  C  C40  1  0.42821993  0.57178007  0.75000000  1
  C  C41  1  0.57178007  0.42821993  0.25000000  1
  C  C42  1  0.54175027  0.67577503  0.93765233  1
  C  C43  1  0.45824973  0.32422497  0.06234767  1
  C  C44  1  0.32422497  0.45824973  0.56234767  1
  C  C45  1  0.67577503  0.54175027  0.43765233  1
  I  I46  1  0.38507914  0.14846762  0.86554036  1
  I  I47  1  0.61492086  0.85153238  0.13445964  1
  I  I48  1  0.85153238  0.61492086  0.63445964  1
  I  I49  1  0.14846762  0.38507914  0.36554036  1
  I  I50  1  0.29808180  0.04323195  0.66071326  1
  I  I51  1  0.70191820  0.95676805  0.33928674  1
  I  I52  1  0.95676805  0.70191820  0.83928674  1
  I  I53  1  0.04323195  0.29808180  0.16071326  1
  I  I54  1  0.85587290  0.14412710  0.75000000  1
  I  I55  1  0.14412710  0.85587290  0.25000000  1
  I  I56  1  0.77095164  0.06110887  0.54486324  1
  I  I57  1  0.22904836  0.93889113  0.45513676  1
  I  I58  1  0.93889113  0.22904836  0.95513676  1
  I  I59  1  0.06110887  0.77095164  0.04486324  1
  N  N60  1  0.60259093  0.83981446  0.95211438  1
  N  N61  1  0.39740907  0.16018554  0.04788562  1
  N  N62  1  0.16018554  0.39740907  0.54788562  1
  N  N63  1  0.83981446  0.60259093  0.45211438  1
  N  N64  1  0.53644463  0.46355537  0.75000000  1
  N  N65  1  0.46355537  0.53644463  0.25000000  1
  N  N66  1  0.43697548  0.36207599  0.54835047  1
  N  N67  1  0.56302452  0.63792401  0.45164953  1
  N  N68  1  0.63792401  0.56302452  0.95164953  1
  N  N69  1  0.36207599  0.43697548  0.04835047  1
  N  N70  1  0.38258882  0.62336774  0.91061155  1
  N  N71  1  0.61741118  0.37663226  0.08938845  1
  N  N72  1  0.37663226  0.61741118  0.58938845  1
  N  N73  1  0.62336774  0.38258882  0.41061155  1
  N  N74  1  0.48475998  0.73665838  0.76029546  1
  N  N75  1  0.51524002  0.26334162  0.23970454  1
  N  N76  1  0.26334162  0.51524002  0.73970454  1
  N  N77  1  0.73665838  0.48475998  0.26029546  1
