# generated using pymatgen
data_Dy5BiPt2
_symmetry_space_group_name_H-M   'P 1'
_cell_length_a   7.79308837
_cell_length_b   7.79308837
_cell_length_c   8.85982270
_cell_angle_alpha   116.09108272
_cell_angle_beta   116.09108272
_cell_angle_gamma   90.00000000
_symmetry_Int_Tables_number   1
_chemical_formula_structural   Dy5BiPt2
_chemical_formula_sum   'Dy10 Bi2 Pt4'
_cell_volume   421.33608296
_cell_formula_units_Z   2
loop_
 _symmetry_equiv_pos_site_id
 _symmetry_equiv_pos_as_xyz
  1  'x, y, z'
loop_
 _atom_site_type_symbol
 _atom_site_label
 _atom_site_symmetry_multiplicity
 _atom_site_fract_x
 _atom_site_fract_y
 _atom_site_fract_z
 _atom_site_occupancy
  Dy  Dy0  1  0.00000000  0.00000000  0.00000000  1
  Dy  Dy1  1  0.50000000  0.50000000  0.00000000  1
  Dy  Dy2  1  0.29267193  0.79267193  0.27117016  1
  Dy  Dy3  1  0.70732807  0.20732807  0.72882984  1
  Dy  Dy4  1  0.97849823  0.47849823  0.27117016  1
  Dy  Dy5  1  0.47849823  0.29267193  0.27117016  1
  Dy  Dy6  1  0.20732807  0.02150177  0.72882984  1
  Dy  Dy7  1  0.02150177  0.52150177  0.72882984  1
  Dy  Dy8  1  0.52150177  0.70732807  0.72882984  1
  Dy  Dy9  1  0.79267193  0.97849823  0.27117016  1
  Bi  Bi10  1  0.25000000  0.25000000  0.50000000  1
  Bi  Bi11  1  0.75000000  0.75000000  0.50000000  1
  Pt  Pt12  1  0.63810277  0.13810277  0.00000000  1
  Pt  Pt13  1  0.36189723  0.86189723  1.00000000  1
  Pt  Pt14  1  0.86189723  0.63810277  0.00000000  1
  Pt  Pt15  1  0.13810277  0.36189723  0.00000000  1
