# generated using pymatgen
data_Gd2Cu(GeO3)4
_symmetry_space_group_name_H-M   'P 1'
_cell_length_a   5.00335390
_cell_length_b   7.35803086
_cell_length_c   8.12212495
_cell_angle_alpha   65.83210588
_cell_angle_beta   86.77054300
_cell_angle_gamma   77.45871000
_symmetry_Int_Tables_number   1
_chemical_formula_structural   Gd2Cu(GeO3)4
_chemical_formula_sum   'Gd2 Cu1 Ge4 O12'
_cell_volume   266.11862452
_cell_formula_units_Z   1
loop_
 _symmetry_equiv_pos_site_id
 _symmetry_equiv_pos_as_xyz
  1  'x, y, z'
loop_
 _atom_site_type_symbol
 _atom_site_label
 _atom_site_symmetry_multiplicity
 _atom_site_fract_x
 _atom_site_fract_y
 _atom_site_fract_z
 _atom_site_occupancy
  Gd  Gd0  1  0.04022276  0.77057139  0.45271371  1
  Gd  Gd1  1  0.95977724  0.22942861  0.54728629  1
  Cu  Cu2  1  0.00000000  0.00000000  -0.00000000  1
  Ge  Ge3  1  0.57528483  0.61962120  0.20394897  1
  Ge  Ge4  1  0.42471517  0.38037880  0.79605103  1
  Ge  Ge5  1  0.45911446  0.16865160  0.21865575  1
  Ge  Ge6  1  0.54088554  0.83134840  0.78134425  1
  O  O7  1  0.25232694  0.77763799  0.19279503  1
  O  O8  1  0.74767306  0.22236201  0.80720497  1
  O  O9  1  0.26648058  0.29316283  0.00793674  1
  O  O10  1  0.73351942  0.70683717  0.99206326  1
  O  O11  1  0.21924589  0.42499730  0.60991518  1
  O  O12  1  0.78075411  0.57500270  0.39008482  1
  O  O13  1  0.24724555  0.00389105  0.79781859  1
  O  O14  1  0.75275445  0.99610895  0.20218141  1
  O  O15  1  0.57443270  0.35044546  0.27818340  1
  O  O16  1  0.42556730  0.64955454  0.72181660  1
  O  O17  1  0.23187147  0.06440860  0.38674357  1
  O  O18  1  0.76812853  0.93559140  0.61325643  1
