# generated using pymatgen
data_DyTeAs
_symmetry_space_group_name_H-M   'P 1'
_cell_length_a   4.07224424
_cell_length_b   7.54767711
_cell_length_c   9.95086495
_cell_angle_alpha   90.00000000
_cell_angle_beta   90.00000000
_cell_angle_gamma   90.00000000
_symmetry_Int_Tables_number   1
_chemical_formula_structural   DyTeAs
_chemical_formula_sum   'Dy4 Te4 As4'
_cell_volume   305.84963222
_cell_formula_units_Z   4
loop_
 _symmetry_equiv_pos_site_id
 _symmetry_equiv_pos_as_xyz
  1  'x, y, z'
loop_
 _atom_site_type_symbol
 _atom_site_label
 _atom_site_symmetry_multiplicity
 _atom_site_fract_x
 _atom_site_fract_y
 _atom_site_fract_z
 _atom_site_occupancy
  Dy  Dy0  1  0.75000000  0.76922923  0.65876013  1
  Dy  Dy1  1  0.25000000  0.23077077  0.34123987  1
  Dy  Dy2  1  0.25000000  0.73077077  0.15876013  1
  Dy  Dy3  1  0.75000000  0.26922923  0.84123987  1
  Te  Te4  1  0.75000000  0.91420293  0.35192791  1
  Te  Te5  1  0.25000000  0.08579707  0.64807209  1
  Te  Te6  1  0.25000000  0.58579707  0.85192791  1
  Te  Te7  1  0.75000000  0.41420293  0.14807209  1
  As  As8  1  0.75000000  0.90252531  0.96032366  1
  As  As9  1  0.25000000  0.09747469  0.03967634  1
  As  As10  1  0.25000000  0.59747469  0.46032366  1
  As  As11  1  0.75000000  0.40252531  0.53967634  1
