# generated using pymatgen
data_Ho2Fe17C3
_symmetry_space_group_name_H-M   'P 1'
_cell_length_a   8.31321365
_cell_length_b   8.60843632
_cell_length_c   8.60843632
_cell_angle_alpha   119.99999600
_cell_angle_beta   90.00000000
_cell_angle_gamma   90.00000000
_symmetry_Int_Tables_number   1
_chemical_formula_structural   Ho2Fe17C3
_chemical_formula_sum   'Ho4 Fe34 C6'
_cell_volume   533.51684178
_cell_formula_units_Z   2
loop_
 _symmetry_equiv_pos_site_id
 _symmetry_equiv_pos_as_xyz
  1  'x, y, z'
loop_
 _atom_site_type_symbol
 _atom_site_label
 _atom_site_symmetry_multiplicity
 _atom_site_fract_x
 _atom_site_fract_y
 _atom_site_fract_z
 _atom_site_occupancy
  Ho  Ho0  1  0.75000000  0.00000000  -0.00000000  1
  Ho  Ho1  1  0.25000000  0.00000000  -0.00000000  1
  Ho  Ho2  1  0.75000000  0.66666700  0.33333300  1
  Ho  Ho3  1  0.25000000  0.33333300  0.66666700  1
  Fe  Fe4  1  0.75000000  0.62146714  0.67477522  1
  Fe  Fe5  1  0.25000000  0.37853286  0.32522478  1
  Fe  Fe6  1  0.75000000  0.05330808  0.37853286  1
  Fe  Fe7  1  0.25000000  0.94669192  0.32522478  1
  Fe  Fe8  1  0.25000000  0.94669192  0.62146714  1
  Fe  Fe9  1  0.75000000  0.05330808  0.67477522  1
  Fe  Fe10  1  0.75000000  0.32522478  0.94669192  1
  Fe  Fe11  1  0.25000000  0.67477522  0.62146714  1
  Fe  Fe12  1  0.25000000  0.67477522  0.05330808  1
  Fe  Fe13  1  0.75000000  0.32522478  0.37853286  1
  Fe  Fe14  1  0.25000000  0.37853286  0.05330808  1
  Fe  Fe15  1  0.75000000  0.62146714  0.94669192  1
  Fe  Fe16  1  0.39227573  0.66666700  0.33333300  1
  Fe  Fe17  1  0.60772427  0.33333300  0.66666700  1
  Fe  Fe18  1  0.89227573  0.33333300  0.66666700  1
  Fe  Fe19  1  0.10772427  0.66666700  0.33333300  1
  Fe  Fe20  1  0.97958097  0.83152750  0.16847250  1
  Fe  Fe21  1  0.02041903  0.16847250  0.83152750  1
  Fe  Fe22  1  0.97958097  0.33694500  0.16847250  1
  Fe  Fe23  1  0.47958097  0.16847250  0.83152750  1
  Fe  Fe24  1  0.02041903  0.66305500  0.83152750  1
  Fe  Fe25  1  0.52041903  0.83152750  0.16847250  1
  Fe  Fe26  1  0.97958097  0.83152750  0.66305500  1
  Fe  Fe27  1  0.47958097  0.66305500  0.83152750  1
  Fe  Fe28  1  0.02041903  0.16847250  0.33694500  1
  Fe  Fe29  1  0.52041903  0.33694500  0.16847250  1
  Fe  Fe30  1  0.47958097  0.16847250  0.33694500  1
  Fe  Fe31  1  0.52041903  0.83152750  0.66305500  1
  Fe  Fe32  1  0.00000000  0.50000000  0.50000000  1
  Fe  Fe33  1  0.00000000  0.00000000  0.50000000  1
  Fe  Fe34  1  0.50000000  0.50000000  0.50000000  1
  Fe  Fe35  1  0.00000000  0.50000000  -0.00000000  1
  Fe  Fe36  1  0.50000000  0.00000000  0.50000000  1
  Fe  Fe37  1  0.50000000  0.50000000  -0.00000000  1
  C  C38  1  0.75000000  0.83424962  0.16575038  1
  C  C39  1  0.25000000  0.16575038  0.83424962  1
  C  C40  1  0.75000000  0.33150076  0.16575038  1
  C  C41  1  0.25000000  0.66849924  0.83424962  1
  C  C42  1  0.75000000  0.83424962  0.66849924  1
  C  C43  1  0.25000000  0.16575038  0.33150076  1
