# generated using pymatgen
data_GdZrF7
_symmetry_space_group_name_H-M   'P 1'
_cell_length_a   5.77725591
_cell_length_b   6.20830887
_cell_length_c   8.39531621
_cell_angle_alpha   101.82887241
_cell_angle_beta   90.00000000
_cell_angle_gamma   90.00000000
_symmetry_Int_Tables_number   1
_chemical_formula_structural   GdZrF7
_chemical_formula_sum   'Gd2 Zr2 F14'
_cell_volume   294.72030792
_cell_formula_units_Z   2
loop_
 _symmetry_equiv_pos_site_id
 _symmetry_equiv_pos_as_xyz
  1  'x, y, z'
loop_
 _atom_site_type_symbol
 _atom_site_label
 _atom_site_symmetry_multiplicity
 _atom_site_fract_x
 _atom_site_fract_y
 _atom_site_fract_z
 _atom_site_occupancy
  Gd  Gd0  1  0.69841601  0.65564898  0.68478578  1
  Gd  Gd1  1  0.19841601  0.34435102  0.31521422  1
  Zr  Zr2  1  0.70825064  0.81229990  0.22381020  1
  Zr  Zr3  1  0.20825064  0.18770010  0.77618980  1
  F  F4  1  0.88690391  0.45135587  0.47584854  1
  F  F5  1  0.38690391  0.54864413  0.52415146  1
  F  F6  1  0.42419900  0.92588862  0.76750971  1
  F  F7  1  0.92419900  0.07411138  0.23249029  1
  F  F8  1  0.94459434  0.96410962  0.76097151  1
  F  F9  1  0.44459434  0.03589038  0.23902849  1
  F  F10  1  0.99680028  0.45379547  0.78649790  1
  F  F11  1  0.49680028  0.54620453  0.21350210  1
  F  F12  1  0.70405214  0.75570154  0.97666631  1
  F  F13  1  0.20405214  0.24429846  0.02333369  1
  F  F14  1  0.71174790  0.85938593  0.47180185  1
  F  F15  1  0.21174790  0.14061407  0.52819815  1
  F  F16  1  0.50139578  0.37708628  0.78193927  1
  F  F17  1  0.00139578  0.62291372  0.21806073  1
