# generated using pymatgen
data_Ho2(Ga3Ir)3
_symmetry_space_group_name_H-M   'P 1'
_cell_length_a   7.59810475
_cell_length_b   7.59810475
_cell_length_c   9.51140769
_cell_angle_alpha   90.00000000
_cell_angle_beta   90.00000000
_cell_angle_gamma   119.98686302
_symmetry_Int_Tables_number   1
_chemical_formula_structural   Ho2(Ga3Ir)3
_chemical_formula_sum   'Ho4 Ga18 Ir6'
_cell_volume   475.60176482
_cell_formula_units_Z   2
loop_
 _symmetry_equiv_pos_site_id
 _symmetry_equiv_pos_as_xyz
  1  'x, y, z'
loop_
 _atom_site_type_symbol
 _atom_site_label
 _atom_site_symmetry_multiplicity
 _atom_site_fract_x
 _atom_site_fract_y
 _atom_site_fract_z
 _atom_site_occupancy
  Ho  Ho0  1  0.66791947  0.99713449  0.25000000  1
  Ho  Ho1  1  0.33208053  0.00286551  0.75000000  1
  Ho  Ho2  1  0.99713449  0.66791947  0.25000000  1
  Ho  Ho3  1  0.00286551  0.33208053  0.75000000  1
  Ga  Ga4  1  0.12622043  0.12622043  0.25000000  1
  Ga  Ga5  1  0.87377957  0.87377957  0.75000000  1
  Ga  Ga6  1  0.33384725  0.99925127  0.07937154  1
  Ga  Ga7  1  0.66615275  0.00074873  0.92062846  1
  Ga  Ga8  1  0.66615275  0.00074873  0.57937154  1
  Ga  Ga9  1  0.99925127  0.33384725  0.42062846  1
  Ga  Ga10  1  0.33384725  0.99925127  0.42062846  1
  Ga  Ga11  1  0.00074873  0.66615275  0.57937154  1
  Ga  Ga12  1  0.00074873  0.66615275  0.92062846  1
  Ga  Ga13  1  0.99925127  0.33384725  0.07937154  1
  Ga  Ga14  1  0.33287305  0.33287305  0.56357939  1
  Ga  Ga15  1  0.66712695  0.66712695  0.43642061  1
  Ga  Ga16  1  0.66712695  0.66712695  0.06357939  1
  Ga  Ga17  1  0.33287305  0.33287305  0.93642061  1
  Ga  Ga18  1  0.54635790  0.33849384  0.25000000  1
  Ga  Ga19  1  0.45364210  0.66150616  0.75000000  1
  Ga  Ga20  1  0.33849384  0.54635790  0.25000000  1
  Ga  Ga21  1  0.66150616  0.45364210  0.75000000  1
  Ir  Ir22  1  0.32838004  0.67161996  -0.00000000  1
  Ir  Ir23  1  0.67161996  0.32838004  -0.00000000  1
  Ir  Ir24  1  0.67161996  0.32838004  0.50000000  1
  Ir  Ir25  1  0.32838004  0.67161996  0.50000000  1
  Ir  Ir26  1  0.00000000  -0.00000000  -0.00000000  1
  Ir  Ir27  1  0.00000000  -0.00000000  0.50000000  1
