# generated using pymatgen
data_AsH3C(SF2)3
_symmetry_space_group_name_H-M   'P 1'
_cell_length_a   8.21289345
_cell_length_b   11.82474979
_cell_length_c   15.19635518
_cell_angle_alpha   107.95864245
_cell_angle_beta   99.23478960
_cell_angle_gamma   104.06891237
_symmetry_Int_Tables_number   1
_chemical_formula_structural   AsH3C(SF2)3
_chemical_formula_sum   'As6 H18 C6 S18 F36'
_cell_volume   1316.71628332
_cell_formula_units_Z   6
loop_
 _symmetry_equiv_pos_site_id
 _symmetry_equiv_pos_as_xyz
  1  'x, y, z'
loop_
 _atom_site_type_symbol
 _atom_site_label
 _atom_site_symmetry_multiplicity
 _atom_site_fract_x
 _atom_site_fract_y
 _atom_site_fract_z
 _atom_site_occupancy
  As  As0  1  0.00000000  0.50000000  0.00000000  1
  As  As1  1  0.35205705  0.80971718  0.69038620  1
  As  As2  1  0.00000000  0.00000000  0.00000000  1
  As  As3  1  0.34084037  0.29239701  0.64750449  1
  As  As4  1  0.65915963  0.70760299  0.35249551  1
  As  As5  1  0.64794295  0.19028282  0.30961380  1
  H  H6  1  0.99787947  0.53076800  0.26017519  1
  H  H7  1  0.14110898  0.83267452  0.16945824  1
  H  H8  1  0.33319402  0.78804389  0.90387270  1
  H  H9  1  0.35240945  0.85076107  0.43290753  1
  H  H10  1  0.06622594  0.06887259  0.40052709  1
  H  H11  1  0.25929146  0.50444812  0.49923192  1
  H  H12  1  0.25486608  0.28136693  0.24002414  1
  H  H13  1  0.37589810  0.14270759  0.83453320  1
  H  H14  1  0.61562390  0.56312012  0.93929877  1
  H  H15  1  0.38437610  0.43687988  0.06070123  1
  H  H16  1  0.62410190  0.85729241  0.16546680  1
  H  H17  1  0.74513392  0.71863307  0.75997586  1
  H  H18  1  0.74070854  0.49555188  0.50076908  1
  H  H19  1  0.93377406  0.93112741  0.59947291  1
  H  H20  1  0.64759055  0.14923893  0.56709247  1
  H  H21  1  0.66680598  0.21195611  0.09612730  1
  H  H22  1  0.85889102  0.16732548  0.83054176  1
  H  H23  1  0.00212053  0.46923200  0.73982481  1
  C  C24  1  0.18525757  0.91701726  0.33341087  1
  C  C25  1  0.16362609  0.43632750  0.33309542  1
  C  C26  1  0.47772165  0.26499453  0.99660256  1
  C  C27  1  0.52227835  0.73500547  0.00339744  1
  C  C28  1  0.83637391  0.56367250  0.66690458  1
  C  C29  1  0.81474243  0.08298274  0.66658913  1
  S  S30  1  0.06188195  0.54837104  0.35319733  1
  S  S31  1  0.25929719  0.93212280  0.44905763  1
  S  S32  1  0.40812360  0.83657747  0.99967414  1
  S  S33  1  0.23021500  0.81170631  0.24309487  1
  S  S34  1  0.14620921  0.34479244  0.21881153  1
  S  S35  1  0.06147533  0.00523082  0.30854170  1
  S  S36  1  0.34401473  0.24470829  0.89090171  1
  S  S37  1  0.27403294  0.41018010  0.42577686  1
  S  S38  1  0.49839210  0.61096475  0.90266626  1
  S  S39  1  0.50160790  0.38903525  0.09733374  1
  S  S40  1  0.72596706  0.58981990  0.57422314  1
  S  S41  1  0.65598527  0.75529171  0.10909829  1
  S  S42  1  0.93852467  0.99476918  0.69145830  1
  S  S43  1  0.85379079  0.65520756  0.78118847  1
  S  S44  1  0.76978500  0.18829369  0.75690513  1
  S  S45  1  0.59187640  0.16342253  0.00032586  1
  S  S46  1  0.74070281  0.06787720  0.55094237  1
  S  S47  1  0.93811805  0.45162896  0.64680267  1
  F  F48  1  0.13411537  0.94592417  0.92706354  1
  F  F49  1  0.06389598  0.50999673  0.89524549  1
  F  F50  1  0.04296767  0.35556992  0.97851471  1
  F  F51  1  0.14435190  0.82952043  0.66631845  1
  F  F52  1  0.07710554  0.93383019  0.08231588  1
  F  F53  1  0.28197600  0.72244212  0.76222246  1
  F  F54  1  0.42518719  0.94939063  0.79294518  1
  F  F55  1  0.27562424  0.66912139  0.58796063  1
  F  F56  1  0.18716648  0.31220713  0.71663071  1
  F  F57  1  0.42340801  0.89572402  0.61929928  1
  F  F58  1  0.16627289  0.20441887  0.54319751  1
  F  F59  1  0.21827386  0.58043417  0.06890819  1
  F  F60  1  0.34108526  0.43203181  0.62718312  1
  F  F61  1  0.55852251  0.78728793  0.71385311  1
  F  F62  1  0.34086956  0.15286642  0.66838289  1
  F  F63  1  0.17139102  0.14212117  0.06392249  1
  F  F64  1  0.50724031  0.72889121  0.42267376  1
  F  F65  1  0.51423776  0.38057294  0.75134434  1
  F  F66  1  0.48576224  0.61942706  0.24865566  1
  F  F67  1  0.49275969  0.27110879  0.57732624  1
  F  F68  1  0.82860898  0.85787883  0.93607751  1
  F  F69  1  0.65913044  0.84713358  0.33161711  1
  F  F70  1  0.44147749  0.21271207  0.28614689  1
  F  F71  1  0.65891474  0.56796819  0.37281688  1
  F  F72  1  0.78172614  0.41956583  0.93109181  1
  F  F73  1  0.83372711  0.79558113  0.45680249  1
  F  F74  1  0.57659199  0.10427598  0.38070072  1
  F  F75  1  0.81283352  0.68779287  0.28336929  1
  F  F76  1  0.72437576  0.33087861  0.41203937  1
  F  F77  1  0.57481281  0.05060937  0.20705482  1
  F  F78  1  0.71802400  0.27755788  0.23777754  1
  F  F79  1  0.92289446  0.06616981  0.91768412  1
  F  F80  1  0.85564810  0.17047957  0.33368155  1
  F  F81  1  0.95703233  0.64443008  0.02148529  1
  F  F82  1  0.93610402  0.49000327  0.10475451  1
  F  F83  1  0.86588463  0.05407583  0.07293646  1
