# generated using pymatgen
data_FeAgBr4
_symmetry_space_group_name_H-M   'P 1'
_cell_length_a   7.27720040
_cell_length_b   7.69410459
_cell_length_c   14.35302451
_cell_angle_alpha   92.89299617
_cell_angle_beta   90.00000000
_cell_angle_gamma   90.00000000
_symmetry_Int_Tables_number   1
_chemical_formula_structural   FeAgBr4
_chemical_formula_sum   'Fe4 Ag4 Br16'
_cell_volume   802.62373882
_cell_formula_units_Z   4
loop_
 _symmetry_equiv_pos_site_id
 _symmetry_equiv_pos_as_xyz
  1  'x, y, z'
loop_
 _atom_site_type_symbol
 _atom_site_label
 _atom_site_symmetry_multiplicity
 _atom_site_fract_x
 _atom_site_fract_y
 _atom_site_fract_z
 _atom_site_occupancy
  Fe  Fe0  1  0.67555151  0.70795086  0.89993322  1
  Fe  Fe1  1  0.32444849  0.29204914  0.10006678  1
  Fe  Fe2  1  0.17555151  0.29204914  0.60006678  1
  Fe  Fe3  1  0.82444849  0.70795086  0.39993322  1
  Ag  Ag4  1  0.98570492  0.84440273  0.63498099  1
  Ag  Ag5  1  0.01429508  0.15559727  0.36501901  1
  Ag  Ag6  1  0.48570492  0.15559727  0.86501901  1
  Ag  Ag7  1  0.51429508  0.84440273  0.13498099  1
  Br  Br8  1  0.68619647  0.44016356  0.81334784  1
  Br  Br9  1  0.31380353  0.55983644  0.18665216  1
  Br  Br10  1  0.18619647  0.55983644  0.68665216  1
  Br  Br11  1  0.81380353  0.44016356  0.31334784  1
  Br  Br12  1  0.82016420  0.92639148  0.81299674  1
  Br  Br13  1  0.17983580  0.07360852  0.18700326  1
  Br  Br14  1  0.32016420  0.07360852  0.68700326  1
  Br  Br15  1  0.67983580  0.92639148  0.31299674  1
  Br  Br16  1  0.67980674  0.69174871  0.54596684  1
  Br  Br17  1  0.32019326  0.30825129  0.45403316  1
  Br  Br18  1  0.17980674  0.30825129  0.95403316  1
  Br  Br19  1  0.82019326  0.69174871  0.04596684  1
  Br  Br20  1  0.37037676  0.80949538  0.92785477  1
  Br  Br21  1  0.62962324  0.19050462  0.07214523  1
  Br  Br22  1  0.87037676  0.19050462  0.57214523  1
  Br  Br23  1  0.12962324  0.80949538  0.42785477  1
