# generated using pymatgen
data_CuCO3
_symmetry_space_group_name_H-M   'P 1'
_cell_length_a   6.21769577
_cell_length_b   6.80415749
_cell_length_c   6.72844989
_cell_angle_alpha   90.00000000
_cell_angle_beta   79.13584937
_cell_angle_gamma   90.00000000
_symmetry_Int_Tables_number   1
_chemical_formula_structural   CuCO3
_chemical_formula_sum   'Cu4 C4 O12'
_cell_volume   279.55310187
_cell_formula_units_Z   4
loop_
 _symmetry_equiv_pos_site_id
 _symmetry_equiv_pos_as_xyz
  1  'x, y, z'
loop_
 _atom_site_type_symbol
 _atom_site_label
 _atom_site_symmetry_multiplicity
 _atom_site_fract_x
 _atom_site_fract_y
 _atom_site_fract_z
 _atom_site_occupancy
  Cu  Cu0  1  0.25057077  0.98701062  0.01195380  1
  Cu  Cu1  1  0.24942923  0.48701062  0.48804620  1
  Cu  Cu2  1  0.75057077  0.51298938  0.51195380  1
  Cu  Cu3  1  0.74942923  0.01298938  0.98804620  1
  C  C4  1  0.06568108  0.33532011  0.19437357  1
  C  C5  1  0.43431892  0.83532011  0.30562643  1
  C  C6  1  0.56568108  0.16467989  0.69437357  1
  C  C7  1  0.93431892  0.66467989  0.80562643  1
  O  O8  1  0.02713536  0.18996441  0.08182521  1
  O  O9  1  0.24222217  0.85138845  0.26064231  1
  O  O10  1  0.25777783  0.35138845  0.23935769  1
  O  O11  1  0.08843154  0.53838878  0.74671661  1
  O  O12  1  0.47286464  0.68996441  0.41817479  1
  O  O13  1  0.41156846  0.03838878  0.75328339  1
  O  O14  1  0.58843154  0.96161122  0.24671661  1
  O  O15  1  0.52713536  0.31003559  0.58182521  1
  O  O16  1  0.91156846  0.46161122  0.25328339  1
  O  O17  1  0.74222217  0.64861155  0.76064231  1
  O  O18  1  0.75777783  0.14861155  0.73935769  1
  O  O19  1  0.97286464  0.81003559  0.91817479  1
