# generated using pymatgen
data_DyMg(BO2)5
_symmetry_space_group_name_H-M   'P 1'
_cell_length_a   7.65540113
_cell_length_b   8.62902257
_cell_length_c   9.39228443
_cell_angle_alpha   93.57392989
_cell_angle_beta   90.00000000
_cell_angle_gamma   90.00000000
_symmetry_Int_Tables_number   1
_chemical_formula_structural   DyMg(BO2)5
_chemical_formula_sum   'Dy4 Mg4 B20 O40'
_cell_volume   619.23479640
_cell_formula_units_Z   4
loop_
 _symmetry_equiv_pos_site_id
 _symmetry_equiv_pos_as_xyz
  1  'x, y, z'
loop_
 _atom_site_type_symbol
 _atom_site_label
 _atom_site_symmetry_multiplicity
 _atom_site_fract_x
 _atom_site_fract_y
 _atom_site_fract_z
 _atom_site_occupancy
  Dy  Dy0  1  0.80816878  0.81270744  0.75862721  1
  Dy  Dy1  1  0.19183122  0.18729256  0.24137279  1
  Dy  Dy2  1  0.30816878  0.68729256  0.74137279  1
  Dy  Dy3  1  0.69183122  0.31270744  0.25862721  1
  Mg  Mg4  1  0.09090090  0.10121365  0.62809406  1
  Mg  Mg5  1  0.90909910  0.89878635  0.37190594  1
  Mg  Mg6  1  0.59090090  0.39878635  0.87190594  1
  Mg  Mg7  1  0.40909910  0.60121365  0.12809406  1
  B  B8  1  0.17336766  0.98337229  0.89618205  1
  B  B9  1  0.82663234  0.01662771  0.10381795  1
  B  B10  1  0.67336766  0.51662771  0.60381795  1
  B  B11  1  0.32663234  0.48337229  0.39618205  1
  B  B12  1  0.42395019  0.08255862  0.74166569  1
  B  B13  1  0.57604981  0.91744138  0.25833431  1
  B  B14  1  0.92395019  0.41744138  0.75833431  1
  B  B15  1  0.07604981  0.58255862  0.24166569  1
  B  B16  1  0.18761026  0.43430757  0.91168095  1
  B  B17  1  0.81238974  0.56569243  0.08831905  1
  B  B18  1  0.68761026  0.06569243  0.58831905  1
  B  B19  1  0.31238974  0.93430757  0.41168095  1
  B  B20  1  0.53173847  0.72244194  0.44451408  1
  B  B21  1  0.46826153  0.27755806  0.55548592  1
  B  B22  1  0.03173847  0.77755806  0.05548592  1
  B  B23  1  0.96826153  0.22244194  0.94451408  1
  B  B24  1  0.40184418  0.15860463  0.00540162  1
  B  B25  1  0.59815582  0.84139537  0.99459838  1
  B  B26  1  0.90184418  0.34139537  0.49459838  1
  B  B27  1  0.09815582  0.65860463  0.50540162  1
  O  O28  1  0.08712006  0.49368297  0.80572121  1
  O  O29  1  0.91287994  0.50631703  0.19427879  1
  O  O30  1  0.58712006  0.00631703  0.69427879  1
  O  O31  1  0.41287994  0.99368297  0.30572121  1
  O  O32  1  0.12675079  0.31729943  0.99045056  1
  O  O33  1  0.87324921  0.68270057  0.00954944  1
  O  O34  1  0.62675079  0.18270057  0.50954944  1
  O  O35  1  0.37324921  0.81729943  0.49045056  1
  O  O36  1  0.60943880  0.67519679  0.58124778  1
  O  O37  1  0.39056120  0.32480321  0.41875222  1
  O  O38  1  0.10943880  0.82480321  0.91875222  1
  O  O39  1  0.89056120  0.17519679  0.08124778  1
  O  O40  1  0.28946829  0.96476127  0.76913411  1
  O  O41  1  0.71053171  0.03523873  0.23086589  1
  O  O42  1  0.78946829  0.53523873  0.73086589  1
  O  O43  1  0.21053171  0.46476127  0.26913411  1
  O  O44  1  0.34929212  0.50355195  0.92621032  1
  O  O45  1  0.65070788  0.49644805  0.07378968  1
  O  O46  1  0.84929212  0.99644805  0.57378968  1
  O  O47  1  0.15070788  0.00355195  0.42621032  1
  O  O48  1  0.22880103  0.54747716  0.52117494  1
  O  O49  1  0.77119897  0.45252284  0.47882506  1
  O  O50  1  0.72880103  0.95252284  0.97882506  1
  O  O51  1  0.27119897  0.04747716  0.02117494  1
  O  O52  1  0.35012026  0.18148489  0.63486419  1
  O  O53  1  0.64987974  0.81851511  0.36513581  1
  O  O54  1  0.85012026  0.31851511  0.86513581  1
  O  O55  1  0.14987974  0.68148489  0.13486419  1
  O  O56  1  0.46942666  0.18295118  0.87289617  1
  O  O57  1  0.53057334  0.81704882  0.12710383  1
  O  O58  1  0.96942666  0.31704882  0.62710383  1
  O  O59  1  0.03057334  0.68295118  0.37289617  1
  O  O60  1  0.04743999  0.74166029  0.62504772  1
  O  O61  1  0.95256001  0.25833971  0.37495228  1
  O  O62  1  0.54743999  0.75833971  0.87495228  1
  O  O63  1  0.45256001  0.24166029  0.12504772  1
  O  O64  1  0.02817736  0.08515989  0.85191129  1
  O  O65  1  0.97182264  0.91484011  0.14808871  1
  O  O66  1  0.52817736  0.41484011  0.64808871  1
  O  O67  1  0.47182264  0.58515989  0.35191129  1
