# generated using pymatgen
data_DyGe2Pd
_symmetry_space_group_name_H-M   'P 1'
_cell_length_a   4.31073852
_cell_length_b   8.83723600
_cell_length_c   9.60942483
_cell_angle_alpha   117.37557237
_cell_angle_beta   102.96156501
_cell_angle_gamma   90.00000000
_symmetry_Int_Tables_number   1
_chemical_formula_structural   DyGe2Pd
_chemical_formula_sum   'Dy4 Ge8 Pd4'
_cell_volume   314.53484273
_cell_formula_units_Z   4
loop_
 _symmetry_equiv_pos_site_id
 _symmetry_equiv_pos_as_xyz
  1  'x, y, z'
loop_
 _atom_site_type_symbol
 _atom_site_label
 _atom_site_symmetry_multiplicity
 _atom_site_fract_x
 _atom_site_fract_y
 _atom_site_fract_z
 _atom_site_occupancy
  Dy  Dy0  1  0.20299960  0.20299960  0.40599920  1
  Dy  Dy1  1  0.79700040  0.79700040  0.59400080  1
  Dy  Dy2  1  1.00000000  0.76319110  1.00000000  1
  Dy  Dy3  1  0.00000000  0.23680890  0.00000000  1
  Ge  Ge4  1  0.57452921  0.07452921  0.14905842  1
  Ge  Ge5  1  0.42547079  0.92547079  0.85094158  1
  Ge  Ge6  1  0.19900379  0.84990608  0.39800759  1
  Ge  Ge7  1  0.80099621  0.15009392  0.60199241  1
  Ge  Ge8  1  0.19900379  0.54810151  0.39800759  1
  Ge  Ge9  1  0.80099621  0.45189849  0.60199241  1
  Ge  Ge10  1  0.42475026  0.42475026  0.84950051  1
  Ge  Ge11  1  0.57524974  0.57524974  0.15049949  1
  Pd  Pd12  1  0.35319247  0.10283159  0.70638495  1
  Pd  Pd13  1  0.64680753  0.89716841  0.29361505  1
  Pd  Pd14  1  0.35319247  0.60355336  0.70638495  1
  Pd  Pd15  1  0.64680753  0.39644664  0.29361505  1
