# generated using pymatgen
data_CsP7
_symmetry_space_group_name_H-M   'P 1'
_cell_length_a   9.59801181
_cell_length_b   9.90909393
_cell_length_c   9.77334865
_cell_angle_alpha   90.00000000
_cell_angle_beta   90.00000000
_cell_angle_gamma   90.00000000
_symmetry_Int_Tables_number   1
_chemical_formula_structural   CsP7
_chemical_formula_sum   'Cs4 P28'
_cell_volume   929.51973960
_cell_formula_units_Z   4
loop_
 _symmetry_equiv_pos_site_id
 _symmetry_equiv_pos_as_xyz
  1  'x, y, z'
loop_
 _atom_site_type_symbol
 _atom_site_label
 _atom_site_symmetry_multiplicity
 _atom_site_fract_x
 _atom_site_fract_y
 _atom_site_fract_z
 _atom_site_occupancy
  Cs  Cs0  1  0.28460798  0.74737944  0.74371757  1
  Cs  Cs1  1  0.71539202  0.25262056  0.24371757  1
  Cs  Cs2  1  0.71539202  0.24737944  0.74371757  1
  Cs  Cs3  1  0.28460798  0.75262056  0.24371757  1
  P  P4  1  0.66715866  0.86594083  0.61544574  1
  P  P5  1  0.33284134  0.13405917  0.11544574  1
  P  P6  1  0.33284134  0.36594083  0.61544574  1
  P  P7  1  0.66715866  0.63405917  0.11544574  1
  P  P8  1  0.88712639  0.68120814  0.84042235  1
  P  P9  1  0.11287361  0.31879186  0.34042235  1
  P  P10  1  0.11287361  0.18120814  0.84042235  1
  P  P11  1  0.88712639  0.81879186  0.34042235  1
  P  P12  1  0.93100378  0.83648527  0.99887306  1
  P  P13  1  0.06899622  0.16351473  0.49887306  1
  P  P14  1  0.06899622  0.33648527  0.99887306  1
  P  P15  1  0.93100378  0.66351473  0.49887306  1
  P  P16  1  0.59090682  0.81608797  0.00087195  1
  P  P17  1  0.40909318  0.18391203  0.50087195  1
  P  P18  1  0.40909318  0.31608797  0.00087195  1
  P  P19  1  0.59090682  0.68391203  0.50087195  1
  P  P20  1  0.75165421  0.96643502  0.99957876  1
  P  P21  1  0.24834579  0.03356498  0.49957876  1
  P  P22  1  0.24834579  0.46643502  0.99957876  1
  P  P23  1  0.75165421  0.53356498  0.49957876  1
  P  P24  1  0.88832642  0.81782569  0.65861135  1
  P  P25  1  0.11167358  0.18217431  0.15861135  1
  P  P26  1  0.11167358  0.31782569  0.65861135  1
  P  P27  1  0.88832642  0.68217431  0.15861135  1
  P  P28  1  0.66574925  0.63387450  0.88527922  1
  P  P29  1  0.33425075  0.36612550  0.38527922  1
  P  P30  1  0.33425075  0.13387450  0.88527922  1
  P  P31  1  0.66574925  0.86612550  0.38527922  1
