# generated using pymatgen
data_Dy6Al43V4
_symmetry_space_group_name_H-M   'P 1'
_cell_length_a   11.00101103
_cell_length_b   11.00101103
_cell_length_c   17.68081168
_cell_angle_alpha   90.00000000
_cell_angle_beta   90.00000000
_cell_angle_gamma   120.00000066
_symmetry_Int_Tables_number   1
_chemical_formula_structural   Dy6Al43V4
_chemical_formula_sum   'Dy12 Al86 V8'
_cell_volume   1853.09646442
_cell_formula_units_Z   2
loop_
 _symmetry_equiv_pos_site_id
 _symmetry_equiv_pos_as_xyz
  1  'x, y, z'
loop_
 _atom_site_type_symbol
 _atom_site_label
 _atom_site_symmetry_multiplicity
 _atom_site_fract_x
 _atom_site_fract_y
 _atom_site_fract_z
 _atom_site_occupancy
  Dy  Dy0  1  0.47004628  0.47004628  0.90426493  1
  Dy  Dy1  1  0.52995372  0.52995372  0.09573507  1
  Dy  Dy2  1  1.00000000  0.52995372  0.90426493  1
  Dy  Dy3  1  0.52995372  0.52995372  0.40426493  1
  Dy  Dy4  1  1.00000000  0.52995372  0.59573507  1
  Dy  Dy5  1  0.00000000  0.47004628  0.09573507  1
  Dy  Dy6  1  0.47004628  0.47004628  0.59573507  1
  Dy  Dy7  1  0.00000000  0.47004628  0.40426493  1
  Dy  Dy8  1  0.52995372  1.00000000  0.90426493  1
  Dy  Dy9  1  0.47004628  0.00000000  0.09573507  1
  Dy  Dy10  1  0.47004628  0.00000000  0.40426493  1
  Dy  Dy11  1  0.52995372  1.00000000  0.59573507  1
  Al  Al12  1  0.85379024  0.45135989  0.75000000  1
  Al  Al13  1  0.14620976  0.54864011  0.25000000  1
  Al  Al14  1  0.59756965  0.14620976  0.75000000  1
  Al  Al15  1  0.40243035  0.54864011  0.75000000  1
  Al  Al16  1  0.40243035  0.85379024  0.25000000  1
  Al  Al17  1  0.59756965  0.45135989  0.25000000  1
  Al  Al18  1  0.54864011  0.40243035  0.75000000  1
  Al  Al19  1  0.45135989  0.85379024  0.75000000  1
  Al  Al20  1  0.45135989  0.59756965  0.25000000  1
  Al  Al21  1  0.54864011  0.14620976  0.25000000  1
  Al  Al22  1  0.14620976  0.59756965  0.75000000  1
  Al  Al23  1  0.85379024  0.40243035  0.25000000  1
  Al  Al24  1  0.84441501  0.84441501  0.38428832  1
  Al  Al25  1  0.15558499  0.15558499  0.61571168  1
  Al  Al26  1  1.00000000  0.15558499  0.38428832  1
  Al  Al27  1  0.15558499  0.15558499  0.88428832  1
  Al  Al28  1  1.00000000  0.15558499  0.11571168  1
  Al  Al29  1  0.00000000  0.84441501  0.61571168  1
  Al  Al30  1  0.84441501  0.84441501  0.11571168  1
  Al  Al31  1  0.00000000  0.84441501  0.88428832  1
  Al  Al32  1  0.15558499  1.00000000  0.38428832  1
  Al  Al33  1  0.84441501  0.00000000  0.61571168  1
  Al  Al34  1  0.84441501  0.00000000  0.88428832  1
  Al  Al35  1  0.15558499  1.00000000  0.11571168  1
  Al  Al36  1  0.75318241  0.24681759  -0.00000000  1
  Al  Al37  1  0.24681759  0.75318241  -0.00000000  1
  Al  Al38  1  0.49363518  0.24681759  -0.00000000  1
  Al  Al39  1  0.24681759  0.75318241  0.50000000  1
  Al  Al40  1  0.50636482  0.75318241  0.50000000  1
  Al  Al41  1  0.50636482  0.75318241  -0.00000000  1
  Al  Al42  1  0.75318241  0.24681759  0.50000000  1
  Al  Al43  1  0.49363518  0.24681759  0.50000000  1
  Al  Al44  1  0.75318241  0.50636482  -0.00000000  1
  Al  Al45  1  0.24681759  0.49363518  -0.00000000  1
  Al  Al46  1  0.24681759  0.49363518  0.50000000  1
  Al  Al47  1  0.75318241  0.50636482  0.50000000  1
  Al  Al48  1  0.85517005  0.85517005  0.75000000  1
  Al  Al49  1  0.14482995  0.14482995  0.25000000  1
  Al  Al50  1  1.00000000  0.14482995  0.75000000  1
  Al  Al51  1  0.00000000  0.85517005  0.25000000  1
  Al  Al52  1  0.14482995  1.00000000  0.75000000  1
  Al  Al53  1  0.85517005  0.00000000  0.25000000  1
  Al  Al54  1  0.66666700  0.33333300  0.87227976  1
  Al  Al55  1  0.33333300  0.66666700  0.12772024  1
  Al  Al56  1  0.33333300  0.66666700  0.37227976  1
  Al  Al57  1  0.33333300  0.66666700  0.62772024  1
  Al  Al58  1  0.66666700  0.33333300  0.62772024  1
  Al  Al59  1  0.66666700  0.33333300  0.37227976  1
  Al  Al60  1  0.66666700  0.33333300  0.12772024  1
  Al  Al61  1  0.33333300  0.66666700  0.87227976  1
  Al  Al62  1  0.74707487  0.74707487  0.97007271  1
  Al  Al63  1  0.25292513  0.25292513  0.02992729  1
  Al  Al64  1  1.00000000  0.25292513  0.97007271  1
  Al  Al65  1  0.25292513  0.25292513  0.47007271  1
  Al  Al66  1  1.00000000  0.25292513  0.52992729  1
  Al  Al67  1  0.00000000  0.74707487  0.02992729  1
  Al  Al68  1  0.74707487  0.74707487  0.52992729  1
  Al  Al69  1  0.00000000  0.74707487  0.47007271  1
  Al  Al70  1  0.25292513  1.00000000  0.97007271  1
  Al  Al71  1  0.74707487  0.00000000  0.02992729  1
  Al  Al72  1  0.74707487  0.00000000  0.47007271  1
  Al  Al73  1  0.25292513  1.00000000  0.52992729  1
  Al  Al74  1  0.84242829  0.23430863  0.83430837  1
  Al  Al75  1  0.15757171  0.76569137  0.16569163  1
  Al  Al76  1  0.39188034  0.15757171  0.83430837  1
  Al  Al77  1  0.15757171  0.76569137  0.33430837  1
  Al  Al78  1  0.60811966  0.76569137  0.66569163  1
  Al  Al79  1  0.60811966  0.84242829  0.16569163  1
  Al  Al80  1  0.84242829  0.23430863  0.66569163  1
  Al  Al81  1  0.39188034  0.23430863  0.33430837  1
  Al  Al82  1  0.76569137  0.60811966  0.83430837  1
  Al  Al83  1  0.60811966  0.84242829  0.33430837  1
  Al  Al84  1  0.23430863  0.84242829  0.66569163  1
  Al  Al85  1  0.23430863  0.39188034  0.16569163  1
  Al  Al86  1  0.39188034  0.15757171  0.66569163  1
  Al  Al87  1  0.76569137  0.15757171  0.33430837  1
  Al  Al88  1  0.39188034  0.23430863  0.16569163  1
  Al  Al89  1  0.60811966  0.76569137  0.83430837  1
  Al  Al90  1  0.23430863  0.39188034  0.33430837  1
  Al  Al91  1  0.76569137  0.15757171  0.16569163  1
  Al  Al92  1  0.76569137  0.60811966  0.66569163  1
  Al  Al93  1  0.23430863  0.84242829  0.83430837  1
  Al  Al94  1  0.15757171  0.39188034  0.66569163  1
  Al  Al95  1  0.84242829  0.60811966  0.33430837  1
  Al  Al96  1  0.84242829  0.60811966  0.16569163  1
  Al  Al97  1  0.15757171  0.39188034  0.83430837  1
  V  V98  1  -0.00000000  -0.00000000  -0.00000000  1
  V  V99  1  -0.00000000  -0.00000000  0.50000000  1
  V  V100  1  0.26971157  0.26971157  0.75000000  1
  V  V101  1  0.73028843  0.73028843  0.25000000  1
  V  V102  1  1.00000000  0.73028843  0.75000000  1
  V  V103  1  0.00000000  0.26971157  0.25000000  1
  V  V104  1  0.73028843  1.00000000  0.75000000  1
  V  V105  1  0.26971157  0.00000000  0.25000000  1
