# generated using pymatgen
data_ErAsSe
_symmetry_space_group_name_H-M   'P 1'
_cell_length_a   3.89399267
_cell_length_b   3.91364704
_cell_length_c   17.44717291
_cell_angle_alpha   90.00000000
_cell_angle_beta   90.00000000
_cell_angle_gamma   90.00446108
_symmetry_Int_Tables_number   1
_chemical_formula_structural   ErAsSe
_chemical_formula_sum   'Er4 As4 Se4'
_cell_volume   265.88990497
_cell_formula_units_Z   4
loop_
 _symmetry_equiv_pos_site_id
 _symmetry_equiv_pos_as_xyz
  1  'x, y, z'
loop_
 _atom_site_type_symbol
 _atom_site_label
 _atom_site_symmetry_multiplicity
 _atom_site_fract_x
 _atom_site_fract_y
 _atom_site_fract_z
 _atom_site_occupancy
  Er  Er0  1  0.24957339  0.72929495  0.63938286  1
  Er  Er1  1  0.75042661  0.27070505  0.36061714  1
  Er  Er2  1  0.25042661  0.77070505  0.13938286  1
  Er  Er3  1  0.74957339  0.22929495  0.86061714  1
  As  As4  1  0.75082351  0.71632781  0.99783037  1
  As  As5  1  0.24917649  0.28367219  0.00216963  1
  As  As6  1  0.74917649  0.78367219  0.49783037  1
  As  As7  1  0.25082351  0.21632781  0.50216963  1
  Se  Se8  1  0.24977599  0.73102009  0.81220990  1
  Se  Se9  1  0.75022401  0.26897991  0.18779010  1
  Se  Se10  1  0.25022401  0.76897991  0.31220990  1
  Se  Se11  1  0.74977599  0.23102009  0.68779010  1
