# generated using pymatgen
data_DyMnFeO5
_symmetry_space_group_name_H-M   'P 1'
_cell_length_a   5.79153437
_cell_length_b   7.34814654
_cell_length_c   8.61101683
_cell_angle_alpha   90.00000000
_cell_angle_beta   90.00000000
_cell_angle_gamma   90.00000000
_symmetry_Int_Tables_number   1
_chemical_formula_structural   DyMnFeO5
_chemical_formula_sum   'Dy4 Mn4 Fe4 O20'
_cell_volume   366.45941559
_cell_formula_units_Z   4
loop_
 _symmetry_equiv_pos_site_id
 _symmetry_equiv_pos_as_xyz
  1  'x, y, z'
loop_
 _atom_site_type_symbol
 _atom_site_label
 _atom_site_symmetry_multiplicity
 _atom_site_fract_x
 _atom_site_fract_y
 _atom_site_fract_z
 _atom_site_occupancy
  Dy  Dy0  1  0.50000000  0.36601989  0.33078202  1
  Dy  Dy1  1  0.50000000  0.63398011  0.66921798  1
  Dy  Dy2  1  0.50000000  0.13398011  0.83078202  1
  Dy  Dy3  1  0.50000000  0.86601989  0.16921798  1
  Mn  Mn4  1  0.25077424  -0.00000000  0.50000000  1
  Mn  Mn5  1  0.74922576  -0.00000000  0.50000000  1
  Mn  Mn6  1  0.74922576  0.50000000  0.00000000  1
  Mn  Mn7  1  0.25077424  0.50000000  0.00000000  1
  Fe  Fe8  1  -0.00000000  0.10712248  0.14615725  1
  Fe  Fe9  1  0.00000000  0.89287752  0.85384275  1
  Fe  Fe10  1  -0.00000000  0.39287752  0.64615725  1
  Fe  Fe11  1  -0.00000000  0.60712248  0.35384275  1
  O  O12  1  0.50000000  0.33825086  0.05738572  1
  O  O13  1  0.50000000  0.66174914  0.94261428  1
  O  O14  1  0.50000000  0.16174914  0.55738572  1
  O  O15  1  0.50000000  0.83825086  0.44261428  1
  O  O16  1  0.23324064  -0.00000000  -0.00000000  1
  O  O17  1  0.76675936  -0.00000000  -0.00000000  1
  O  O18  1  0.76675936  0.50000000  0.50000000  1
  O  O19  1  0.23324064  0.50000000  0.50000000  1
  O  O20  1  0.25961696  0.10586075  0.29501966  1
  O  O21  1  0.74038304  0.89413925  0.70498034  1
  O  O22  1  0.25961696  0.89413925  0.70498034  1
  O  O23  1  0.74038304  0.39413925  0.79501966  1
  O  O24  1  0.74038304  0.10586075  0.29501966  1
  O  O25  1  0.25961696  0.60586075  0.20498034  1
  O  O26  1  0.74038304  0.60586075  0.20498034  1
  O  O27  1  0.25961696  0.39413925  0.79501966  1
  O  O28  1  0.00000000  0.34969659  0.07065737  1
  O  O29  1  0.00000000  0.65030341  0.92934263  1
  O  O30  1  -0.00000000  0.15030341  0.57065737  1
  O  O31  1  0.00000000  0.84969659  0.42934263  1
