# generated using pymatgen
data_CsPr6FeI10
_symmetry_space_group_name_H-M   'P 1'
_cell_length_a   13.89315200
_cell_length_b   15.66001585
_cell_length_c   14.31272965
_cell_angle_alpha   90.00000000
_cell_angle_beta   90.00000000
_cell_angle_gamma   90.00000000
_symmetry_Int_Tables_number   1
_chemical_formula_structural   CsPr6FeI10
_chemical_formula_sum   'Cs4 Pr24 Fe4 I40'
_cell_volume   3113.97737304
_cell_formula_units_Z   4
loop_
 _symmetry_equiv_pos_site_id
 _symmetry_equiv_pos_as_xyz
  1  'x, y, z'
loop_
 _atom_site_type_symbol
 _atom_site_label
 _atom_site_symmetry_multiplicity
 _atom_site_fract_x
 _atom_site_fract_y
 _atom_site_fract_z
 _atom_site_occupancy
  Cs  Cs0  1  0.75000000  0.58357439  0.51311654  1
  Cs  Cs1  1  0.25000000  0.41642561  0.48688346  1
  Cs  Cs2  1  0.25000000  0.91642561  0.01311654  1
  Cs  Cs3  1  0.75000000  0.08357439  0.98688346  1
  Pr  Pr4  1  0.75000000  0.99207367  0.60665363  1
  Pr  Pr5  1  0.25000000  0.00792633  0.39334637  1
  Pr  Pr6  1  0.25000000  0.50792633  0.10665363  1
  Pr  Pr7  1  0.75000000  0.49207367  0.89334637  1
  Pr  Pr8  1  0.75000000  0.76905387  0.10439254  1
  Pr  Pr9  1  0.25000000  0.23094613  0.89560746  1
  Pr  Pr10  1  0.25000000  0.73094613  0.60439254  1
  Pr  Pr11  1  0.75000000  0.26905387  0.39560746  1
  Pr  Pr12  1  0.39190005  0.94212714  0.61701320  1
  Pr  Pr13  1  0.60809995  0.05787286  0.38298680  1
  Pr  Pr14  1  0.60809995  0.55787286  0.11701320  1
  Pr  Pr15  1  0.89190005  0.05787286  0.38298680  1
  Pr  Pr16  1  0.39190005  0.44212714  0.88298680  1
  Pr  Pr17  1  0.10809995  0.94212714  0.61701320  1
  Pr  Pr18  1  0.10809995  0.44212714  0.88298680  1
  Pr  Pr19  1  0.89190005  0.55787286  0.11701320  1
  Pr  Pr20  1  0.89149310  0.70325540  0.88420145  1
  Pr  Pr21  1  0.10850690  0.29674460  0.11579855  1
  Pr  Pr22  1  0.10850690  0.79674460  0.38420145  1
  Pr  Pr23  1  0.39149310  0.29674460  0.11579855  1
  Pr  Pr24  1  0.89149310  0.20325540  0.61579855  1
  Pr  Pr25  1  0.60850690  0.70325540  0.88420145  1
  Pr  Pr26  1  0.60850690  0.20325540  0.61579855  1
  Pr  Pr27  1  0.39149310  0.79674460  0.38420145  1
  Fe  Fe28  1  0.75000000  0.62891357  0.99928178  1
  Fe  Fe29  1  0.25000000  0.37108643  0.00071822  1
  Fe  Fe30  1  0.25000000  0.87108643  0.49928178  1
  Fe  Fe31  1  0.75000000  0.12891357  0.50071822  1
  I  I32  1  0.92429670  0.53762381  0.75163298  1
  I  I33  1  0.07570330  0.46237619  0.24836702  1
  I  I34  1  0.07570330  0.96237619  0.25163298  1
  I  I35  1  0.42429670  0.46237619  0.24836702  1
  I  I36  1  0.92429670  0.03762381  0.74836702  1
  I  I37  1  0.57570330  0.53762381  0.75163298  1
  I  I38  1  0.57570330  0.03762381  0.74836702  1
  I  I39  1  0.42429670  0.96237619  0.25163298  1
  I  I40  1  0.91634003  0.87506008  0.49866789  1
  I  I41  1  0.08365997  0.12493992  0.50133211  1
  I  I42  1  0.08365997  0.62493992  0.99866789  1
  I  I43  1  0.41634003  0.12493992  0.50133211  1
  I  I44  1  0.91634003  0.37506008  0.00133211  1
  I  I45  1  0.58365997  0.87506008  0.49866789  1
  I  I46  1  0.58365997  0.37506008  0.00133211  1
  I  I47  1  0.41634003  0.62493992  0.99866789  1
  I  I48  1  0.75000000  0.96317995  0.23729229  1
  I  I49  1  0.25000000  0.03682005  0.76270771  1
  I  I50  1  0.25000000  0.53682005  0.73729229  1
  I  I51  1  0.75000000  0.46317995  0.26270771  1
  I  I52  1  0.75000000  0.78236384  0.72589331  1
  I  I53  1  0.25000000  0.21763616  0.27410669  1
  I  I54  1  0.25000000  0.71763616  0.22589331  1
  I  I55  1  0.75000000  0.28236384  0.77410669  1
  I  I56  1  0.40925463  0.78809598  0.76249235  1
  I  I57  1  0.59074537  0.21190402  0.23750765  1
  I  I58  1  0.59074537  0.71190402  0.26249235  1
  I  I59  1  0.90925463  0.21190402  0.23750765  1
  I  I60  1  0.40925463  0.28809598  0.73750765  1
  I  I61  1  0.09074537  0.78809598  0.76249235  1
  I  I62  1  0.09074537  0.28809598  0.73750765  1
  I  I63  1  0.90925463  0.71190402  0.26249235  1
  I  I64  1  0.91776472  0.87582865  0.99944330  1
  I  I65  1  0.08223528  0.12417135  0.00055670  1
  I  I66  1  0.08223528  0.62417135  0.49944330  1
  I  I67  1  0.41776472  0.12417135  0.00055670  1
  I  I68  1  0.91776472  0.37582865  0.50055670  1
  I  I69  1  0.58223528  0.87582865  0.99944330  1
  I  I70  1  0.58223528  0.37582865  0.50055670  1
  I  I71  1  0.41776472  0.62417135  0.49944330  1
