# generated using pymatgen
data_Cs4Rb2Fe2O5
_symmetry_space_group_name_H-M   'P 1'
_cell_length_a   7.20732285
_cell_length_b   7.20732285
_cell_length_c   7.32990759
_cell_angle_alpha   91.66709427
_cell_angle_beta   91.66709427
_cell_angle_gamma   118.27091820
_symmetry_Int_Tables_number   1
_chemical_formula_structural   Cs4Rb2Fe2O5
_chemical_formula_sum   'Cs4 Rb2 Fe2 O5'
_cell_volume   334.79874136
_cell_formula_units_Z   1
loop_
 _symmetry_equiv_pos_site_id
 _symmetry_equiv_pos_as_xyz
  1  'x, y, z'
loop_
 _atom_site_type_symbol
 _atom_site_label
 _atom_site_symmetry_multiplicity
 _atom_site_fract_x
 _atom_site_fract_y
 _atom_site_fract_z
 _atom_site_occupancy
  Cs  Cs0  1  0.34225300  0.34225300  0.68664449  1
  Cs  Cs1  1  0.65774700  0.65774700  0.31335551  1
  Cs  Cs2  1  0.75625986  0.24374014  0.00000000  1
  Cs  Cs3  1  0.24374014  0.75625986  0.00000000  1
  Rb  Rb4  1  0.78065557  0.21934443  0.50000000  1
  Rb  Rb5  1  0.21934443  0.78065557  0.50000000  1
  Fe  Fe6  1  0.80620817  0.80620817  0.80752603  1
  Fe  Fe7  1  0.19379183  0.19379183  0.19247397  1
  O  O8  1  0.57597884  0.84223467  0.71639033  1
  O  O9  1  0.42402116  0.15776533  0.28360967  1
  O  O10  1  0.15776533  0.42402116  0.28360967  1
  O  O11  1  0.84223467  0.57597884  0.71639033  1
  O  O12  1  -0.00000000  0.00000000  0.00000000  1
