# generated using pymatgen
data_Ce2(Ga3Ir)3
_symmetry_space_group_name_H-M   'P 1'
_cell_length_a   7.68997640
_cell_length_b   7.68997640
_cell_length_c   9.49264181
_cell_angle_alpha   90.00000000
_cell_angle_beta   90.00000000
_cell_angle_gamma   119.81299418
_symmetry_Int_Tables_number   1
_chemical_formula_structural   Ce2(Ga3Ir)3
_chemical_formula_sum   'Ce4 Ga18 Ir6'
_cell_volume   487.06064737
_cell_formula_units_Z   2
loop_
 _symmetry_equiv_pos_site_id
 _symmetry_equiv_pos_as_xyz
  1  'x, y, z'
loop_
 _atom_site_type_symbol
 _atom_site_label
 _atom_site_symmetry_multiplicity
 _atom_site_fract_x
 _atom_site_fract_y
 _atom_site_fract_z
 _atom_site_occupancy
  Ce  Ce0  1  0.66826403  0.99721736  0.25000000  1
  Ce  Ce1  1  0.33173597  0.00278264  0.75000000  1
  Ce  Ce2  1  0.99721736  0.66826403  0.25000000  1
  Ce  Ce3  1  0.00278264  0.33173597  0.75000000  1
  Ga  Ga4  1  0.12904380  0.12904380  0.25000000  1
  Ga  Ga5  1  0.87095620  0.87095620  0.75000000  1
  Ga  Ga6  1  0.33422313  0.00100504  0.07924264  1
  Ga  Ga7  1  0.66577687  0.99899496  0.92075736  1
  Ga  Ga8  1  0.66577687  0.99899496  0.57924264  1
  Ga  Ga9  1  0.00100504  0.33422313  0.42075736  1
  Ga  Ga10  1  0.33422313  0.00100504  0.42075736  1
  Ga  Ga11  1  0.99899496  0.66577687  0.57924264  1
  Ga  Ga12  1  0.99899496  0.66577687  0.92075736  1
  Ga  Ga13  1  0.00100504  0.33422313  0.07924264  1
  Ga  Ga14  1  0.33384278  0.33384278  0.56424016  1
  Ga  Ga15  1  0.66615722  0.66615722  0.43575984  1
  Ga  Ga16  1  0.66615722  0.66615722  0.06424016  1
  Ga  Ga17  1  0.33384278  0.33384278  0.93575984  1
  Ga  Ga18  1  0.54401480  0.33909892  0.25000000  1
  Ga  Ga19  1  0.45598520  0.66090108  0.75000000  1
  Ga  Ga20  1  0.33909892  0.54401480  0.25000000  1
  Ga  Ga21  1  0.66090108  0.45598520  0.75000000  1
  Ir  Ir22  1  0.32842563  0.67157437  0.00000000  1
  Ir  Ir23  1  0.67157437  0.32842563  0.00000000  1
  Ir  Ir24  1  0.67157437  0.32842563  0.50000000  1
  Ir  Ir25  1  0.32842563  0.67157437  0.50000000  1
  Ir  Ir26  1  0.00000000  -0.00000000  0.00000000  1
  Ir  Ir27  1  0.00000000  -0.00000000  0.50000000  1
