# generated using pymatgen
data_EuFeGe2O7
_symmetry_space_group_name_H-M   'P 1'
_cell_length_a   6.67414275
_cell_length_b   7.40803728
_cell_length_c   11.72410751
_cell_angle_alpha   96.56624000
_cell_angle_beta   90.00000000
_cell_angle_gamma   90.00000000
_symmetry_Int_Tables_number   1
_chemical_formula_structural   EuFeGe2O7
_chemical_formula_sum   'Eu4 Fe4 Ge8 O28'
_cell_volume   575.86439009
_cell_formula_units_Z   4
loop_
 _symmetry_equiv_pos_site_id
 _symmetry_equiv_pos_as_xyz
  1  'x, y, z'
loop_
 _atom_site_type_symbol
 _atom_site_label
 _atom_site_symmetry_multiplicity
 _atom_site_fract_x
 _atom_site_fract_y
 _atom_site_fract_z
 _atom_site_occupancy
  Eu  Eu0  1  0.64490144  0.72899919  0.47529988  1
  Eu  Eu1  1  0.35509856  0.27100081  0.52470012  1
  Eu  Eu2  1  0.14490144  0.77100081  0.02470012  1
  Eu  Eu3  1  0.85509856  0.22899919  0.97529988  1
  Fe  Fe4  1  0.60063027  0.01863010  0.73018055  1
  Fe  Fe5  1  0.39936973  0.98136990  0.26981945  1
  Fe  Fe6  1  0.10063027  0.48136990  0.76981945  1
  Fe  Fe7  1  0.89936973  0.51863010  0.23018055  1
  Ge  Ge8  1  0.34233578  0.24280908  0.95676524  1
  Ge  Ge9  1  0.65766422  0.75719092  0.04323476  1
  Ge  Ge10  1  0.84233578  0.25719092  0.54323476  1
  Ge  Ge11  1  0.15766422  0.74280908  0.45676524  1
  Ge  Ge12  1  0.08961851  0.91926019  0.71895375  1
  Ge  Ge13  1  0.91038149  0.08073981  0.28104625  1
  Ge  Ge14  1  0.58961851  0.58073981  0.78104625  1
  Ge  Ge15  1  0.41038149  0.41926019  0.21895375  1
  O  O16  1  0.62616181  0.75995735  0.69460812  1
  O  O17  1  0.37383819  0.24004265  0.30539188  1
  O  O18  1  0.12616181  0.74004265  0.80539188  1
  O  O19  1  0.87383819  0.25995735  0.19460812  1
  O  O20  1  0.17510705  0.06943798  0.97845113  1
  O  O21  1  0.82489295  0.93056202  0.02154887  1
  O  O22  1  0.67510705  0.43056202  0.52154887  1
  O  O23  1  0.32489295  0.56943798  0.47845113  1
  O  O24  1  0.39018227  0.44364092  0.72092408  1
  O  O25  1  0.60981773  0.55635908  0.27907592  1
  O  O26  1  0.89018227  0.05635908  0.77907592  1
  O  O27  1  0.10981773  0.94364092  0.22092408  1
  O  O28  1  0.00320833  0.82454739  0.57728359  1
  O  O29  1  0.99679167  0.17545261  0.42271641  1
  O  O30  1  0.50320833  0.67545261  0.92271641  1
  O  O31  1  0.49679167  0.32454739  0.07728359  1
  O  O32  1  0.55089527  0.16894575  0.87226846  1
  O  O33  1  0.44910473  0.83105425  0.12773154  1
  O  O34  1  0.05089527  0.33105425  0.62773154  1
  O  O35  1  0.94910473  0.66894575  0.37226846  1
  O  O36  1  0.16250008  0.40788963  0.92183214  1
  O  O37  1  0.83749992  0.59211037  0.07816786  1
  O  O38  1  0.66250008  0.09211037  0.57816786  1
  O  O39  1  0.33749992  0.90788963  0.42183214  1
  O  O40  1  0.31300858  0.03125621  0.68688950  1
  O  O41  1  0.68699142  0.96874379  0.31311050  1
  O  O42  1  0.81300858  0.46874379  0.81311050  1
  O  O43  1  0.18699142  0.53125621  0.18688950  1
