# generated using pymatgen
data_Li16Fe4SiO16
_symmetry_space_group_name_H-M   'P 1'
_cell_length_a   6.40739834
_cell_length_b   10.96354309
_cell_length_c   5.48009444
_cell_angle_alpha   89.85840957
_cell_angle_beta   90.44638200
_cell_angle_gamma   90.95164821
_symmetry_Int_Tables_number   1
_chemical_formula_structural   Li16Fe4SiO16
_chemical_formula_sum   'Li16 Fe4 Si1 O16'
_cell_volume   384.89867481
_cell_formula_units_Z   1
loop_
 _symmetry_equiv_pos_site_id
 _symmetry_equiv_pos_as_xyz
  1  'x, y, z'
loop_
 _atom_site_type_symbol
 _atom_site_label
 _atom_site_symmetry_multiplicity
 _atom_site_fract_x
 _atom_site_fract_y
 _atom_site_fract_z
 _atom_site_occupancy
  Li  Li0  1  0.01982457  0.34088245  0.89099974  1
  Li  Li1  1  0.01553656  0.84226199  0.60091711  1
  Li  Li2  1  0.24290657  0.58903956  0.87481409  1
  Li  Li3  1  0.23238850  0.06622329  0.64349212  1
  Li  Li4  1  0.22152556  0.17569923  0.02480706  1
  Li  Li5  1  0.29435764  0.69114666  0.49019801  1
  Li  Li6  1  0.48480447  0.86945725  0.59729660  1
  Li  Li7  1  0.52241822  0.64965622  0.16510878  1
  Li  Li8  1  0.51495080  0.15503997  0.34182455  1
  Li  Li9  1  0.54987394  0.82604980  0.94067622  1
  Li  Li10  1  0.76050203  0.42792038  0.16450915  1
  Li  Li11  1  0.75381486  0.92286278  0.32736315  1
  Li  Li12  1  0.84370283  0.30072646  0.54179124  1
  Li  Li13  1  0.93881935  0.82293253  0.94467015  1
  Li  Li14  1  0.98016674  0.65221358  0.19674810  1
  Li  Li15  1  0.99296676  0.14639161  0.35422252  1
  Fe  Fe16  1  0.25156648  0.41317155  0.33655624  1
  Fe  Fe17  1  0.25136845  0.91723999  0.16245355  1
  Fe  Fe18  1  0.74004906  0.59640737  0.66170465  1
  Fe  Fe19  1  0.76721357  0.08540056  0.86104820  1
  Si  Si20  1  0.50270633  0.33536327  0.82937207  1
  O  O21  1  0.00574384  0.32788299  0.24750298  1
  O  O22  1  0.01037885  0.82883578  0.26845509  1
  O  O23  1  0.25373119  0.07576842  0.29663665  1
  O  O24  1  0.29936253  0.40265545  0.69960644  1
  O  O25  1  0.24910236  0.57168868  0.23278257  1
  O  O26  1  0.25444555  0.91290421  0.81236328  1
  O  O27  1  0.45750209  0.32245867  0.12802831  1
  O  O28  1  0.48519675  0.82437145  0.27298964  1
  O  O29  1  0.49844517  0.67423862  0.77720368  1
  O  O30  1  0.53234475  0.19648151  0.71406127  1
  O  O31  1  0.74146985  0.57170924  0.32719937  1
  O  O32  1  0.75026848  0.08618520  0.19823106  1
  O  O33  1  0.72675260  0.41184366  0.79248000  1
  O  O34  1  0.75250474  0.92307843  0.73873890  1
  O  O35  1  0.98772946  0.67065689  0.78296650  1
  O  O36  1  0.00404750  0.17735631  0.74196097  1
