# generated using pymatgen
data_Dy12(OsC3)5
_symmetry_space_group_name_H-M   'P 1'
_cell_length_a   5.08145199
_cell_length_b   10.71268603
_cell_length_c   10.71268603
_cell_angle_alpha   120.00000180
_cell_angle_beta   90.00000000
_cell_angle_gamma   90.00000000
_symmetry_Int_Tables_number   1
_chemical_formula_structural   Dy12(OsC3)5
_chemical_formula_sum   'Dy12 Os5 C15'
_cell_volume   505.02770562
_cell_formula_units_Z   1
loop_
 _symmetry_equiv_pos_site_id
 _symmetry_equiv_pos_as_xyz
  1  'x, y, z'
loop_
 _atom_site_type_symbol
 _atom_site_label
 _atom_site_symmetry_multiplicity
 _atom_site_fract_x
 _atom_site_fract_y
 _atom_site_fract_z
 _atom_site_occupancy
  Dy  Dy0  1  0.50000000  0.20624816  0.20624816  1
  Dy  Dy1  1  0.50000000  1.00000000  0.79375184  1
  Dy  Dy2  1  0.50000000  0.79375184  1.00000000  1
  Dy  Dy3  1  0.00000000  0.72711636  0.18335131  1
  Dy  Dy4  1  -0.00000000  0.45623495  0.27288364  1
  Dy  Dy5  1  0.00000000  0.54376505  0.81664869  1
  Dy  Dy6  1  0.00000000  0.81664869  0.54376505  1
  Dy  Dy7  1  0.00000000  0.18335131  0.72711636  1
  Dy  Dy8  1  -0.00000000  0.27288364  0.45623495  1
  Dy  Dy9  1  0.50000000  0.56737490  0.56737490  1
  Dy  Dy10  1  0.50000000  0.00000000  0.43262510  1
  Dy  Dy11  1  0.50000000  0.43262510  0.00000000  1
  Os  Os12  1  -0.00000000  0.83909717  0.83909717  1
  Os  Os13  1  0.00000000  0.00000000  0.16090283  1
  Os  Os14  1  0.00000000  0.16090283  0.00000000  1
  Os  Os15  1  0.50000000  0.66666700  0.33333300  1
  Os  Os16  1  0.50000000  0.33333300  0.66666700  1
  C  C17  1  -0.00000000  0.66390266  0.66390266  1
  C  C18  1  0.00000000  1.00000000  0.33609734  1
  C  C19  1  0.00000000  0.33609734  1.00000000  1
  C  C20  1  -0.00000000  0.20894129  0.20894129  1
  C  C21  1  0.00000000  1.00000000  0.79105871  1
  C  C22  1  0.00000000  0.79105871  1.00000000  1
  C  C23  1  0.00000000  0.53920711  0.53920711  1
  C  C24  1  -0.00000000  0.00000000  0.46079289  1
  C  C25  1  -0.00000000  0.46079289  0.00000000  1
  C  C26  1  0.50000000  0.71639028  0.18423346  1
  C  C27  1  0.50000000  0.46784318  0.28360972  1
  C  C28  1  0.50000000  0.53215682  0.81576654  1
  C  C29  1  0.50000000  0.81576654  0.53215682  1
  C  C30  1  0.50000000  0.18423346  0.71639028  1
  C  C31  1  0.50000000  0.28360972  0.46784318  1
