# generated using pymatgen
data_BaV3P4O17
_symmetry_space_group_name_H-M   'P 1'
_cell_length_a   7.80612796
_cell_length_b   10.26058163
_cell_length_c   16.75865098
_cell_angle_alpha   90.00000000
_cell_angle_beta   90.00000000
_cell_angle_gamma   90.00000000
_symmetry_Int_Tables_number   1
_chemical_formula_structural   BaV3P4O17
_chemical_formula_sum   'Ba4 V12 P16 O68'
_cell_volume   1342.29107404
_cell_formula_units_Z   4
loop_
 _symmetry_equiv_pos_site_id
 _symmetry_equiv_pos_as_xyz
  1  'x, y, z'
loop_
 _atom_site_type_symbol
 _atom_site_label
 _atom_site_symmetry_multiplicity
 _atom_site_fract_x
 _atom_site_fract_y
 _atom_site_fract_z
 _atom_site_occupancy
  Ba  Ba0  1  0.49500066  0.44339070  0.32397164  1
  Ba  Ba1  1  0.00499934  0.55660930  0.82397164  1
  Ba  Ba2  1  0.50499934  0.94339070  0.17602836  1
  Ba  Ba3  1  0.99500066  0.05660930  0.67602836  1
  V  V4  1  0.20979010  0.25248686  0.50476980  1
  V  V5  1  0.29020990  0.74751314  0.00476980  1
  V  V6  1  0.79020990  0.75248686  0.99523020  1
  V  V7  1  0.70979010  0.24751314  0.49523020  1
  V  V8  1  0.72288184  0.31980139  0.14997755  1
  V  V9  1  0.77711816  0.68019861  0.64997755  1
  V  V10  1  0.27711816  0.81980139  0.35002245  1
  V  V11  1  0.22288184  0.18019861  0.85002245  1
  V  V12  1  0.21467402  0.32193746  0.15185663  1
  V  V13  1  0.28532598  0.67806254  0.65185663  1
  V  V14  1  0.78532598  0.82193746  0.34814337  1
  V  V15  1  0.71467402  0.17806254  0.84814337  1
  P  P16  1  0.18954474  0.63585663  0.18585437  1
  P  P17  1  0.31045526  0.36414337  0.68585437  1
  P  P18  1  0.81045526  0.13585663  0.31414563  1
  P  P19  1  0.68954474  0.86414337  0.81414563  1
  P  P20  1  0.20351433  0.06263202  0.03470651  1
  P  P21  1  0.29648567  0.93736798  0.53470651  1
  P  P22  1  0.79648567  0.56263202  0.46529349  1
  P  P23  1  0.70351433  0.43736798  0.96529349  1
  P  P24  1  0.19713568  0.56250336  0.46506650  1
  P  P25  1  0.30286432  0.43749664  0.96506650  1
  P  P26  1  0.80286432  0.06250336  0.03493350  1
  P  P27  1  0.69713568  0.93749664  0.53493350  1
  P  P28  1  0.19294323  0.13500608  0.31248092  1
  P  P29  1  0.30705677  0.86499392  0.81248092  1
  P  P30  1  0.80705677  0.63500608  0.18751908  1
  P  P31  1  0.69294323  0.36499392  0.68751908  1
  O  O32  1  0.27778830  0.00275463  0.29584012  1
  O  O33  1  0.22221170  0.99724537  0.79584012  1
  O  O34  1  0.72221170  0.50275463  0.20415988  1
  O  O35  1  0.77778830  0.49724537  0.70415988  1
  O  O36  1  0.22383101  0.25572696  0.73465951  1
  O  O37  1  0.27616899  0.74427304  0.23465951  1
  O  O38  1  0.77616899  0.75572696  0.76534049  1
  O  O39  1  0.72383101  0.24427304  0.26534049  1
  O  O40  1  0.00083041  0.11913835  0.27975095  1
  O  O41  1  0.49916959  0.88086165  0.77975095  1
  O  O42  1  0.99916959  0.61913835  0.22024905  1
  O  O43  1  0.50083041  0.38086165  0.72024905  1
  O  O44  1  0.50805408  0.31824183  0.14756309  1
  O  O45  1  0.99194592  0.68175817  0.64756309  1
  O  O46  1  0.49194592  0.81824183  0.35243691  1
  O  O47  1  0.00805408  0.18175817  0.85243691  1
  O  O48  1  0.00575675  0.26749297  0.53249297  1
  O  O49  1  0.49424325  0.73250703  0.03249297  1
  O  O50  1  0.99424325  0.76749297  0.96750703  1
  O  O51  1  0.50575675  0.23250703  0.46750703  1
  O  O52  1  0.27479080  0.24488911  0.26237448  1
  O  O53  1  0.22520920  0.75511089  0.76237448  1
  O  O54  1  0.72520920  0.74488911  0.23762552  1
  O  O55  1  0.77479080  0.25511089  0.73762552  1
  O  O56  1  0.24494602  0.07734390  0.55590945  1
  O  O57  1  0.25505398  0.92265610  0.05590945  1
  O  O58  1  0.75505398  0.57734390  0.94409055  1
  O  O59  1  0.74494602  0.42265610  0.44409055  1
  O  O60  1  0.17546078  0.66968354  0.09846215  1
  O  O61  1  0.32453922  0.33031646  0.59846215  1
  O  O62  1  0.82453922  0.16968354  0.40153785  1
  O  O63  1  0.67546078  0.83031646  0.90153785  1
  O  O64  1  0.18911311  0.16768657  0.40012927  1
  O  O65  1  0.31088689  0.83231343  0.90012927  1
  O  O66  1  0.81088689  0.66768657  0.09987073  1
  O  O67  1  0.68911311  0.33231343  0.59987073  1
  O  O68  1  0.00241742  0.32953980  0.16361644  1
  O  O69  1  0.49758258  0.67046020  0.66361644  1
  O  O70  1  0.99758258  0.82953980  0.33638356  1
  O  O71  1  0.50241742  0.17046020  0.83638356  1
  O  O72  1  0.22278067  0.38294125  0.03988762  1
  O  O73  1  0.27721933  0.61705875  0.53988762  1
  O  O74  1  0.77721933  0.88294125  0.46011238  1
  O  O75  1  0.72278067  0.11705875  0.96011238  1
  O  O76  1  0.24796710  0.42093394  0.44636420  1
  O  O77  1  0.25203290  0.57906606  0.94636420  1
  O  O78  1  0.75203290  0.92093394  0.05363580  1
  O  O79  1  0.74796710  0.07906606  0.55363580  1
  O  O80  1  0.00298421  0.06630724  0.01981251  1
  O  O81  1  0.49701579  0.93369276  0.51981251  1
  O  O82  1  0.99701579  0.56630724  0.48018749  1
  O  O83  1  0.50298421  0.43369276  0.98018749  1
  O  O84  1  0.78165152  0.38622704  0.04194848  1
  O  O85  1  0.71834848  0.61377296  0.54194848  1
  O  O86  1  0.21834848  0.88622704  0.45805152  1
  O  O87  1  0.28165152  0.11377296  0.95805152  1
  O  O88  1  0.24693402  0.14054851  0.11032711  1
  O  O89  1  0.25306598  0.85945149  0.61032711  1
  O  O90  1  0.75306598  0.64054851  0.38967289  1
  O  O91  1  0.74693402  0.35945149  0.88967289  1
  O  O92  1  0.27479092  0.50206696  0.20038875  1
  O  O93  1  0.22520908  0.49793304  0.70038875  1
  O  O94  1  0.72520908  0.00206696  0.29961125  1
  O  O95  1  0.77479092  0.99793304  0.79961125  1
  O  O96  1  0.24021587  0.63677201  0.38814351  1
  O  O97  1  0.25978413  0.36322799  0.88814351  1
  O  O98  1  0.75978413  0.13677201  0.11185649  1
  O  O99  1  0.74021587  0.86322799  0.61185649  1
