# generated using pymatgen
data_Ba6Tm2Ga4O15
_symmetry_space_group_name_H-M   'P 1'
_cell_length_a   6.00705614
_cell_length_b   8.01502024
_cell_length_c   18.58324861
_cell_angle_alpha   91.44898569
_cell_angle_beta   90.00000000
_cell_angle_gamma   90.00000000
_symmetry_Int_Tables_number   1
_chemical_formula_structural   Ba6Tm2Ga4O15
_chemical_formula_sum   'Ba12 Tm4 Ga8 O30'
_cell_volume   894.43555982
_cell_formula_units_Z   2
loop_
 _symmetry_equiv_pos_site_id
 _symmetry_equiv_pos_as_xyz
  1  'x, y, z'
loop_
 _atom_site_type_symbol
 _atom_site_label
 _atom_site_symmetry_multiplicity
 _atom_site_fract_x
 _atom_site_fract_y
 _atom_site_fract_z
 _atom_site_occupancy
  Ba  Ba0  1  0.75641597  0.49864008  0.42182163  1
  Ba  Ba1  1  0.24358403  0.50135992  0.57817837  1
  Ba  Ba2  1  0.75641597  0.50135992  0.07817837  1
  Ba  Ba3  1  0.24358403  0.49864008  0.92182163  1
  Ba  Ba4  1  0.74590046  0.97327901  0.41092289  1
  Ba  Ba5  1  0.25409954  0.02672099  0.58907711  1
  Ba  Ba6  1  0.74590046  0.02672099  0.08907711  1
  Ba  Ba7  1  0.25409954  0.97327901  0.91092289  1
  Ba  Ba8  1  0.72234130  -0.00000000  0.75000000  1
  Ba  Ba9  1  0.27765870  -0.00000000  0.25000000  1
  Ba  Ba10  1  0.66878505  0.50000000  0.75000000  1
  Ba  Ba11  1  0.33121495  0.50000000  0.25000000  1
  Tm  Tm12  1  0.74561137  0.75145664  0.58970820  1
  Tm  Tm13  1  0.25438863  0.24854336  0.41029180  1
  Tm  Tm14  1  0.74561137  0.24854336  0.91029180  1
  Tm  Tm15  1  0.25438863  0.75145664  0.08970820  1
  Ga  Ga16  1  0.74920574  0.75408086  0.94207412  1
  Ga  Ga17  1  0.25079426  0.24591914  0.05792588  1
  Ga  Ga18  1  0.74920574  0.24591914  0.55792588  1
  Ga  Ga19  1  0.25079426  0.75408086  0.44207412  1
  Ga  Ga20  1  0.77401046  0.76962989  0.23283557  1
  Ga  Ga21  1  0.22598954  0.23037011  0.76716443  1
  Ga  Ga22  1  0.77401046  0.23037011  0.26716443  1
  Ga  Ga23  1  0.22598954  0.76962989  0.73283557  1
  O  O24  1  0.20449123  -0.00000000  0.75000000  1
  O  O25  1  0.79550877  -0.00000000  0.25000000  1
  O  O26  1  0.50641275  0.76516209  0.50074218  1
  O  O27  1  0.49358725  0.23483791  0.49925782  1
  O  O28  1  0.50641275  0.23483791  0.99925782  1
  O  O29  1  0.49358725  0.76516209  0.00074218  1
  O  O30  1  0.76104070  0.95540997  0.89282073  1
  O  O31  1  0.23895930  0.04459003  0.10717927  1
  O  O32  1  0.76104070  0.04459003  0.60717927  1
  O  O33  1  0.23895930  0.95540997  0.39282073  1
  O  O34  1  0.00484303  0.76395801  0.50652187  1
  O  O35  1  0.99515697  0.23604199  0.49347813  1
  O  O36  1  0.00484303  0.23604199  0.99347813  1
  O  O37  1  0.99515697  0.76395801  0.00652187  1
  O  O38  1  0.32650649  0.68724037  0.81730278  1
  O  O39  1  0.67349351  0.31275963  0.18269722  1
  O  O40  1  0.32650649  0.31275963  0.68269722  1
  O  O41  1  0.67349351  0.68724037  0.31730278  1
  O  O42  1  0.45571108  0.74996042  0.66367022  1
  O  O43  1  0.54428892  0.25003958  0.33632978  1
  O  O44  1  0.45571108  0.25003958  0.83632978  1
  O  O45  1  0.54428892  0.74996042  0.16367022  1
  O  O46  1  0.95739029  0.72593410  0.68747521  1
  O  O47  1  0.04260971  0.27406590  0.31252479  1
  O  O48  1  0.95739029  0.27406590  0.81252479  1
  O  O49  1  0.04260971  0.72593410  0.18747521  1
  O  O50  1  0.75482445  0.53076422  0.90926490  1
  O  O51  1  0.24517555  0.46923578  0.09073510  1
  O  O52  1  0.75482445  0.46923578  0.59073510  1
  O  O53  1  0.24517555  0.53076422  0.40926490  1
