# generated using pymatgen
data_Ba5P3O12F
_symmetry_space_group_name_H-M   'P 1'
_cell_length_a   7.79264428
_cell_length_b   10.36526517
_cell_length_c   10.36526517
_cell_angle_alpha   119.99999968
_cell_angle_beta   90.00000000
_cell_angle_gamma   90.00000000
_symmetry_Int_Tables_number   1
_chemical_formula_structural   Ba5P3O12F
_chemical_formula_sum   'Ba10 P6 O24 F2'
_cell_volume   725.06396046
_cell_formula_units_Z   2
loop_
 _symmetry_equiv_pos_site_id
 _symmetry_equiv_pos_as_xyz
  1  'x, y, z'
loop_
 _atom_site_type_symbol
 _atom_site_label
 _atom_site_symmetry_multiplicity
 _atom_site_fract_x
 _atom_site_fract_y
 _atom_site_fract_z
 _atom_site_occupancy
  Ba  Ba0  1  0.00066948  0.66666700  0.33333300  1
  Ba  Ba1  1  0.99933052  0.33333300  0.66666700  1
  Ba  Ba2  1  0.50066948  0.33333300  0.66666700  1
  Ba  Ba3  1  0.49933052  0.66666700  0.33333300  1
  Ba  Ba4  1  0.75000000  0.75750988  0.01273168  1
  Ba  Ba5  1  0.25000000  0.24249012  0.98726832  1
  Ba  Ba6  1  0.75000000  0.25522180  0.24249012  1
  Ba  Ba7  1  0.25000000  0.74477820  0.75750988  1
  Ba  Ba8  1  0.75000000  0.98726832  0.74477820  1
  Ba  Ba9  1  0.25000000  0.01273168  0.25522180  1
  P  P10  1  0.75000000  0.60122572  0.63187912  1
  P  P11  1  0.25000000  0.39877428  0.36812088  1
  P  P12  1  0.75000000  0.03065340  0.39877428  1
  P  P13  1  0.25000000  0.96934660  0.60122572  1
  P  P14  1  0.75000000  0.36812088  0.96934660  1
  P  P15  1  0.25000000  0.63187912  0.03065340  1
  O  O16  1  0.75000000  0.85850829  0.33351854  1
  O  O17  1  0.25000000  0.14149171  0.66648146  1
  O  O18  1  0.75000000  0.47501025  0.14149171  1
  O  O19  1  0.25000000  0.52498975  0.85850829  1
  O  O20  1  0.75000000  0.66648146  0.52498975  1
  O  O21  1  0.25000000  0.33351854  0.47501025  1
  O  O22  1  0.75000000  0.42717220  0.54094715  1
  O  O23  1  0.25000000  0.57282780  0.45905285  1
  O  O24  1  0.75000000  0.11377494  0.57282780  1
  O  O25  1  0.25000000  0.88622506  0.42717220  1
  O  O26  1  0.75000000  0.45905285  0.88622506  1
  O  O27  1  0.25000000  0.54094715  0.11377494  1
  O  O28  1  0.91275339  0.65370432  0.73343777  1
  O  O29  1  0.08724661  0.34629568  0.26656223  1
  O  O30  1  0.91275339  0.07973345  0.34629568  1
  O  O31  1  0.41275339  0.34629568  0.26656223  1
  O  O32  1  0.08724661  0.92026655  0.65370432  1
  O  O33  1  0.58724661  0.65370432  0.73343777  1
  O  O34  1  0.91275339  0.26656223  0.92026655  1
  O  O35  1  0.41275339  0.92026655  0.65370432  1
  O  O36  1  0.08724661  0.73343777  0.07973345  1
  O  O37  1  0.58724661  0.07973345  0.34629568  1
  O  O38  1  0.41275339  0.73343777  0.07973345  1
  O  O39  1  0.58724661  0.26656223  0.92026655  1
  F  F40  1  0.75000000  -0.00000000  -0.00000000  1
  F  F41  1  0.25000000  -0.00000000  -0.00000000  1
