# generated using pymatgen
data_Ca11Hg54
_symmetry_space_group_name_H-M   'P 1'
_cell_length_a   11.54073318
_cell_length_b   13.11304430
_cell_length_c   13.11304430
_cell_angle_alpha   120.00000000
_cell_angle_beta   90.00000000
_cell_angle_gamma   90.00000000
_symmetry_Int_Tables_number   1
_chemical_formula_structural   Ca11Hg54
_chemical_formula_sum   'Ca11 Hg54'
_cell_volume   1718.58528458
_cell_formula_units_Z   1
loop_
 _symmetry_equiv_pos_site_id
 _symmetry_equiv_pos_as_xyz
  1  'x, y, z'
loop_
 _atom_site_type_symbol
 _atom_site_label
 _atom_site_symmetry_multiplicity
 _atom_site_fract_x
 _atom_site_fract_y
 _atom_site_fract_z
 _atom_site_occupancy
  Ca  Ca0  1  0.50000000  0.76094533  0.95950431  1
  Ca  Ca1  1  0.50000000  0.19855899  0.23905467  1
  Ca  Ca2  1  0.50000000  0.04049569  0.80144101  1
  Ca  Ca3  1  0.83340637  0.33333300  0.66666700  1
  Ca  Ca4  1  0.16659363  0.33333300  0.66666700  1
  Ca  Ca5  1  -0.00000000  0.69659123  0.12938944  1
  Ca  Ca6  1  -0.00000000  0.43279821  0.30340877  1
  Ca  Ca7  1  -0.00000000  0.87061056  0.56720179  1
  Ca  Ca8  1  0.50000000  0.93924163  0.40195991  1
  Ca  Ca9  1  0.50000000  0.46271827  0.06075837  1
  Ca  Ca10  1  0.50000000  0.59804009  0.53728173  1
  Hg  Hg11  1  0.50000000  0.45070216  0.81287213  1
  Hg  Hg12  1  0.50000000  0.36216997  0.54929784  1
  Hg  Hg13  1  0.50000000  0.18712787  0.63783003  1
  Hg  Hg14  1  0.80975047  0.80152765  0.98298911  1
  Hg  Hg15  1  0.80975047  0.18146146  0.19847235  1
  Hg  Hg16  1  0.19024953  0.80152765  0.98298911  1
  Hg  Hg17  1  0.80975047  0.01701089  0.81853854  1
  Hg  Hg18  1  0.19024953  0.18146146  0.19847235  1
  Hg  Hg19  1  0.19024953  0.01701089  0.81853854  1
  Hg  Hg20  1  0.85918849  0.66666700  0.33333300  1
  Hg  Hg21  1  0.14081151  0.66666700  0.33333300  1
  Hg  Hg22  1  0.50000000  0.66666700  0.33333300  1
  Hg  Hg23  1  0.74007298  0.54574084  0.93789056  1
  Hg  Hg24  1  0.74007298  0.39214972  0.45425916  1
  Hg  Hg25  1  0.25992702  0.54574084  0.93789056  1
  Hg  Hg26  1  0.74007298  0.06210944  0.60785028  1
  Hg  Hg27  1  0.25992702  0.39214972  0.45425916  1
  Hg  Hg28  1  0.25992702  0.06210944  0.60785028  1
  Hg  Hg29  1  -0.00000000  0.48938011  0.59848087  1
  Hg  Hg30  1  -0.00000000  0.10910076  0.51061989  1
  Hg  Hg31  1  -0.00000000  0.40151913  0.89089924  1
  Hg  Hg32  1  -0.00000000  0.00000000  -0.00000000  1
  Hg  Hg33  1  0.70940290  0.57177811  0.72670968  1
  Hg  Hg34  1  0.70940290  0.15493157  0.42822189  1
  Hg  Hg35  1  0.29059710  0.57177811  0.72670968  1
  Hg  Hg36  1  0.70940290  0.27329032  0.84506843  1
  Hg  Hg37  1  0.29059710  0.15493157  0.42822189  1
  Hg  Hg38  1  0.29059710  0.27329032  0.84506843  1
  Hg  Hg39  1  -0.00000000  0.97637606  0.21856865  1
  Hg  Hg40  1  -0.00000000  0.24219259  0.02362394  1
  Hg  Hg41  1  -0.00000000  0.78143135  0.75780741  1
  Hg  Hg42  1  -0.00000000  0.61242268  0.85649232  1
  Hg  Hg43  1  -0.00000000  0.24406964  0.38757732  1
  Hg  Hg44  1  -0.00000000  0.14350768  0.75593036  1
  Hg  Hg45  1  0.65739219  0.71842396  0.17580846  1
  Hg  Hg46  1  0.65739219  0.45738450  0.28157604  1
  Hg  Hg47  1  0.34260781  0.71842396  0.17580846  1
  Hg  Hg48  1  0.65739219  0.82419154  0.54261550  1
  Hg  Hg49  1  0.34260781  0.45738450  0.28157604  1
  Hg  Hg50  1  0.34260781  0.82419154  0.54261550  1
  Hg  Hg51  1  0.81952605  0.90115487  0.35628858  1
  Hg  Hg52  1  0.81952605  0.45513371  0.09884513  1
  Hg  Hg53  1  0.18047395  0.90115487  0.35628858  1
  Hg  Hg54  1  0.81952605  0.64371142  0.54486629  1
  Hg  Hg55  1  0.18047395  0.45513371  0.09884513  1
  Hg  Hg56  1  0.18047395  0.64371142  0.54486629  1
  Hg  Hg57  1  0.64199465  0.95613625  0.19898598  1
  Hg  Hg58  1  0.64199465  0.24284973  0.04386375  1
  Hg  Hg59  1  0.35800535  0.95613625  0.19898598  1
  Hg  Hg60  1  0.64199465  0.80101402  0.75715027  1
  Hg  Hg61  1  0.35800535  0.24284973  0.04386375  1
  Hg  Hg62  1  0.35800535  0.80101402  0.75715027  1
  Hg  Hg63  1  0.65249354  0.00000000  -0.00000000  1
  Hg  Hg64  1  0.34750646  0.00000000  -0.00000000  1
