# generated using pymatgen
data_Ca6Al43W4
_symmetry_space_group_name_H-M   'P 1'
_cell_length_a   11.09796268
_cell_length_b   11.09796268
_cell_length_c   17.73972837
_cell_angle_alpha   90.00000000
_cell_angle_beta   90.00000000
_cell_angle_gamma   120.00000074
_symmetry_Int_Tables_number   1
_chemical_formula_structural   Ca6Al43W4
_chemical_formula_sum   'Ca12 Al86 W8'
_cell_volume   1892.18726182
_cell_formula_units_Z   2
loop_
 _symmetry_equiv_pos_site_id
 _symmetry_equiv_pos_as_xyz
  1  'x, y, z'
loop_
 _atom_site_type_symbol
 _atom_site_label
 _atom_site_symmetry_multiplicity
 _atom_site_fract_x
 _atom_site_fract_y
 _atom_site_fract_z
 _atom_site_occupancy
  Ca  Ca0  1  0.46607074  0.46607074  0.90511314  1
  Ca  Ca1  1  0.53392926  0.53392926  0.09488686  1
  Ca  Ca2  1  0.00000000  0.53392926  0.90511314  1
  Ca  Ca3  1  0.53392926  0.53392926  0.40511314  1
  Ca  Ca4  1  0.00000000  0.53392926  0.59488686  1
  Ca  Ca5  1  1.00000000  0.46607074  0.09488686  1
  Ca  Ca6  1  0.46607074  0.46607074  0.59488686  1
  Ca  Ca7  1  1.00000000  0.46607074  0.40511314  1
  Ca  Ca8  1  0.53392926  0.00000000  0.90511314  1
  Ca  Ca9  1  0.46607074  1.00000000  0.09488686  1
  Ca  Ca10  1  0.46607074  1.00000000  0.40511314  1
  Ca  Ca11  1  0.53392926  0.00000000  0.59488686  1
  Al  Al12  1  0.84457858  0.23727026  0.83489744  1
  Al  Al13  1  0.15542142  0.76272974  0.16510256  1
  Al  Al14  1  0.39269168  0.15542142  0.83489744  1
  Al  Al15  1  0.15542142  0.76272974  0.33489744  1
  Al  Al16  1  0.60730832  0.76272974  0.66510256  1
  Al  Al17  1  0.60730832  0.84457858  0.16510256  1
  Al  Al18  1  0.84457858  0.23727026  0.66510256  1
  Al  Al19  1  0.39269168  0.23727026  0.33489744  1
  Al  Al20  1  0.76272974  0.60730832  0.83489744  1
  Al  Al21  1  0.60730832  0.84457858  0.33489744  1
  Al  Al22  1  0.23727026  0.84457858  0.66510256  1
  Al  Al23  1  0.23727026  0.39269168  0.16510256  1
  Al  Al24  1  0.39269168  0.15542142  0.66510256  1
  Al  Al25  1  0.76272974  0.15542142  0.33489744  1
  Al  Al26  1  0.39269168  0.23727026  0.16510256  1
  Al  Al27  1  0.60730832  0.76272974  0.83489744  1
  Al  Al28  1  0.23727026  0.39269168  0.33489744  1
  Al  Al29  1  0.76272974  0.15542142  0.16510256  1
  Al  Al30  1  0.76272974  0.60730832  0.66510256  1
  Al  Al31  1  0.23727026  0.84457858  0.83489744  1
  Al  Al32  1  0.15542142  0.39269168  0.66510256  1
  Al  Al33  1  0.84457858  0.60730832  0.33489744  1
  Al  Al34  1  0.84457858  0.60730832  0.16510256  1
  Al  Al35  1  0.15542142  0.39269168  0.83489744  1
  Al  Al36  1  0.74807887  0.74807887  0.96803371  1
  Al  Al37  1  0.25192113  0.25192113  0.03196629  1
  Al  Al38  1  1.00000000  0.25192113  0.96803371  1
  Al  Al39  1  0.25192113  0.25192113  0.46803371  1
  Al  Al40  1  1.00000000  0.25192113  0.53196629  1
  Al  Al41  1  0.00000000  0.74807887  0.03196629  1
  Al  Al42  1  0.74807887  0.74807887  0.53196629  1
  Al  Al43  1  0.00000000  0.74807887  0.46803371  1
  Al  Al44  1  0.25192113  1.00000000  0.96803371  1
  Al  Al45  1  0.74807887  0.00000000  0.03196629  1
  Al  Al46  1  0.74807887  0.00000000  0.46803371  1
  Al  Al47  1  0.25192113  1.00000000  0.53196629  1
  Al  Al48  1  0.84039306  0.84039306  0.38514669  1
  Al  Al49  1  0.15960694  0.15960694  0.61485331  1
  Al  Al50  1  1.00000000  0.15960694  0.38514669  1
  Al  Al51  1  0.15960694  0.15960694  0.88514669  1
  Al  Al52  1  1.00000000  0.15960694  0.11485331  1
  Al  Al53  1  0.00000000  0.84039306  0.61485331  1
  Al  Al54  1  0.84039306  0.84039306  0.11485331  1
  Al  Al55  1  0.00000000  0.84039306  0.88514669  1
  Al  Al56  1  0.15960694  1.00000000  0.38514669  1
  Al  Al57  1  0.84039306  0.00000000  0.61485331  1
  Al  Al58  1  0.84039306  0.00000000  0.88514669  1
  Al  Al59  1  0.15960694  1.00000000  0.11485331  1
  Al  Al60  1  0.85106962  0.44994904  0.75000000  1
  Al  Al61  1  0.14893038  0.55005096  0.25000000  1
  Al  Al62  1  0.59887942  0.14893038  0.75000000  1
  Al  Al63  1  0.40112058  0.55005096  0.75000000  1
  Al  Al64  1  0.40112058  0.85106962  0.25000000  1
  Al  Al65  1  0.59887942  0.44994904  0.25000000  1
  Al  Al66  1  0.55005096  0.40112058  0.75000000  1
  Al  Al67  1  0.44994904  0.85106962  0.75000000  1
  Al  Al68  1  0.44994904  0.59887942  0.25000000  1
  Al  Al69  1  0.55005096  0.14893038  0.25000000  1
  Al  Al70  1  0.14893038  0.59887942  0.75000000  1
  Al  Al71  1  0.85106962  0.40112058  0.25000000  1
  Al  Al72  1  0.75321389  0.24678611  0.00000000  1
  Al  Al73  1  0.24678611  0.75321389  0.00000000  1
  Al  Al74  1  0.49357222  0.24678611  0.00000000  1
  Al  Al75  1  0.24678611  0.75321389  0.50000000  1
  Al  Al76  1  0.50642778  0.75321389  0.50000000  1
  Al  Al77  1  0.50642778  0.75321389  0.00000000  1
  Al  Al78  1  0.75321389  0.24678611  0.50000000  1
  Al  Al79  1  0.49357222  0.24678611  0.50000000  1
  Al  Al80  1  0.75321389  0.50642778  0.00000000  1
  Al  Al81  1  0.24678611  0.49357222  0.00000000  1
  Al  Al82  1  0.24678611  0.49357222  0.50000000  1
  Al  Al83  1  0.75321389  0.50642778  0.50000000  1
  Al  Al84  1  0.66666700  0.33333300  0.87388553  1
  Al  Al85  1  0.33333300  0.66666700  0.12611447  1
  Al  Al86  1  0.33333300  0.66666700  0.37388553  1
  Al  Al87  1  0.33333300  0.66666700  0.62611447  1
  Al  Al88  1  0.66666700  0.33333300  0.62611447  1
  Al  Al89  1  0.66666700  0.33333300  0.37388553  1
  Al  Al90  1  0.66666700  0.33333300  0.12611447  1
  Al  Al91  1  0.33333300  0.66666700  0.87388553  1
  Al  Al92  1  0.85302650  0.85302650  0.75000000  1
  Al  Al93  1  0.14697350  0.14697350  0.25000000  1
  Al  Al94  1  1.00000000  0.14697350  0.75000000  1
  Al  Al95  1  0.00000000  0.85302650  0.25000000  1
  Al  Al96  1  0.14697350  1.00000000  0.75000000  1
  Al  Al97  1  0.85302650  0.00000000  0.25000000  1
  W  W98  1  0.26972430  0.26972430  0.75000000  1
  W  W99  1  0.73027570  0.73027570  0.25000000  1
  W  W100  1  0.00000000  0.73027570  0.75000000  1
  W  W101  1  1.00000000  0.26972430  0.25000000  1
  W  W102  1  0.73027570  0.00000000  0.75000000  1
  W  W103  1  0.26972430  1.00000000  0.25000000  1
  W  W104  1  0.00000000  -0.00000000  0.00000000  1
  W  W105  1  0.00000000  -0.00000000  0.50000000  1
