# generated using pymatgen
data_Mn2FeO6
_symmetry_space_group_name_H-M   'P 1'
_cell_length_a   5.94205744
_cell_length_b   5.90989693
_cell_length_c   14.29779271
_cell_angle_alpha   90.71337736
_cell_angle_beta   90.16694936
_cell_angle_gamma   59.30547405
_symmetry_Int_Tables_number   1
_chemical_formula_structural   Mn2FeO6
_chemical_formula_sum   'Mn8 Fe4 O24'
_cell_volume   431.71494449
_cell_formula_units_Z   4
loop_
 _symmetry_equiv_pos_site_id
 _symmetry_equiv_pos_as_xyz
  1  'x, y, z'
loop_
 _atom_site_type_symbol
 _atom_site_label
 _atom_site_symmetry_multiplicity
 _atom_site_fract_x
 _atom_site_fract_y
 _atom_site_fract_z
 _atom_site_occupancy
  Mn  Mn0  1  0.33678305  0.33125980  0.04186545  1
  Mn  Mn1  1  0.16808443  0.66615122  0.20840032  1
  Mn  Mn2  1  0.66695616  0.16664262  0.20859497  1
  Mn  Mn3  1  0.33304384  0.83335738  0.54140503  1
  Mn  Mn4  1  0.83191557  0.33384878  0.54159968  1
  Mn  Mn5  1  0.66321695  0.66874020  0.70813455  1
  Mn  Mn6  1  0.00000000  0.00000000  0.37500000  1
  Mn  Mn7  1  0.50000000  0.00000000  0.87500000  1
  Fe  Fe8  1  0.83298908  0.83407153  0.54174358  1
  Fe  Fe9  1  0.16701092  0.16592847  0.20825642  1
  Fe  Fe10  1  0.00000000  0.50000000  0.87500000  1
  Fe  Fe11  1  0.50000000  0.50000000  0.87500000  1
  O  O12  1  0.85584707  0.85465365  0.28640704  1
  O  O13  1  0.29035473  0.84896640  0.28772860  1
  O  O14  1  0.04533058  0.48414921  0.12829973  1
  O  O15  1  0.48054866  0.47728891  0.13134664  1
  O  O16  1  0.33590341  0.33702607  0.27627356  1
  O  O17  1  0.14995730  0.70927812  0.46199002  1
  O  O18  1  0.48601597  0.04167524  0.12884849  1
  O  O19  1  0.99785849  0.99532508  0.14040965  1
  O  O20  1  0.66409659  0.66297393  0.47372644  1
  O  O21  1  0.85004270  0.29072188  0.28800998  1
  O  O22  1  0.51398403  0.95832476  0.62115151  1
  O  O23  1  0.51945134  0.52271109  0.61865336  1
  O  O24  1  0.95466942  0.51585079  0.62170027  1
  O  O25  1  0.80225237  0.81790103  0.79437315  1
  O  O26  1  0.37062652  0.82238246  0.79555999  1
  O  O27  1  0.14415293  0.14534635  0.46359296  1
  O  O28  1  0.70964527  0.15103360  0.46227140  1
  O  O29  1  0.79990161  0.37482731  0.79316311  1
  O  O30  1  0.65916672  0.67435260  0.94394241  1
  O  O31  1  0.00214151  0.00467492  0.60959035  1
  O  O32  1  0.34083328  0.32564740  0.80605759  1
  O  O33  1  0.20009839  0.62517269  0.95683689  1
  O  O34  1  0.62937348  0.17761754  0.95444001  1
  O  O35  1  0.19774763  0.18209897  0.95562685  1
