# generated using pymatgen
data_Cd5Fe2(P2O7)4
_symmetry_space_group_name_H-M   'P 1'
_cell_length_a   6.73517920
_cell_length_b   6.73517920
_cell_length_c   24.48955228
_cell_angle_alpha   90.00000000
_cell_angle_beta   90.00000000
_cell_angle_gamma   97.20285372
_symmetry_Int_Tables_number   1
_chemical_formula_structural   Cd5Fe2(P2O7)4
_chemical_formula_sum   'Cd10 Fe4 P16 O56'
_cell_volume   1102.14391527
_cell_formula_units_Z   2
loop_
 _symmetry_equiv_pos_site_id
 _symmetry_equiv_pos_as_xyz
  1  'x, y, z'
loop_
 _atom_site_type_symbol
 _atom_site_label
 _atom_site_symmetry_multiplicity
 _atom_site_fract_x
 _atom_site_fract_y
 _atom_site_fract_z
 _atom_site_occupancy
  Cd  Cd0  1  0.30738380  0.30738380  0.00000000  1
  Cd  Cd1  1  0.69261620  0.69261620  0.50000000  1
  Cd  Cd2  1  0.91836678  0.91836678  -0.00000000  1
  Cd  Cd3  1  0.08163322  0.08163322  0.50000000  1
  Cd  Cd4  1  0.70354419  0.29645581  0.75000000  1
  Cd  Cd5  1  0.29645581  0.70354419  0.25000000  1
  Cd  Cd6  1  0.66453401  0.96308408  0.86375359  1
  Cd  Cd7  1  0.33546599  0.03691592  0.36375359  1
  Cd  Cd8  1  0.03691592  0.33546599  0.63624641  1
  Cd  Cd9  1  0.96308408  0.66453401  0.13624641  1
  Fe  Fe10  1  0.41867054  0.73665830  0.62232136  1
  Fe  Fe11  1  0.58132946  0.26334170  0.12232136  1
  Fe  Fe12  1  0.26334170  0.58132946  0.87767864  1
  Fe  Fe13  1  0.73665830  0.41867054  0.37767864  1
  P  P14  1  0.69713413  0.79609738  0.73082196  1
  P  P15  1  0.30286587  0.20390262  0.23082196  1
  P  P16  1  0.20390262  0.30286587  0.76917804  1
  P  P17  1  0.79609738  0.69713413  0.26917804  1
  P  P18  1  0.52124605  0.25080569  0.61542570  1
  P  P19  1  0.47875395  0.74919431  0.11542570  1
  P  P20  1  0.74919431  0.47875395  0.88457430  1
  P  P21  1  0.25080569  0.52124605  0.38457430  1
  P  P22  1  0.39571544  0.80346391  0.99455776  1
  P  P23  1  0.60428456  0.19653609  0.49455776  1
  P  P24  1  0.19653609  0.60428456  0.50544224  1
  P  P25  1  0.80346391  0.39571544  0.00544224  1
  P  P26  1  0.17020161  0.07498446  0.87423288  1
  P  P27  1  0.82979839  0.92501554  0.37423288  1
  P  P28  1  0.92501554  0.82979839  0.62576712  1
  P  P29  1  0.07498446  0.17020161  0.12576712  1
  O  O30  1  0.50331666  0.75219816  0.69662303  1
  O  O31  1  0.49668334  0.24780184  0.19662303  1
  O  O32  1  0.24780184  0.49668334  0.80337697  1
  O  O33  1  0.75219816  0.50331666  0.30337697  1
  O  O34  1  0.97297902  0.99893636  0.90224469  1
  O  O35  1  0.02702098  0.00106364  0.40224469  1
  O  O36  1  0.00106364  0.02702098  0.59775531  1
  O  O37  1  0.99893636  0.97297902  0.09775531  1
  O  O38  1  0.68681613  0.96776535  0.77106424  1
  O  O39  1  0.31318387  0.03223465  0.27106424  1
  O  O40  1  0.03223465  0.31318387  0.72893576  1
  O  O41  1  0.96776535  0.68681613  0.22893576  1
  O  O42  1  0.38084714  0.23343563  0.74124671  1
  O  O43  1  0.61915286  0.76656437  0.24124671  1
  O  O44  1  0.76656437  0.61915286  0.75875329  1
  O  O45  1  0.23343563  0.38084714  0.25875329  1
  O  O46  1  0.60297954  0.30404523  0.55343683  1
  O  O47  1  0.39702046  0.69595477  0.05343683  1
  O  O48  1  0.69595477  0.39702046  0.94656317  1
  O  O49  1  0.30404523  0.60297954  0.44656317  1
  O  O50  1  0.30512887  0.61935466  0.96001486  1
  O  O51  1  0.69487113  0.38064534  0.46001486  1
  O  O52  1  0.38064534  0.69487113  0.53998514  1
  O  O53  1  0.61935466  0.30512887  0.03998514  1
  O  O54  1  0.31039151  0.90673768  0.87156514  1
  O  O55  1  0.68960849  0.09326232  0.37156514  1
  O  O56  1  0.09326232  0.68960849  0.62843486  1
  O  O57  1  0.90673768  0.31039151  0.12843486  1
  O  O58  1  0.27549976  0.27165497  0.90031935  1
  O  O59  1  0.72450024  0.72834503  0.40031935  1
  O  O60  1  0.72834503  0.72450024  0.59968065  1
  O  O61  1  0.27165497  0.27549976  0.09968065  1
  O  O62  1  0.42332745  0.03399994  0.61447206  1
  O  O63  1  0.57667255  0.96600006  0.11447206  1
  O  O64  1  0.96600006  0.57667255  0.88552794  1
  O  O65  1  0.03399994  0.42332745  0.38552794  1
  O  O66  1  0.59403246  0.62633527  0.87450186  1
  O  O67  1  0.40596754  0.37366473  0.37450186  1
  O  O68  1  0.37366473  0.40596754  0.62549814  1
  O  O69  1  0.62633527  0.59403246  0.12549814  1
  O  O70  1  0.25549658  0.96472895  0.99771592  1
  O  O71  1  0.74450342  0.03527105  0.49771592  1
  O  O72  1  0.03527105  0.74450342  0.50228408  1
  O  O73  1  0.96472895  0.25549658  0.00228408  1
  O  O74  1  0.60174770  0.89088510  0.97561061  1
  O  O75  1  0.39825230  0.10911490  0.47561061  1
  O  O76  1  0.10911490  0.39825230  0.52438939  1
  O  O77  1  0.89088510  0.60174770  0.02438939  1
  O  O78  1  0.87078622  0.88578934  0.68703272  1
  O  O79  1  0.12921378  0.11421066  0.18703272  1
  O  O80  1  0.11421066  0.12921378  0.81296728  1
  O  O81  1  0.88578934  0.87078622  0.31296728  1
  O  O82  1  0.70833875  0.29457926  0.84850774  1
  O  O83  1  0.29166125  0.70542074  0.34850774  1
  O  O84  1  0.70542074  0.29166125  0.65149226  1
  O  O85  1  0.29457926  0.70833875  0.15149226  1
