# generated using pymatgen
data_Ba3ZrF10
_symmetry_space_group_name_H-M   'P 1'
_cell_length_a   6.19156158
_cell_length_b   8.75439429
_cell_length_c   8.75439429
_cell_angle_alpha   100.85817830
_cell_angle_beta   90.00000000
_cell_angle_gamma   90.00000000
_symmetry_Int_Tables_number   1
_chemical_formula_structural   Ba3ZrF10
_chemical_formula_sum   'Ba6 Zr2 F20'
_cell_volume   466.02214625
_cell_formula_units_Z   2
loop_
 _symmetry_equiv_pos_site_id
 _symmetry_equiv_pos_as_xyz
  1  'x, y, z'
loop_
 _atom_site_type_symbol
 _atom_site_label
 _atom_site_symmetry_multiplicity
 _atom_site_fract_x
 _atom_site_fract_y
 _atom_site_fract_z
 _atom_site_occupancy
  Ba  Ba0  1  0.75000000  0.39729660  0.17343944  1
  Ba  Ba1  1  0.25000000  0.60270340  0.82656056  1
  Ba  Ba2  1  0.75000000  0.82656056  0.60270340  1
  Ba  Ba3  1  0.25000000  0.17343944  0.39729660  1
  Ba  Ba4  1  0.75000000  0.88842099  0.11157901  1
  Ba  Ba5  1  0.25000000  0.11157901  0.88842099  1
  Zr  Zr6  1  0.75000000  0.32215411  0.67784589  1
  Zr  Zr7  1  0.25000000  0.67784589  0.32215411  1
  F  F8  1  -0.00000000  0.86181457  0.86181457  1
  F  F9  1  -0.00000000  0.13818543  0.13818543  1
  F  F10  1  0.50000000  0.13818543  0.13818543  1
  F  F11  1  0.50000000  0.86181457  0.86181457  1
  F  F12  1  0.95923808  0.34878072  0.88486783  1
  F  F13  1  0.04076192  0.65121928  0.11513217  1
  F  F14  1  0.45923808  0.65121928  0.11513217  1
  F  F15  1  0.54076192  0.11513217  0.65121928  1
  F  F16  1  0.54076192  0.34878072  0.88486783  1
  F  F17  1  0.45923808  0.88486783  0.34878072  1
  F  F18  1  0.04076192  0.88486783  0.34878072  1
  F  F19  1  0.95923808  0.11513217  0.65121928  1
  F  F20  1  0.75000000  0.56851599  0.75370993  1
  F  F21  1  0.25000000  0.43148401  0.24629007  1
  F  F22  1  0.75000000  0.24629007  0.43148401  1
  F  F23  1  0.25000000  0.75370993  0.56851599  1
  F  F24  1  0.95805700  0.60249025  0.39750975  1
  F  F25  1  0.04194300  0.39750975  0.60249025  1
  F  F26  1  0.45805700  0.39750975  0.60249025  1
  F  F27  1  0.54194300  0.60249025  0.39750975  1
