# generated using pymatgen
data_CaCoGeO4
_symmetry_space_group_name_H-M   'P 1'
_cell_length_a   5.05885524
_cell_length_b   6.47101039
_cell_length_c   11.39348789
_cell_angle_alpha   90.00000000
_cell_angle_beta   90.00000000
_cell_angle_gamma   90.00000000
_symmetry_Int_Tables_number   1
_chemical_formula_structural   CaCoGeO4
_chemical_formula_sum   'Ca4 Co4 Ge4 O16'
_cell_volume   372.97613513
_cell_formula_units_Z   4
loop_
 _symmetry_equiv_pos_site_id
 _symmetry_equiv_pos_as_xyz
  1  'x, y, z'
loop_
 _atom_site_type_symbol
 _atom_site_label
 _atom_site_symmetry_multiplicity
 _atom_site_fract_x
 _atom_site_fract_y
 _atom_site_fract_z
 _atom_site_occupancy
  Ca  Ca0  1  0.48874029  0.75000000  0.77487380  1
  Ca  Ca1  1  0.51125971  0.25000000  0.22512620  1
  Ca  Ca2  1  0.98874029  0.25000000  0.72512620  1
  Ca  Ca3  1  0.01125971  0.75000000  0.27487380  1
  Co  Co4  1  -0.00000000  -0.00000000  -0.00000000  1
  Co  Co5  1  0.50000000  -0.00000000  0.50000000  1
  Co  Co6  1  -0.00000000  0.50000000  -0.00000000  1
  Co  Co7  1  0.50000000  0.50000000  0.50000000  1
  Ge  Ge8  1  0.92386956  0.75000000  0.58227679  1
  Ge  Ge9  1  0.07613044  0.25000000  0.41772321  1
  Ge  Ge10  1  0.42386956  0.25000000  0.91772321  1
  Ge  Ge11  1  0.57613044  0.75000000  0.08227679  1
  O  O12  1  0.27405282  0.75000000  0.58126639  1
  O  O13  1  0.72594718  0.25000000  0.41873361  1
  O  O14  1  0.77405282  0.25000000  0.91873361  1
  O  O15  1  0.22594718  0.75000000  0.08126639  1
  O  O16  1  0.76911664  0.96705420  0.65076967  1
  O  O17  1  0.23088336  0.03294580  0.34923033  1
  O  O18  1  0.26911664  0.03294580  0.84923033  1
  O  O19  1  0.23088336  0.46705420  0.34923033  1
  O  O20  1  0.73088336  0.96705420  0.15076967  1
  O  O21  1  0.76911664  0.53294580  0.65076967  1
  O  O22  1  0.73088336  0.53294580  0.15076967  1
  O  O23  1  0.26911664  0.46705420  0.84923033  1
  O  O24  1  0.74926465  0.75000000  0.94380922  1
  O  O25  1  0.25073535  0.25000000  0.05619078  1
  O  O26  1  0.24926465  0.25000000  0.55619078  1
  O  O27  1  0.75073535  0.75000000  0.44380922  1
