# generated using pymatgen
data_Ba6Eu2Ga4O15
_symmetry_space_group_name_H-M   'P 1'
_cell_length_a   6.07207090
_cell_length_b   8.21291473
_cell_length_c   18.78007635
_cell_angle_alpha   91.41943574
_cell_angle_beta   90.00000000
_cell_angle_gamma   90.00000000
_symmetry_Int_Tables_number   1
_chemical_formula_structural   Ba6Eu2Ga4O15
_chemical_formula_sum   'Ba12 Eu4 Ga8 O30'
_cell_volume   936.26376374
_cell_formula_units_Z   2
loop_
 _symmetry_equiv_pos_site_id
 _symmetry_equiv_pos_as_xyz
  1  'x, y, z'
loop_
 _atom_site_type_symbol
 _atom_site_label
 _atom_site_symmetry_multiplicity
 _atom_site_fract_x
 _atom_site_fract_y
 _atom_site_fract_z
 _atom_site_occupancy
  Ba  Ba0  1  0.75623682  0.49832391  0.42086354  1
  Ba  Ba1  1  0.24376318  0.50167609  0.57913646  1
  Ba  Ba2  1  0.75623682  0.50167609  0.07913646  1
  Ba  Ba3  1  0.24376318  0.49832391  0.92086354  1
  Ba  Ba4  1  0.74392272  0.97071842  0.41043235  1
  Ba  Ba5  1  0.25607728  0.02928158  0.58956765  1
  Ba  Ba6  1  0.74392272  0.02928158  0.08956765  1
  Ba  Ba7  1  0.25607728  0.97071842  0.91043235  1
  Ba  Ba8  1  0.72278189  0.00000000  0.75000000  1
  Ba  Ba9  1  0.27721811  0.00000000  0.25000000  1
  Ba  Ba10  1  0.66834647  0.50000000  0.75000000  1
  Ba  Ba11  1  0.33165353  0.50000000  0.25000000  1
  Eu  Eu12  1  0.74397926  0.75304321  0.59054514  1
  Eu  Eu13  1  0.25602074  0.24695679  0.40945486  1
  Eu  Eu14  1  0.74397926  0.24695679  0.90945486  1
  Eu  Eu15  1  0.25602074  0.75304321  0.09054514  1
  Ga  Ga16  1  0.75345524  0.75282143  0.93962842  1
  Ga  Ga17  1  0.24654476  0.24717857  0.06037158  1
  Ga  Ga18  1  0.75345524  0.24717857  0.56037158  1
  Ga  Ga19  1  0.24654476  0.75282143  0.43962842  1
  Ga  Ga20  1  0.77645611  0.77126399  0.23600847  1
  Ga  Ga21  1  0.22354389  0.22873601  0.76399153  1
  Ga  Ga22  1  0.77645611  0.22873601  0.26399153  1
  Ga  Ga23  1  0.22354389  0.77126399  0.73600847  1
  O  O24  1  0.21039123  0.00000000  0.75000000  1
  O  O25  1  0.78960877  0.00000000  0.25000000  1
  O  O26  1  0.49455670  0.76526848  0.49958714  1
  O  O27  1  0.50544330  0.23473152  0.50041286  1
  O  O28  1  0.49455670  0.23473152  0.00041286  1
  O  O29  1  0.50544330  0.76526848  -0.00041286  1
  O  O30  1  0.75964713  0.94986024  0.88988125  1
  O  O31  1  0.24035287  0.05013976  0.11011875  1
  O  O32  1  0.75964713  0.05013976  0.61011875  1
  O  O33  1  0.24035287  0.94986024  0.38988125  1
  O  O34  1  0.99962909  0.76340451  0.50108904  1
  O  O35  1  0.00037091  0.23659549  0.49891096  1
  O  O36  1  0.99962909  0.23659549  0.99891096  1
  O  O37  1  0.00037091  0.76340451  0.00108904  1
  O  O38  1  0.32197417  0.69084650  0.81984525  1
  O  O39  1  0.67802583  0.30915350  0.18015475  1
  O  O40  1  0.32197417  0.30915350  0.68015475  1
  O  O41  1  0.67802583  0.69084650  0.31984525  1
  O  O42  1  0.44363643  0.74683594  0.66604000  1
  O  O43  1  0.55636357  0.25316406  0.33396000  1
  O  O44  1  0.44363643  0.25316406  0.83396000  1
  O  O45  1  0.55636357  0.74683594  0.16604000  1
  O  O46  1  0.95333395  0.72718940  0.69452664  1
  O  O47  1  0.04666605  0.27281060  0.30547336  1
  O  O48  1  0.95333395  0.27281060  0.80547336  1
  O  O49  1  0.04666605  0.72718940  0.19452664  1
  O  O50  1  0.75716648  0.53660876  0.90539955  1
  O  O51  1  0.24283352  0.46339124  0.09460045  1
  O  O52  1  0.75716648  0.46339124  0.59460045  1
  O  O53  1  0.24283352  0.53660876  0.40539955  1
