# generated using pymatgen
data_Zr4(B5Ir4)3
_symmetry_space_group_name_H-M   'P 1'
_cell_length_a   3.54859147
_cell_length_b   7.59394110
_cell_length_c   13.14709159
_cell_angle_alpha   90.03144332
_cell_angle_beta   89.91662706
_cell_angle_gamma   89.96061819
_symmetry_Int_Tables_number   1
_chemical_formula_structural   Zr4(B5Ir4)3
_chemical_formula_sum   'Zr4 B15 Ir12'
_cell_volume   354.28461114
_cell_formula_units_Z   1
loop_
 _symmetry_equiv_pos_site_id
 _symmetry_equiv_pos_as_xyz
  1  'x, y, z'
loop_
 _atom_site_type_symbol
 _atom_site_label
 _atom_site_symmetry_multiplicity
 _atom_site_fract_x
 _atom_site_fract_y
 _atom_site_fract_z
 _atom_site_occupancy
  Zr  Zr0  1  0.24999861  0.50101395  0.16860332  1
  Zr  Zr1  1  0.24908082  0.99920811  0.66490570  1
  Zr  Zr2  1  0.75091918  0.00079189  0.33509430  1
  Zr  Zr3  1  0.75000139  0.49898605  0.83139668  1
  B  B4  1  0.50000000  -0.00000000  -0.00000000  1
  B  B5  1  0.50000000  0.50000000  0.50000000  1
  B  B6  1  -0.00000000  -0.00000000  -0.00000000  1
  B  B7  1  0.76104866  0.67288038  0.27754119  1
  B  B8  1  0.75348683  0.17382184  0.77486404  1
  B  B9  1  0.75123982  0.24912717  0.20020403  1
  B  B10  1  0.75937682  0.74870476  0.69695747  1
  B  B11  1  0.75016464  0.57611547  0.02542124  1
  B  B12  1  0.76448945  0.07914329  0.52470770  1
  B  B13  1  0.24651317  0.82617816  0.22513596  1
  B  B14  1  0.23895134  0.32711962  0.72245881  1
  B  B15  1  0.24062318  0.25129524  0.30304253  1
  B  B16  1  0.24876018  0.75087283  0.79979597  1
  B  B17  1  0.23551055  0.92085671  0.47529230  1
  B  B18  1  0.24983536  0.42388453  0.97457876  1
  Ir  Ir19  1  0.74026502  0.40801651  0.33645756  1
  Ir  Ir20  1  0.75084882  0.90851467  0.83612407  1
  Ir  Ir21  1  0.75058384  0.29255634  0.03698274  1
  Ir  Ir22  1  0.73555331  0.79005183  0.53498970  1
  Ir  Ir23  1  0.74849962  0.80013125  0.12758302  1
  Ir  Ir24  1  0.73993010  0.30099861  0.62788386  1
  Ir  Ir25  1  0.24915118  0.09148533  0.16387593  1
  Ir  Ir26  1  0.25973498  0.59198349  0.66354244  1
  Ir  Ir27  1  0.26444669  0.20994817  0.46501030  1
  Ir  Ir28  1  0.24941616  0.70744366  0.96301726  1
  Ir  Ir29  1  0.26006990  0.69900139  0.37211614  1
  Ir  Ir30  1  0.25150038  0.19986875  0.87241698  1
