# generated using pymatgen
data_AgMo6Cl13
_symmetry_space_group_name_H-M   'P 1'
_cell_length_a   9.10534389
_cell_length_b   9.20250139
_cell_length_c   14.18336470
_cell_angle_alpha   96.19102990
_cell_angle_beta   102.40780242
_cell_angle_gamma   114.43172605
_symmetry_Int_Tables_number   1
_chemical_formula_structural   AgMo6Cl13
_chemical_formula_sum   'Ag2 Mo12 Cl26'
_cell_volume   1030.57383813
_cell_formula_units_Z   2
loop_
 _symmetry_equiv_pos_site_id
 _symmetry_equiv_pos_as_xyz
  1  'x, y, z'
loop_
 _atom_site_type_symbol
 _atom_site_label
 _atom_site_symmetry_multiplicity
 _atom_site_fract_x
 _atom_site_fract_y
 _atom_site_fract_z
 _atom_site_occupancy
  Ag  Ag0  1  0.01799567  0.25251314  0.77263428  1
  Ag  Ag1  1  0.98200433  0.74748686  0.22736572  1
  Mo  Mo2  1  0.31426817  0.38193599  0.54257820  1
  Mo  Mo3  1  0.68573183  0.61806401  0.45742180  1
  Mo  Mo4  1  0.36311093  0.54453871  0.40143972  1
  Mo  Mo5  1  0.63688907  0.45546129  0.59856028  1
  Mo  Mo6  1  0.70249590  0.00290944  0.06417090  1
  Mo  Mo7  1  0.29750410  0.99709056  0.93582910  1
  Mo  Mo8  1  0.60490059  0.22752486  0.02556627  1
  Mo  Mo9  1  0.39509941  0.77247514  0.97443373  1
  Mo  Mo10  1  0.45596625  0.31026502  0.41307473  1
  Mo  Mo11  1  0.54403375  0.68973498  0.58692527  1
  Mo  Mo12  1  0.44733055  0.01015252  0.11978322  1
  Mo  Mo13  1  0.55266945  0.98984748  0.88021678  1
  Cl  Cl14  1  0.06707369  0.22291361  0.59722492  1
  Cl  Cl15  1  0.93292631  0.77708639  0.40277508  1
  Cl  Cl16  1  0.23696660  0.61124935  0.52853904  1
  Cl  Cl17  1  0.76303340  0.38875065  0.47146096  1
  Cl  Cl18  1  0.74577035  0.52696121  0.06621426  1
  Cl  Cl19  1  0.25422965  0.47303879  0.93378574  1
  Cl  Cl20  1  0.16053866  0.78861332  0.02895855  1
  Cl  Cl21  1  0.83946134  0.21138668  0.97104145  1
  Cl  Cl22  1  0.41237643  0.16686093  0.55132152  1
  Cl  Cl23  1  0.58762357  0.83313907  0.44867848  1
  Cl  Cl24  1  0.50806564  0.47620231  0.28610739  1
  Cl  Cl25  1  0.49193436  0.52379769  0.71389261  1
  Cl  Cl26  1  0.35406892  0.21625675  0.07415210  1
  Cl  Cl27  1  0.64593108  0.78374325  0.92584790  1
  Cl  Cl28  1  0.54145569  0.79653083  0.14980529  1
  Cl  Cl29  1  0.45854431  0.20346917  0.85019471  1
  Cl  Cl30  1  0.38984999  0.04722740  0.29072373  1
  Cl  Cl31  1  0.61015001  0.95277260  0.70927627  1
  Cl  Cl32  1  0.74136548  0.22669383  0.19731159  1
  Cl  Cl33  1  0.25863452  0.77330617  0.80268841  1
  Cl  Cl34  1  0.96422603  0.99446230  0.14698366  1
  Cl  Cl35  1  0.03577397  0.00553770  0.85301634  1
  Cl  Cl36  1  0.15430585  0.25159460  0.36743256  1
  Cl  Cl37  1  0.84569415  0.74840540  0.63256744  1
  Cl  Cl38  1  0.17997605  0.59108082  0.26623653  1
  Cl  Cl39  1  0.82002395  0.40891918  0.73376347  1
