# generated using pymatgen
data_FeCoO4
_symmetry_space_group_name_H-M   'P 1'
_cell_length_a   4.88995115
_cell_length_b   5.46903432
_cell_length_c   4.33764564
_cell_angle_alpha   90.00000000
_cell_angle_beta   87.33011353
_cell_angle_gamma   90.00000000
_symmetry_Int_Tables_number   1
_chemical_formula_structural   FeCoO4
_chemical_formula_sum   'Fe2 Co2 O8'
_cell_volume   115.87708302
_cell_formula_units_Z   2
loop_
 _symmetry_equiv_pos_site_id
 _symmetry_equiv_pos_as_xyz
  1  'x, y, z'
loop_
 _atom_site_type_symbol
 _atom_site_label
 _atom_site_symmetry_multiplicity
 _atom_site_fract_x
 _atom_site_fract_y
 _atom_site_fract_z
 _atom_site_occupancy
  Fe  Fe0  1  0.25000000  0.84493083  0.00000000  1
  Fe  Fe1  1  0.75000000  0.15506917  0.00000000  1
  Co  Co2  1  0.25000000  0.36096102  0.50000000  1
  Co  Co3  1  0.75000000  0.63903898  0.50000000  1
  O  O4  1  0.08996204  0.12381741  0.75621971  1
  O  O5  1  0.07015458  0.60793744  0.72497371  1
  O  O6  1  0.42984542  0.60793744  0.27502629  1
  O  O7  1  0.41003796  0.12381741  0.24378029  1
  O  O8  1  0.58996204  0.87618259  0.75621971  1
  O  O9  1  0.57015458  0.39206256  0.72497371  1
  O  O10  1  0.92984542  0.39206256  0.27502629  1
  O  O11  1  0.91003796  0.87618259  0.24378029  1
