# generated using pymatgen
data_ZnCr4CoO8
_symmetry_space_group_name_H-M   'P 1'
_cell_length_a   6.00266249
_cell_length_b   6.00266249
_cell_length_c   6.00266249
_cell_angle_alpha   90.00000000
_cell_angle_beta   60.00000000
_cell_angle_gamma   120.00000000
_symmetry_Int_Tables_number   1
_chemical_formula_structural   ZnCr4CoO8
_chemical_formula_sum   'Zn1 Cr4 Co1 O8'
_cell_volume   152.93848257
_cell_formula_units_Z   1
loop_
 _symmetry_equiv_pos_site_id
 _symmetry_equiv_pos_as_xyz
  1  'x, y, z'
loop_
 _atom_site_type_symbol
 _atom_site_label
 _atom_site_symmetry_multiplicity
 _atom_site_fract_x
 _atom_site_fract_y
 _atom_site_fract_z
 _atom_site_occupancy
  Zn  Zn0  1  0.00000000  0.00000000  -0.00000000  1
  Cr  Cr1  1  0.75000670  0.37500335  0.87498994  1
  Cr  Cr2  1  0.24999330  0.37500335  0.37500335  1
  Cr  Cr3  1  0.24999330  0.87498994  0.37500335  1
  Cr  Cr4  1  0.75000670  0.37500335  0.37500335  1
  Co  Co5  1  0.50000000  0.75000000  0.75000000  1
  O  O6  1  0.27264013  0.13632006  0.59103981  1
  O  O7  1  0.72735987  0.13632006  0.13632006  1
  O  O8  1  0.72735987  0.59103981  0.13632006  1
  O  O9  1  0.27264013  0.13632006  0.13632006  1
  O  O10  1  0.22746946  0.61373473  0.15879581  1
  O  O11  1  0.77253054  0.61373473  0.61373473  1
  O  O12  1  0.77253054  0.15879581  0.61373473  1
  O  O13  1  0.22746946  0.61373473  0.61373473  1
