# generated using pymatgen
data_Zn10Pd3
_symmetry_space_group_name_H-M   'P 1'
_cell_length_a   8.06227848
_cell_length_b   7.95098343
_cell_length_c   7.95098343
_cell_angle_alpha   69.87233134
_cell_angle_beta   70.20383375
_cell_angle_gamma   109.79616625
_symmetry_Int_Tables_number   1
_chemical_formula_structural   Zn10Pd3
_chemical_formula_sum   'Zn20 Pd6'
_cell_volume   385.89529558
_cell_formula_units_Z   2
loop_
 _symmetry_equiv_pos_site_id
 _symmetry_equiv_pos_as_xyz
  1  'x, y, z'
loop_
 _atom_site_type_symbol
 _atom_site_label
 _atom_site_symmetry_multiplicity
 _atom_site_fract_x
 _atom_site_fract_y
 _atom_site_fract_z
 _atom_site_occupancy
  Zn  Zn0  1  0.78160791  0.78785814  0.21214186  1
  Zn  Zn1  1  0.22216665  0.99714209  0.00285791  1
  Zn  Zn2  1  0.99377550  0.21412265  0.00489676  1
  Zn  Zn3  1  0.99377550  0.99510324  0.78587735  1
  Zn  Zn4  1  0.39124736  0.65902073  0.34097927  1
  Zn  Zn5  1  0.64930103  0.65752072  0.61934155  1
  Zn  Zn6  1  0.64930103  0.38065845  0.34247928  1
  Zn  Zn7  1  0.62776728  0.28442394  0.71557606  1
  Zn  Zn8  1  0.35198846  0.72556650  0.00553840  1
  Zn  Zn9  1  0.35198846  0.99446160  0.27443350  1
  Zn  Zn10  1  0.98458029  0.33494509  0.28279188  1
  Zn  Zn11  1  0.72970974  0.34619342  0.01027247  1
  Zn  Zn12  1  0.27759178  0.62919375  0.71625273  1
  Zn  Zn13  1  0.98458029  0.71720812  0.66505491  1
  Zn  Zn14  1  0.27759178  0.28374727  0.37080625  1
  Zn  Zn15  1  0.72970974  0.98972753  0.65380658  1
  Zn  Zn16  1  0.99329203  0.63830498  0.36169502  1
  Zn  Zn17  1  0.35145772  0.35368724  0.99716350  1
  Zn  Zn18  1  0.35145772  0.00283650  0.64631276  1
  Zn  Zn19  1  0.00675040  0.36303588  0.63696412  1
  Pd  Pd20  1  0.63362870  0.63091918  0.00242041  1
  Pd  Pd21  1  0.63362870  0.99757959  0.36908082  1
  Pd  Pd22  1  0.34418527  0.34363995  0.65636005  1
  Pd  Pd23  1  0.65887113  0.01612258  0.98387742  1
  Pd  Pd24  1  0.01502276  0.65611360  0.99913277  1
  Pd  Pd25  1  0.01502276  0.00086723  0.34388640  1
