# generated using pymatgen
data_Zr3Mn8Al
_symmetry_space_group_name_H-M   'P 1'
_cell_length_a   4.86891478
_cell_length_b   4.86891478
_cell_length_c   8.12078269
_cell_angle_alpha   89.99098040
_cell_angle_beta   90.00901960
_cell_angle_gamma   119.99222096
_symmetry_Int_Tables_number   1
_chemical_formula_structural   Zr3Mn8Al
_chemical_formula_sum   'Zr3 Mn8 Al1'
_cell_volume   166.73504777
_cell_formula_units_Z   1
loop_
 _symmetry_equiv_pos_site_id
 _symmetry_equiv_pos_as_xyz
  1  'x, y, z'
loop_
 _atom_site_type_symbol
 _atom_site_label
 _atom_site_symmetry_multiplicity
 _atom_site_fract_x
 _atom_site_fract_y
 _atom_site_fract_z
 _atom_site_occupancy
  Zr  Zr0  1  0.33331848  0.66668152  0.44166383  1
  Zr  Zr1  1  0.33334106  0.66665894  0.06530976  1
  Zr  Zr2  1  0.66664951  0.33335049  0.92341907  1
  Mn  Mn3  1  0.99999072  0.00000928  0.50253837  1
  Mn  Mn4  1  0.99997430  0.00002570  0.00505023  1
  Mn  Mn5  1  0.17100681  0.34205986  0.74522052  1
  Mn  Mn6  1  0.17103134  0.82896866  0.74518603  1
  Mn  Mn7  1  0.65794014  0.82899319  0.74522052  1
  Mn  Mn8  1  0.82665173  0.65324520  0.25421754  1
  Mn  Mn9  1  0.82663906  0.17336094  0.25423710  1
  Mn  Mn10  1  0.34675480  0.17334827  0.25421754  1
  Al  Al11  1  0.66670204  0.33329796  0.56371949  1
