# generated using pymatgen
data_ThAl2Ni3
_symmetry_space_group_name_H-M   'P 1'
_cell_length_a   4.13026234
_cell_length_b   5.04353093
_cell_length_c   5.04353076
_cell_angle_alpha   61.93030258
_cell_angle_beta   90.00000000
_cell_angle_gamma   90.00000000
_symmetry_Int_Tables_number   1
_chemical_formula_structural   ThAl2Ni3
_chemical_formula_sum   'Th1 Al2 Ni3'
_cell_volume   92.70445675
_cell_formula_units_Z   1
loop_
 _symmetry_equiv_pos_site_id
 _symmetry_equiv_pos_as_xyz
  1  'x, y, z'
loop_
 _atom_site_type_symbol
 _atom_site_label
 _atom_site_symmetry_multiplicity
 _atom_site_fract_x
 _atom_site_fract_y
 _atom_site_fract_z
 _atom_site_occupancy
  Th  Th0  1  -0.00000000  0.99997981  0.00002019  1
  Al  Al1  1  0.50000000  0.49999086  0.00001364  1
  Al  Al2  1  0.50000000  0.99998636  0.50000914  1
  Ni  Ni3  1  -0.00000000  0.32989442  0.32994734  1
  Ni  Ni4  1  -0.00000000  0.67005266  0.67010558  1
  Ni  Ni5  1  0.50000000  0.49999588  0.50000412  1
