# generated using pymatgen
data_Ti4CoNi
_symmetry_space_group_name_H-M   'P 1'
_cell_length_a   7.94468216
_cell_length_b   7.94468216
_cell_length_c   7.94468216
_cell_angle_alpha   60.00000000
_cell_angle_beta   120.00000000
_cell_angle_gamma   120.00000000
_symmetry_Int_Tables_number   1
_chemical_formula_structural   Ti4CoNi
_chemical_formula_sum   'Ti16 Co4 Ni4'
_cell_volume   354.58028433
_cell_formula_units_Z   4
loop_
 _symmetry_equiv_pos_site_id
 _symmetry_equiv_pos_as_xyz
  1  'x, y, z'
loop_
 _atom_site_type_symbol
 _atom_site_label
 _atom_site_symmetry_multiplicity
 _atom_site_fract_x
 _atom_site_fract_y
 _atom_site_fract_z
 _atom_site_occupancy
  Ti  Ti0  1  0.49490037  0.48470112  0.00509963  1
  Ti  Ti1  1  0.49490037  0.00509963  0.00509963  1
  Ti  Ti2  1  0.49490037  0.00509963  0.48470112  1
  Ti  Ti3  1  0.01529888  0.00509963  0.00509963  1
  Ti  Ti4  1  0.06255200  0.81255200  0.43744800  1
  Ti  Ti5  1  0.68744800  0.43744800  0.81255200  1
  Ti  Ti6  1  0.06255200  0.81255200  0.81255200  1
  Ti  Ti7  1  0.68744800  0.43744800  0.43744800  1
  Ti  Ti8  1  0.06255200  0.43744800  0.81255200  1
  Ti  Ti9  1  0.68744800  0.81255200  0.43744800  1
  Ti  Ti10  1  0.93929950  0.18929950  0.56070050  1
  Ti  Ti11  1  0.31070050  0.56070050  0.18929950  1
  Ti  Ti12  1  0.93929950  0.18929950  0.18929950  1
  Ti  Ti13  1  0.31070050  0.56070050  0.56070050  1
  Ti  Ti14  1  0.93929950  0.56070050  0.18929950  1
  Ti  Ti15  1  0.31070050  0.18929950  0.56070050  1
  Co  Co16  1  0.27883508  0.83650524  0.22116492  1
  Co  Co17  1  0.27883508  0.22116492  0.22116492  1
  Co  Co18  1  0.27883508  0.22116492  0.83650524  1
  Co  Co19  1  0.66349476  0.22116492  0.22116492  1
  Ni  Ni20  1  0.71371321  0.14113962  0.78628679  1
  Ni  Ni21  1  0.71371321  0.78628679  0.78628679  1
  Ni  Ni22  1  0.71371321  0.78628679  0.14113962  1
  Ni  Ni23  1  0.35886038  0.78628679  0.78628679  1
