# generated using pymatgen
data_V2Cd5(P2O7)4
_symmetry_space_group_name_H-M   'P 1'
_cell_length_a   6.73640646
_cell_length_b   6.73640646
_cell_length_c   24.56722994
_cell_angle_alpha   90.00000000
_cell_angle_beta   90.00000000
_cell_angle_gamma   97.11192093
_symmetry_Int_Tables_number   1
_chemical_formula_structural   V2Cd5(P2O7)4
_chemical_formula_sum   'V4 Cd10 P16 O56'
_cell_volume   1106.26319351
_cell_formula_units_Z   2
loop_
 _symmetry_equiv_pos_site_id
 _symmetry_equiv_pos_as_xyz
  1  'x, y, z'
loop_
 _atom_site_type_symbol
 _atom_site_label
 _atom_site_symmetry_multiplicity
 _atom_site_fract_x
 _atom_site_fract_y
 _atom_site_fract_z
 _atom_site_occupancy
  V  V0  1  0.92111176  0.23639149  0.87824296  1
  V  V1  1  0.23639149  0.92111176  0.12175704  1
  V  V2  1  0.07888824  0.76360851  0.37824296  1
  V  V3  1  0.76360851  0.07888824  0.62175704  1
  Cd  Cd4  1  0.58051843  0.58051843  -0.00000000  1
  Cd  Cd5  1  0.41948157  0.41948157  0.50000000  1
  Cd  Cd6  1  0.16317298  0.45890984  0.63646383  1
  Cd  Cd7  1  0.45890984  0.16317298  0.36353617  1
  Cd  Cd8  1  0.83682702  0.54109016  0.13646383  1
  Cd  Cd9  1  0.54109016  0.83682702  0.86353617  1
  Cd  Cd10  1  0.19174462  0.19174462  -0.00000000  1
  Cd  Cd11  1  0.80825538  0.80825538  0.50000000  1
  Cd  Cd12  1  0.79678205  0.20321795  0.25000000  1
  Cd  Cd13  1  0.20321795  0.79678205  0.75000000  1
  P  P14  1  0.02366056  0.75398658  0.88531447  1
  P  P15  1  0.75398658  0.02366056  0.11468553  1
  P  P16  1  0.97633944  0.24601342  0.38531447  1
  P  P17  1  0.24601342  0.97633944  0.61468553  1
  P  P18  1  0.30501062  0.89770812  0.49403182  1
  P  P19  1  0.89770812  0.30501062  0.50596818  1
  P  P20  1  0.69498938  0.10229188  0.99403182  1
  P  P21  1  0.10229188  0.69498938  0.00596818  1
  P  P22  1  0.66837370  0.57552651  0.62600165  1
  P  P23  1  0.57552651  0.66837370  0.37399835  1
  P  P24  1  0.33162630  0.42447349  0.12600165  1
  P  P25  1  0.42447349  0.33162630  0.87399835  1
  P  P26  1  0.19500883  0.29620082  0.76942067  1
  P  P27  1  0.29620082  0.19500883  0.23057933  1
  P  P28  1  0.80499117  0.70379918  0.26942067  1
  P  P29  1  0.70379918  0.80499117  0.73057933  1
  O  O30  1  0.11936507  0.26409861  0.25821456  1
  O  O31  1  0.26409861  0.11936507  0.74178544  1
  O  O32  1  0.88063493  0.73590139  0.75821456  1
  O  O33  1  0.73590139  0.88063493  0.24178544  1
  O  O34  1  0.39033203  0.10308919  0.47407144  1
  O  O35  1  0.10308919  0.39033203  0.52592856  1
  O  O36  1  0.60966797  0.89691081  0.97407144  1
  O  O37  1  0.89691081  0.60966797  0.02592856  1
  O  O38  1  0.19459492  0.90230627  0.55222487  1
  O  O39  1  0.90230627  0.19459492  0.44777513  1
  O  O40  1  0.80540508  0.09769373  0.05222487  1
  O  O41  1  0.09769373  0.80540508  0.94777513  1
  O  O42  1  0.92367264  0.53845162  0.88562484  1
  O  O43  1  0.53845162  0.92367264  0.11437516  1
  O  O44  1  0.07632736  0.46154838  0.38562484  1
  O  O45  1  0.46154838  0.07632736  0.61437516  1
  O  O46  1  0.87883271  0.19623274  0.96006371  1
  O  O47  1  0.19623274  0.87883271  0.03993629  1
  O  O48  1  0.12116729  0.80376726  0.46006371  1
  O  O49  1  0.80376726  0.12116729  0.53993629  1
  O  O50  1  0.46593857  0.75745590  0.49797558  1
  O  O51  1  0.75745590  0.46593857  0.50202442  1
  O  O52  1  0.53406143  0.24254410  0.99797558  1
  O  O53  1  0.24254410  0.53406143  0.00202442  1
  O  O54  1  0.47092315  0.49833255  0.59797451  1
  O  O55  1  0.49833255  0.47092315  0.40202549  1
  O  O56  1  0.52907685  0.50166745  0.09797451  1
  O  O57  1  0.50166745  0.52907685  0.90202549  1
  O  O58  1  0.99909456  0.24996203  0.80272002  1
  O  O59  1  0.24996203  0.99909456  0.19727998  1
  O  O60  1  0.00090544  0.75003797  0.30272002  1
  O  O61  1  0.75003797  0.00090544  0.69727998  1
  O  O62  1  0.59008122  0.19012055  0.87123776  1
  O  O63  1  0.19012055  0.59008122  0.12876224  1
  O  O64  1  0.40991878  0.80987945  0.37123776  1
  O  O65  1  0.80987945  0.40991878  0.62876224  1
  O  O66  1  0.22845553  0.22874339  0.90048719  1
  O  O67  1  0.22874339  0.22845553  0.09951281  1
  O  O68  1  0.77154447  0.77125661  0.40048719  1
  O  O69  1  0.77125661  0.77154447  0.59951281  1
  O  O70  1  0.81649019  0.53205196  0.22923606  1
  O  O71  1  0.53205196  0.81649019  0.77076394  1
  O  O72  1  0.18350981  0.46794804  0.72923606  1
  O  O73  1  0.46794804  0.18350981  0.27076394  1
  O  O74  1  0.87804852  0.91194541  0.87498050  1
  O  O75  1  0.91194541  0.87804852  0.12501950  1
  O  O76  1  0.12195148  0.08805459  0.37498050  1
  O  O77  1  0.08805459  0.12195148  0.62501950  1
  O  O78  1  0.61181510  0.63164503  0.68702806  1
  O  O79  1  0.63164503  0.61181510  0.31297194  1
  O  O80  1  0.38818490  0.36835497  0.18702806  1
  O  O81  1  0.36835497  0.38818490  0.81297194  1
  O  O82  1  0.79203609  0.20537461  0.34955287  1
  O  O83  1  0.20537461  0.79203609  0.65044713  1
  O  O84  1  0.20796391  0.79462539  0.84955287  1
  O  O85  1  0.79462539  0.20796391  0.15044713  1
