# generated using pymatgen
data_V20Ga2Ge3S40
_symmetry_space_group_name_H-M   'P 1'
_cell_length_a   9.70445894
_cell_length_b   11.89447485
_cell_length_c   11.89607993
_cell_angle_alpha   99.58587858
_cell_angle_beta   114.07202394
_cell_angle_gamma   65.92452201
_symmetry_Int_Tables_number   1
_chemical_formula_structural   V20Ga2Ge3S40
_chemical_formula_sum   'V20 Ga2 Ge3 S40'
_cell_volume   1144.67485640
_cell_formula_units_Z   1
loop_
 _symmetry_equiv_pos_site_id
 _symmetry_equiv_pos_as_xyz
  1  'x, y, z'
loop_
 _atom_site_type_symbol
 _atom_site_label
 _atom_site_symmetry_multiplicity
 _atom_site_fract_x
 _atom_site_fract_y
 _atom_site_fract_z
 _atom_site_occupancy
  V  V0  1  0.67931479  0.35805691  0.92520900  1
  V  V1  1  0.27944108  0.55776857  0.32495668  1
  V  V2  1  0.87920932  0.75842858  0.72524389  1
  V  V3  1  0.47818380  0.95855327  0.12565054  1
  V  V4  1  0.07830692  0.15844235  0.52493320  1
  V  V5  1  0.84648770  0.27406175  0.75799358  1
  V  V6  1  0.44632103  0.47457424  0.15874008  1
  V  V7  1  0.04549741  0.67536041  0.55837660  1
  V  V8  1  0.64634984  0.87521086  0.95825947  1
  V  V9  1  0.24689552  0.07464463  0.35777567  1
  V  V10  1  0.76248122  0.52463959  0.84162340  1
  V  V11  1  0.36215519  0.72542576  0.24125992  1
  V  V12  1  0.96255587  0.92593825  0.64200642  1
  V  V13  1  0.56376448  0.12535537  0.04222433  1
  V  V14  1  0.16330122  0.32478914  0.44174053  1
  V  V15  1  0.51239401  0.44157142  0.67475611  1
  V  V16  1  0.11225297  0.64223143  0.07504332  1
  V  V17  1  0.71216271  0.84194309  0.47479100  1
  V  V18  1  0.31181608  0.04155765  0.87506680  1
  V  V19  1  0.91108653  0.24144673  0.27434946  1
  Ga  Ga20  1  0.00016648  0.00003623  0.00000541  1
  Ga  Ga21  1  0.60019731  0.19996377  0.39999459  1
  Ge  Ge22  1  0.20003674  0.39998740  0.80004237  1
  Ge  Ge23  1  0.79967873  0.60000000  0.20000000  1
  Ge  Ge24  1  0.39998178  0.80001260  0.59995763  1
  S  S25  1  0.72543346  0.45161801  0.64457038  1
  S  S26  1  0.32558251  0.65133563  0.04452213  1
  S  S27  1  0.92526928  0.85219502  0.44480389  1
  S  S28  1  0.52559609  0.05192896  0.84479901  1
  S  S29  1  0.12543018  0.25177181  0.24450528  1
  S  S30  1  0.51913093  0.55521284  0.85159699  1
  S  S31  1  0.11946304  0.75517058  0.25221410  1
  S  S32  1  0.71920879  0.95556420  0.65176223  1
  S  S33  1  0.31920455  0.15544511  0.05192614  1
  S  S34  1  0.91897970  0.35536580  0.45158118  1
  S  S35  1  0.62301077  0.24443580  0.74823777  1
  S  S36  1  0.22241951  0.44482942  0.14778590  1
  S  S37  1  0.82274679  0.64478716  0.54840301  1
  S  S38  1  0.42276432  0.84463420  0.94841882  1
  S  S39  1  0.02272351  0.04455489  0.34807386  1
  S  S40  1  0.93266040  0.34780498  0.95519611  1
  S  S41  1  0.53239601  0.54866437  0.35547787  1
  S  S42  1  0.13248109  0.74838199  0.75542962  1
  S  S43  1  0.73269670  0.94822819  0.15549472  1
  S  S44  1  0.33272603  0.14807104  0.55520099  1
  S  S45  1  0.42745952  0.85421377  0.43688299  1
  S  S46  1  0.02780446  0.05478994  0.83542439  1
  S  S47  1  0.62715740  0.25514627  0.23530802  1
  S  S48  1  0.22713144  0.45464916  0.63655694  1
  S  S49  1  0.82726431  0.65437284  0.03655238  1
  S  S50  1  0.60961034  0.76313870  0.25450805  1
  S  S51  1  0.20977044  0.96324078  0.65441756  1
  S  S52  1  0.80783850  0.16472025  0.05469032  1
  S  S53  1  0.40746775  0.36499570  0.45501353  1
  S  S54  1  0.00909921  0.56335487  0.85443723  1
  S  S55  1  0.51786844  0.03527975  0.34530968  1
  S  S56  1  0.11859366  0.23675922  0.74558244  1
  S  S57  1  0.71824099  0.43686130  0.14549195  1
  S  S58  1  0.31801686  0.63664513  0.54556277  1
  S  S59  1  0.91744992  0.83500430  0.94498647  1
  S  S60  1  0.24699565  0.94485373  0.16469198  1
  S  S61  1  0.84717001  0.14521006  0.56457561  1
  S  S62  1  0.44479031  0.34578623  0.96311701  1
  S  S63  1  0.04508476  0.54562716  0.36344762  1
  S  S64  1  0.64522366  0.74535084  0.76344306  1
