# generated using pymatgen
data_Y2VFeO6
_symmetry_space_group_name_H-M   'P 1'
_cell_length_a   5.35623738
_cell_length_b   5.64489814
_cell_length_c   7.73315486
_cell_angle_alpha   90.00000000
_cell_angle_beta   89.81426553
_cell_angle_gamma   90.00000000
_symmetry_Int_Tables_number   1
_chemical_formula_structural   Y2VFeO6
_chemical_formula_sum   'Y4 V2 Fe2 O12'
_cell_volume   233.81391334
_cell_formula_units_Z   2
loop_
 _symmetry_equiv_pos_site_id
 _symmetry_equiv_pos_as_xyz
  1  'x, y, z'
loop_
 _atom_site_type_symbol
 _atom_site_label
 _atom_site_symmetry_multiplicity
 _atom_site_fract_x
 _atom_site_fract_y
 _atom_site_fract_z
 _atom_site_occupancy
  Y  Y0  1  0.48050604  0.56914837  0.24982287  1
  Y  Y1  1  0.01949396  0.06914837  0.25017713  1
  Y  Y2  1  0.51949396  0.43085163  0.75017713  1
  Y  Y3  1  0.98050604  0.93085163  0.74982287  1
  V  V4  1  0.00000000  0.50000000  0.50000000  1
  V  V5  1  0.50000000  0.00000000  -0.00000000  1
  Fe  Fe6  1  0.00000000  0.50000000  -0.00000000  1
  Fe  Fe7  1  0.50000000  0.00000000  0.50000000  1
  O  O8  1  0.69173893  0.69572178  0.94155935  1
  O  O9  1  0.80826107  0.19572178  0.55844065  1
  O  O10  1  0.31225168  0.30282865  0.44081674  1
  O  O11  1  0.18774832  0.80282865  0.05918326  1
  O  O12  1  0.30826107  0.30427822  0.05844065  1
  O  O13  1  0.19173893  0.80427822  0.44155935  1
  O  O14  1  0.68774832  0.69717135  0.55918326  1
  O  O15  1  0.81225168  0.19717135  0.94081674  1
  O  O16  1  0.88452855  0.45837027  0.24891709  1
  O  O17  1  0.61547145  0.95837027  0.25108291  1
  O  O18  1  0.11547145  0.54162973  0.75108291  1
  O  O19  1  0.38452855  0.04162973  0.74891709  1
