# generated using pymatgen
data_Th2CN
_symmetry_space_group_name_H-M   'P 1'
_cell_length_a   3.74375544
_cell_length_b   3.74375544
_cell_length_c   6.45321632
_cell_angle_alpha   73.13790758
_cell_angle_beta   90.00000000
_cell_angle_gamma   120.00000000
_symmetry_Int_Tables_number   1
_chemical_formula_structural   Th2CN
_chemical_formula_sum   'Th2 C1 N1'
_cell_volume   73.80445943
_cell_formula_units_Z   1
loop_
 _symmetry_equiv_pos_site_id
 _symmetry_equiv_pos_as_xyz
  1  'x, y, z'
loop_
 _atom_site_type_symbol
 _atom_site_label
 _atom_site_symmetry_multiplicity
 _atom_site_fract_x
 _atom_site_fract_y
 _atom_site_fract_z
 _atom_site_occupancy
  Th  Th0  1  0.24960491  0.49920982  0.25118528  1
  Th  Th1  1  0.75039509  0.50079018  0.74881472  1
  C  C2  1  0.00000000  0.00000000  -0.00000000  1
  N  N3  1  0.50000000  0.00000000  0.50000000  1
