# generated using pymatgen
data_V2GePb5O12
_symmetry_space_group_name_H-M   'P 1'
_cell_length_a   7.47252962
_cell_length_b   10.31145819
_cell_length_c   10.24783865
_cell_angle_alpha   60.14599626
_cell_angle_beta   90.00000000
_cell_angle_gamma   90.00000000
_symmetry_Int_Tables_number   1
_chemical_formula_structural   V2GePb5O12
_chemical_formula_sum   'V4 Ge2 Pb10 O24'
_cell_volume   684.83772736
_cell_formula_units_Z   2
loop_
 _symmetry_equiv_pos_site_id
 _symmetry_equiv_pos_as_xyz
  1  'x, y, z'
loop_
 _atom_site_type_symbol
 _atom_site_label
 _atom_site_symmetry_multiplicity
 _atom_site_fract_x
 _atom_site_fract_y
 _atom_site_fract_z
 _atom_site_occupancy
  V  V0  1  0.75000000  0.60524770  0.37748809  1
  V  V1  1  0.25000000  0.98065304  0.39556242  1
  V  V2  1  0.25000000  0.62167544  0.98348260  1
  V  V3  1  0.25000000  0.39552244  0.62048748  1
  Ge  Ge4  1  0.75000000  0.01611079  0.60715414  1
  Ge  Ge5  1  0.75000000  0.37951048  0.01528759  1
  Pb  Pb6  1  0.51599350  0.66533165  0.67241199  1
  Pb  Pb7  1  0.00000545  0.32427249  0.33296807  1
  Pb  Pb8  1  0.49999455  0.32427249  0.33296807  1
  Pb  Pb9  1  0.98400650  0.66533165  0.67241199  1
  Pb  Pb10  1  0.75000000  0.24003634  0.74254198  1
  Pb  Pb11  1  0.75000000  0.02433305  0.23744981  1
  Pb  Pb12  1  0.75000000  0.74210048  0.99814151  1
  Pb  Pb13  1  0.25000000  0.74846733  0.25504458  1
  Pb  Pb14  1  0.25000000  0.00635168  0.74207358  1
  Pb  Pb15  1  0.25000000  0.25429206  0.00127236  1
  O  O16  1  0.75000000  0.81714727  0.69924919  1
  O  O17  1  0.75000000  0.49068467  0.81612784  1
  O  O18  1  0.75000000  0.69093853  0.48882033  1
  O  O19  1  0.25000000  0.17840823  0.30475992  1
  O  O20  1  0.25000000  0.51746352  0.17992146  1
  O  O21  1  0.25000000  0.30183977  0.51710816  1
  O  O22  1  0.75000000  0.10511346  0.40599908  1
  O  O23  1  0.75000000  0.49251065  0.10258876  1
  O  O24  1  0.75000000  0.40825730  0.49000659  1
  O  O25  1  0.25000000  0.90019108  0.59302470  1
  O  O26  1  0.25000000  0.50690357  0.90046674  1
  O  O27  1  0.25000000  0.59255162  0.50467695  1
  O  O28  1  0.56279485  0.09089863  0.65535643  1
  O  O29  1  0.56346132  0.25587143  0.09170264  1
  O  O30  1  0.56530912  0.65689275  0.26025066  1
  O  O31  1  0.06762808  0.91524688  0.34271115  1
  O  O32  1  0.06600239  0.73908477  0.91619703  1
  O  O33  1  0.06667792  0.34424614  0.73903410  1
  O  O34  1  0.43237192  0.91524688  0.34271115  1
  O  O35  1  0.43399761  0.73908477  0.91619703  1
  O  O36  1  0.43332208  0.34424614  0.73903410  1
  O  O37  1  0.93720515  0.09089863  0.65535643  1
  O  O38  1  0.93653868  0.25587143  0.09170264  1
  O  O39  1  0.93469088  0.65689275  0.26025066  1
