# generated using pymatgen
data_YGa3Cu
_symmetry_space_group_name_H-M   'P 1'
_cell_length_a   4.08615220
_cell_length_b   4.08615220
_cell_length_c   6.11386247
_cell_angle_alpha   70.47785525
_cell_angle_beta   70.47785525
_cell_angle_gamma   90.00000000
_symmetry_Int_Tables_number   1
_chemical_formula_structural   YGa3Cu
_chemical_formula_sum   'Y1 Ga3 Cu1'
_cell_volume   89.96218749
_cell_formula_units_Z   1
loop_
 _symmetry_equiv_pos_site_id
 _symmetry_equiv_pos_as_xyz
  1  'x, y, z'
loop_
 _atom_site_type_symbol
 _atom_site_label
 _atom_site_symmetry_multiplicity
 _atom_site_fract_x
 _atom_site_fract_y
 _atom_site_fract_z
 _atom_site_occupancy
  Y  Y0  1  -0.00000000  0.00000000  -0.00000000  1
  Ga  Ga1  1  0.38659385  0.38659385  0.22681230  1
  Ga  Ga2  1  0.61340615  0.61340615  0.77318770  1
  Ga  Ga3  1  0.25000000  0.75000000  0.50000000  1
  Cu  Cu4  1  0.75000000  0.25000000  0.50000000  1
