# generated using pymatgen
data_V9Cr3B8
_symmetry_space_group_name_H-M   'P 1'
_cell_length_a   3.01353867
_cell_length_b   5.66704841
_cell_length_c   11.33936435
_cell_angle_alpha   90.01306352
_cell_angle_beta   90.00000000
_cell_angle_gamma   90.00000000
_symmetry_Int_Tables_number   1
_chemical_formula_structural   V9Cr3B8
_chemical_formula_sum   'V9 Cr3 B8'
_cell_volume   193.65217982
_cell_formula_units_Z   1
loop_
 _symmetry_equiv_pos_site_id
 _symmetry_equiv_pos_as_xyz
  1  'x, y, z'
loop_
 _atom_site_type_symbol
 _atom_site_label
 _atom_site_symmetry_multiplicity
 _atom_site_fract_x
 _atom_site_fract_y
 _atom_site_fract_z
 _atom_site_occupancy
  V  V0  1  0.50000000  0.17742485  0.34025300  1
  V  V1  1  0.50000000  0.17858844  0.83874362  1
  V  V2  1  0.50000000  0.82257515  0.15974700  1
  V  V3  1  0.50000000  0.82141156  0.66125638  1
  V  V4  1  0.50000000  0.31982613  0.08761060  1
  V  V5  1  0.50000000  0.32129072  0.59021241  1
  V  V6  1  0.50000000  0.68017387  0.41238940  1
  V  V7  1  0.50000000  0.67870928  0.90978759  1
  V  V8  1  -0.00000000  0.50000000  0.25000000  1
  Cr  Cr9  1  -0.00000000  0.50000000  0.75000000  1
  Cr  Cr10  1  -0.00000000  0.99989093  0.99924708  1
  Cr  Cr11  1  -0.00000000  0.00010907  0.50075292  1
  B  B12  1  -0.00000000  0.61344792  0.05464207  1
  B  B13  1  -0.00000000  0.61248977  0.55733000  1
  B  B14  1  -0.00000000  0.38655208  0.44535793  1
  B  B15  1  -0.00000000  0.38751023  0.94267000  1
  B  B16  1  -0.00000000  0.88872168  0.30658647  1
  B  B17  1  -0.00000000  0.88740262  0.80621272  1
  B  B18  1  -0.00000000  0.11127832  0.19341353  1
  B  B19  1  -0.00000000  0.11259738  0.69378728  1
