# generated using pymatgen
data_La2GeS5
_symmetry_space_group_name_H-M   'P 1'
_cell_length_a   7.32408615
_cell_length_b   9.70862489
_cell_length_c   11.27072771
_cell_angle_alpha   81.75268063
_cell_angle_beta   90.00000000
_cell_angle_gamma   90.00000000
_symmetry_Int_Tables_number   1
_chemical_formula_structural   La2GeS5
_chemical_formula_sum   'La8 Ge4 S20'
_cell_volume   793.13717580
_cell_formula_units_Z   4
loop_
 _symmetry_equiv_pos_site_id
 _symmetry_equiv_pos_as_xyz
  1  'x, y, z'
loop_
 _atom_site_type_symbol
 _atom_site_label
 _atom_site_symmetry_multiplicity
 _atom_site_fract_x
 _atom_site_fract_y
 _atom_site_fract_z
 _atom_site_occupancy
  La  La0  1  0.56023676  0.50458868  0.67184100  1
  La  La1  1  0.06023676  0.49541132  0.82815900  1
  La  La2  1  0.43976324  0.49541132  0.32815900  1
  La  La3  1  0.93976324  0.50458868  0.17184100  1
  La  La4  1  0.39477485  0.74204805  0.99008269  1
  La  La5  1  0.89477485  0.25795195  0.50991731  1
  La  La6  1  0.60522515  0.25795195  0.00991731  1
  La  La7  1  0.10522515  0.74204805  0.49008269  1
  Ge  Ge8  1  0.09198057  0.11249401  0.20967158  1
  Ge  Ge9  1  0.59198057  0.88750599  0.29032842  1
  Ge  Ge10  1  0.90801943  0.88750599  0.79032842  1
  Ge  Ge11  1  0.40801943  0.11249401  0.70967158  1
  S  S12  1  0.71754670  0.53423480  0.94947284  1
  S  S13  1  0.21754670  0.46576520  0.55052716  1
  S  S14  1  0.28245330  0.46576520  0.05052716  1
  S  S15  1  0.78245330  0.53423480  0.44947284  1
  S  S16  1  0.88295305  0.98480221  0.34368009  1
  S  S17  1  0.38295305  0.01519779  0.15631991  1
  S  S18  1  0.11704695  0.01519779  0.65631991  1
  S  S19  1  0.61704695  0.98480221  0.84368009  1
  S  S20  1  0.66410404  0.72910799  0.17438034  1
  S  S21  1  0.16410404  0.27089201  0.32561966  1
  S  S22  1  0.33589596  0.27089201  0.82561966  1
  S  S23  1  0.83589596  0.72910799  0.67438034  1
  S  S24  1  0.01553607  0.81554604  0.96726568  1
  S  S25  1  0.51553607  0.18445396  0.53273432  1
  S  S26  1  0.98446393  0.18445396  0.03273432  1
  S  S27  1  0.48446393  0.81554604  0.46726568  1
  S  S28  1  0.32408906  0.69861213  0.74770266  1
  S  S29  1  0.82408906  0.30138787  0.75229734  1
  S  S30  1  0.67591094  0.30138787  0.25229734  1
  S  S31  1  0.17591094  0.69861213  0.24770266  1
