# generated using pymatgen
data_Ta3TiB4
_symmetry_space_group_name_H-M   'P 1'
_cell_length_a   3.14260039
_cell_length_b   3.28207416
_cell_length_c   8.68948654
_cell_angle_alpha   90.00000000
_cell_angle_beta   90.00000000
_cell_angle_gamma   90.00000000
_symmetry_Int_Tables_number   1
_chemical_formula_structural   Ta3TiB4
_chemical_formula_sum   'Ta3 Ti1 B4'
_cell_volume   89.62551513
_cell_formula_units_Z   1
loop_
 _symmetry_equiv_pos_site_id
 _symmetry_equiv_pos_as_xyz
  1  'x, y, z'
loop_
 _atom_site_type_symbol
 _atom_site_label
 _atom_site_symmetry_multiplicity
 _atom_site_fract_x
 _atom_site_fract_y
 _atom_site_fract_z
 _atom_site_occupancy
  Ta  Ta0  1  0.25000000  0.50000000  0.64560398  1
  Ta  Ta1  1  0.75000000  0.50000000  0.35087955  1
  Ta  Ta2  1  0.75000000  -0.00000000  0.85685661  1
  Ti  Ti3  1  0.25000000  -0.00000000  0.14470252  1
  B  B4  1  0.25000000  -0.00000000  0.43828530  1
  B  B5  1  0.25000000  0.50000000  0.94422005  1
  B  B6  1  0.75000000  0.50000000  0.06086151  1
  B  B7  1  0.75000000  -0.00000000  0.55859048  1
