# generated using pymatgen
data_Ta3Mn8Al
_symmetry_space_group_name_H-M   'P 1'
_cell_length_a   4.77165714
_cell_length_b   4.77148130
_cell_length_c   7.87483931
_cell_angle_alpha   90.01089196
_cell_angle_beta   89.99568281
_cell_angle_gamma   60.00138616
_symmetry_Int_Tables_number   1
_chemical_formula_structural   Ta3Mn8Al
_chemical_formula_sum   'Ta3 Mn8 Al1'
_cell_volume   155.27475010
_cell_formula_units_Z   1
loop_
 _symmetry_equiv_pos_site_id
 _symmetry_equiv_pos_as_xyz
  1  'x, y, z'
loop_
 _atom_site_type_symbol
 _atom_site_label
 _atom_site_symmetry_multiplicity
 _atom_site_fract_x
 _atom_site_fract_y
 _atom_site_fract_z
 _atom_site_occupancy
  Ta  Ta0  1  0.66672895  0.66663113  0.44156592  1
  Ta  Ta1  1  0.66667887  0.66670003  0.06490455  1
  Ta  Ta2  1  0.33336338  0.33333968  0.92484087  1
  Mn  Mn3  1  -0.00006030  0.00006283  0.50173012  1
  Mn  Mn4  1  0.99992996  0.00004109  0.00601968  1
  Mn  Mn5  1  0.82837150  0.34321876  0.74839997  1
  Mn  Mn6  1  0.34319847  0.82837100  0.74844511  1
  Mn  Mn7  1  0.82839278  0.82834604  0.74836750  1
  Mn  Mn8  1  0.17348096  0.65302390  0.25093764  1
  Mn  Mn9  1  0.65297512  0.17347260  0.25090840  1
  Mn  Mn10  1  0.17355382  0.17348531  0.25095141  1
  Al  Al11  1  0.33338650  0.33330763  0.56292883  1
