# generated using pymatgen
data_Tb9Al5S21
_symmetry_space_group_name_H-M   'P 1'
_cell_length_a   11.45218391
_cell_length_b   11.45212540
_cell_length_c   11.45212252
_cell_angle_alpha   94.70020243
_cell_angle_beta   85.29900863
_cell_angle_gamma   85.29930891
_symmetry_Int_Tables_number   1
_chemical_formula_structural   Tb9Al5S21
_chemical_formula_sum   'Tb18 Al10 S42'
_cell_volume   1485.92456843
_cell_formula_units_Z   2
loop_
 _symmetry_equiv_pos_site_id
 _symmetry_equiv_pos_as_xyz
  1  'x, y, z'
loop_
 _atom_site_type_symbol
 _atom_site_label
 _atom_site_symmetry_multiplicity
 _atom_site_fract_x
 _atom_site_fract_y
 _atom_site_fract_z
 _atom_site_occupancy
  Tb  Tb0  1  0.25915248  0.11587193  0.87995365  1
  Tb  Tb1  1  0.92416262  0.45582480  0.22200215  1
  Tb  Tb2  1  0.59833055  0.77267819  0.54801651  1
  Tb  Tb3  1  0.45198599  0.40166777  0.77267578  1
  Tb  Tb4  1  0.12004530  0.74084673  0.11587353  1
  Tb  Tb5  1  0.77799785  0.07583409  0.45582474  1
  Tb  Tb6  1  0.54417541  0.22200260  0.07583502  1
  Tb  Tb7  1  0.22732223  0.54801507  0.40166838  1
  Tb  Tb8  1  0.88412903  0.87995322  0.74084831  1
  Tb  Tb9  1  0.41614296  0.20884184  0.44005060  1
  Tb  Tb10  1  0.07260021  0.54693869  0.78068160  1
  Tb  Tb11  1  0.75421094  0.87506889  0.10417314  1
  Tb  Tb12  1  0.21931674  0.92739966  0.54693681  1
  Tb  Tb13  1  0.89582925  0.24578849  0.87506933  1
  Tb  Tb14  1  0.55995062  0.58385633  0.20884235  1
  Tb  Tb15  1  0.12493035  0.10417283  0.24578874  1
  Tb  Tb16  1  0.79115705  0.44004910  0.58385739  1
  Tb  Tb17  1  0.45306241  0.78068385  0.92740076  1
  Al  Al18  1  0.94912467  0.72144825  0.38856094  1
  Al  Al19  1  0.61144463  0.05087224  0.72144881  1
  Al  Al20  1  0.27855181  0.38855936  0.05087368  1
  Al  Al21  1  0.44880500  0.88574682  0.22396656  1
  Al  Al22  1  0.11425393  0.22396859  0.55119089  1
  Al  Al23  1  0.77603180  0.55119424  0.88574496  1
  Al  Al24  1  0.14447864  0.85552043  0.85552296  1
  Al  Al25  1  0.82784074  0.17215924  0.17216033  1
  Al  Al26  1  0.32820344  0.67179773  0.67179851  1
  Al  Al27  1  0.64442432  0.35557667  0.35557540  1
  S  S28  1  0.82455921  0.84338328  0.51091129  1
  S  S29  1  0.48908852  0.17544227  0.84338071  1
  S  S30  1  0.15661455  0.51091316  0.17543887  1
  S  S31  1  0.65685674  0.67612344  0.01041704  1
  S  S32  1  0.32387372  0.01041356  0.34314323  1
  S  S33  1  0.98958355  0.34314259  0.67612822  1
  S  S34  1  0.98578296  0.54016832  0.44706541  1
  S  S35  1  0.64324507  0.87043987  0.78091751  1
  S  S36  1  0.30593683  0.20453609  0.10623849  1
  S  S37  1  0.89375599  0.69406197  0.20453324  1
  S  S38  1  0.55293290  0.01421603  0.54016592  1
  S  S39  1  0.21908213  0.35675559  0.87043165  1
  S  S40  1  0.12956521  0.78091788  0.35675571  1
  S  S41  1  0.79546888  0.10624343  0.69406232  1
  S  S42  1  0.45983323  0.44706795  0.01421414  1
  S  S43  1  0.52370979  0.96587088  0.06496173  1
  S  S44  1  0.18760805  0.29823973  0.38831975  1
  S  S45  1  0.84458464  0.63068175  0.72243987  1
  S  S46  1  0.61168295  0.81239357  0.29824240  1
  S  S47  1  0.27756135  0.15541285  0.63068413  1
  S  S48  1  0.93504268  0.47628935  0.96587239  1
  S  S49  1  0.36931485  0.72243705  0.15541524  1
  S  S50  1  0.03412658  0.06495811  0.47628975  1
  S  S51  1  0.70175843  0.38831837  0.81239186  1
  S  S52  1  0.68916054  0.55454163  0.40573757  1
  S  S53  1  0.33582528  0.89157907  0.75537580  1
  S  S54  1  0.00233852  0.23666924  0.09593456  1
  S  S55  1  0.90406549  0.99765982  0.23666821  1
  S  S56  1  0.59426152  0.31083914  0.55454281  1
  S  S57  1  0.24462308  0.66417502  0.89157916  1
  S  S58  1  0.10842093  0.75537699  0.66417478  1
  S  S59  1  0.76333368  0.09593538  0.99765993  1
  S  S60  1  0.44545825  0.40573839  0.31083892  1
  S  S61  1  0.62404098  0.14908784  0.28561449  1
  S  S62  1  0.27686848  0.48359020  0.62293378  1
  S  S63  1  0.96379516  0.79261095  0.94292417  1
  S  S64  1  0.37706566  0.72313441  0.48358978  1
  S  S65  1  0.05707835  0.03620375  0.79261403  1
  S  S66  1  0.71438784  0.37596059  0.14908351  1
  S  S67  1  0.20738499  0.94292116  0.03620457  1
  S  S68  1  0.85091701  0.28561164  0.37596032  1
  S  S69  1  0.51641048  0.62293407  0.72313491  1
