# generated using pymatgen
data_Tb2NiGe4
_symmetry_space_group_name_H-M   'P 1'
_cell_length_a   4.07765456
_cell_length_b   4.10307908
_cell_length_c   8.47459238
_cell_angle_alpha   75.99059259
_cell_angle_beta   90.00000000
_cell_angle_gamma   90.00000000
_symmetry_Int_Tables_number   1
_chemical_formula_structural   Tb2NiGe4
_chemical_formula_sum   'Tb2 Ni1 Ge4'
_cell_volume   137.57054913
_cell_formula_units_Z   1
loop_
 _symmetry_equiv_pos_site_id
 _symmetry_equiv_pos_as_xyz
  1  'x, y, z'
loop_
 _atom_site_type_symbol
 _atom_site_label
 _atom_site_symmetry_multiplicity
 _atom_site_fract_x
 _atom_site_fract_y
 _atom_site_fract_z
 _atom_site_occupancy
  Tb  Tb0  1  0.25000000  0.89246518  0.21506965  1
  Tb  Tb1  1  0.75000000  0.10310093  0.79379814  1
  Ni  Ni2  1  0.25000000  0.68517882  0.62964236  1
  Ge  Ge3  1  0.25000000  0.54409876  0.91180247  1
  Ge  Ge4  1  0.75000000  0.44893993  0.10212014  1
  Ge  Ge5  1  0.25000000  0.25796551  0.48406898  1
  Ge  Ge6  1  0.75000000  0.75655087  0.48689826  1
