# generated using pymatgen
data_TbDy3Co8
_symmetry_space_group_name_H-M   'P 1'
_cell_length_a   5.07816885
_cell_length_b   5.07816886
_cell_length_c   8.74795761
_cell_angle_alpha   73.12715041
_cell_angle_beta   90.00000000
_cell_angle_gamma   120.00000005
_symmetry_Int_Tables_number   1
_chemical_formula_structural   TbDy3Co8
_chemical_formula_sum   'Tb1 Dy3 Co8'
_cell_volume   184.06803551
_cell_formula_units_Z   1
loop_
 _symmetry_equiv_pos_site_id
 _symmetry_equiv_pos_as_xyz
  1  'x, y, z'
loop_
 _atom_site_type_symbol
 _atom_site_label
 _atom_site_symmetry_multiplicity
 _atom_site_fract_x
 _atom_site_fract_y
 _atom_site_fract_z
 _atom_site_occupancy
  Tb  Tb0  1  0.87494519  0.74989037  0.37516444  1
  Dy  Dy1  1  0.37498025  0.74996050  0.87505926  1
  Dy  Dy2  1  0.00022594  0.00045188  0.99932218  1
  Dy  Dy3  1  0.49984320  0.99968640  0.50047040  1
  Co  Co4  1  0.43786321  0.37529116  0.18684563  1
  Co  Co5  1  0.93725813  0.37462776  0.68811411  1
  Co  Co6  1  0.43786321  0.87572643  0.18684563  1
  Co  Co7  1  0.93725813  0.87451625  0.68811411  1
  Co  Co8  1  0.18740418  0.37480836  0.43778746  1
  Co  Co9  1  0.68756099  0.37512197  0.93731704  1
  Co  Co10  1  0.93742794  0.37529116  0.18684563  1
  Co  Co11  1  0.43736964  0.37462776  0.68811411  1
