# generated using pymatgen
data_Ta5Ga2Sn
_symmetry_space_group_name_H-M   'P 1'
_cell_length_a   5.17659411
_cell_length_b   7.88381675
_cell_length_c   7.81448628
_cell_angle_alpha   96.24271542
_cell_angle_beta   109.34270850
_cell_angle_gamma   70.83406722
_symmetry_Int_Tables_number   1
_chemical_formula_structural   Ta5Ga2Sn
_chemical_formula_sum   'Ta10 Ga4 Sn2'
_cell_volume   284.23851489
_cell_formula_units_Z   2
loop_
 _symmetry_equiv_pos_site_id
 _symmetry_equiv_pos_as_xyz
  1  'x, y, z'
loop_
 _atom_site_type_symbol
 _atom_site_label
 _atom_site_symmetry_multiplicity
 _atom_site_fract_x
 _atom_site_fract_y
 _atom_site_fract_z
 _atom_site_occupancy
  Ta  Ta0  1  0.43665640  0.84071202  0.71402481  1
  Ta  Ta1  1  0.56334360  0.15928798  0.28597519  1
  Ta  Ta2  1  0.92072075  0.29664312  0.13808462  1
  Ta  Ta3  1  0.07927925  0.70335688  0.86191538  1
  Ta  Ta4  1  0.71736387  0.70335688  0.13808462  1
  Ta  Ta5  1  0.28263613  0.29664312  0.86191538  1
  Ta  Ta6  1  0.77736842  0.15928798  0.71402481  1
  Ta  Ta7  1  0.22263158  0.84071202  0.28597519  1
  Ta  Ta8  1  0.25537742  0.50000000  0.50000000  1
  Ta  Ta9  1  0.74462258  0.50000000  0.50000000  1
  Ga  Ga10  1  0.25000000  0.00000000  -0.00000000  1
  Ga  Ga11  1  0.75000000  0.00000000  -0.00000000  1
  Ga  Ga12  1  0.33351311  0.50000000  0.16702622  1
  Ga  Ga13  1  0.66648689  0.50000000  0.83297378  1
  Sn  Sn14  1  0.82988891  0.84022218  0.50000000  1
  Sn  Sn15  1  0.17011109  0.15977782  0.50000000  1
