# generated using pymatgen
data_LiFeCO4
_symmetry_space_group_name_H-M   'P 1'
_cell_length_a   8.18280920
_cell_length_b   8.34128756
_cell_length_c   6.08252652
_cell_angle_alpha   90.00000000
_cell_angle_beta   90.00000000
_cell_angle_gamma   119.37347448
_symmetry_Int_Tables_number   1
_chemical_formula_structural   LiFeCO4
_chemical_formula_sum   'Li4 Fe4 C4 O16'
_cell_volume   361.79079339
_cell_formula_units_Z   4
loop_
 _symmetry_equiv_pos_site_id
 _symmetry_equiv_pos_as_xyz
  1  'x, y, z'
loop_
 _atom_site_type_symbol
 _atom_site_label
 _atom_site_symmetry_multiplicity
 _atom_site_fract_x
 _atom_site_fract_y
 _atom_site_fract_z
 _atom_site_occupancy
  Li  Li0  1  0.02969639  0.82253597  0.50167070  1
  Li  Li1  1  0.20716042  0.17746403  0.00167070  1
  Li  Li2  1  0.79283958  0.82253597  0.00167070  1
  Li  Li3  1  0.97030361  0.17746403  0.50167070  1
  Fe  Fe4  1  0.27818712  0.57600183  0.76208670  1
  Fe  Fe5  1  0.29781471  0.57600183  0.26208670  1
  Fe  Fe6  1  0.70218529  0.42399817  0.26208670  1
  Fe  Fe7  1  0.72181288  0.42399817  0.76208670  1
  C  C8  1  0.15360205  0.79818272  0.02301854  1
  C  C9  1  0.64458066  0.79818272  0.52301854  1
  C  C10  1  0.35541934  0.20181728  0.52301854  1
  C  C11  1  0.84639795  0.20181728  0.02301854  1
  O  O12  1  0.08831445  0.90579453  0.03563280  1
  O  O13  1  0.17401129  0.73748194  0.83081293  1
  O  O14  1  0.19933406  0.74352495  0.20458286  1
  O  O15  1  0.17155549  0.44052676  0.50868647  1
  O  O16  1  0.26897127  0.44052676  0.00868647  1
  O  O17  1  0.18252093  0.09420547  0.53563280  1
  O  O18  1  0.54419089  0.74352495  0.70458286  1
  O  O19  1  0.56347065  0.73748194  0.33081293  1
  O  O20  1  0.43652935  0.26251806  0.33081293  1
  O  O21  1  0.45580911  0.25647505  0.70458286  1
  O  O22  1  0.81747907  0.90579453  0.53563280  1
  O  O23  1  0.73102873  0.55947324  0.00868647  1
  O  O24  1  0.82844451  0.55947324  0.50868647  1
  O  O25  1  0.80066594  0.25647505  0.20458286  1
  O  O26  1  0.82598871  0.26251806  0.83081293  1
  O  O27  1  0.91168555  0.09420547  0.03563280  1
