# generated using pymatgen
data_TaCu3TeSe2S
_symmetry_space_group_name_H-M   'P 1'
_cell_length_a   5.76318093
_cell_length_b   5.76645163
_cell_length_c   5.76318093
_cell_angle_alpha   91.15296789
_cell_angle_beta   90.11683111
_cell_angle_gamma   91.15296789
_symmetry_Int_Tables_number   1
_chemical_formula_structural   TaCu3TeSe2S
_chemical_formula_sum   'Ta1 Cu3 Te1 Se2 S1'
_cell_volume   191.45027279
_cell_formula_units_Z   1
loop_
 _symmetry_equiv_pos_site_id
 _symmetry_equiv_pos_as_xyz
  1  'x, y, z'
loop_
 _atom_site_type_symbol
 _atom_site_label
 _atom_site_symmetry_multiplicity
 _atom_site_fract_x
 _atom_site_fract_y
 _atom_site_fract_z
 _atom_site_occupancy
  Ta  Ta0  1  0.99716838  0.99934907  0.99716838  1
  Cu  Cu1  1  0.98789734  0.49850412  0.98789734  1
  Cu  Cu2  1  0.50496905  0.99950548  0.98793396  1
  Cu  Cu3  1  0.98793396  0.99950548  0.50496905  1
  Te  Te4  1  0.26708889  0.27124716  0.26708889  1
  Se  Se5  1  0.24098088  0.75233422  0.74830343  1
  Se  Se6  1  0.74830343  0.75233422  0.24098088  1
  S  S7  1  0.76565807  0.22722023  0.76565807  1
