# generated using pymatgen
data_TaTiTlO5
_symmetry_space_group_name_H-M   'P 1'
_cell_length_a   3.82301848
_cell_length_b   6.54350179
_cell_length_c   19.16148738
_cell_angle_alpha   90.00000000
_cell_angle_beta   90.00000000
_cell_angle_gamma   90.00000000
_symmetry_Int_Tables_number   1
_chemical_formula_structural   TaTiTlO5
_chemical_formula_sum   'Ta4 Ti4 Tl4 O20'
_cell_volume   479.34239379
_cell_formula_units_Z   4
loop_
 _symmetry_equiv_pos_site_id
 _symmetry_equiv_pos_as_xyz
  1  'x, y, z'
loop_
 _atom_site_type_symbol
 _atom_site_label
 _atom_site_symmetry_multiplicity
 _atom_site_fract_x
 _atom_site_fract_y
 _atom_site_fract_z
 _atom_site_occupancy
  Ta  Ta0  1  0.75000000  0.72487157  0.60586727  1
  Ta  Ta1  1  0.75000000  0.22487157  0.89413273  1
  Ta  Ta2  1  0.25000000  0.27512843  0.39413273  1
  Ta  Ta3  1  0.25000000  0.77512843  0.10586727  1
  Ti  Ti4  1  0.75000000  0.18140504  0.53454632  1
  Ti  Ti5  1  0.75000000  0.68140504  0.96545368  1
  Ti  Ti6  1  0.25000000  0.81859496  0.46545368  1
  Ti  Ti7  1  0.25000000  0.31859496  0.03454632  1
  Tl  Tl8  1  0.75000000  0.72881060  0.30045226  1
  Tl  Tl9  1  0.75000000  0.22881060  0.19954774  1
  Tl  Tl10  1  0.25000000  0.27118940  0.69954774  1
  Tl  Tl11  1  0.25000000  0.77118940  0.80045226  1
  O  O12  1  0.75000000  0.85259098  0.49112461  1
  O  O13  1  0.75000000  0.35259098  0.00887539  1
  O  O14  1  0.25000000  0.14740902  0.50887539  1
  O  O15  1  0.25000000  0.64740902  0.99112461  1
  O  O16  1  0.75000000  0.26321237  0.42205359  1
  O  O17  1  0.75000000  0.76321237  0.07794641  1
  O  O18  1  0.25000000  0.73678763  0.57794641  1
  O  O19  1  0.25000000  0.23678763  0.92205359  1
  O  O20  1  0.75000000  0.03100693  0.61665423  1
  O  O21  1  0.75000000  0.53100693  0.88334577  1
  O  O22  1  0.25000000  0.96899307  0.38334577  1
  O  O23  1  0.25000000  0.46899307  0.11665423  1
  O  O24  1  0.75000000  0.66695163  0.69890997  1
  O  O25  1  0.75000000  0.16695163  0.80109003  1
  O  O26  1  0.25000000  0.33304837  0.30109003  1
  O  O27  1  0.25000000  0.83304837  0.19890997  1
  O  O28  1  0.75000000  0.43373661  0.57149061  1
  O  O29  1  0.75000000  0.93373661  0.92850939  1
  O  O30  1  0.25000000  0.56626339  0.42850939  1
  O  O31  1  0.25000000  0.06626339  0.07149061  1
