# generated using pymatgen
data_Tb(AlCu)6
_symmetry_space_group_name_H-M   'P 1'
_cell_length_a   5.07679408
_cell_length_b   6.60974279
_cell_length_c   6.60974279
_cell_angle_alpha   99.14913295
_cell_angle_beta   112.58407464
_cell_angle_gamma   67.41592536
_symmetry_Int_Tables_number   1
_chemical_formula_structural   Tb(AlCu)6
_chemical_formula_sum   'Tb1 Al6 Cu6'
_cell_volume   189.06915384
_cell_formula_units_Z   1
loop_
 _symmetry_equiv_pos_site_id
 _symmetry_equiv_pos_as_xyz
  1  'x, y, z'
loop_
 _atom_site_type_symbol
 _atom_site_label
 _atom_site_symmetry_multiplicity
 _atom_site_fract_x
 _atom_site_fract_y
 _atom_site_fract_z
 _atom_site_occupancy
  Tb  Tb0  1  -0.00000000  0.00000000  0.00000000  1
  Al  Al1  1  0.65083765  0.34916235  0.65083765  1
  Al  Al2  1  0.34916235  0.65083765  0.34916235  1
  Al  Al3  1  -0.00000000  0.34648321  0.34648321  1
  Al  Al4  1  -0.00000000  0.65351679  0.65351679  1
  Al  Al5  1  0.70564253  0.79435747  0.20564253  1
  Al  Al6  1  0.29435747  0.20564253  0.79435747  1
  Cu  Cu7  1  0.50000000  0.00000000  0.50000000  1
  Cu  Cu8  1  -0.00000000  0.00000000  0.50000000  1
  Cu  Cu9  1  0.50000000  0.50000000  0.00000000  1
  Cu  Cu10  1  -0.00000000  0.50000000  0.00000000  1
  Cu  Cu11  1  0.50000000  0.77310489  0.77310489  1
  Cu  Cu12  1  0.50000000  0.22689511  0.22689511  1
