# generated using pymatgen
data_Sr(SiPd)6
_symmetry_space_group_name_H-M   'P 1'
_cell_length_a   8.37219309
_cell_length_b   8.11584101
_cell_length_c   8.47133031
_cell_angle_alpha   61.37870819
_cell_angle_beta   60.38637211
_cell_angle_gamma   90.00000000
_symmetry_Int_Tables_number   1
_chemical_formula_structural   Sr(SiPd)6
_chemical_formula_sum   'Sr2 Si12 Pd12'
_cell_volume   417.60463660
_cell_formula_units_Z   2
loop_
 _symmetry_equiv_pos_site_id
 _symmetry_equiv_pos_as_xyz
  1  'x, y, z'
loop_
 _atom_site_type_symbol
 _atom_site_label
 _atom_site_symmetry_multiplicity
 _atom_site_fract_x
 _atom_site_fract_y
 _atom_site_fract_z
 _atom_site_occupancy
  Sr  Sr0  1  0.25000000  0.25000000  0.50000000  1
  Sr  Sr1  1  0.75000000  0.75000000  0.50000000  1
  Si  Si2  1  0.72474881  0.54710150  0.23585440  1
  Si  Si3  1  0.03939679  0.21704410  0.23585440  1
  Si  Si4  1  0.53939679  0.04710150  0.23585440  1
  Si  Si5  1  0.22474881  0.71704410  0.23585440  1
  Si  Si6  1  0.27525119  0.45289850  0.76414560  1
  Si  Si7  1  0.96060321  0.78295590  0.76414560  1
  Si  Si8  1  0.46060321  0.95289850  0.76414560  1
  Si  Si9  1  0.77525119  0.28295590  0.76414560  1
  Si  Si10  1  0.26293922  0.56362345  -0.00000000  1
  Si  Si11  1  0.73706078  0.43637655  -0.00000000  1
  Si  Si12  1  0.23706078  0.06362345  0.00000000  1
  Si  Si13  1  0.76293922  0.93637655  0.00000000  1
  Pd  Pd14  1  0.17949683  0.95714623  0.35969636  1
  Pd  Pd15  1  0.46080681  0.68315742  0.35969636  1
  Pd  Pd16  1  0.96080681  0.45714623  0.35969636  1
  Pd  Pd17  1  0.67949683  0.18315742  0.35969636  1
  Pd  Pd18  1  0.82050317  0.04285377  0.64030364  1
  Pd  Pd19  1  0.53919319  0.31684258  0.64030364  1
  Pd  Pd20  1  0.03919319  0.54285377  0.64030364  1
  Pd  Pd21  1  0.32050317  0.81684258  0.64030364  1
  Pd  Pd22  1  0.46807579  0.31978038  -0.00000000  1
  Pd  Pd23  1  0.53192421  0.68021962  0.00000000  1
  Pd  Pd24  1  0.96807579  0.18021962  0.00000000  1
  Pd  Pd25  1  0.03192421  0.81978038  -0.00000000  1
