# generated using pymatgen
data_Ta6V3Co3C2
_symmetry_space_group_name_H-M   'P 1'
_cell_length_a   8.14975254
_cell_length_b   8.15703119
_cell_length_c   8.13123901
_cell_angle_alpha   90.00000000
_cell_angle_beta   60.07511770
_cell_angle_gamma   120.02954837
_symmetry_Int_Tables_number   1
_chemical_formula_structural   Ta6V3Co3C2
_chemical_formula_sum   'Ta12 V6 Co6 C4'
_cell_volume   382.48708047
_cell_formula_units_Z   2
loop_
 _symmetry_equiv_pos_site_id
 _symmetry_equiv_pos_as_xyz
  1  'x, y, z'
loop_
 _atom_site_type_symbol
 _atom_site_label
 _atom_site_symmetry_multiplicity
 _atom_site_fract_x
 _atom_site_fract_y
 _atom_site_fract_z
 _atom_site_occupancy
  Ta  Ta0  1  0.63695643  0.81847821  0.43152179  1
  Ta  Ta1  1  0.86669120  0.43334560  0.81665440  1
  Ta  Ta2  1  0.24855222  0.81578102  0.81824215  1
  Ta  Ta3  1  0.24855222  0.43277119  0.43320563  1
  Ta  Ta4  1  0.24855222  0.43277119  0.81824215  1
  Ta  Ta5  1  0.24855222  0.81578102  0.43320563  1
  Ta  Ta6  1  0.36736912  0.18368456  0.56631544  1
  Ta  Ta7  1  0.13529202  0.56764601  0.18235399  1
  Ta  Ta8  1  0.75064386  0.18374929  0.18455540  1
  Ta  Ta9  1  0.75064386  0.56689458  0.56480074  1
  Ta  Ta10  1  0.75064386  0.56689458  0.18455540  1
  Ta  Ta11  1  0.75064386  0.18374929  0.56480074  1
  V  V12  1  0.50860953  0.50486239  0.99569524  1
  V  V13  1  0.50860953  0.00374714  0.99569524  1
  V  V14  1  0.99585730  0.99792865  0.51021732  1
  V  V15  1  0.99585730  0.99792865  0.99392538  1
  V  V16  1  0.09118565  0.88474295  0.20440717  1
  V  V17  1  0.09118565  0.20644270  0.20440717  1
  Co  Co18  1  0.41149148  0.20574574  0.88533786  1
  Co  Co19  1  0.41149148  0.20574574  0.20317066  1
  Co  Co20  1  0.90447177  0.10887410  0.79776411  1
  Co  Co21  1  0.90447177  0.79559767  0.79776411  1
  Co  Co22  1  0.59003014  0.79501507  0.11292938  1
  Co  Co23  1  0.59003014  0.79501507  0.79704049  1
  C  C24  1  0.49898094  0.00150813  0.50050953  1
  C  C25  1  0.49898094  0.49747281  0.50050953  1
  C  C26  1  0.99782664  0.49891332  0.00039555  1
  C  C27  1  0.99782664  0.49891332  0.50177781  1
