# generated using pymatgen
data_SrLaAl3O7
_symmetry_space_group_name_H-M   'P 1'
_cell_length_a   5.28786090
_cell_length_b   7.95617377
_cell_length_c   7.95617377
_cell_angle_alpha   89.83093341
_cell_angle_beta   90.00000000
_cell_angle_gamma   90.00000000
_symmetry_Int_Tables_number   1
_chemical_formula_structural   SrLaAl3O7
_chemical_formula_sum   'Sr2 La2 Al6 O14'
_cell_volume   334.72384478
_cell_formula_units_Z   2
loop_
 _symmetry_equiv_pos_site_id
 _symmetry_equiv_pos_as_xyz
  1  'x, y, z'
loop_
 _atom_site_type_symbol
 _atom_site_label
 _atom_site_symmetry_multiplicity
 _atom_site_fract_x
 _atom_site_fract_y
 _atom_site_fract_z
 _atom_site_occupancy
  Sr  Sr0  1  0.51018569  0.33790285  0.16209715  1
  Sr  Sr1  1  0.51018569  0.66209715  0.83790285  1
  La  La2  1  0.48984394  0.16419033  0.66419033  1
  La  La3  1  0.48984394  0.83580967  0.33580967  1
  Al  Al4  1  0.96149074  0.14193859  0.35806141  1
  Al  Al5  1  0.03812386  0.35664848  0.85664848  1
  Al  Al6  1  0.96149074  0.85806141  0.64193859  1
  Al  Al7  1  0.03812386  0.64335152  0.14335152  1
  Al  Al8  1  0.00026686  0.50000000  0.50000000  1
  Al  Al9  1  0.00026686  -0.00000000  0.00000000  1
  O  O10  1  0.81349719  0.33385718  0.41798721  1
  O  O11  1  0.19127837  0.16220227  0.90974219  1
  O  O12  1  0.81349719  0.66614282  0.58201279  1
  O  O13  1  0.19127837  0.83779773  0.09025781  1
  O  O14  1  0.19127837  0.59025781  0.33779773  1
  O  O15  1  0.81349719  0.91798721  0.83385718  1
  O  O16  1  0.19127837  0.40974219  0.66220227  1
  O  O17  1  0.81349719  0.08201279  0.16614282  1
  O  O18  1  0.29269448  0.13219421  0.36780579  1
  O  O19  1  0.70842410  0.34935581  0.84935581  1
  O  O20  1  0.29269448  0.86780579  0.63219421  1
  O  O21  1  0.70842410  0.65064419  0.15064419  1
  O  O22  1  0.16653574  0.50000000  0.00000000  1
  O  O23  1  0.81230271  -0.00000000  0.50000000  1
