# generated using pymatgen
data_Sm6Ge3S14
_symmetry_space_group_name_H-M   'P 1'
_cell_length_a   5.76318544
_cell_length_b   10.15925562
_cell_length_c   10.15915237
_cell_angle_alpha   59.99966847
_cell_angle_beta   90.00032674
_cell_angle_gamma   90.00036328
_symmetry_Int_Tables_number   1
_chemical_formula_structural   Sm6Ge3S14
_chemical_formula_sum   'Sm6 Ge3 S14'
_cell_volume   515.12323191
_cell_formula_units_Z   1
loop_
 _symmetry_equiv_pos_site_id
 _symmetry_equiv_pos_as_xyz
  1  'x, y, z'
loop_
 _atom_site_type_symbol
 _atom_site_label
 _atom_site_symmetry_multiplicity
 _atom_site_fract_x
 _atom_site_fract_y
 _atom_site_fract_z
 _atom_site_occupancy
  Sm  Sm0  1  0.24511566  0.23121223  0.12663066  1
  Sm  Sm1  1  0.24511324  0.64216792  0.23121223  1
  Sm  Sm2  1  0.24512571  0.12662875  0.64215480  1
  Sm  Sm3  1  0.75055408  0.76855997  0.87291061  1
  Sm  Sm4  1  0.75055084  0.35851922  0.76856584  1
  Sm  Sm5  1  0.75054971  0.87290611  0.35853546  1
  Ge  Ge6  1  0.82796692  0.33334203  0.33332783  1
  Ge  Ge7  1  0.33156019  0.66666152  0.66667022  1
  Ge  Ge8  1  0.48474115  0.00000177  0.00000338  1
  S  S9  1  0.98800444  0.10374509  0.41385467  1
  S  S10  1  0.98801259  0.48240441  0.10373764  1
  S  S11  1  0.98800842  0.41386299  0.48239710  1
  S  S12  1  0.49050679  0.89616347  0.58609922  1
  S  S13  1  0.49050335  0.51772752  0.89617393  1
  S  S14  1  0.49050403  0.58609247  0.51773180  1
  S  S15  1  0.44720940  0.33333628  0.33332763  1
  S  S16  1  0.94989667  0.66666507  0.66666347  1
  S  S17  1  0.72572723  0.16402573  0.09299472  1
  S  S18  1  0.72573930  0.74298037  0.16402884  1
  S  S19  1  0.72573468  0.09299160  0.74297986  1
  S  S20  1  0.23395417  0.83330050  0.90904991  1
  S  S21  1  0.23396278  0.25763824  0.83330296  1
  S  S22  1  0.23395863  0.90906673  0.25764721  1
