# generated using pymatgen
data_Sr5Mn4CO13
_symmetry_space_group_name_H-M   'P 1'
_cell_length_a   3.82436053
_cell_length_b   8.96783749
_cell_length_c   8.94062479
_cell_angle_alpha   90.11873597
_cell_angle_beta   90.00000000
_cell_angle_gamma   90.00000000
_symmetry_Int_Tables_number   1
_chemical_formula_structural   Sr5Mn4CO13
_chemical_formula_sum   'Sr5 Mn4 C1 O13'
_cell_volume   306.62918866
_cell_formula_units_Z   1
loop_
 _symmetry_equiv_pos_site_id
 _symmetry_equiv_pos_as_xyz
  1  'x, y, z'
loop_
 _atom_site_type_symbol
 _atom_site_label
 _atom_site_symmetry_multiplicity
 _atom_site_fract_x
 _atom_site_fract_y
 _atom_site_fract_z
 _atom_site_occupancy
  Sr  Sr0  1  0.00000000  -0.00015577  0.99784280  1
  Sr  Sr1  1  -0.00000000  0.60512790  0.17524227  1
  Sr  Sr2  1  -0.00000000  0.38523052  0.82307114  1
  Sr  Sr3  1  -0.00000000  0.17862709  0.39677635  1
  Sr  Sr4  1  -0.00000000  0.82202850  0.61301305  1
  Mn  Mn5  1  0.50000000  0.89872104  0.30217234  1
  Mn  Mn6  1  0.50000000  0.09596036  0.70245583  1
  Mn  Mn7  1  0.50000000  0.29791347  0.10182868  1
  Mn  Mn8  1  0.50000000  0.69731782  0.90084051  1
  C  C9  1  0.50000000  0.48788262  0.50761140  1
  O  O10  1  0.50000000  0.79811569  0.11269941  1
  O  O11  1  0.50000000  0.19597462  0.89302857  1
  O  O12  1  0.50000000  0.11069527  0.20668294  1
  O  O13  1  0.50000000  0.88772975  0.80366593  1
  O  O14  1  -0.00000000  0.85483874  0.32784245  1
  O  O15  1  0.00000000  0.12387274  0.68419867  1
  O  O16  1  0.00000000  0.31862817  0.13342496  1
  O  O17  1  -0.00000000  0.67432660  0.86627273  1
  O  O18  1  0.50000000  0.00139689  0.49962778  1
  O  O19  1  0.50000000  0.49632076  0.99713153  1
  O  O20  1  0.50000000  0.36405825  0.58569750  1
  O  O21  1  0.50000000  0.48000638  0.36212957  1
  O  O22  1  0.50000000  0.61538260  0.57674358  1
