# generated using pymatgen
data_Sm6Mg(GeS7)2
_symmetry_space_group_name_H-M   'P 1'
_cell_length_a   5.80787173
_cell_length_b   10.09725559
_cell_length_c   10.09733093
_cell_angle_alpha   59.99945391
_cell_angle_beta   89.99951727
_cell_angle_gamma   90.00034970
_symmetry_Int_Tables_number   1
_chemical_formula_structural   Sm6Mg(GeS7)2
_chemical_formula_sum   'Sm6 Mg1 Ge2 S14'
_cell_volume   512.80847925
_cell_formula_units_Z   1
loop_
 _symmetry_equiv_pos_site_id
 _symmetry_equiv_pos_as_xyz
  1  'x, y, z'
loop_
 _atom_site_type_symbol
 _atom_site_label
 _atom_site_symmetry_multiplicity
 _atom_site_fract_x
 _atom_site_fract_y
 _atom_site_fract_z
 _atom_site_occupancy
  Sm  Sm0  1  0.74838136  0.13332514  0.22605453  1
  Sm  Sm1  1  0.74838747  0.64064090  0.13331269  1
  Sm  Sm2  1  0.74838507  0.22605339  0.64062113  1
  Sm  Sm3  1  0.24558192  0.86726148  0.77597836  1
  Sm  Sm4  1  0.24560040  0.35674088  0.86727389  1
  Sm  Sm5  1  0.24559248  0.77597650  0.35675905  1
  Mg  Mg6  1  0.53168087  0.00000183  0.00000014  1
  Ge  Ge7  1  0.16643575  0.33333900  0.33333275  1
  Ge  Ge8  1  0.66311962  0.66666638  0.66666912  1
  S  S9  1  0.01022074  0.48063938  0.41853654  1
  S  S10  1  0.01023193  0.10084366  0.48062577  1
  S  S11  1  0.01022348  0.41854283  0.10082479  1
  S  S12  1  0.50627569  0.52029753  0.58062652  1
  S  S13  1  0.50630172  0.89905423  0.52031626  1
  S  S14  1  0.50627382  0.58062464  0.89907164  1
  S  S15  1  0.54468399  0.33335176  0.33332206  1
  S  S16  1  0.04198935  0.66663982  0.66668091  1
  S  S17  1  0.76701860  0.25054030  0.90674873  1
  S  S18  1  0.76702033  0.84271726  0.25053610  1
  S  S19  1  0.76701811  0.90675470  0.84270148  1
  S  S20  1  0.28831854  0.75087371  0.09484386  1
  S  S21  1  0.28831981  0.15427776  0.75087353  1
  S  S22  1  0.28833894  0.09483692  0.15429014  1
