# generated using pymatgen
data_LiCoSiO4
_symmetry_space_group_name_H-M   'P 1'
_cell_length_a   9.68407095
_cell_length_b   4.93084489
_cell_length_c   6.86028190
_cell_angle_alpha   89.99911493
_cell_angle_beta   89.99320073
_cell_angle_gamma   90.00421818
_symmetry_Int_Tables_number   1
_chemical_formula_structural   LiCoSiO4
_chemical_formula_sum   'Li4 Co4 Si4 O16'
_cell_volume   327.58292920
_cell_formula_units_Z   4
loop_
 _symmetry_equiv_pos_site_id
 _symmetry_equiv_pos_as_xyz
  1  'x, y, z'
loop_
 _atom_site_type_symbol
 _atom_site_label
 _atom_site_symmetry_multiplicity
 _atom_site_fract_x
 _atom_site_fract_y
 _atom_site_fract_z
 _atom_site_occupancy
  Li  Li0  1  0.11611904  0.39505384  0.77719435  1
  Li  Li1  1  0.38385882  0.60482836  0.27716099  1
  Li  Li2  1  0.61609727  0.10497121  0.22286186  1
  Li  Li3  1  0.88384037  0.89512202  0.72285959  1
  Co  Co4  1  0.01222609  0.01105046  0.06828207  1
  Co  Co5  1  0.48778315  0.98900648  0.56823469  1
  Co  Co6  1  0.51222581  0.48892905  0.93172088  1
  Co  Co7  1  0.98779756  0.51099142  0.43180706  1
  Si  Si8  1  0.15229985  0.93362542  0.48019387  1
  Si  Si9  1  0.34771225  0.06624428  0.98008016  1
  Si  Si10  1  0.65229303  0.56643328  0.51980981  1
  Si  Si11  1  0.84771569  0.43370240  0.01991227  1
  O  O12  1  0.06686347  0.73893360  0.63634908  1
  O  O13  1  0.08100135  0.80075322  0.27812152  1
  O  O14  1  0.12180048  0.25404751  0.50800962  1
  O  O15  1  0.18396145  0.13631125  0.97806812  1
  O  O16  1  0.31607138  0.86348497  0.47819027  1
  O  O17  1  0.37820026  0.74578916  0.00787309  1
  O  O18  1  0.41904102  0.19929403  0.77804306  1
  O  O19  1  0.43313033  0.26095172  0.13622817  1
  O  O20  1  0.56688662  0.76104653  0.36363751  1
  O  O21  1  0.58096459  0.69926825  0.72190795  1
  O  O22  1  0.62173031  0.24600208  0.49198726  1
  O  O23  1  0.68392954  0.36369565  0.02192346  1
  O  O24  1  0.81605099  0.63649363  0.52182125  1
  O  O25  1  0.87824232  0.75412389  0.99209180  1
  O  O26  1  0.91906419  0.30080840  0.22192959  1
  O  O27  1  0.93309275  0.23903789  0.86370064  1
