# generated using pymatgen
data_RbNb3(PO5)3
_symmetry_space_group_name_H-M   'P 1'
_cell_length_a   6.55845648
_cell_length_b   13.56093879
_cell_length_c   15.02458144
_cell_angle_alpha   90.00000000
_cell_angle_beta   90.00000000
_cell_angle_gamma   89.93061450
_symmetry_Int_Tables_number   1
_chemical_formula_structural   RbNb3(PO5)3
_chemical_formula_sum   'Rb4 Nb12 P12 O60'
_cell_volume   1336.26766789
_cell_formula_units_Z   4
loop_
 _symmetry_equiv_pos_site_id
 _symmetry_equiv_pos_as_xyz
  1  'x, y, z'
loop_
 _atom_site_type_symbol
 _atom_site_label
 _atom_site_symmetry_multiplicity
 _atom_site_fract_x
 _atom_site_fract_y
 _atom_site_fract_z
 _atom_site_occupancy
  Rb  Rb0  1  0.54365049  0.51017964  0.17312031  1
  Rb  Rb1  1  0.95634951  0.98982036  0.67312031  1
  Rb  Rb2  1  0.45634951  0.48982036  0.82687969  1
  Rb  Rb3  1  0.04365049  0.01017964  0.32687969  1
  Nb  Nb4  1  0.50053330  0.93779286  0.11279990  1
  Nb  Nb5  1  0.49946670  0.06220714  0.88720010  1
  Nb  Nb6  1  0.00053330  0.43779286  0.38720010  1
  Nb  Nb7  1  0.99946670  0.56220714  0.61279990  1
  Nb  Nb8  1  0.50101051  0.19115310  0.22568567  1
  Nb  Nb9  1  0.49898949  0.80884690  0.77431433  1
  Nb  Nb10  1  0.00101051  0.69115310  0.27431433  1
  Nb  Nb11  1  0.99898949  0.30884690  0.72568567  1
  Nb  Nb12  1  0.49946021  0.85859628  0.52437032  1
  Nb  Nb13  1  0.50053979  0.14140372  0.47562968  1
  Nb  Nb14  1  0.99946021  0.35859628  0.97562968  1
  Nb  Nb15  1  0.00053979  0.64140372  0.02437032  1
  P  P16  1  0.50016885  0.77111058  0.29675555  1
  P  P17  1  0.49983115  0.22888942  0.70324445  1
  P  P18  1  0.00016885  0.27111058  0.20324445  1
  P  P19  1  0.99983115  0.72888942  0.79675555  1
  P  P20  1  0.00001656  0.87346529  0.11939009  1
  P  P21  1  -0.00001656  0.12653471  0.88060991  1
  P  P22  1  0.50001656  0.37346529  0.38060991  1
  P  P23  1  0.49998344  0.62653471  0.61939009  1
  P  P24  1  0.50001943  0.70785871  0.99456705  1
  P  P25  1  0.49998057  0.29214129  0.00543295  1
  P  P26  1  0.00001943  0.20785871  0.50543295  1
  P  P27  1  -0.00001943  0.79214129  0.49456705  1
  O  O28  1  0.50000000  -0.00000000  0.50000000  1
  O  O29  1  0.00000000  0.50000000  0.00000000  1
  O  O30  1  0.50012891  0.26865389  0.10545093  1
  O  O31  1  0.49987109  0.73134611  0.89454907  1
  O  O32  1  0.00012891  0.76865389  0.39454907  1
  O  O33  1  0.99987109  0.23134611  0.60545093  1
  O  O34  1  0.80935611  0.94016072  0.11281903  1
  O  O35  1  0.80962223  0.05980013  0.88696557  1
  O  O36  1  0.69037777  0.44019987  0.38696557  1
  O  O37  1  0.69064389  0.55983928  0.61281903  1
  O  O38  1  0.19064389  0.05983928  0.88718097  1
  O  O39  1  0.19037777  0.94019987  0.11303443  1
  O  O40  1  0.30962223  0.55980013  0.61303443  1
  O  O41  1  0.30935611  0.44016072  0.38718097  1
  O  O42  1  0.49949474  0.86007837  0.23318247  1
  O  O43  1  0.50050526  0.13992163  0.76681753  1
  O  O44  1  0.99949474  0.36007837  0.26681753  1
  O  O45  1  0.00050526  0.63992163  0.73318247  1
  O  O46  1  0.49997256  0.80057461  0.05244944  1
  O  O47  1  0.50002744  0.19942539  0.94755056  1
  O  O48  1  0.99997256  0.30057461  0.44755056  1
  O  O49  1  0.00002744  0.69942539  0.55244944  1
  O  O50  1  0.81178568  0.20382587  0.22096121  1
  O  O51  1  0.81164915  0.79629815  0.77895032  1
  O  O52  1  0.68835085  0.70370185  0.27895032  1
  O  O53  1  0.68821432  0.29617413  0.72096121  1
  O  O54  1  0.18821432  0.79617413  0.77903879  1
  O  O55  1  0.18835085  0.20370185  0.22104968  1
  O  O56  1  0.31164915  0.29629815  0.72104968  1
  O  O57  1  0.31178568  0.70382587  0.27903879  1
  O  O58  1  0.49908099  0.13497261  0.34774789  1
  O  O59  1  0.50091901  0.86502739  0.65225211  1
  O  O60  1  0.99908099  0.63497261  0.15225211  1
  O  O61  1  0.00091901  0.36502739  0.84774789  1
  O  O62  1  0.50000000  -0.00000000  0.00000000  1
  O  O63  1  0.00000000  0.50000000  0.50000000  1
  O  O64  1  0.49973817  0.81132959  0.39222701  1
  O  O65  1  0.50026183  0.18867041  0.60777299  1
  O  O66  1  0.99973817  0.31132959  0.10777299  1
  O  O67  1  0.00026183  0.68867041  0.89222701  1
  O  O68  1  0.49947603  0.06321200  0.17538757  1
  O  O69  1  0.50052397  0.93678800  0.82461243  1
  O  O70  1  0.99947603  0.56321200  0.32461243  1
  O  O71  1  0.00052397  0.43678800  0.67538757  1
  O  O72  1  0.68663751  0.64190532  0.01793623  1
  O  O73  1  0.68630873  0.35821012  0.98221965  1
  O  O74  1  0.81369127  0.14178988  0.48221965  1
  O  O75  1  0.81336249  0.85809468  0.51793623  1
  O  O76  1  0.31336249  0.35809468  0.98206377  1
  O  O77  1  0.31369127  0.64178988  0.01778035  1
  O  O78  1  0.18630873  0.85821012  0.51778035  1
  O  O79  1  0.18663751  0.14190532  0.48206377  1
  O  O80  1  0.50011101  0.32942122  0.28555820  1
  O  O81  1  0.49988899  0.67057878  0.71444180  1
  O  O82  1  0.00011101  0.82942122  0.21444180  1
  O  O83  1  0.99988899  0.17057878  0.78555820  1
  O  O84  1  0.00004816  0.79572430  0.04567436  1
  O  O85  1  0.99995184  0.20427570  0.95432564  1
  O  O86  1  0.50004816  0.29572430  0.45432564  1
  O  O87  1  0.49995184  0.70427570  0.54567436  1
