# generated using pymatgen
data_Li3(FeO2)5
_symmetry_space_group_name_H-M   'P 1'
_cell_length_a   5.18858054
_cell_length_b   5.18901000
_cell_length_c   7.92557381
_cell_angle_alpha   109.16563902
_cell_angle_beta   102.59774640
_cell_angle_gamma   99.88969245
_symmetry_Int_Tables_number   1
_chemical_formula_structural   Li3(FeO2)5
_chemical_formula_sum   'Li3 Fe5 O10'
_cell_volume   189.72722017
_cell_formula_units_Z   1
loop_
 _symmetry_equiv_pos_site_id
 _symmetry_equiv_pos_as_xyz
  1  'x, y, z'
loop_
 _atom_site_type_symbol
 _atom_site_label
 _atom_site_symmetry_multiplicity
 _atom_site_fract_x
 _atom_site_fract_y
 _atom_site_fract_z
 _atom_site_occupancy
  Li  Li0  1  0.21067309  0.91900699  0.41292450  1
  Li  Li1  1  0.50000000  0.50000000  0.50000000  1
  Li  Li2  1  0.78932691  0.08099301  0.58707550  1
  Fe  Fe3  1  0.11751353  0.69320535  0.69073119  1
  Fe  Fe4  1  0.00000000  0.50000000  0.00000000  1
  Fe  Fe5  1  0.69437048  0.88098328  0.89646836  1
  Fe  Fe6  1  0.30562952  0.11901672  0.10353164  1
  Fe  Fe7  1  0.88248647  0.30679465  0.30926881  1
  O  O8  1  0.02816031  0.11647705  0.86727247  1
  O  O9  1  0.11119611  0.29589541  0.52025775  1
  O  O10  1  0.33048525  0.73121426  0.92986206  1
  O  O11  1  0.19291890  0.46990468  0.23656505  1
  O  O12  1  0.44338281  0.86140498  0.65724685  1
  O  O13  1  0.55661719  0.13859502  0.34275315  1
  O  O14  1  0.80708110  0.53009532  0.76343495  1
  O  O15  1  0.66951475  0.26878574  0.07013794  1
  O  O16  1  0.88880389  0.70410459  0.47974225  1
  O  O17  1  0.97183969  0.88352295  0.13272753  1
