# generated using pymatgen
data_Rb3P4H9O16
_symmetry_space_group_name_H-M   'P 1'
_cell_length_a   6.59224631
_cell_length_b   6.59224631
_cell_length_c   20.16529599
_cell_angle_alpha   86.27222585
_cell_angle_beta   86.27222585
_cell_angle_gamma   71.31512312
_symmetry_Int_Tables_number   1
_chemical_formula_structural   Rb3P4H9O16
_chemical_formula_sum   'Rb6 P8 H18 O32'
_cell_volume   827.48816793
_cell_formula_units_Z   2
loop_
 _symmetry_equiv_pos_site_id
 _symmetry_equiv_pos_as_xyz
  1  'x, y, z'
loop_
 _atom_site_type_symbol
 _atom_site_label
 _atom_site_symmetry_multiplicity
 _atom_site_fract_x
 _atom_site_fract_y
 _atom_site_fract_z
 _atom_site_occupancy
  Rb  Rb0  1  0.09766184  0.53447659  0.21616653  1
  Rb  Rb1  1  0.46491004  0.90218892  0.28289028  1
  Rb  Rb2  1  0.90218892  0.46491004  0.78289028  1
  Rb  Rb3  1  0.53447659  0.09766184  0.71616653  1
  Rb  Rb4  1  0.99619951  0.53911830  0.99318863  1
  Rb  Rb5  1  0.53911830  0.99619951  0.49318863  1
  P  P6  1  0.72983761  0.15911654  0.15176191  1
  P  P7  1  0.84082172  0.27107049  0.34805750  1
  P  P8  1  0.27107049  0.84082172  0.84805750  1
  P  P9  1  0.15911654  0.72983761  0.65176191  1
  P  P10  1  0.37790846  0.78272914  0.09028202  1
  P  P11  1  0.21727982  0.62243676  0.40979710  1
  P  P12  1  0.62243676  0.21727982  0.90979710  1
  P  P13  1  0.78272914  0.37790846  0.59028202  1
  H  H14  1  0.08262114  0.07290393  0.15423097  1
  H  H15  1  0.92805130  0.91726884  0.34557562  1
  H  H16  1  0.91726884  0.92805130  0.84557562  1
  H  H17  1  0.07290393  0.08262114  0.65423097  1
  H  H18  1  0.47162952  0.41883593  0.08182227  1
  H  H19  1  0.58008168  0.52824388  0.41808445  1
  H  H20  1  0.52824388  0.58008168  0.91808445  1
  H  H21  1  0.41883593  0.47162952  0.58182227  1
  H  H22  1  0.64315194  0.35508429  0.24914180  1
  H  H23  1  0.35508429  0.64315194  0.74914180  1
  H  H24  1  0.68611001  0.81718130  0.12007530  1
  H  H25  1  0.18300789  0.31370096  0.38016216  1
  H  H26  1  0.31370096  0.18300789  0.88016216  1
  H  H27  1  0.81718130  0.68611001  0.62007530  1
  H  H28  1  0.31355447  0.88590622  0.98538628  1
  H  H29  1  0.11582392  0.68719344  0.51491828  1
  H  H30  1  0.68719344  0.11582392  0.01491828  1
  H  H31  1  0.88590622  0.31355447  0.48538628  1
  O  O32  1  0.27929457  0.88214690  0.15523176  1
  O  O33  1  0.11709239  0.72130643  0.34495870  1
  O  O34  1  0.72130643  0.11709239  0.84495870  1
  O  O35  1  0.88214690  0.27929457  0.65523176  1
  O  O36  1  0.77474835  0.91638101  0.16333415  1
  O  O37  1  0.08380334  0.22515771  0.33673632  1
  O  O38  1  0.22515771  0.08380334  0.83673632  1
  O  O39  1  0.91638101  0.77474835  0.66333415  1
  O  O40  1  0.62820910  0.72644221  0.08722426  1
  O  O41  1  0.27431637  0.37214083  0.41265513  1
  O  O42  1  0.37214083  0.27431637  0.91265513  1
  O  O43  1  0.72644221  0.62820910  0.58722426  1
  O  O44  1  0.94842761  0.20977699  0.15619173  1
  O  O45  1  0.79023399  0.05125259  0.34452232  1
  O  O46  1  0.05125259  0.79023399  0.84452232  1
  O  O47  1  0.20977699  0.94842761  0.65619173  1
  O  O48  1  0.57083651  0.29136056  0.20567492  1
  O  O49  1  0.70915428  0.42947524  0.29439689  1
  O  O50  1  0.42947524  0.70915428  0.79439689  1
  O  O51  1  0.29136056  0.57083651  0.70567492  1
  O  O52  1  0.33143333  0.56906185  0.07881428  1
  O  O53  1  0.43088993  0.66908229  0.42112512  1
  O  O54  1  0.66908229  0.43088993  0.92112512  1
  O  O55  1  0.56906185  0.33143333  0.57881428  1
  O  O56  1  0.27583777  0.94620045  0.03145434  1
  O  O57  1  0.05375324  0.72341193  0.46886651  1
  O  O58  1  0.72341193  0.05375324  0.96886651  1
  O  O59  1  0.94620045  0.27583777  0.53145434  1
  O  O60  1  0.63357745  0.23722372  0.08306699  1
  O  O61  1  0.76185802  0.36510665  0.41717550  1
  O  O62  1  0.36510665  0.76185802  0.91717550  1
  O  O63  1  0.23722372  0.63357745  0.58306699  1
