# generated using pymatgen
data_Sm3HoS4
_symmetry_space_group_name_H-M   'P 1'
_cell_length_a   3.96259157
_cell_length_b   3.96259157
_cell_length_c   13.27383874
_cell_angle_alpha   81.41576905
_cell_angle_beta   98.58423095
_cell_angle_gamma   120.00000000
_symmetry_Int_Tables_number   1
_chemical_formula_structural   Sm3HoS4
_chemical_formula_sum   'Sm3 Ho1 S4'
_cell_volume   177.80233600
_cell_formula_units_Z   1
loop_
 _symmetry_equiv_pos_site_id
 _symmetry_equiv_pos_as_xyz
  1  'x, y, z'
loop_
 _atom_site_type_symbol
 _atom_site_label
 _atom_site_symmetry_multiplicity
 _atom_site_fract_x
 _atom_site_fract_y
 _atom_site_fract_z
 _atom_site_occupancy
  Sm  Sm0  1  0.74928055  0.25071945  0.24784164  1
  Sm  Sm1  1  0.50000000  0.50000000  0.50000000  1
  Sm  Sm2  1  0.25071945  0.74928055  0.75215836  1
  Ho  Ho3  1  0.00000000  0.00000000  -0.00000000  1
  S  S4  1  0.62763439  0.37236561  0.88290316  1
  S  S5  1  0.87532294  0.12467706  0.62596883  1
  S  S6  1  0.37236561  0.62763439  0.11709684  1
  S  S7  1  0.12467706  0.87532294  0.37403117  1
