# generated using pymatgen
data_Sm2FeSbO7
_symmetry_space_group_name_H-M   'P 1'
_cell_length_a   7.41042159
_cell_length_b   7.36641463
_cell_length_c   7.48124224
_cell_angle_alpha   90.00000000
_cell_angle_beta   59.68335353
_cell_angle_gamma   119.80374893
_symmetry_Int_Tables_number   1
_chemical_formula_structural   Sm2FeSbO7
_chemical_formula_sum   'Sm4 Fe2 Sb2 O14'
_cell_volume   288.24172918
_cell_formula_units_Z   2
loop_
 _symmetry_equiv_pos_site_id
 _symmetry_equiv_pos_as_xyz
  1  'x, y, z'
loop_
 _atom_site_type_symbol
 _atom_site_label
 _atom_site_symmetry_multiplicity
 _atom_site_fract_x
 _atom_site_fract_y
 _atom_site_fract_z
 _atom_site_occupancy
  Sm  Sm0  1  0.50000000  0.50000000  0.00000000  1
  Sm  Sm1  1  0.50000000  0.00000000  0.00000000  1
  Sm  Sm2  1  0.00000000  0.00000000  0.50000000  1
  Sm  Sm3  1  0.00000000  0.00000000  0.00000000  1
  Fe  Fe4  1  0.50000000  0.00000000  0.50000000  1
  Fe  Fe5  1  0.50000000  0.50000000  0.50000000  1
  Sb  Sb6  1  0.00000000  0.50000000  0.00000000  1
  Sb  Sb7  1  0.00000000  0.50000000  0.50000000  1
  O  O8  1  0.67129571  0.83564785  0.41435215  1
  O  O9  1  0.84371163  0.42185581  0.82814419  1
  O  O10  1  0.25022277  0.82660129  0.83626433  1
  O  O11  1  0.25022277  0.42362148  0.41351290  1
  O  O12  1  0.25022277  0.42362148  0.83626433  1
  O  O13  1  0.25022277  0.82660129  0.41351290  1
  O  O14  1  0.32870429  0.16435215  0.58564785  1
  O  O15  1  0.15628837  0.57814419  0.17185581  1
  O  O16  1  0.74977723  0.17339871  0.16373567  1
  O  O17  1  0.74977723  0.57637852  0.58648710  1
  O  O18  1  0.74977723  0.57637852  0.16373567  1
  O  O19  1  0.74977723  0.17339871  0.58648710  1
  O  O20  1  0.25323699  0.12661850  0.12338150  1
  O  O21  1  0.74676301  0.87338150  0.87661850  1
