# generated using pymatgen
data_Ni8Bi8S
_symmetry_space_group_name_H-M   'P 1'
_cell_length_a   4.22803611
_cell_length_b   10.12843190
_cell_length_c   17.57637186
_cell_angle_alpha   90.00000000
_cell_angle_beta   90.00000000
_cell_angle_gamma   90.00000000
_symmetry_Int_Tables_number   1
_chemical_formula_structural   Ni8Bi8S
_chemical_formula_sum   'Ni16 Bi16 S2'
_cell_volume   752.67957755
_cell_formula_units_Z   2
loop_
 _symmetry_equiv_pos_site_id
 _symmetry_equiv_pos_as_xyz
  1  'x, y, z'
loop_
 _atom_site_type_symbol
 _atom_site_label
 _atom_site_symmetry_multiplicity
 _atom_site_fract_x
 _atom_site_fract_y
 _atom_site_fract_z
 _atom_site_occupancy
  Ni  Ni0  1  0.49786476  0.80973892  0.96825493  1
  Ni  Ni1  1  0.49786476  0.19026108  0.03174507  1
  Ni  Ni2  1  0.50213524  0.69026108  0.46825493  1
  Ni  Ni3  1  0.50213524  0.30973892  0.53174507  1
  Ni  Ni4  1  0.00175039  0.90988097  0.90363168  1
  Ni  Ni5  1  0.00175039  0.09011903  0.09636832  1
  Ni  Ni6  1  0.99824961  0.59011903  0.40363168  1
  Ni  Ni7  1  0.99824961  0.40988097  0.59636832  1
  Ni  Ni8  1  0.99839001  0.82062561  0.05462200  1
  Ni  Ni9  1  0.99839001  0.17937439  0.94537800  1
  Ni  Ni10  1  0.00160999  0.67937439  0.55462200  1
  Ni  Ni11  1  0.00160999  0.32062561  0.44537800  1
  Ni  Ni12  1  0.49643179  0.93879292  0.10778034  1
  Ni  Ni13  1  0.49643179  0.06120708  0.89221966  1
  Ni  Ni14  1  0.50356821  0.56120708  0.60778034  1
  Ni  Ni15  1  0.50356821  0.43879292  0.39221966  1
  Bi  Bi16  1  0.49848242  0.83216330  0.81349469  1
  Bi  Bi17  1  0.49848242  0.16783670  0.18650531  1
  Bi  Bi18  1  0.50151758  0.66783670  0.31349469  1
  Bi  Bi19  1  0.50151758  0.33216330  0.68650531  1
  Bi  Bi20  1  0.49971702  0.66999034  0.09948982  1
  Bi  Bi21  1  0.49971702  0.33000966  0.90051018  1
  Bi  Bi22  1  0.50028298  0.83000966  0.59948982  1
  Bi  Bi23  1  0.50028298  0.16999034  0.40051018  1
  Bi  Bi24  1  0.00036937  0.64716823  0.93582223  1
  Bi  Bi25  1  0.00036937  0.35283177  0.06417777  1
  Bi  Bi26  1  0.99963063  0.85283177  0.43582223  1
  Bi  Bi27  1  0.99963063  0.14716823  0.56417777  1
  Bi  Bi28  1  0.00066867  0.89778997  0.20336617  1
  Bi  Bi29  1  0.00066867  0.10221003  0.79663383  1
  Bi  Bi30  1  0.99933133  0.60221003  0.70336617  1
  Bi  Bi31  1  0.99933133  0.39778997  0.29663383  1
  S  S32  1  0.74272859  0.00000000  0.00000000  1
  S  S33  1  0.25727141  0.50000000  0.50000000  1
