# generated using pymatgen
data_Rb2V3P4O17
_symmetry_space_group_name_H-M   'P 1'
_cell_length_a   7.39590683
_cell_length_b   11.71256164
_cell_length_c   17.80335500
_cell_angle_alpha   90.00000000
_cell_angle_beta   90.00000000
_cell_angle_gamma   90.00000000
_symmetry_Int_Tables_number   1
_chemical_formula_structural   Rb2V3P4O17
_chemical_formula_sum   'Rb8 V12 P16 O68'
_cell_volume   1542.21588734
_cell_formula_units_Z   4
loop_
 _symmetry_equiv_pos_site_id
 _symmetry_equiv_pos_as_xyz
  1  'x, y, z'
loop_
 _atom_site_type_symbol
 _atom_site_label
 _atom_site_symmetry_multiplicity
 _atom_site_fract_x
 _atom_site_fract_y
 _atom_site_fract_z
 _atom_site_occupancy
  Rb  Rb0  1  0.75005297  0.96562877  0.86188640  1
  Rb  Rb1  1  0.75005297  0.53437123  0.36188640  1
  Rb  Rb2  1  0.25005297  0.03437123  0.13811360  1
  Rb  Rb3  1  0.25005297  0.46562877  0.63811360  1
  Rb  Rb4  1  0.75009529  0.35523170  0.82005070  1
  Rb  Rb5  1  0.75009529  0.14476830  0.32005070  1
  Rb  Rb6  1  0.25009529  0.64476830  0.17994930  1
  Rb  Rb7  1  0.25009529  0.85523170  0.67994930  1
  V  V8  1  0.25005129  0.16208651  0.80976136  1
  V  V9  1  0.25005129  0.33791349  0.30976136  1
  V  V10  1  0.75005129  0.83791349  0.19023864  1
  V  V11  1  0.75005129  0.66208651  0.69023864  1
  V  V12  1  0.25000282  0.83818541  0.90115367  1
  V  V13  1  0.25000282  0.66181459  0.40115367  1
  V  V14  1  0.75000282  0.16181459  0.09884633  1
  V  V15  1  0.75000282  0.33818541  0.59884633  1
  V  V16  1  0.02494459  0.49855942  0.99890477  1
  V  V17  1  0.52494459  0.50144058  0.00109523  1
  V  V18  1  0.52494459  0.99855942  0.50109523  1
  V  V19  1  0.02494459  0.00144058  0.49890477  1
  P  P20  1  0.04794231  0.21257073  0.97093977  1
  P  P21  1  0.45298233  0.28699821  0.47090813  1
  P  P22  1  0.54794231  0.78742927  0.02906023  1
  P  P23  1  0.95298233  0.71300179  0.52909187  1
  P  P24  1  0.95298233  0.78699821  0.02909187  1
  P  P25  1  0.54794231  0.71257073  0.52906023  1
  P  P26  1  0.45298233  0.21300179  0.97090813  1
  P  P27  1  0.04794231  0.28742927  0.47093977  1
  P  P28  1  0.54934959  0.11323252  0.67131884  1
  P  P29  1  0.95122271  0.38675613  0.17117802  1
  P  P30  1  0.04934959  0.88676748  0.32868116  1
  P  P31  1  0.45122271  0.61324387  0.82882198  1
  P  P32  1  0.45122271  0.88675613  0.32882198  1
  P  P33  1  0.04934959  0.61323252  0.82868116  1
  P  P34  1  0.95122271  0.11324387  0.67117802  1
  P  P35  1  0.54934959  0.38676748  0.17131884  1
  O  O36  1  0.44498962  0.09480562  0.74388867  1
  O  O37  1  0.05487462  0.40506018  0.24399989  1
  O  O38  1  0.94498962  0.90519438  0.25611133  1
  O  O39  1  0.55487462  0.59493982  0.75600011  1
  O  O40  1  0.55487462  0.90506018  0.25600011  1
  O  O41  1  0.94498962  0.59480562  0.75611133  1
  O  O42  1  0.05487462  0.09493982  0.74399989  1
  O  O43  1  0.44498962  0.40519438  0.24388867  1
  O  O44  1  0.25032524  0.21077532  0.00683514  1
  O  O45  1  0.25032524  0.28922468  0.50683514  1
  O  O46  1  0.75032524  0.78922468  0.99316486  1
  O  O47  1  0.75032524  0.71077532  0.49316486  1
  O  O48  1  0.25004776  0.95451986  0.84943907  1
  O  O49  1  0.25004776  0.54548014  0.34943907  1
  O  O50  1  0.75004776  0.04548014  0.15056093  1
  O  O51  1  0.75004776  0.45451986  0.65056093  1
  O  O52  1  0.25000490  0.29408832  0.78024773  1
  O  O53  1  0.25000490  0.20591168  0.28024773  1
  O  O54  1  0.75000490  0.70591168  0.21975227  1
  O  O55  1  0.75000490  0.79408832  0.71975227  1
  O  O56  1  0.25193154  0.48887342  0.98995166  1
  O  O57  1  0.25193154  0.01112658  0.48995166  1
  O  O58  1  0.75193154  0.51112658  0.01004834  1
  O  O59  1  0.75193154  0.98887342  0.51004834  1
  O  O60  1  0.75024616  0.06838167  0.69297928  1
  O  O61  1  0.75024616  0.43161833  0.19297928  1
  O  O62  1  0.25024616  0.93161833  0.30702072  1
  O  O63  1  0.25024616  0.56838167  0.80702072  1
  O  O64  1  0.97315498  0.33362437  0.97391177  1
  O  O65  1  0.52786966  0.16635071  0.47355291  1
  O  O66  1  0.47315498  0.66637563  0.02608823  1
  O  O67  1  0.02786966  0.83364929  0.52644709  1
  O  O68  1  0.02786966  0.66635071  0.02644709  1
  O  O69  1  0.47315498  0.83362437  0.52608823  1
  O  O70  1  0.52786966  0.33364929  0.97355291  1
  O  O71  1  0.97315498  0.16637563  0.47391177  1
  O  O72  1  0.97669239  0.53562256  0.89031707  1
  O  O73  1  0.52345853  0.96446253  0.39022602  1
  O  O74  1  0.47669239  0.46437744  0.10968293  1
  O  O75  1  0.02345853  0.03553747  0.60977398  1
  O  O76  1  0.02345853  0.46446253  0.10977398  1
  O  O77  1  0.47669239  0.03562256  0.60968293  1
  O  O78  1  0.52345853  0.53553747  0.89022602  1
  O  O79  1  0.97669239  0.96437744  0.39031707  1
  O  O80  1  0.43779756  0.86861075  0.97935621  1
  O  O81  1  0.06211159  0.63135205  0.47923602  1
  O  O82  1  0.93779756  0.13138925  0.02064379  1
  O  O83  1  0.56211159  0.36864795  0.52076398  1
  O  O84  1  0.56211159  0.13135205  0.02076398  1
  O  O85  1  0.93779756  0.36861075  0.52064379  1
  O  O86  1  0.06211159  0.86864795  0.97923602  1
  O  O87  1  0.43779756  0.63138925  0.47935621  1
  O  O88  1  0.44247232  0.16626184  0.89064104  1
  O  O89  1  0.05752625  0.33386044  0.39059103  1
  O  O90  1  0.94247232  0.83373816  0.10935896  1
  O  O91  1  0.55752625  0.66613956  0.60940897  1
  O  O92  1  0.55752625  0.83386044  0.10940897  1
  O  O93  1  0.94247232  0.66626184  0.60935896  1
  O  O94  1  0.05752625  0.16613956  0.89059103  1
  O  O95  1  0.44247232  0.33373816  0.39064104  1
  O  O96  1  0.43405406  0.73936960  0.85143967  1
  O  O97  1  0.06609893  0.76065326  0.35137013  1
  O  O98  1  0.93405406  0.26063040  0.14856033  1
  O  O99  1  0.56609893  0.23934674  0.64862987  1
  O  O100  1  0.56609893  0.26065326  0.14862987  1
  O  O101  1  0.93405406  0.23936960  0.64856033  1
  O  O102  1  0.06609893  0.73934674  0.85137013  1
  O  O103  1  0.43405406  0.76063040  0.35143967  1
