# generated using pymatgen
data_NaTiPO5
_symmetry_space_group_name_H-M   'P 1'
_cell_length_a   8.81578161
_cell_length_b   9.25172343
_cell_length_c   10.67405283
_cell_angle_alpha   90.00000000
_cell_angle_beta   90.00000000
_cell_angle_gamma   89.97767035
_symmetry_Int_Tables_number   1
_chemical_formula_structural   NaTiPO5
_chemical_formula_sum   'Na8 Ti8 P8 O40'
_cell_volume   870.58820657
_cell_formula_units_Z   8
loop_
 _symmetry_equiv_pos_site_id
 _symmetry_equiv_pos_as_xyz
  1  'x, y, z'
loop_
 _atom_site_type_symbol
 _atom_site_label
 _atom_site_symmetry_multiplicity
 _atom_site_fract_x
 _atom_site_fract_y
 _atom_site_fract_z
 _atom_site_occupancy
  Na  Na0  1  0.99996664  0.85667542  0.99998087  1
  Na  Na1  1  0.50003336  0.14332458  0.49998087  1
  Na  Na2  1  0.48209527  0.50962116  0.95166880  1
  Na  Na3  1  0.01790473  0.49037884  0.45166880  1
  Na  Na4  1  0.22710653  0.20117038  0.14617274  1
  Na  Na5  1  0.77431551  0.20076008  0.85330695  1
  Na  Na6  1  0.72568449  0.79923992  0.35330695  1
  Na  Na7  1  0.27289347  0.79882962  0.64617274  1
  Ti  Ti8  1  0.12797782  0.14837708  0.61971299  1
  Ti  Ti9  1  0.87152847  0.14777874  0.37977011  1
  Ti  Ti10  1  0.62847153  0.85222126  0.87977011  1
  Ti  Ti11  1  0.37202218  0.85162292  0.11971299  1
  Ti  Ti12  1  0.13463073  0.36117858  0.88602869  1
  Ti  Ti13  1  0.85960216  0.36387611  0.11455707  1
  Ti  Ti14  1  0.64039784  0.63612389  0.61455707  1
  Ti  Ti15  1  0.36536927  0.63882142  0.38602869  1
  P  P16  1  0.32573656  0.05696172  0.87536782  1
  P  P17  1  0.67431339  0.05642303  0.12449408  1
  P  P18  1  0.82568661  0.94357697  0.62449408  1
  P  P19  1  0.17426344  0.94303828  0.37536782  1
  P  P20  1  0.33845505  0.44055626  0.64060905  1
  P  P21  1  0.66104450  0.43990131  0.35930893  1
  P  P22  1  0.83895550  0.56009869  0.85930893  1
  P  P23  1  0.16154495  0.55944374  0.14060905  1
  O  O24  1  0.30273107  0.21720733  0.91503754  1
  O  O25  1  0.69812843  0.21634480  0.08462343  1
  O  O26  1  0.80187157  0.78365520  0.58462343  1
  O  O27  1  0.19726893  0.78279267  0.41503754  1
  O  O28  1  0.25592926  0.02448353  0.74605019  1
  O  O29  1  0.74419578  0.02435642  0.25392673  1
  O  O30  1  0.75580422  0.97564358  0.75392673  1
  O  O31  1  0.24407074  0.97551647  0.24605019  1
  O  O32  1  0.05831055  0.25872845  0.75186254  1
  O  O33  1  0.94069867  0.26114181  0.24873528  1
  O  O34  1  0.55930133  0.73885819  0.74873528  1
  O  O35  1  0.44168945  0.74127155  0.25186254  1
  O  O36  1  0.30786181  0.28106323  0.60167057  1
  O  O37  1  0.69155515  0.28053144  0.39855518  1
  O  O38  1  0.80844485  0.71946856  0.89855518  1
  O  O39  1  0.19213819  0.71893677  0.10167057  1
  O  O40  1  0.99931604  0.28148885  0.00014376  1
  O  O41  1  0.50068396  0.71851115  0.50014376  1
  O  O42  1  0.00049941  0.22875798  0.49902658  1
  O  O43  1  0.49950059  0.77124202  0.99902658  1
  O  O44  1  0.25456973  0.54405820  0.54891902  1
  O  O45  1  0.74650367  0.54442116  0.44981974  1
  O  O46  1  0.75349633  0.45557884  0.94981974  1
  O  O47  1  0.24543027  0.45594180  0.04891902  1
  O  O48  1  0.28994514  0.47103336  0.77713285  1
  O  O49  1  0.71408526  0.47021494  0.22444687  1
  O  O50  1  0.78591474  0.52978506  0.72444687  1
  O  O51  1  0.21005486  0.52896664  0.27713285  1
  O  O52  1  0.51283705  0.46379273  0.63412818  1
  O  O53  1  0.48736385  0.46365242  0.36616357  1
  O  O54  1  0.01263615  0.53634758  0.86616357  1
  O  O55  1  0.98716295  0.53620727  0.13412818  1
  O  O56  1  0.49842188  0.02610580  0.86462565  1
  O  O57  1  0.50178330  0.02573631  0.13531270  1
  O  O58  1  0.99821670  0.97426369  0.63531270  1
  O  O59  1  0.00157812  0.97389420  0.36462565  1
  O  O60  1  0.25066040  0.96139818  0.97836085  1
  O  O61  1  0.74945565  0.96086961  0.02158067  1
  O  O62  1  0.75054435  0.03913039  0.52158067  1
  O  O63  1  0.24933960  0.03860182  0.47836085  1
