# generated using pymatgen
data_Li2(FeO2)5
_symmetry_space_group_name_H-M   'P 1'
_cell_length_a   5.15872688
_cell_length_b   5.14108375
_cell_length_c   7.86355900
_cell_angle_alpha   109.15004086
_cell_angle_beta   100.73782664
_cell_angle_gamma   101.34705432
_symmetry_Int_Tables_number   1
_chemical_formula_structural   Li2(FeO2)5
_chemical_formula_sum   'Li2 Fe5 O10'
_cell_volume   185.94137800
_cell_formula_units_Z   1
loop_
 _symmetry_equiv_pos_site_id
 _symmetry_equiv_pos_as_xyz
  1  'x, y, z'
loop_
 _atom_site_type_symbol
 _atom_site_label
 _atom_site_symmetry_multiplicity
 _atom_site_fract_x
 _atom_site_fract_y
 _atom_site_fract_z
 _atom_site_occupancy
  Li  Li0  1  0.23513386  0.93416285  0.42545017  1
  Li  Li1  1  0.76486614  0.06583715  0.57454983  1
  Fe  Fe2  1  0.11445512  0.69818211  0.68963813  1
  Fe  Fe3  1  0.00000000  0.50000000  0.00000000  1
  Fe  Fe4  1  0.68799668  0.87663900  0.88690649  1
  Fe  Fe5  1  0.31200332  0.12336100  0.11309351  1
  Fe  Fe6  1  0.88554488  0.30181789  0.31036187  1
  O  O7  1  0.03410307  0.10225738  0.86424588  1
  O  O8  1  0.08862339  0.29045025  0.51886044  1
  O  O9  1  0.32481292  0.71881059  0.93000247  1
  O  O10  1  0.19374165  0.47269256  0.22686887  1
  O  O11  1  0.44700384  0.89006360  0.67145669  1
  O  O12  1  0.55299616  0.10993640  0.32854331  1
  O  O13  1  0.80625835  0.52730744  0.77313113  1
  O  O14  1  0.67518708  0.28118941  0.06999753  1
  O  O15  1  0.91137761  0.70954975  0.48113956  1
  O  O16  1  0.96589693  0.89774262  0.13575412  1
