# generated using pymatgen
data_Na8Zr3Si16Sn(H4O13)4
_symmetry_space_group_name_H-M   'P 1'
_cell_length_a   7.62482058
_cell_length_b   8.92465123
_cell_length_c   16.97876767
_cell_angle_alpha   90.34248844
_cell_angle_beta   88.51733721
_cell_angle_gamma   89.94738152
_symmetry_Int_Tables_number   1
_chemical_formula_structural   Na8Zr3Si16Sn(H4O13)4
_chemical_formula_sum   'Na8 Zr3 Si16 Sn1 H16 O52'
_cell_volume   1154.97773605
_cell_formula_units_Z   1
loop_
 _symmetry_equiv_pos_site_id
 _symmetry_equiv_pos_as_xyz
  1  'x, y, z'
loop_
 _atom_site_type_symbol
 _atom_site_label
 _atom_site_symmetry_multiplicity
 _atom_site_fract_x
 _atom_site_fract_y
 _atom_site_fract_z
 _atom_site_occupancy
  Na  Na0  1  0.39434594  0.18793949  0.39540910  1
  Na  Na1  1  0.89273285  0.18883912  0.89569960  1
  Na  Na2  1  0.60463952  0.68804892  0.10410999  1
  Na  Na3  1  0.10514551  0.68834298  0.60451134  1
  Na  Na4  1  0.10726715  0.81116088  0.10430040  1
  Na  Na5  1  0.60565406  0.81206051  0.60459090  1
  Na  Na6  1  0.89485449  0.31165702  0.39548866  1
  Na  Na7  1  0.39536048  0.31195108  0.89589001  1
  Zr  Zr8  1  0.00000000  -0.00000000  0.50000000  1
  Zr  Zr9  1  0.50000000  0.50000000  0.50000000  1
  Zr  Zr10  1  0.00000000  0.50000000  -0.00000000  1
  Si  Si11  1  0.88517155  0.65780972  0.41546732  1
  Si  Si12  1  0.38668142  0.66108168  0.91722764  1
  Si  Si13  1  0.11835762  0.15579778  0.08265366  1
  Si  Si14  1  0.61341969  0.15742413  0.58420133  1
  Si  Si15  1  0.61331858  0.33891832  0.08277236  1
  Si  Si16  1  0.11482845  0.34219028  0.58453268  1
  Si  Si17  1  0.38658031  0.84257587  0.41579867  1
  Si  Si18  1  0.88164238  0.84420222  0.91734634  1
  Si  Si19  1  0.74810468  0.94093260  0.33915034  1
  Si  Si20  1  0.24760923  0.94278950  0.84293747  1
  Si  Si21  1  0.25219630  0.43991215  0.15898297  1
  Si  Si22  1  0.75188063  0.44125935  0.65957386  1
  Si  Si23  1  0.75239077  0.05721050  0.15706253  1
  Si  Si24  1  0.25189532  0.05906740  0.66084966  1
  Si  Si25  1  0.24811937  0.55874065  0.34042614  1
  Si  Si26  1  0.74780370  0.56008785  0.84101703  1
  Sn  Sn27  1  0.50000000  -0.00000000  -0.00000000  1
  H  H28  1  0.07785130  0.10059590  0.32514130  1
  H  H29  1  0.57852349  0.10109770  0.82574573  1
  H  H30  1  0.92247570  0.60054014  0.17442999  1
  H  H31  1  0.42224213  0.60064087  0.67455440  1
  H  H32  1  0.42147651  0.89890230  0.17425427  1
  H  H33  1  0.92214870  0.89940410  0.67485870  1
  H  H34  1  0.57775787  0.39935913  0.32544560  1
  H  H35  1  0.07752430  0.39945986  0.82557001  1
  H  H36  1  0.16309220  0.19773925  0.25565022  1
  H  H37  1  0.66282003  0.19742541  0.75553923  1
  H  H38  1  0.83659863  0.69799666  0.24420452  1
  H  H39  1  0.33671578  0.69822817  0.74445495  1
  H  H40  1  0.33717997  0.80257459  0.24446077  1
  H  H41  1  0.83690780  0.80226075  0.74434978  1
  H  H42  1  0.66328422  0.30177183  0.25554505  1
  H  H43  1  0.16340137  0.30200334  0.75579548  1
  O  O44  1  0.87979910  0.04231198  0.39030467  1
  O  O45  1  0.38144776  0.04482270  0.89307366  1
  O  O46  1  0.12004080  0.54185936  0.10900014  1
  O  O47  1  0.62053929  0.54272650  0.60887831  1
  O  O48  1  0.61855224  0.95517730  0.10692634  1
  O  O49  1  0.12020090  0.95768802  0.60969533  1
  O  O50  1  0.37946071  0.45727350  0.39112169  1
  O  O51  1  0.87995920  0.45814064  0.89099986  1
  O  O52  1  0.74131840  0.53401270  0.44194811  1
  O  O53  1  0.24250569  0.53742870  0.94371744  1
  O  O54  1  0.26073028  0.02836895  0.05757055  1
  O  O55  1  0.75785189  0.03334153  0.55758111  1
  O  O56  1  0.75749431  0.46257130  0.05628256  1
  O  O57  1  0.25868160  0.46598730  0.55805189  1
  O  O58  1  0.24214811  0.96665847  0.44241889  1
  O  O59  1  0.73926972  0.97163105  0.94242945  1
  O  O60  1  0.81234548  0.76315659  0.34156918  1
  O  O61  1  0.31331764  0.76572209  0.84343726  1
  O  O62  1  0.18901343  0.26198523  0.15730517  1
  O  O63  1  0.68725738  0.26385566  0.65791147  1
  O  O64  1  0.68668236  0.23427791  0.15656274  1
  O  O65  1  0.18765452  0.23684341  0.65843082  1
  O  O66  1  0.31274262  0.73614434  0.34208853  1
  O  O67  1  0.81098657  0.73801477  0.84269483  1
  O  O68  1  0.15651032  0.18503385  0.31335727  1
  O  O69  1  0.65664151  0.18553065  0.81325490  1
  O  O70  1  0.84314761  0.68477588  0.18641318  1
  O  O71  1  0.34329152  0.68514416  0.68674057  1
  O  O72  1  0.34335849  0.81446935  0.18674510  1
  O  O73  1  0.84348968  0.81496615  0.68664273  1
  O  O74  1  0.65670848  0.31485584  0.31325943  1
  O  O75  1  0.15685239  0.31522412  0.81358682  1
  O  O76  1  0.04552303  0.55399206  0.37532663  1
  O  O77  1  0.54575344  0.55631937  0.87655101  1
  O  O78  1  0.95590041  0.05332677  0.12242999  1
  O  O79  1  0.45402757  0.05420201  0.62505817  1
  O  O80  1  0.45424656  0.44368063  0.12344899  1
  O  O81  1  0.95447697  0.44600794  0.62467337  1
  O  O82  1  0.54597243  0.94579799  0.37494183  1
  O  O83  1  0.04409959  0.94667323  0.87757001  1
  O  O84  1  0.94759358  0.76717448  0.48636483  1
  O  O85  1  0.44876136  0.76916515  0.98898592  1
  O  O86  1  0.05635917  0.26639788  0.01275168  1
  O  O87  1  0.55193474  0.26649348  0.51358784  1
  O  O88  1  0.55123864  0.23083485  0.01101408  1
  O  O89  1  0.05240642  0.23282552  0.51363517  1
  O  O90  1  0.44806526  0.73350652  0.48641216  1
  O  O91  1  0.94364083  0.73360212  0.98724832  1
  O  O92  1  0.25048418  0.49938101  0.24970446  1
  O  O93  1  0.74951582  0.50061899  0.75029554  1
  O  O94  1  0.74879442  0.99743523  0.24787008  1
  O  O95  1  0.25120558  0.00256477  0.75212992  1
