# generated using pymatgen
data_NaNi2H3(SeO5)2
_symmetry_space_group_name_H-M   'P 1'
_cell_length_a   5.50613836
_cell_length_b   5.50613836
_cell_length_c   7.66488949
_cell_angle_alpha   69.90088933
_cell_angle_beta   69.90088933
_cell_angle_gamma   70.78424652
_symmetry_Int_Tables_number   1
_chemical_formula_structural   NaNi2H3(SeO5)2
_chemical_formula_sum   'Na1 Ni2 H3 Se2 O10'
_cell_volume   198.98445674
_cell_formula_units_Z   1
loop_
 _symmetry_equiv_pos_site_id
 _symmetry_equiv_pos_as_xyz
  1  'x, y, z'
loop_
 _atom_site_type_symbol
 _atom_site_label
 _atom_site_symmetry_multiplicity
 _atom_site_fract_x
 _atom_site_fract_y
 _atom_site_fract_z
 _atom_site_occupancy
  Na  Na0  1  0.49900038  0.49900038  0.50166734  1
  Ni  Ni1  1  0.99477384  0.49946459  0.99962748  1
  Ni  Ni2  1  0.49946459  0.99477384  0.99962748  1
  H  H3  1  0.68444285  0.68444285  0.78430766  1
  H  H4  1  0.30466496  0.30466496  0.22503861  1
  H  H5  1  0.48270590  0.48270590  0.01313604  1
  Se  Se6  1  0.91168529  0.91168529  0.29066926  1
  Se  Se7  1  0.08543832  0.08543832  0.71096120  1
  O  O8  1  0.64699227  0.64699227  0.92484584  1
  O  O9  1  0.34465943  0.34465943  0.08366094  1
  O  O10  1  0.24512317  0.81248468  0.24776877  1
  O  O11  1  0.81248468  0.24512317  0.24776877  1
  O  O12  1  0.75233422  0.18576394  0.75437568  1
  O  O13  1  0.18576394  0.75233422  0.75437568  1
  O  O14  1  0.76629488  0.76629488  0.51092570  1
  O  O15  1  0.23087905  0.23087905  0.48977176  1
  O  O16  1  0.81460728  0.81460728  0.13995804  1
  O  O17  1  0.18468495  0.18468495  0.85951374  1
