# generated using pymatgen
data_Pr2Al2CuNi
_symmetry_space_group_name_H-M   'P 1'
_cell_length_a   4.23990196
_cell_length_b   7.17278831
_cell_length_c   12.07965521
_cell_angle_alpha   89.89006528
_cell_angle_beta   90.00000000
_cell_angle_gamma   90.00000000
_symmetry_Int_Tables_number   1
_chemical_formula_structural   Pr2Al2CuNi
_chemical_formula_sum   'Pr6 Al6 Cu3 Ni3'
_cell_volume   367.36482244
_cell_formula_units_Z   3
loop_
 _symmetry_equiv_pos_site_id
 _symmetry_equiv_pos_as_xyz
  1  'x, y, z'
loop_
 _atom_site_type_symbol
 _atom_site_label
 _atom_site_symmetry_multiplicity
 _atom_site_fract_x
 _atom_site_fract_y
 _atom_site_fract_z
 _atom_site_occupancy
  Pr  Pr0  1  0.50000000  0.08392042  0.49577440  1
  Pr  Pr1  1  0.50000000  0.58808706  0.00144236  1
  Pr  Pr2  1  0.50000000  0.20039076  0.21001552  1
  Pr  Pr3  1  0.50000000  0.70897786  0.70665248  1
  Pr  Pr4  1  0.50000000  0.71523671  0.29449403  1
  Pr  Pr5  1  0.50000000  0.20689824  0.79268912  1
  Al  Al6  1  0.00000000  0.72407837  0.49789541  1
  Al  Al7  1  0.00000000  0.22250528  0.00029542  1
  Al  Al8  1  0.00000000  0.38633221  0.38798468  1
  Al  Al9  1  0.00000000  0.88867077  0.88907811  1
  Al  Al10  1  0.00000000  0.89070737  0.11361046  1
  Al  Al11  1  0.00000000  0.38828671  0.61070080  1
  Cu  Cu12  1  0.00000000  0.49836963  0.83292760  1
  Cu  Cu13  1  -0.00000000  0.49721847  0.16883348  1
  Cu  Cu14  1  0.00000000  0.00046527  0.66581937  1
  Ni  Ni15  1  0.50000000  0.00085306  0.99996302  1
  Ni  Ni16  1  0.50000000  0.50112113  0.50000315  1
  Ni  Ni17  1  -0.00000000  0.99768068  0.33182060  1
