# generated using pymatgen
data_NaPr9Si6(SO12)2
_symmetry_space_group_name_H-M   'P 1'
_cell_length_a   6.96634114
_cell_length_b   9.96155892
_cell_length_c   9.96163255
_cell_angle_alpha   119.99986431
_cell_angle_beta   90.00025312
_cell_angle_gamma   89.99976066
_symmetry_Int_Tables_number   1
_chemical_formula_structural   NaPr9Si6(SO12)2
_chemical_formula_sum   'Na1 Pr9 Si6 S2 O24'
_cell_volume   598.67867658
_cell_formula_units_Z   1
loop_
 _symmetry_equiv_pos_site_id
 _symmetry_equiv_pos_as_xyz
  1  'x, y, z'
loop_
 _atom_site_type_symbol
 _atom_site_label
 _atom_site_symmetry_multiplicity
 _atom_site_fract_x
 _atom_site_fract_y
 _atom_site_fract_z
 _atom_site_occupancy
  Na  Na0  1  0.50735705  0.66663521  0.33331807  1
  Pr  Pr1  1  0.74875479  0.24711062  0.99807315  1
  Pr  Pr2  1  0.74875180  0.00193172  0.24904293  1
  Pr  Pr3  1  0.74875276  0.75096084  0.75289021  1
  Pr  Pr4  1  0.25259199  0.75980644  0.01108743  1
  Pr  Pr5  1  0.25259736  0.98891073  0.74871716  1
  Pr  Pr6  1  0.25258865  0.25127922  0.24018796  1
  Pr  Pr7  1  0.00228540  0.33333176  0.66666586  1
  Pr  Pr8  1  0.49791928  0.33333302  0.66666715  1
  Pr  Pr9  1  0.99538030  0.66667337  0.33333747  1
  Si  Si10  1  0.75236555  0.03222382  0.62377861  1
  Si  Si11  1  0.75236394  0.37622135  0.40844747  1
  Si  Si12  1  0.75236441  0.59155408  0.96777439  1
  Si  Si13  1  0.24935833  0.96865910  0.38027229  1
  Si  Si14  1  0.24935821  0.61973113  0.58838799  1
  Si  Si15  1  0.24935823  0.41161375  0.03134025  1
  S  S16  1  0.50868173  0.00000066  0.00000046  1
  S  S17  1  0.99828318  0.99999938  0.00000067  1
  O  O18  1  0.75000857  0.12929083  0.52743917  1
  O  O19  1  0.75000764  0.47256687  0.60184981  1
  O  O20  1  0.75000786  0.39814810  0.87071200  1
  O  O21  1  0.24338968  0.87553820  0.47716984  1
  O  O22  1  0.24339120  0.52282913  0.39837132  1
  O  O23  1  0.24339046  0.60163139  0.12446390  1
  O  O24  1  0.56057309  0.10023818  0.73655935  1
  O  O25  1  0.56057463  0.26343843  0.36368411  1
  O  O26  1  0.56057325  0.63632122  0.89975979  1
  O  O27  1  0.05974347  0.90464182  0.26496641  1
  O  O28  1  0.05974434  0.73503826  0.63966930  1
  O  O29  1  0.05974526  0.36032369  0.09536074  1
  O  O30  1  0.43087922  0.91662950  0.26004924  1
  O  O31  1  0.43087787  0.73995613  0.65657227  1
  O  O32  1  0.43087889  0.34342231  0.08337598  1
  O  O33  1  0.94040952  0.10512663  0.74065053  1
  O  O34  1  0.94040837  0.25935352  0.36448215  1
  O  O35  1  0.94040774  0.63552237  0.89487521  1
  O  O36  1  0.75891456  0.84630969  0.51719232  1
  O  O37  1  0.75891358  0.48280053  0.32910309  1
  O  O38  1  0.75891199  0.67089194  0.15369095  1
  O  O39  1  0.24971159  0.15781492  0.49709287  1
  O  O40  1  0.24971197  0.50291847  0.66073252  1
  O  O41  1  0.24971229  0.33927167  0.84218763  1
