# generated using pymatgen
data_MoCl6
_symmetry_space_group_name_H-M   'P 1'
_cell_length_a   5.85508948
_cell_length_b   6.44610161
_cell_length_c   6.44610041
_cell_angle_alpha   60.00000078
_cell_angle_beta   90.00000000
_cell_angle_gamma   90.00000000
_symmetry_Int_Tables_number   1
_chemical_formula_structural   MoCl6
_chemical_formula_sum   'Mo1 Cl6'
_cell_volume   210.69701597
_cell_formula_units_Z   1
loop_
 _symmetry_equiv_pos_site_id
 _symmetry_equiv_pos_as_xyz
  1  'x, y, z'
loop_
 _atom_site_type_symbol
 _atom_site_label
 _atom_site_symmetry_multiplicity
 _atom_site_fract_x
 _atom_site_fract_y
 _atom_site_fract_z
 _atom_site_occupancy
  Mo  Mo0  1  0.50000000  0.00000000  -0.00000000  1
  Cl  Cl1  1  0.72689437  0.70708396  0.00000000  1
  Cl  Cl2  1  0.72689437  0.29291604  0.70708396  1
  Cl  Cl3  1  0.72689437  0.00000000  0.29291604  1
  Cl  Cl4  1  0.27310563  0.70708396  0.29291604  1
  Cl  Cl5  1  0.27310563  1.00000000  0.70708396  1
  Cl  Cl6  1  0.27310563  0.29291604  1.00000000  1
