# generated using pymatgen
data_Na3Cr2(PO4)3
_symmetry_space_group_name_H-M   'P 1'
_cell_length_a   8.78458065
_cell_length_b   8.78458095
_cell_length_c   8.88783593
_cell_angle_alpha   89.85104115
_cell_angle_beta   60.41540662
_cell_angle_gamma   119.85841217
_symmetry_Int_Tables_number   1
_chemical_formula_structural   Na3Cr2(PO4)3
_chemical_formula_sum   'Na6 Cr4 P6 O24'
_cell_volume   488.41262740
_cell_formula_units_Z   2
loop_
 _symmetry_equiv_pos_site_id
 _symmetry_equiv_pos_as_xyz
  1  'x, y, z'
loop_
 _atom_site_type_symbol
 _atom_site_label
 _atom_site_symmetry_multiplicity
 _atom_site_fract_x
 _atom_site_fract_y
 _atom_site_fract_z
 _atom_site_occupancy
  Na  Na0  1  -0.00000000  0.50000000  0.50000000  1
  Na  Na1  1  -0.00000000  -0.00000000  0.00000000  1
  Na  Na2  1  0.50114755  0.38494668  0.75062502  1
  Na  Na3  1  0.13557171  0.75177257  0.74937498  1
  Na  Na4  1  0.49885245  0.61505332  0.24937498  1
  Na  Na5  1  0.86442829  0.24822743  0.25062502  1
  Cr  Cr6  1  0.29575140  0.65119956  0.05781278  1
  Cr  Cr7  1  0.29098767  0.14643582  0.55781278  1
  Cr  Cr8  1  0.70424860  0.34880044  0.94218722  1
  Cr  Cr9  1  0.70901233  0.85356418  0.44218722  1
  P  P10  1  0.50447209  0.04228150  0.74834468  1
  P  P11  1  0.79062618  0.75281677  0.75165532  1
  P  P12  1  0.20711027  0.45711027  0.75000000  1
  P  P13  1  0.20937382  0.24718323  0.24834468  1
  P  P14  1  0.79288973  0.54288973  0.25000000  1
  P  P15  1  0.49552791  0.95771850  0.25165532  1
  O  O16  1  0.34496541  0.06634097  0.73510327  1
  O  O17  1  0.98849226  0.91858491  0.73591883  1
  O  O18  1  0.20508923  0.28055793  0.73474020  1
  O  O19  1  0.19855577  0.41993132  0.23510327  1
  O  O20  1  0.98470187  0.56017057  0.23474020  1
  O  O21  1  0.34549626  0.77558891  0.23591883  1
  O  O22  1  0.65503459  0.93365903  0.26489673  1
  O  O23  1  0.01150774  0.08141509  0.26408117  1
  O  O24  1  0.79491077  0.71944207  0.26525980  1
  O  O25  1  0.80144423  0.58006868  0.76489673  1
  O  O26  1  0.01529813  0.43982943  0.76525980  1
  O  O27  1  0.65450374  0.22441109  0.76408117  1
  O  O28  1  0.35410535  0.86726981  0.91680616  1
  O  O29  1  0.59244049  0.71967698  0.92768464  1
  O  O30  1  0.20695062  0.48192356  0.92279901  1
  O  O31  1  0.21592403  0.22908849  0.41680616  1
  O  O32  1  0.59527743  0.37025037  0.42279901  1
  O  O33  1  0.35263838  0.97987487  0.42768464  1
  O  O34  1  0.64589465  0.13273019  0.08319384  1
  O  O35  1  0.40755951  0.28032302  0.07231536  1
  O  O36  1  0.79304938  0.51807644  0.07720099  1
  O  O37  1  0.78407597  0.77091151  0.58319384  1
  O  O38  1  0.40472257  0.62974963  0.57720099  1
  O  O39  1  0.64736162  0.02012513  0.57231536  1
