# generated using pymatgen
data_Na2Al2B2O7
_symmetry_space_group_name_H-M   'P 1'
_cell_length_a   4.88878706
_cell_length_b   4.86489560
_cell_length_c   15.57485078
_cell_angle_alpha   90.04360159
_cell_angle_beta   90.08661118
_cell_angle_gamma   59.83729541
_symmetry_Int_Tables_number   1
_chemical_formula_structural   Na2Al2B2O7
_chemical_formula_sum   'Na4 Al4 B4 O14'
_cell_volume   320.26855794
_cell_formula_units_Z   2
loop_
 _symmetry_equiv_pos_site_id
 _symmetry_equiv_pos_as_xyz
  1  'x, y, z'
loop_
 _atom_site_type_symbol
 _atom_site_label
 _atom_site_symmetry_multiplicity
 _atom_site_fract_x
 _atom_site_fract_y
 _atom_site_fract_z
 _atom_site_occupancy
  Na  Na0  1  0.99819721  0.00071293  0.49998946  1
  Na  Na1  1  0.99889466  0.99929637  0.99999070  1
  Na  Na2  1  0.00412114  0.00341215  0.74999730  1
  Na  Na3  1  0.00752615  0.99658726  0.24999630  1
  Al  Al4  1  0.32238735  0.33860971  0.13888575  1
  Al  Al5  1  0.66099837  0.66138793  0.63888558  1
  Al  Al6  1  0.66292620  0.66009261  0.86110766  1
  Al  Al7  1  0.32302015  0.33990794  0.36110791  1
  B  B8  1  0.33171129  0.33221367  0.60413470  1
  B  B9  1  0.66392880  0.66778153  0.10413475  1
  B  B10  1  0.66354522  0.66763160  0.39585919  1
  B  B11  1  0.33116907  0.33237137  0.89585919  1
  O  O12  1  0.64594368  0.64465035  0.74999450  1
  O  O13  1  0.29057353  0.35535203  0.24999503  1
  O  O14  1  0.39196181  0.96270951  0.39456751  1
  O  O15  1  0.64153955  0.39507638  0.39192697  1
  O  O16  1  0.95664793  0.64476670  0.40118629  1
  O  O17  1  0.03661638  0.60491935  0.89192992  1
  O  O18  1  0.35466269  0.03729074  0.89456688  1
  O  O19  1  0.60141320  0.35522695  0.90118554  1
  O  O20  1  0.60376209  0.03696628  0.60773852  1
  O  O21  1  0.35467551  0.60329968  0.59875042  1
  O  O22  1  0.03826447  0.35443577  0.60586005  1
  O  O23  1  0.95797782  0.39670067  0.09874830  1
  O  O24  1  0.64073133  0.96303617  0.10774151  1
  O  O25  1  0.39270441  0.64556434  0.10586006  1
