# generated using pymatgen
data_Na4P6PbO18
_symmetry_space_group_name_H-M   'P 1'
_cell_length_a   7.39032905
_cell_length_b   7.95627942
_cell_length_c   7.94610446
_cell_angle_alpha   117.71126711
_cell_angle_beta   101.61227051
_cell_angle_gamma   95.45001716
_symmetry_Int_Tables_number   1
_chemical_formula_structural   Na4P6PbO18
_chemical_formula_sum   'Na4 P6 Pb1 O18'
_cell_volume   395.47470437
_cell_formula_units_Z   1
loop_
 _symmetry_equiv_pos_site_id
 _symmetry_equiv_pos_as_xyz
  1  'x, y, z'
loop_
 _atom_site_type_symbol
 _atom_site_label
 _atom_site_symmetry_multiplicity
 _atom_site_fract_x
 _atom_site_fract_y
 _atom_site_fract_z
 _atom_site_occupancy
  Na  Na0  1  0.18028552  0.34616154  0.52801408  1
  Na  Na1  1  0.82620066  0.65979669  0.48887889  1
  Na  Na2  1  0.49512819  0.50810381  0.99815604  1
  Na  Na3  1  0.11903871  0.76221734  0.95331824  1
  P  P4  1  0.76493405  0.33656819  0.65377652  1
  P  P5  1  0.23056578  0.66905358  0.34556692  1
  P  P6  1  0.50874834  0.22127255  0.26684181  1
  P  P7  1  0.49202224  0.77911194  0.72723512  1
  P  P8  1  0.22568816  0.02146384  0.70535802  1
  P  P9  1  0.76798204  0.97865482  0.30123034  1
  Pb  Pb10  1  0.90975191  0.19860878  0.02388364  1
  O  O11  1  0.25337218  0.22821124  0.75340855  1
  O  O12  1  0.74246075  0.77278919  0.25529455  1
  O  O13  1  0.29818308  0.18626367  0.20070231  1
  O  O14  1  0.70436447  0.82909220  0.79475608  1
  O  O15  1  0.19664993  0.88732867  0.46791941  1
  O  O16  1  0.79399714  0.11423519  0.53748747  1
  O  O17  1  0.07092813  0.93757018  0.76131538  1
  O  O18  1  0.92523674  0.06507146  0.24916846  1
  O  O19  1  0.37935377  0.65408849  0.78109459  1
  O  O20  1  0.63523257  0.33483817  0.21004133  1
  O  O21  1  0.25513028  0.63897620  0.15258121  1
  O  O22  1  0.73093849  0.36637495  0.84429406  1
  O  O23  1  0.07983735  0.52586217  0.34530039  1
  O  O24  1  0.92149695  0.47481347  0.65787607  1
  O  O25  1  0.43348477  0.68403477  0.48527035  1
  O  O26  1  0.56586379  0.32258715  0.50958568  1
  O  O27  1  0.42645068  0.98482272  0.79446828  1
  O  O28  1  0.56667336  0.01202702  0.20717622  1
