# generated using pymatgen
data_LiFe2(SiO4)2
_symmetry_space_group_name_H-M   'P 1'
_cell_length_a   8.78976404
_cell_length_b   8.77183930
_cell_length_c   8.78566741
_cell_angle_alpha   107.43207952
_cell_angle_beta   108.59114234
_cell_angle_gamma   107.98943281
_symmetry_Int_Tables_number   1
_chemical_formula_structural   LiFe2(SiO4)2
_chemical_formula_sum   'Li3 Fe6 Si6 O24'
_cell_volume   547.91088214
_cell_formula_units_Z   3
loop_
 _symmetry_equiv_pos_site_id
 _symmetry_equiv_pos_as_xyz
  1  'x, y, z'
loop_
 _atom_site_type_symbol
 _atom_site_label
 _atom_site_symmetry_multiplicity
 _atom_site_fract_x
 _atom_site_fract_y
 _atom_site_fract_z
 _atom_site_occupancy
  Li  Li0  1  0.23210092  0.06130250  0.45758017  1
  Li  Li1  1  0.45590588  0.23292542  0.05632291  1
  Li  Li2  1  0.93897692  0.53723381  0.77260637  1
  Fe  Fe3  1  0.13004646  0.89266098  0.71877282  1
  Fe  Fe4  1  0.21683004  0.43459792  0.62179455  1
  Fe  Fe5  1  0.42874124  0.62072971  0.21107055  1
  Fe  Fe6  1  0.72976721  0.13646501  0.90184324  1
  Fe  Fe7  1  0.61322226  0.20085082  0.42849875  1
  Fe  Fe8  1  0.89770296  0.72154959  0.13372550  1
  Si  Si9  1  0.10546279  0.27867182  0.86850943  1
  Si  Si10  1  0.38380223  0.79885243  0.57226807  1
  Si  Si11  1  0.27046524  0.87308541  0.09956558  1
  Si  Si12  1  0.57353364  0.37914802  0.78967276  1
  Si  Si13  1  0.78634468  0.56454728  0.38711816  1
  Si  Si14  1  0.87549206  0.09831736  0.28333438  1
  O  O15  1  0.28775591  0.96353091  0.96233764  1
  O  O16  1  0.08841785  0.39690345  0.75315445  1
  O  O17  1  0.06477903  0.07742904  0.74278980  1
  O  O18  1  0.25499909  0.90155574  0.57687873  1
  O  O19  1  0.03982858  0.30228828  0.38742889  1
  O  O20  1  0.05911487  0.73833217  0.02964017  1
  O  O21  1  0.34412495  0.66572357  0.66552242  1
  O  O22  1  0.33373931  0.67488810  0.36646864  1
  O  O23  1  0.36453466  0.31647386  0.65445984  1
  O  O24  1  0.59486235  0.94554245  0.67491955  1
  O  O25  1  0.37646427  0.74737419  0.08591748  1
  O  O26  1  0.67189298  0.58872557  0.93671867  1
  O  O27  1  0.31116033  0.37861587  0.03641688  1
  O  O28  1  0.58291385  0.25792386  0.90202053  1
  O  O29  1  0.36410436  0.03380519  0.30478078  1
  O  O30  1  0.65896548  0.66473112  0.34993005  1
  O  O31  1  0.68344793  0.35034093  0.67009966  1
  O  O32  1  0.65033494  0.35364827  0.31482417  1
  O  O33  1  0.93328471  0.65607671  0.60079255  1
  O  O34  1  0.95801686  0.27877307  0.94311202  1
  O  O35  1  0.96816355  0.96134265  0.28581709  1
  O  O36  1  0.74672804  0.07930892  0.38337862  1
  O  O37  1  0.89589040  0.59423516  0.26958014  1
  O  O38  1  0.75532817  0.06101083  0.08026300  1
