# generated using pymatgen
data_NaMg3Si4HO12
_symmetry_space_group_name_H-M   'P 1'
_cell_length_a   5.33475516
_cell_length_b   9.91090307
_cell_length_c   18.16779966
_cell_angle_alpha   90.00000000
_cell_angle_beta   90.00000000
_cell_angle_gamma   101.94041735
_symmetry_Int_Tables_number   1
_chemical_formula_structural   NaMg3Si4HO12
_chemical_formula_sum   'Na4 Mg12 Si16 H4 O48'
_cell_volume   939.78865583
_cell_formula_units_Z   4
loop_
 _symmetry_equiv_pos_site_id
 _symmetry_equiv_pos_as_xyz
  1  'x, y, z'
loop_
 _atom_site_type_symbol
 _atom_site_label
 _atom_site_symmetry_multiplicity
 _atom_site_fract_x
 _atom_site_fract_y
 _atom_site_fract_z
 _atom_site_occupancy
  Na  Na0  1  0.04646765  0.26405405  0.24963602  1
  Na  Na1  1  0.95353235  0.73594595  0.74963602  1
  Na  Na2  1  0.47840351  0.74321625  0.97891134  1
  Na  Na3  1  0.52159649  0.25678375  0.47891134  1
  Mg  Mg4  1  0.98517191  0.75032360  0.06746648  1
  Mg  Mg5  1  0.01482809  0.24967640  0.56746648  1
  Mg  Mg6  1  0.01569224  0.24993838  0.92981471  1
  Mg  Mg7  1  0.98430776  0.75006162  0.42981471  1
  Mg  Mg8  1  0.98519374  0.75075105  0.24842715  1
  Mg  Mg9  1  0.01480626  0.24924895  0.74842715  1
  Mg  Mg10  1  0.48498303  0.74992677  0.15822505  1
  Mg  Mg11  1  0.51501697  0.25007323  0.65822505  1
  Mg  Mg12  1  0.51474490  0.24917553  0.83599801  1
  Mg  Mg13  1  0.48525510  0.75082447  0.33599801  1
  Mg  Mg14  1  0.51545298  0.24718212  0.00551887  1
  Mg  Mg15  1  0.48454702  0.75281788  0.50551887  1
  Si  Si16  1  0.29024429  0.52850061  0.66498957  1
  Si  Si17  1  0.70975571  0.47149939  0.16498957  1
  Si  Si18  1  0.70845664  0.47403558  0.33405602  1
  Si  Si19  1  0.29154336  0.52596442  0.83405602  1
  Si  Si20  1  0.76245031  0.04018649  0.07949747  1
  Si  Si21  1  0.23754969  0.95981351  0.57949747  1
  Si  Si22  1  0.23200845  0.96338461  0.92154311  1
  Si  Si23  1  0.76799155  0.03661539  0.42154311  1
  Si  Si24  1  0.79396553  0.54359026  0.58199601  1
  Si  Si25  1  0.20603447  0.45640974  0.08199601  1
  Si  Si26  1  0.20337452  0.46226133  0.42068821  1
  Si  Si27  1  0.79662548  0.53773867  0.92068821  1
  Si  Si28  1  0.25510315  0.02876672  0.16364221  1
  Si  Si29  1  0.74489685  0.97123328  0.66364221  1
  Si  Si30  1  0.73955343  0.97369568  0.83474322  1
  Si  Si31  1  0.26044657  0.02630432  0.33474322  1
  H  H32  1  0.24335253  0.54655099  0.24888898  1
  H  H33  1  0.75664747  0.45344901  0.74888898  1
  H  H34  1  0.73429249  0.95683340  0.24953631  1
  H  H35  1  0.26570751  0.04316660  0.74953631  1
  O  O36  1  0.69129838  0.85673059  0.24960833  1
  O  O37  1  0.30870162  0.14326941  0.74960833  1
  O  O38  1  0.22359718  0.36195086  0.66255863  1
  O  O39  1  0.77640282  0.63804914  0.16255863  1
  O  O40  1  0.77563278  0.64075190  0.33711335  1
  O  O41  1  0.22436722  0.35924810  0.83711335  1
  O  O42  1  0.19556730  0.86232681  0.16253392  1
  O  O43  1  0.80443270  0.13767319  0.66253392  1
  O  O44  1  0.80546078  0.14042743  0.83690134  1
  O  O45  1  0.19453922  0.85957257  0.33690134  1
  O  O46  1  0.70596549  0.87364246  0.07968144  1
  O  O47  1  0.29403451  0.12635754  0.57968144  1
  O  O48  1  0.29952046  0.13368459  0.92319879  1
  O  O49  1  0.70047954  0.86631541  0.42319879  1
  O  O50  1  0.29535239  0.08731749  0.24953241  1
  O  O51  1  0.70464761  0.91268251  0.74953241  1
  O  O52  1  0.73833017  0.37679248  0.57970807  1
  O  O53  1  0.26166983  0.62320752  0.07970807  1
  O  O54  1  0.26887885  0.63244001  0.42394530  1
  O  O55  1  0.73112115  0.36755999  0.92394530  1
  O  O56  1  0.01761324  0.09729650  0.13399969  1
  O  O57  1  0.98238676  0.90270350  0.63399969  1
  O  O58  1  0.98071654  0.91016146  0.86536498  1
  O  O59  1  0.01928346  0.08983854  0.36536498  1
  O  O60  1  0.25593650  0.58506394  0.75006042  1
  O  O61  1  0.74406350  0.41493606  0.25006042  1
  O  O62  1  0.71974037  0.35366129  0.74974670  1
  O  O63  1  0.28025963  0.64633871  0.24974670  1
  O  O64  1  0.51808743  0.09977263  0.11923251  1
  O  O65  1  0.48191257  0.90022737  0.61923251  1
  O  O66  1  0.47174716  0.90947686  0.87765163  1
  O  O67  1  0.52825284  0.09052314  0.37765163  1
  O  O68  1  0.59312051  0.59178510  0.64468904  1
  O  O69  1  0.40687949  0.40821490  0.14468904  1
  O  O70  1  0.40877890  0.41381533  0.35907724  1
  O  O71  1  0.59122110  0.58618467  0.85907724  1
  O  O72  1  0.75602188  0.63496229  0.51019809  1
  O  O73  1  0.24397812  0.36503771  0.01019809  1
  O  O74  1  0.21861816  0.38403281  0.49588090  1
  O  O75  1  0.78138184  0.61596719  0.99588090  1
  O  O76  1  0.09225631  0.60070872  0.61623177  1
  O  O77  1  0.90774369  0.39929128  0.11623177  1
  O  O78  1  0.91383991  0.40822437  0.38216667  1
  O  O79  1  0.08616009  0.59177563  0.88216667  1
  O  O80  1  0.78605641  0.12886662  0.00408471  1
  O  O81  1  0.21394359  0.87113338  0.50408471  1
  O  O82  1  0.19236197  0.88853748  0.99885531  1
  O  O83  1  0.80763803  0.11146252  0.49885531  1
