# generated using pymatgen
data_Na4Ca7MnSi12(HO9)4
_symmetry_space_group_name_H-M   'P 1'
_cell_length_a   7.07898574
_cell_length_b   9.49647957
_cell_length_c   11.81272891
_cell_angle_alpha   82.41060442
_cell_angle_beta   93.12131935
_cell_angle_gamma   94.79562254
_symmetry_Int_Tables_number   1
_chemical_formula_structural   Na4Ca7MnSi12(HO9)4
_chemical_formula_sum   'Na4 Ca7 Mn1 Si12 H4 O36'
_cell_volume   783.64601944
_cell_formula_units_Z   1
loop_
 _symmetry_equiv_pos_site_id
 _symmetry_equiv_pos_as_xyz
  1  'x, y, z'
loop_
 _atom_site_type_symbol
 _atom_site_label
 _atom_site_symmetry_multiplicity
 _atom_site_fract_x
 _atom_site_fract_y
 _atom_site_fract_z
 _atom_site_occupancy
  Na  Na0  1  0.34082628  0.40051312  0.15150370  1
  Na  Na1  1  0.34222716  0.90156484  0.64939247  1
  Na  Na2  1  0.65785265  0.59829142  0.85036384  1
  Na  Na3  1  0.65748051  0.09847438  0.35081505  1
  Ca  Ca4  1  0.14203902  0.72181740  0.13080618  1
  Ca  Ca5  1  0.14239559  0.22540281  0.62651224  1
  Ca  Ca6  1  0.85781145  0.27700457  0.87121503  1
  Ca  Ca7  1  0.85925902  0.77541507  0.37091021  1
  Ca  Ca8  1  0.14063871  0.96616826  0.88156163  1
  Ca  Ca9  1  0.86021130  0.53334035  0.61663062  1
  Ca  Ca10  1  0.85957511  0.03443137  0.11871963  1
  Mn  Mn11  1  0.14482131  0.46473718  0.38059375  1
  Si  Si12  1  0.14391133  0.59293684  0.85643154  1
  Si  Si13  1  0.14449066  0.09668008  0.35597044  1
  Si  Si14  1  0.85659133  0.40619028  0.14663554  1
  Si  Si15  1  0.85589065  0.90663666  0.64302353  1
  Si  Si16  1  0.33626570  0.31114264  0.90851624  1
  Si  Si17  1  0.33528274  0.81061037  0.40866323  1
  Si  Si18  1  0.66474648  0.68886797  0.09191782  1
  Si  Si19  1  0.66373745  0.18903870  0.59170402  1
  Si  Si20  1  0.34631997  0.58248031  0.62742111  1
  Si  Si21  1  0.34697748  0.08267376  0.12999461  1
  Si  Si22  1  0.65096588  0.41684259  0.37024319  1
  Si  Si23  1  0.65335206  0.91704338  0.87002659  1
  H  H24  1  0.53275076  0.40485094  0.76205673  1
  H  H25  1  0.53273194  0.90461959  0.26242570  1
  H  H26  1  0.46507278  0.59519474  0.23847497  1
  H  H27  1  0.46663599  0.09536764  0.73765785  1
  O  O28  1  0.17372426  0.22684455  0.83662595  1
  O  O29  1  0.17396749  0.72184301  0.33890964  1
  O  O30  1  0.82669818  0.77454144  0.16315892  1
  O  O31  1  0.82651844  0.27367476  0.66315774  1
  O  O32  1  0.26914547  0.46702516  0.93417496  1
  O  O33  1  0.26708168  0.96775496  0.43293481  1
  O  O34  1  0.73602981  0.53398862  0.06736706  1
  O  O35  1  0.73092958  0.03317080  0.56612931  1
  O  O36  1  0.54145683  0.34490359  0.84568825  1
  O  O37  1  0.54054704  0.84444878  0.34567843  1
  O  O38  1  0.45927463  0.65394741  0.15486245  1
  O  O39  1  0.45820908  0.15539459  0.65428891  1
  O  O40  1  0.38653234  0.22690869  0.03579957  1
  O  O41  1  0.38807616  0.72904820  0.53642979  1
  O  O42  1  0.61335771  0.77255191  0.96440624  1
  O  O43  1  0.61320235  0.27269355  0.46451203  1
  O  O44  1  0.54270623  0.51004759  0.66503492  1
  O  O45  1  0.54397006  0.01077034  0.16578443  1
  O  O46  1  0.45087853  0.48812315  0.33726849  1
  O  O47  1  0.45633626  0.98894052  0.83414905  1
  O  O48  1  0.17860669  0.47855361  0.57403338  1
  O  O49  1  0.17782751  0.97635747  0.08225176  1
  O  O50  1  0.82536928  0.52121244  0.41586932  1
  O  O51  1  0.82211538  0.02308704  0.91835820  1
  O  O52  1  0.05501470  0.47952447  0.19738688  1
  O  O53  1  0.05516107  0.98263013  0.68762137  1
  O  O54  1  0.94458217  0.51765388  0.81124800  1
  O  O55  1  0.94496904  0.01968507  0.31251151  1
  O  O56  1  0.27489236  0.64958324  0.74139768  1
  O  O57  1  0.27796252  0.15274521  0.24248579  1
  O  O58  1  0.71547652  0.34750015  0.25602381  1
  O  O59  1  0.72308242  0.84778870  0.75698927  1
  O  O60  1  0.12662510  0.72058986  0.93185999  1
  O  O61  1  0.12799977  0.22910373  0.42754121  1
  O  O62  1  0.87720387  0.28043049  0.06971383  1
  O  O63  1  0.87360815  0.77859563  0.56815958  1
