# generated using pymatgen
data_Na2Al2B2O7
_symmetry_space_group_name_H-M   'P 1'
_cell_length_a   4.87036574
_cell_length_b   4.88099778
_cell_length_c   15.58990483
_cell_angle_alpha   90.00000000
_cell_angle_beta   90.00000000
_cell_angle_gamma   59.99463917
_symmetry_Int_Tables_number   1
_chemical_formula_structural   Na2Al2B2O7
_chemical_formula_sum   'Na4 Al4 B4 O14'
_cell_volume   320.93776188
_cell_formula_units_Z   2
loop_
 _symmetry_equiv_pos_site_id
 _symmetry_equiv_pos_as_xyz
  1  'x, y, z'
loop_
 _atom_site_type_symbol
 _atom_site_label
 _atom_site_symmetry_multiplicity
 _atom_site_fract_x
 _atom_site_fract_y
 _atom_site_fract_z
 _atom_site_occupancy
  Na  Na0  1  0.00000000  -0.00000000  0.50000000  1
  Na  Na1  1  -0.00000000  0.00000000  0.00000000  1
  Na  Na2  1  0.98900384  0.00529316  0.75000000  1
  Na  Na3  1  0.01099616  0.99470684  0.25000000  1
  Al  Al4  1  0.32881620  0.32942683  0.13892204  1
  Al  Al5  1  0.67118380  0.67057317  0.63892204  1
  Al  Al6  1  0.67118380  0.67057317  0.86107796  1
  Al  Al7  1  0.32881620  0.32942683  0.36107796  1
  B  B8  1  0.33504989  0.33364154  0.60484128  1
  B  B9  1  0.66495011  0.66635846  0.10484128  1
  B  B10  1  0.66495011  0.66635846  0.39515872  1
  B  B11  1  0.33504989  0.33364154  0.89515872  1
  O  O12  1  0.68554709  0.68281245  0.75000000  1
  O  O13  1  0.31445291  0.31718755  0.25000000  1
  O  O14  1  0.95861665  0.39470965  0.39969939  1
  O  O15  1  0.64291956  0.96046620  0.39706311  1
  O  O16  1  0.39192577  0.64554227  0.38978757  1
  O  O17  1  0.04138335  0.60529035  0.89969939  1
  O  O18  1  0.35708044  0.03953380  0.89706311  1
  O  O19  1  0.60807423  0.35445773  0.88978757  1
  O  O20  1  0.04138335  0.60529035  0.60030061  1
  O  O21  1  0.35708044  0.03953380  0.60293689  1
  O  O22  1  0.60807423  0.35445773  0.61021243  1
  O  O23  1  0.95861665  0.39470965  0.10030061  1
  O  O24  1  0.64291956  0.96046620  0.10293689  1
  O  O25  1  0.39192577  0.64554227  0.11021243  1
