# generated using pymatgen
data_Sc15(In5Rh2)4
_symmetry_space_group_name_H-M   'P 1'
_cell_length_a   7.11293020
_cell_length_b   7.71221857
_cell_length_c   33.66303152
_cell_angle_alpha   96.48881796
_cell_angle_beta   90.00000000
_cell_angle_gamma   90.00000000
_symmetry_Int_Tables_number   1
_chemical_formula_structural   Sc15(In5Rh2)4
_chemical_formula_sum   'Sc30 In40 Rh16'
_cell_volume   1834.80548444
_cell_formula_units_Z   2
loop_
 _symmetry_equiv_pos_site_id
 _symmetry_equiv_pos_as_xyz
  1  'x, y, z'
loop_
 _atom_site_type_symbol
 _atom_site_label
 _atom_site_symmetry_multiplicity
 _atom_site_fract_x
 _atom_site_fract_y
 _atom_site_fract_z
 _atom_site_occupancy
  Sc  Sc0  1  0.00000000  0.98177559  0.19241397  1
  Sc  Sc1  1  0.00000000  0.58246183  0.39213398  1
  Sc  Sc2  1  -0.00000000  0.18221796  0.59206414  1
  Sc  Sc3  1  -0.00000000  0.78374824  0.79237233  1
  Sc  Sc4  1  0.00000000  0.39086402  0.99203263  1
  Sc  Sc5  1  0.00000000  0.86989959  0.08336522  1
  Sc  Sc6  1  0.00000000  0.47849268  0.28104972  1
  Sc  Sc7  1  -0.00000000  0.07729830  0.48117379  1
  Sc  Sc8  1  -0.00000000  0.67774483  0.68104728  1
  Sc  Sc9  1  -0.00000000  0.27663783  0.88090090  1
  Sc  Sc10  1  0.00000000  0.34125084  0.12656610  1
  Sc  Sc11  1  -0.00000000  0.93962523  0.32688597  1
  Sc  Sc12  1  -0.00000000  0.53907052  0.52693683  1
  Sc  Sc13  1  -0.00000000  0.14006408  0.72692602  1
  Sc  Sc14  1  0.00000000  0.73433693  0.92492314  1
  Sc  Sc15  1  0.50000000  0.01435894  0.19066208  1
  Sc  Sc16  1  0.50000000  0.61444660  0.39019105  1
  Sc  Sc17  1  0.50000000  0.21454649  0.59024605  1
  Sc  Sc18  1  0.50000000  0.81482035  0.78996264  1
  Sc  Sc19  1  0.50000000  0.39113599  0.99176545  1
  Sc  Sc20  1  0.50000000  0.87400247  0.08489078  1
  Sc  Sc21  1  0.50000000  0.47008906  0.28886889  1
  Sc  Sc22  1  0.50000000  0.07001751  0.48866792  1
  Sc  Sc23  1  0.50000000  0.66984933  0.68857499  1
  Sc  Sc24  1  0.50000000  0.26966625  0.88734433  1
  Sc  Sc25  1  0.50000000  0.31666393  0.12193653  1
  Sc  Sc26  1  0.50000000  0.91581795  0.32062912  1
  Sc  Sc27  1  0.50000000  0.51544198  0.52057691  1
  Sc  Sc28  1  0.50000000  0.11567747  0.72047074  1
  Sc  Sc29  1  0.50000000  0.73173540  0.92373554  1
  In  In30  1  0.74782127  0.73421042  0.00049096  1
  In  In31  1  0.73044346  0.34906073  0.20056133  1
  In  In32  1  0.72916571  0.94911379  0.40041955  1
  In  In33  1  0.72887073  0.54925470  0.60043089  1
  In  In34  1  0.73031596  0.14928990  0.80021658  1
  In  In35  1  0.72840888  0.70112020  0.14960439  1
  In  In36  1  0.73035337  0.29917376  0.34959434  1
  In  In37  1  0.72980356  0.89907441  0.54953671  1
  In  In38  1  0.73059803  0.49958694  0.74970438  1
  In  In39  1  0.75177383  0.10330352  0.94623297  1
  In  In40  1  0.75226667  0.15872826  0.05315126  1
  In  In41  1  0.72888904  0.75058018  0.25013823  1
  In  In42  1  0.72903469  0.35028838  0.45006032  1
  In  In43  1  0.72913871  0.95040125  0.65003845  1
  In  In44  1  0.72877745  0.55113062  0.85061568  1
  In  In45  1  0.25217873  0.73421042  0.00049096  1
  In  In46  1  0.26955654  0.34906073  0.20056133  1
  In  In47  1  0.27083429  0.94911379  0.40041955  1
  In  In48  1  0.27112927  0.54925470  0.60043089  1
  In  In49  1  0.26968404  0.14928990  0.80021658  1
  In  In50  1  0.27159112  0.70112020  0.14960439  1
  In  In51  1  0.26964663  0.29917376  0.34959434  1
  In  In52  1  0.27019644  0.89907441  0.54953671  1
  In  In53  1  0.26940197  0.49958694  0.74970438  1
  In  In54  1  0.24822617  0.10330352  0.94623297  1
  In  In55  1  0.24773333  0.15872826  0.05315126  1
  In  In56  1  0.27111096  0.75058018  0.25013823  1
  In  In57  1  0.27096531  0.35028838  0.45006032  1
  In  In58  1  0.27086129  0.95040125  0.65003845  1
  In  In59  1  0.27122255  0.55113062  0.85061568  1
  In  In60  1  0.75096297  0.53473703  0.06764528  1
  In  In61  1  0.76449119  0.13391916  0.26671022  1
  In  In62  1  0.76418062  0.73344668  0.46661281  1
  In  In63  1  0.76493698  0.33363273  0.66657641  1
  In  In64  1  0.75834688  0.93130230  0.86551198  1
  In  In65  1  0.24903703  0.53473703  0.06764528  1
  In  In66  1  0.23550881  0.13391916  0.26671022  1
  In  In67  1  0.23581938  0.73344668  0.46661281  1
  In  In68  1  0.23506302  0.33363273  0.66657641  1
  In  In69  1  0.24165312  0.93130230  0.86551198  1
  Rh  Rh70  1  0.75998920  0.06743497  0.13361144  1
  Rh  Rh71  1  0.76179203  0.66752142  0.33327285  1
  Rh  Rh72  1  0.76164557  0.26747632  0.53330393  1
  Rh  Rh73  1  0.76171238  0.86781834  0.73306703  1
  Rh  Rh74  1  0.75410080  0.46784980  0.93349504  1
  Rh  Rh75  1  0.24001080  0.06743497  0.13361144  1
  Rh  Rh76  1  0.23820797  0.66752142  0.33327285  1
  Rh  Rh77  1  0.23835443  0.26747632  0.53330393  1
  Rh  Rh78  1  0.23828762  0.86781834  0.73306703  1
  Rh  Rh79  1  0.24589920  0.46784980  0.93349504  1
  Rh  Rh80  1  0.00000000  0.00004636  0.99964953  1
  Rh  Rh81  1  -0.00000000  0.60212302  0.20002404  1
  Rh  Rh82  1  -0.00000000  0.20048784  0.40002917  1
  Rh  Rh83  1  0.00000000  0.80062213  0.59985221  1
  Rh  Rh84  1  -0.00000000  0.40147971  0.80015955  1
  Rh  Rh85  1  0.50000000  0.00257117  0.99976437  1
