# generated using pymatgen
data_LiTiRhO4
_symmetry_space_group_name_H-M   'P 1'
_cell_length_a   5.98083766
_cell_length_b   5.98083766
_cell_length_c   5.98083766
_cell_angle_alpha   88.37389728
_cell_angle_beta   62.08186621
_cell_angle_gamma   120.22609122
_symmetry_Int_Tables_number   1
_chemical_formula_structural   LiTiRhO4
_chemical_formula_sum   'Li2 Ti2 Rh2 O8'
_cell_volume   153.25607010
_cell_formula_units_Z   2
loop_
 _symmetry_equiv_pos_site_id
 _symmetry_equiv_pos_as_xyz
  1  'x, y, z'
loop_
 _atom_site_type_symbol
 _atom_site_label
 _atom_site_symmetry_multiplicity
 _atom_site_fract_x
 _atom_site_fract_y
 _atom_site_fract_z
 _atom_site_occupancy
  Li  Li0  1  0.50000000  0.24612223  0.25387777  1
  Li  Li1  1  0.00000000  0.50387777  0.49612223  1
  Ti  Ti2  1  0.25000000  0.37500000  0.87500000  1
  Ti  Ti3  1  0.75000000  0.87500000  0.87500000  1
  Rh  Rh4  1  0.75000000  0.87500000  0.37500000  1
  Rh  Rh5  1  0.25000000  0.87500000  0.87500000  1
  O  O6  1  0.21662835  0.12365275  0.65971889  1
  O  O7  1  0.78337165  0.12365275  0.09297560  1
  O  O8  1  0.76798266  0.65599360  0.11198905  1
  O  O9  1  0.23201734  0.12002829  0.11198905  1
  O  O10  1  0.28337165  0.62634725  0.09028111  1
  O  O11  1  0.71662835  0.62634725  0.65702440  1
  O  O12  1  0.73201734  0.09400640  0.63801095  1
  O  O13  1  0.26798266  0.62997171  0.63801095  1
