# generated using pymatgen
data_Nd3Pb3I13O40
_symmetry_space_group_name_H-M   'P 1'
_cell_length_a   13.69067041
_cell_length_b   13.69067041
_cell_length_c   13.69067039
_cell_angle_alpha   109.06834629
_cell_angle_beta   109.06834629
_cell_angle_gamma   109.06834633
_symmetry_Int_Tables_number   1
_chemical_formula_structural   Nd3Pb3I13O40
_chemical_formula_sum   'Nd6 Pb6 I26 O80'
_cell_volume   2004.31067682
_cell_formula_units_Z   2
loop_
 _symmetry_equiv_pos_site_id
 _symmetry_equiv_pos_as_xyz
  1  'x, y, z'
loop_
 _atom_site_type_symbol
 _atom_site_label
 _atom_site_symmetry_multiplicity
 _atom_site_fract_x
 _atom_site_fract_y
 _atom_site_fract_z
 _atom_site_occupancy
  Nd  Nd0  1  0.47568101  0.60225251  0.24015496  1
  Nd  Nd1  1  0.60225251  0.24015496  0.47568101  1
  Nd  Nd2  1  0.24015496  0.47568101  0.60225251  1
  Nd  Nd3  1  0.97568101  0.74015496  0.10225251  1
  Nd  Nd4  1  0.74015496  0.10225251  0.97568101  1
  Nd  Nd5  1  0.10225251  0.97568101  0.74015496  1
  Pb  Pb6  1  0.68490331  0.81087286  0.61687027  1
  Pb  Pb7  1  0.81087286  0.61687027  0.68490331  1
  Pb  Pb8  1  0.61687027  0.68490331  0.81087286  1
  Pb  Pb9  1  0.18490331  0.11687027  0.31087286  1
  Pb  Pb10  1  0.11687027  0.31087286  0.18490331  1
  Pb  Pb11  1  0.31087286  0.18490331  0.11687027  1
  I  I12  1  0.64167487  0.58801107  0.04989791  1
  I  I13  1  0.58801107  0.04989791  0.64167487  1
  I  I14  1  0.04989791  0.64167487  0.58801107  1
  I  I15  1  0.14167487  0.54989791  0.08801107  1
  I  I16  1  0.54989791  0.08801107  0.14167487  1
  I  I17  1  0.08801107  0.14167487  0.54989791  1
  I  I18  1  0.63993112  0.94903253  0.34659904  1
  I  I19  1  0.94903253  0.34659904  0.63993112  1
  I  I20  1  0.34659904  0.63993112  0.94903253  1
  I  I21  1  0.13993112  0.84659904  0.44903253  1
  I  I22  1  0.84659904  0.44903253  0.13993112  1
  I  I23  1  0.44903253  0.13993112  0.84659904  1
  I  I24  1  0.91968048  0.91968048  0.91968048  1
  I  I25  1  0.41968048  0.41968048  0.41968048  1
  I  I26  1  0.82793465  0.80110260  0.42594187  1
  I  I27  1  0.80110260  0.42594187  0.82793465  1
  I  I28  1  0.42594187  0.82793465  0.80110260  1
  I  I29  1  0.32793465  0.92594187  0.30110260  1
  I  I30  1  0.92594187  0.30110260  0.32793465  1
  I  I31  1  0.30110260  0.32793465  0.92594187  1
  I  I32  1  0.36033639  0.70059822  0.46502964  1
  I  I33  1  0.70059822  0.46502964  0.36033639  1
  I  I34  1  0.46502964  0.36033639  0.70059822  1
  I  I35  1  0.86033639  0.96502964  0.20059822  1
  I  I36  1  0.96502964  0.20059822  0.86033639  1
  I  I37  1  0.20059822  0.86033639  0.96502964  1
  O  O38  1  0.54819878  0.63283932  0.96690846  1
  O  O39  1  0.63283932  0.96690846  0.54819878  1
  O  O40  1  0.96690846  0.54819878  0.63283932  1
  O  O41  1  0.04819878  0.46690846  0.13283932  1
  O  O42  1  0.46690846  0.13283932  0.04819878  1
  O  O43  1  0.13283932  0.04819878  0.46690846  1
  O  O44  1  0.78481186  0.92870270  0.85096011  1
  O  O45  1  0.92870270  0.85096011  0.78481186  1
  O  O46  1  0.85096011  0.78481186  0.92870270  1
  O  O47  1  0.28481186  0.35096011  0.42870270  1
  O  O48  1  0.35096011  0.42870270  0.28481186  1
  O  O49  1  0.42870270  0.28481186  0.35096011  1
  O  O50  1  0.47659391  0.68461237  0.43097875  1
  O  O51  1  0.68461237  0.43097875  0.47659391  1
  O  O52  1  0.43097875  0.47659391  0.68461237  1
  O  O53  1  0.97659391  0.93097875  0.18461237  1
  O  O54  1  0.93097875  0.18461237  0.97659391  1
  O  O55  1  0.18461237  0.97659391  0.93097875  1
  O  O56  1  0.64884384  0.64884384  0.64884384  1
  O  O57  1  0.14884384  0.14884384  0.14884384  1
  O  O58  1  0.51232914  0.79997805  0.24889833  1
  O  O59  1  0.79997805  0.24889833  0.51232914  1
  O  O60  1  0.24889833  0.51232914  0.79997805  1
  O  O61  1  0.01232914  0.74889833  0.29997805  1
  O  O62  1  0.74889833  0.29997805  0.01232914  1
  O  O63  1  0.29997805  0.01232914  0.74889833  1
  O  O64  1  0.32224590  0.58075582  0.50026093  1
  O  O65  1  0.58075582  0.50026093  0.32224590  1
  O  O66  1  0.50026093  0.32224590  0.58075582  1
  O  O67  1  0.82224590  0.00026093  0.08075582  1
  O  O68  1  0.00026093  0.08075582  0.82224590  1
  O  O69  1  0.08075582  0.82224590  0.00026093  1
  O  O70  1  0.67852639  0.76252265  0.41067341  1
  O  O71  1  0.76252265  0.41067341  0.67852639  1
  O  O72  1  0.41067341  0.67852639  0.76252265  1
  O  O73  1  0.17852639  0.91067341  0.26252265  1
  O  O74  1  0.91067341  0.26252265  0.17852639  1
  O  O75  1  0.26252265  0.17852639  0.91067341  1
  O  O76  1  0.85301416  0.92311847  0.39212253  1
  O  O77  1  0.92311847  0.39212253  0.85301416  1
  O  O78  1  0.39212253  0.85301416  0.92311847  1
  O  O79  1  0.35301416  0.89212253  0.42311847  1
  O  O80  1  0.89212253  0.42311847  0.35301416  1
  O  O81  1  0.42311847  0.35301416  0.89212253  1
  O  O82  1  0.55471516  0.02939196  0.35619901  1
  O  O83  1  0.02939196  0.35619901  0.55471516  1
  O  O84  1  0.35619901  0.55471516  0.02939196  1
  O  O85  1  0.05471516  0.85619901  0.52939196  1
  O  O86  1  0.85619901  0.52939196  0.05471516  1
  O  O87  1  0.52939196  0.05471516  0.85619901  1
  O  O88  1  0.89717081  0.88728691  0.58745871  1
  O  O89  1  0.88728691  0.58745871  0.89717081  1
  O  O90  1  0.58745871  0.89717081  0.88728691  1
  O  O91  1  0.39717081  0.08745871  0.38728691  1
  O  O92  1  0.08745871  0.38728691  0.39717081  1
  O  O93  1  0.38728691  0.39717081  0.08745871  1
  O  O94  1  0.78408821  0.71121858  0.09582427  1
  O  O95  1  0.71121858  0.09582427  0.78408821  1
  O  O96  1  0.09582427  0.78408821  0.71121858  1
  O  O97  1  0.28408821  0.59582427  0.21121858  1
  O  O98  1  0.59582427  0.21121858  0.28408821  1
  O  O99  1  0.21121858  0.28408821  0.59582427  1
  O  O100  1  0.67726989  0.98008040  0.23921742  1
  O  O101  1  0.98008040  0.23921742  0.67726989  1
  O  O102  1  0.23921742  0.67726989  0.98008040  1
  O  O103  1  0.17726989  0.73921742  0.48008040  1
  O  O104  1  0.73921742  0.48008040  0.17726989  1
  O  O105  1  0.48008040  0.17726989  0.73921742  1
  O  O106  1  0.46602689  0.82412795  0.61634307  1
  O  O107  1  0.82412795  0.61634307  0.46602689  1
  O  O108  1  0.61634307  0.46602689  0.82412795  1
  O  O109  1  0.96602689  0.11634307  0.32412795  1
  O  O110  1  0.11634307  0.32412795  0.96602689  1
  O  O111  1  0.32412795  0.96602689  0.11634307  1
  O  O112  1  0.63430869  0.64555595  0.18754497  1
  O  O113  1  0.64555595  0.18754497  0.63430869  1
  O  O114  1  0.18754497  0.63430869  0.64555595  1
  O  O115  1  0.13430869  0.68754497  0.14555595  1
  O  O116  1  0.68754497  0.14555595  0.13430869  1
  O  O117  1  0.14555595  0.13430869  0.68754497  1
