# generated using pymatgen
data_MgAl6FeSi2(BO9)2
_symmetry_space_group_name_H-M   'P 1'
_cell_length_a   5.82950874
_cell_length_b   10.44397282
_cell_length_c   11.16753959
_cell_angle_alpha   90.00000000
_cell_angle_beta   90.00000000
_cell_angle_gamma   90.00000000
_symmetry_Int_Tables_number   1
_chemical_formula_structural   MgAl6FeSi2(BO9)2
_chemical_formula_sum   'Mg2 Al12 Fe2 Si4 B4 O36'
_cell_volume   679.91589071
_cell_formula_units_Z   2
loop_
 _symmetry_equiv_pos_site_id
 _symmetry_equiv_pos_as_xyz
  1  'x, y, z'
loop_
 _atom_site_type_symbol
 _atom_site_label
 _atom_site_symmetry_multiplicity
 _atom_site_fract_x
 _atom_site_fract_y
 _atom_site_fract_z
 _atom_site_occupancy
  Mg  Mg0  1  0.25000000  0.40719305  0.71925224  1
  Mg  Mg1  1  0.25000000  0.09280695  0.21925224  1
  Al  Al2  1  -0.00005127  0.50006482  0.50091356  1
  Al  Al3  1  0.50005127  -0.00006482  0.00091356  1
  Al  Al4  1  0.50005127  0.50006482  0.50091356  1
  Al  Al5  1  -0.00005127  -0.00006482  0.00091356  1
  Al  Al6  1  0.00001998  -0.00005604  0.49925073  1
  Al  Al7  1  0.49998002  0.50005604  0.99925073  1
  Al  Al8  1  0.49998002  -0.00005604  0.49925073  1
  Al  Al9  1  0.00001998  0.50005604  0.99925073  1
  Al  Al10  1  0.25000000  0.27327160  0.94798629  1
  Al  Al11  1  0.25000000  0.22672840  0.44798629  1
  Al  Al12  1  0.75000000  0.72635109  0.05221717  1
  Al  Al13  1  0.75000000  0.77364891  0.55221717  1
  Fe  Fe14  1  0.75000000  0.59309329  0.28163469  1
  Fe  Fe15  1  0.75000000  0.90690671  0.78163469  1
  Si  Si16  1  0.25000000  0.06663688  0.76317221  1
  Si  Si17  1  0.25000000  0.43336312  0.26317221  1
  Si  Si18  1  0.75000000  0.93553576  0.23574802  1
  Si  Si19  1  0.75000000  0.56446424  0.73574802  1
  B  B20  1  0.75000000  0.24894163  0.50015730  1
  B  B21  1  0.75000000  0.25105837  0.00015730  1
  B  B22  1  0.25000000  0.75098037  0.49981400  1
  B  B23  1  0.25000000  0.74901963  0.99981400  1
  O  O24  1  0.25000000  0.38160676  0.52214481  1
  O  O25  1  0.25000000  0.11839324  0.02214481  1
  O  O26  1  0.75000000  0.61767754  0.48048354  1
  O  O27  1  0.75000000  0.88232246  0.98048354  1
  O  O28  1  0.97819645  0.50575361  0.67087052  1
  O  O29  1  0.52180355  0.99424639  0.17087052  1
  O  O30  1  0.47495635  0.49268382  0.33053027  1
  O  O31  1  0.02504365  0.00731618  0.83053027  1
  O  O32  1  0.02504365  0.49268382  0.33053027  1
  O  O33  1  0.47495635  0.00731618  0.83053027  1
  O  O34  1  0.52180355  0.50575361  0.67087052  1
  O  O35  1  0.97819645  0.99424639  0.17087052  1
  O  O36  1  0.75000000  0.95320184  0.59636437  1
  O  O37  1  0.75000000  0.54679816  0.09636437  1
  O  O38  1  0.25000000  0.04750023  0.40072386  1
  O  O39  1  0.25000000  0.45249977  0.90072386  1
  O  O40  1  0.25000000  0.02631461  0.62066978  1
  O  O41  1  0.25000000  0.47368539  0.12066978  1
  O  O42  1  0.75000000  0.97395495  0.37884434  1
  O  O43  1  0.75000000  0.52604505  0.87884434  1
  O  O44  1  0.95437797  0.31908565  0.00095792  1
  O  O45  1  0.54562203  0.18091435  0.50095792  1
  O  O46  1  0.45405971  0.68080743  0.99910106  1
  O  O47  1  0.04594029  0.81919257  0.49910106  1
  O  O48  1  0.04594029  0.68080743  0.99910106  1
  O  O49  1  0.45405971  0.81919257  0.49910106  1
  O  O50  1  0.54562203  0.31908565  0.00095792  1
  O  O51  1  0.95437797  0.18091435  0.50095792  1
  O  O52  1  0.75000000  0.37851393  0.49608591  1
  O  O53  1  0.75000000  0.12148607  0.99608591  1
  O  O54  1  0.25000000  0.62148831  0.50363623  1
  O  O55  1  0.25000000  0.87851169  0.00363623  1
  O  O56  1  0.25000000  0.22474950  0.78889939  1
  O  O57  1  0.25000000  0.27525050  0.28889939  1
  O  O58  1  0.75000000  0.77802019  0.20891774  1
  O  O59  1  0.75000000  0.72197981  0.70891774  1
