# generated using pymatgen
data_Mg3Al12FeSi4(BO9)4
_symmetry_space_group_name_H-M   'P 1'
_cell_length_a   5.82672250
_cell_length_b   10.43835394
_cell_length_c   11.12389717
_cell_angle_alpha   90.03190731
_cell_angle_beta   90.00000000
_cell_angle_gamma   90.00000000
_symmetry_Int_Tables_number   1
_chemical_formula_structural   Mg3Al12FeSi4(BO9)4
_chemical_formula_sum   'Mg3 Al12 Fe1 Si4 B4 O36'
_cell_volume   676.57080255
_cell_formula_units_Z   1
loop_
 _symmetry_equiv_pos_site_id
 _symmetry_equiv_pos_as_xyz
  1  'x, y, z'
loop_
 _atom_site_type_symbol
 _atom_site_label
 _atom_site_symmetry_multiplicity
 _atom_site_fract_x
 _atom_site_fract_y
 _atom_site_fract_z
 _atom_site_occupancy
  Mg  Mg0  1  0.25000000  0.09243359  0.21905195  1
  Mg  Mg1  1  0.75000000  0.59241053  0.28081185  1
  Mg  Mg2  1  0.75000000  0.90783297  0.78096707  1
  Al  Al3  1  0.00007150  0.50000043  0.49920993  1
  Al  Al4  1  0.49989916  0.00011639  -0.00001875  1
  Al  Al5  1  0.49992850  0.50000043  0.49920993  1
  Al  Al6  1  0.00010084  0.00011639  -0.00001875  1
  Al  Al7  1  0.25000000  0.27353755  0.94781208  1
  Al  Al8  1  0.25000000  0.22611646  0.44784353  1
  Al  Al9  1  0.75000000  0.72659999  0.05221558  1
  Al  Al10  1  0.75000000  0.77367697  0.55191350  1
  Al  Al11  1  0.00003195  0.00008659  0.49999384  1
  Al  Al12  1  0.50005058  0.49999503  0.00064425  1
  Al  Al13  1  0.49996805  0.00008659  0.49999384  1
  Al  Al14  1  0.99994942  0.49999503  0.00064425  1
  Fe  Fe15  1  0.25000000  0.40724862  0.71821536  1
  Si  Si16  1  0.25000000  0.06498095  0.76374128  1
  Si  Si17  1  0.25000000  0.43380540  0.26386400  1
  Si  Si18  1  0.75000000  0.93403541  0.23621989  1
  Si  Si19  1  0.75000000  0.56719140  0.73714049  1
  B  B20  1  0.75000000  0.24886535  0.50030829  1
  B  B21  1  0.75000000  0.25097988  0.00025404  1
  B  B22  1  0.25000000  0.75096593  0.49975974  1
  B  B23  1  0.25000000  0.74904759  0.99972318  1
  O  O24  1  0.75000000  0.95283760  0.59983320  1
  O  O25  1  0.75000000  0.54708405  0.09973738  1
  O  O26  1  0.25000000  0.04702793  0.40021390  1
  O  O27  1  0.25000000  0.45353407  0.90314562  1
  O  O28  1  0.95410865  0.31921960  0.00095619  1
  O  O29  1  0.54575266  0.18084837  0.50102057  1
  O  O30  1  0.45444245  0.68084382  0.99894624  1
  O  O31  1  0.04572960  0.81913524  0.49899112  1
  O  O32  1  0.04555755  0.68084382  0.99894624  1
  O  O33  1  0.45427040  0.81913524  0.49899112  1
  O  O34  1  0.54589135  0.31921960  0.00095619  1
  O  O35  1  0.95424734  0.18084837  0.50102057  1
  O  O36  1  0.25000000  0.22246219  0.79037443  1
  O  O37  1  0.25000000  0.27516133  0.28841013  1
  O  O38  1  0.75000000  0.77517131  0.21157972  1
  O  O39  1  0.75000000  0.72515528  0.71165284  1
  O  O40  1  0.25000000  0.38203973  0.51964848  1
  O  O41  1  0.25000000  0.11838352  0.02264318  1
  O  O42  1  0.75000000  0.61842071  0.47763826  1
  O  O43  1  0.75000000  0.88153471  0.97756681  1
  O  O44  1  0.25000000  0.02623991  0.62005682  1
  O  O45  1  0.25000000  0.47373027  0.12067662  1
  O  O46  1  0.75000000  0.97356348  0.37982189  1
  O  O47  1  0.75000000  0.52623529  0.87989610  1
  O  O48  1  0.75000000  0.37857328  0.49657858  1
  O  O49  1  0.75000000  0.12151136  0.99649456  1
  O  O50  1  0.25000000  0.62152146  0.50374677  1
  O  O51  1  0.25000000  0.87838455  0.00350652  1
  O  O52  1  0.97488319  0.50791193  0.66971427  1
  O  O53  1  0.52233806  0.99294523  0.17087500  1
  O  O54  1  0.47783482  0.49308280  0.32899992  1
  O  O55  1  0.02201890  0.00666426  0.82913562  1
  O  O56  1  0.02216518  0.49308280  0.32899992  1
  O  O57  1  0.47798110  0.00666426  0.82913562  1
  O  O58  1  0.52511681  0.50791193  0.66971427  1
  O  O59  1  0.97766194  0.99294523  0.17087500  1
