# generated using pymatgen
data_MnGa(CuSe2)2
_symmetry_space_group_name_H-M   'P 1'
_cell_length_a   5.61496806
_cell_length_b   5.61496806
_cell_length_c   6.93526934
_cell_angle_alpha   66.12061925
_cell_angle_beta   66.12061925
_cell_angle_gamma   90.00000000
_symmetry_Int_Tables_number   1
_chemical_formula_structural   MnGa(CuSe2)2
_chemical_formula_sum   'Mn1 Ga1 Cu2 Se4'
_cell_volume   179.27696172
_cell_formula_units_Z   1
loop_
 _symmetry_equiv_pos_site_id
 _symmetry_equiv_pos_as_xyz
  1  'x, y, z'
loop_
 _atom_site_type_symbol
 _atom_site_label
 _atom_site_symmetry_multiplicity
 _atom_site_fract_x
 _atom_site_fract_y
 _atom_site_fract_z
 _atom_site_occupancy
  Mn  Mn0  1  0.25000000  0.75000000  0.50000000  1
  Ga  Ga1  1  0.50000000  0.50000000  0.00000000  1
  Cu  Cu2  1  0.75000000  0.25000000  0.50000000  1
  Cu  Cu3  1  0.00000000  0.00000000  0.00000000  1
  Se  Se4  1  0.37613083  0.88155499  0.75107182  1
  Se  Se5  1  0.87279735  0.36737319  0.75107182  1
  Se  Se6  1  0.11844501  0.12720265  0.24892818  1
  Se  Se7  1  0.63262681  0.62386917  0.24892818  1
