# generated using pymatgen
data_Na2CaPb3(CO3)5
_symmetry_space_group_name_H-M   'P 1'
_cell_length_a   6.71899009
_cell_length_b   10.66008909
_cell_length_c   10.70660372
_cell_angle_alpha   60.14361048
_cell_angle_beta   89.52781807
_cell_angle_gamma   89.05148288
_symmetry_Int_Tables_number   1
_chemical_formula_structural   Na2CaPb3(CO3)5
_chemical_formula_sum   'Na4 Ca2 Pb6 C10 O30'
_cell_volume   664.98881042
_cell_formula_units_Z   2
loop_
 _symmetry_equiv_pos_site_id
 _symmetry_equiv_pos_as_xyz
  1  'x, y, z'
loop_
 _atom_site_type_symbol
 _atom_site_label
 _atom_site_symmetry_multiplicity
 _atom_site_fract_x
 _atom_site_fract_y
 _atom_site_fract_z
 _atom_site_occupancy
  Na  Na0  1  0.18179287  0.52396186  0.95313612  1
  Na  Na1  1  0.18072325  0.95111925  0.52509005  1
  Na  Na2  1  0.68179287  0.47709797  0.04686388  1
  Na  Na3  1  0.68072325  0.47620930  0.47490995  1
  Ca  Ca4  1  0.17480699  0.52307875  0.52285437  1
  Ca  Ca5  1  0.67480699  0.04593313  0.47714563  1
  Pb  Pb6  1  0.49817627  0.84167826  0.30984797  1
  Pb  Pb7  1  0.50598088  0.31606431  0.84732262  1
  Pb  Pb8  1  0.49659433  0.83256148  0.85029931  1
  Pb  Pb9  1  0.99817627  0.15152623  0.69015203  1
  Pb  Pb10  1  0.99659433  0.68286078  0.14970069  1
  Pb  Pb11  1  0.00598088  0.16338693  0.15267738  1
  C  C12  1  0.99717859  0.33263703  0.33580464  1
  C  C13  1  0.49717859  0.66844167  0.66419536  1
  C  C14  1  0.65340457  0.00071862  0.99945829  1
  C  C15  1  0.15340457  0.00017691  0.00054171  1
  C  C16  1  0.94971498  0.79530982  0.41054504  1
  C  C17  1  0.95157542  0.40928520  0.79421144  1
  C  C18  1  0.94964818  0.79681692  0.79362797  1
  C  C19  1  0.44971498  0.20585486  0.58945496  1
  C  C20  1  0.44964818  0.59044489  0.20637203  1
  C  C21  1  0.45157542  0.20349664  0.20578856  1
  O  O22  1  0.86336381  0.38855059  0.69721108  1
  O  O23  1  0.85409677  0.70689019  0.91136317  1
  O  O24  1  0.85485612  0.91359417  0.38570848  1
  O  O25  1  0.86113127  0.69989911  0.38837796  1
  O  O26  1  0.85402071  0.91512250  0.69794953  1
  O  O27  1  0.85723199  0.38139137  0.91195126  1
  O  O28  1  0.35402071  0.61307203  0.30205047  1
  O  O29  1  0.35723199  0.29334262  0.08804874  1
  O  O30  1  0.36113127  0.08827707  0.61162204  1
  O  O31  1  0.35485612  0.29930266  0.61429152  1
  O  O32  1  0.36336381  0.08576166  0.30278892  1
  O  O33  1  0.35409677  0.61825337  0.08863683  1
  O  O34  1  0.00126642  0.40238976  0.19610781  1
  O  O35  1  0.98576880  0.19135532  0.40647369  1
  O  O36  1  0.00531185  0.40282293  0.40667397  1
  O  O37  1  0.50126642  0.59849757  0.80389219  1
  O  O38  1  0.50531185  0.80949690  0.59332603  1
  O  O39  1  0.48576880  0.59782901  0.59352631  1
  O  O40  1  0.15286674  0.93024251  0.14032649  1
  O  O41  1  0.14954485  0.14090736  0.92995263  1
  O  O42  1  0.14839394  0.92982784  0.92994496  1
  O  O43  1  0.65286674  0.07056901  0.85967351  1
  O  O44  1  0.64839394  0.85977280  0.07005504  1
  O  O45  1  0.64954485  0.07085999  0.07004737  1
  O  O46  1  0.12953466  0.77108926  0.45785457  1
  O  O47  1  0.12963240  0.45834700  0.77037145  1
  O  O48  1  0.12818335  0.77228424  0.77164384  1
  O  O49  1  0.62953466  0.22894383  0.54214543  1
  O  O50  1  0.62818335  0.54392808  0.22835616  1
  O  O51  1  0.62963240  0.22871845  0.22962855  1
