# generated using pymatgen
data_Mg3Fe(SiO4)2
_symmetry_space_group_name_H-M   'P 1'
_cell_length_a   4.80516435
_cell_length_b   6.09809770
_cell_length_c   10.42541827
_cell_angle_alpha   90.00000000
_cell_angle_beta   90.00000000
_cell_angle_gamma   90.00000000
_symmetry_Int_Tables_number   1
_chemical_formula_structural   Mg3Fe(SiO4)2
_chemical_formula_sum   'Mg6 Fe2 Si4 O16'
_cell_volume   305.48937672
_cell_formula_units_Z   2
loop_
 _symmetry_equiv_pos_site_id
 _symmetry_equiv_pos_as_xyz
  1  'x, y, z'
loop_
 _atom_site_type_symbol
 _atom_site_label
 _atom_site_symmetry_multiplicity
 _atom_site_fract_x
 _atom_site_fract_y
 _atom_site_fract_z
 _atom_site_occupancy
  Mg  Mg0  1  0.50662253  0.25000000  0.77766496  1
  Mg  Mg1  1  0.99337747  0.25000000  0.27766496  1
  Mg  Mg2  1  0.49985684  0.99976763  0.49993110  1
  Mg  Mg3  1  0.00014316  0.50023237  0.99993110  1
  Mg  Mg4  1  0.49985684  0.50023237  0.49993110  1
  Mg  Mg5  1  0.00014316  0.99976763  0.99993110  1
  Fe  Fe6  1  0.48560991  0.75000000  0.22144019  1
  Fe  Fe7  1  0.01439009  0.75000000  0.72144019  1
  Si  Si8  1  0.92508990  0.75000000  0.40473994  1
  Si  Si9  1  0.57491010  0.75000000  0.90473994  1
  Si  Si10  1  0.07204783  0.25000000  0.59295829  1
  Si  Si11  1  0.42795217  0.25000000  0.09295829  1
  O  O12  1  0.78148452  0.96924099  0.33785703  1
  O  O13  1  0.71851548  0.53075901  0.83785703  1
  O  O14  1  0.22304904  0.46292491  0.66321681  1
  O  O15  1  0.27695096  0.03707509  0.16321681  1
  O  O16  1  0.22304904  0.03707509  0.66321681  1
  O  O17  1  0.27695096  0.46292491  0.16321681  1
  O  O18  1  0.78148452  0.53075901  0.33785703  1
  O  O19  1  0.71851548  0.96924099  0.83785703  1
  O  O20  1  0.26489789  0.75000000  0.41214952  1
  O  O21  1  0.23510211  0.75000000  0.91214952  1
  O  O22  1  0.73234633  0.25000000  0.59179245  1
  O  O23  1  0.76765367  0.25000000  0.09179245  1
  O  O24  1  0.72664109  0.75000000  0.04937869  1
  O  O25  1  0.77335891  0.75000000  0.54937869  1
  O  O26  1  0.27850803  0.25000000  0.94786605  1
  O  O27  1  0.22149197  0.25000000  0.44786605  1
