# generated using pymatgen
data_Li2Fe2Si2O9
_symmetry_space_group_name_H-M   'P 1'
_cell_length_a   14.27181838
_cell_length_b   8.51799863
_cell_length_c   5.17122742
_cell_angle_alpha   89.99883716
_cell_angle_beta   89.99805064
_cell_angle_gamma   89.99556980
_symmetry_Int_Tables_number   1
_chemical_formula_structural   Li2Fe2Si2O9
_chemical_formula_sum   'Li8 Fe8 Si8 O36'
_cell_volume   628.65230485
_cell_formula_units_Z   4
loop_
 _symmetry_equiv_pos_site_id
 _symmetry_equiv_pos_as_xyz
  1  'x, y, z'
loop_
 _atom_site_type_symbol
 _atom_site_label
 _atom_site_symmetry_multiplicity
 _atom_site_fract_x
 _atom_site_fract_y
 _atom_site_fract_z
 _atom_site_occupancy
  Li  Li0  1  0.15832032  0.04628738  0.62459862  1
  Li  Li1  1  0.15832711  0.45374678  0.12462103  1
  Li  Li2  1  0.34168061  0.54604970  0.12456495  1
  Li  Li3  1  0.34167925  0.95395395  0.62460328  1
  Li  Li4  1  0.65838756  0.04608898  0.37551837  1
  Li  Li5  1  0.65837981  0.45386244  0.87543935  1
  Li  Li6  1  0.84162299  0.54619132  0.87544451  1
  Li  Li7  1  0.84161751  0.95383854  0.37544169  1
  Fe  Fe8  1  0.16939993  0.65455881  0.62011499  1
  Fe  Fe9  1  0.16937331  0.84547371  0.12013169  1
  Fe  Fe10  1  0.33060850  0.15443417  0.12020135  1
  Fe  Fe11  1  0.33060854  0.34550918  0.62018809  1
  Fe  Fe12  1  0.66938877  0.65447496  0.37979351  1
  Fe  Fe13  1  0.66939593  0.84552604  0.87979154  1
  Fe  Fe14  1  0.83059018  0.15448216  0.87978899  1
  Fe  Fe15  1  0.83058837  0.34553098  0.37977014  1
  Si  Si16  1  0.02833547  0.15476010  0.21336920  1
  Si  Si17  1  0.02833747  0.34529438  0.71337960  1
  Si  Si18  1  0.47164061  0.65474336  0.71338482  1
  Si  Si19  1  0.47164808  0.84521024  0.21339024  1
  Si  Si20  1  0.52830252  0.15477426  0.78658767  1
  Si  Si21  1  0.52830277  0.34521178  0.28658577  1
  Si  Si22  1  0.97171160  0.65477511  0.28660874  1
  Si  Si23  1  0.97171588  0.84525265  0.78660494  1
  O  O24  1  0.06772452  0.27565778  0.43778758  1
  O  O25  1  0.06773852  0.22437746  0.93776343  1
  O  O26  1  0.07743648  0.51229401  0.77669651  1
  O  O27  1  0.07743279  0.98775990  0.27670632  1
  O  O28  1  0.08743609  0.65514911  0.29125607  1
  O  O29  1  0.08743279  0.84491427  0.79123211  1
  O  O30  1  0.23281128  0.82257436  0.44522130  1
  O  O31  1  0.23281325  0.67743293  0.94515462  1
  O  O32  1  0.25001041  0.99995297  0.96504819  1
  O  O33  1  0.25000207  0.50001202  0.46501607  1
  O  O34  1  0.26721836  0.17737254  0.44527309  1
  O  O35  1  0.26722773  0.32259455  0.94524235  1
  O  O36  1  0.41258149  0.15512227  0.79124565  1
  O  O37  1  0.41257864  0.34485944  0.29123460  1
  O  O38  1  0.42259088  0.01225262  0.27671449  1
  O  O39  1  0.42257083  0.48771233  0.77669879  1
  O  O40  1  0.43223732  0.72434185  0.43782588  1
  O  O41  1  0.43223882  0.77560635  0.93782985  1
  O  O42  1  0.56776502  0.22438368  0.06212141  1
  O  O43  1  0.56776883  0.27560421  0.56211166  1
  O  O44  1  0.57736458  0.51225845  0.22329530  1
  O  O45  1  0.57735812  0.98772495  0.72329424  1
  O  O46  1  0.58732801  0.65509208  0.70875641  1
  O  O47  1  0.58733449  0.84486518  0.20876692  1
  O  O48  1  0.73273323  0.67738429  0.05487975  1
  O  O49  1  0.73272550  0.82260351  0.55485519  1
  O  O50  1  0.74998989  0.99999049  0.03492440  1
  O  O51  1  0.74998188  0.49999507  0.53488558  1
  O  O52  1  0.76726672  0.17738730  0.55492666  1
  O  O53  1  0.76725501  0.32259516  0.05486611  1
  O  O54  1  0.91265158  0.15509656  0.20874587  1
  O  O55  1  0.91265391  0.34493333  0.70876634  1
  O  O56  1  0.92262406  0.01225518  0.72330723  1
  O  O57  1  0.92263481  0.48777294  0.22329155  1
  O  O58  1  0.93225920  0.72440412  0.56215832  1
  O  O59  1  0.93225985  0.77563576  0.06217706  1
