# generated using pymatgen
data_La4SnBi2
_symmetry_space_group_name_H-M   'P 1'
_cell_length_a   8.53539833
_cell_length_b   8.53539833
_cell_length_c   8.53539833
_cell_angle_alpha   70.39553988
_cell_angle_beta   70.79493095
_cell_angle_gamma   109.60446012
_symmetry_Int_Tables_number   1
_chemical_formula_structural   La4SnBi2
_chemical_formula_sum   'La8 Sn2 Bi4'
_cell_volume   478.67689563
_cell_formula_units_Z   2
loop_
 _symmetry_equiv_pos_site_id
 _symmetry_equiv_pos_as_xyz
  1  'x, y, z'
loop_
 _atom_site_type_symbol
 _atom_site_label
 _atom_site_symmetry_multiplicity
 _atom_site_fract_x
 _atom_site_fract_y
 _atom_site_fract_z
 _atom_site_occupancy
  La  La0  1  0.85470777  0.35864202  0.14545944  1
  La  La1  1  0.49589854  0.14135798  0.00393425  1
  La  La2  1  0.64529223  0.49983279  0.49606575  1
  La  La3  1  0.00410146  0.00016721  0.35454056  1
  La  La4  1  0.49606575  0.64135798  0.00410146  1
  La  La5  1  0.35454056  0.85864202  0.64529223  1
  La  La6  1  0.14545944  0.50016721  0.49589854  1
  La  La7  1  0.00393425  -0.00016721  0.85470777  1
  Sn  Sn8  1  0.37500000  0.25000000  0.37500000  1
  Sn  Sn9  1  0.12500000  0.75000000  0.12500000  1
  Bi  Bi10  1  0.87406828  0.62406828  0.75000000  1
  Bi  Bi11  1  0.62593172  0.87593172  0.25000000  1
  Bi  Bi12  1  0.75000000  0.12406828  0.62593172  1
  Bi  Bi13  1  0.25000000  0.37593172  0.87406828  1
