# generated using pymatgen
data_Li3MnZn5(BH4)15
_symmetry_space_group_name_H-M   'P 1'
_cell_length_a   8.51337186
_cell_length_b   15.71877341
_cell_length_c   15.62920863
_cell_angle_alpha   60.18830720
_cell_angle_beta   90.00000000
_cell_angle_gamma   90.00000000
_symmetry_Int_Tables_number   1
_chemical_formula_structural   Li3MnZn5(BH4)15
_chemical_formula_sum   'Li6 Mn2 Zn10 B30 H120'
_cell_volume   1814.71667969
_cell_formula_units_Z   2
loop_
 _symmetry_equiv_pos_site_id
 _symmetry_equiv_pos_as_xyz
  1  'x, y, z'
loop_
 _atom_site_type_symbol
 _atom_site_label
 _atom_site_symmetry_multiplicity
 _atom_site_fract_x
 _atom_site_fract_y
 _atom_site_fract_z
 _atom_site_occupancy
  Li  Li0  1  0.50372602  1.00000000  0.99690842  1
  Li  Li1  1  0.99627398  1.00000000  0.99690842  1
  Li  Li2  1  0.75000000  0.00000000  0.61133238  1
  Li  Li3  1  0.25000000  0.38874589  0.61021323  1
  Li  Li4  1  0.25000000  0.61125411  0.99895913  1
  Li  Li5  1  0.25000000  0.00000000  0.39198850  1
  Mn  Mn6  1  0.75000000  0.60778230  0.39204444  1
  Mn  Mn7  1  0.75000000  0.39221770  0.99982674  1
  Zn  Zn8  1  0.75000000  0.33061151  0.33620730  1
  Zn  Zn9  1  0.75000000  0.66938849  0.66681982  1
  Zn  Zn10  1  0.25000000  0.66774577  0.66620455  1
  Zn  Zn11  1  0.25000000  0.33225423  0.33394933  1
  Zn  Zn12  1  0.75000000  0.27429063  0.72355805  1
  Zn  Zn13  1  0.75000000  0.72570937  0.99784868  1
  Zn  Zn14  1  0.75000000  1.00000000  0.27668659  1
  Zn  Zn15  1  0.25000000  0.72675933  0.27336655  1
  Zn  Zn16  1  0.25000000  0.27324067  0.00012588  1
  Zn  Zn17  1  0.25000000  0.00000000  0.72369324  1
  B  B18  1  0.51341007  0.33244737  0.66786595  1
  B  B19  1  0.51341007  0.66755263  0.00031332  1
  B  B20  1  0.51266007  0.00000000  0.33198805  1
  B  B21  1  0.49027158  0.66713189  0.33286498  1
  B  B22  1  0.49027158  0.33286811  -0.00000313  1
  B  B23  1  0.48744011  1.00000000  0.66791320  1
  B  B24  1  0.00972842  0.66713189  0.33286498  1
  B  B25  1  0.00972842  0.33286811  -0.00000313  1
  B  B26  1  0.01255989  1.00000000  0.66791320  1
  B  B27  1  0.98658993  0.33244737  0.66786595  1
  B  B28  1  0.98658993  0.66755263  0.00031332  1
  B  B29  1  0.98733993  0.00000000  0.33198805  1
  B  B30  1  0.75000000  0.13568020  0.86487444  1
  B  B31  1  0.75000000  0.86431980  0.00055464  1
  B  B32  1  0.75000000  1.00000000  0.13516177  1
  B  B33  1  0.25000000  0.86444117  0.13572023  1
  B  B34  1  0.25000000  0.13555883  0.00016141  1
  B  B35  1  0.25000000  1.00000000  0.86489160  1
  B  B36  1  0.75000000  0.52747304  0.81728042  1
  B  B37  1  0.75000000  0.81406900  0.65491449  1
  B  B38  1  0.75000000  0.65442346  0.52798367  1
  B  B39  1  0.75000000  0.18593100  0.46898349  1
  B  B40  1  0.75000000  0.34557654  0.18240713  1
  B  B41  1  0.75000000  0.47252696  0.34475346  1
  B  B42  1  0.25000000  0.46934706  0.18585401  1
  B  B43  1  0.25000000  0.18590360  0.34432726  1
  B  B44  1  0.25000000  0.34535001  0.46945475  1
  B  B45  1  0.25000000  0.81409640  0.53023085  1
  B  B46  1  0.25000000  0.65464999  0.81480476  1
  B  B47  1  0.25000000  0.53065294  0.65520107  1
  H  H48  1  0.49305673  0.40858605  0.59138692  1
  H  H49  1  0.49305673  0.59141395  0.99997297  1
  H  H50  1  0.49250477  1.00000000  0.40859139  1
  H  H51  1  0.51279187  0.58992907  0.41023324  1
  H  H52  1  0.51279187  0.41007093  0.00016231  1
  H  H53  1  0.50821200  0.00000000  0.59116981  1
  H  H54  1  0.98720813  0.58992907  0.41023324  1
  H  H55  1  0.98720813  0.41007093  0.00016231  1
  H  H56  1  0.99178800  0.00000000  0.59116981  1
  H  H57  1  0.00694327  0.40858605  0.59138692  1
  H  H58  1  0.00694327  0.59141395  0.99997297  1
  H  H59  1  0.00749523  1.00000000  0.40859139  1
  H  H60  1  0.75000000  0.44277614  0.83397564  1
  H  H61  1  0.75000000  0.82757620  0.72463464  1
  H  H62  1  0.75000000  0.72267938  0.44302418  1
  H  H63  1  0.75000000  0.17242380  0.55220983  1
  H  H64  1  0.75000000  0.27732062  0.16570356  1
  H  H65  1  0.75000000  0.55722386  0.27675078  1
  H  H66  1  0.25000000  0.55281126  0.17047194  1
  H  H67  1  0.25000000  0.17112422  0.27541783  1
  H  H68  1  0.25000000  0.27728942  0.55299254  1
  H  H69  1  0.25000000  0.82887578  0.44654206  1
  H  H70  1  0.25000000  0.72271058  0.83028297  1
  H  H71  1  0.25000000  0.44718874  0.72328421  1
  H  H72  1  0.87099838  0.09636552  0.90420306  1
  H  H73  1  0.87099838  0.90363448  0.00056858  1
  H  H74  1  0.87115980  0.00000000  0.09555690  1
  H  H75  1  0.12791253  0.90302868  0.09716263  1
  H  H76  1  0.12791253  0.09697132  0.00019131  1
  H  H77  1  0.12933376  1.00000000  0.90485414  1
  H  H78  1  0.37208747  0.90302868  0.09716263  1
  H  H79  1  0.37208747  0.09697132  0.00019131  1
  H  H80  1  0.37066624  1.00000000  0.90485414  1
  H  H81  1  0.62900162  0.09636552  0.90420306  1
  H  H82  1  0.62900162  0.90363448  0.00056858  1
  H  H83  1  0.62884020  0.00000000  0.09555690  1
  H  H84  1  0.62630743  0.56525074  0.77213124  1
  H  H85  1  0.62466747  0.76702662  0.66401514  1
  H  H86  1  0.62616722  0.66154720  0.56598110  1
  H  H87  1  0.62466747  0.23297338  0.43104276  1
  H  H88  1  0.62616722  0.33845380  0.22752730  1
  H  H89  1  0.62630743  0.43475026  0.33738198  1
  H  H90  1  0.37358148  0.43070490  0.23316933  1
  H  H91  1  0.37393644  0.23300610  0.33602253  1
  H  H92  1  0.37389179  0.33634769  0.43091642  1
  H  H93  1  0.37393644  0.76699390  0.56902863  1
  H  H94  1  0.37389179  0.66365331  0.76726311  1
  H  H95  1  0.37358148  0.56929510  0.66387424  1
  H  H96  1  0.12641852  0.43070490  0.23316933  1
  H  H97  1  0.12606356  0.23300610  0.33602253  1
  H  H98  1  0.12610821  0.33634769  0.43091642  1
  H  H99  1  0.12606356  0.76699390  0.56902863  1
  H  H100  1  0.12610821  0.66365331  0.76726311  1
  H  H101  1  0.12641852  0.56929510  0.66387424  1
  H  H102  1  0.87369257  0.56525074  0.77213124  1
  H  H103  1  0.87533253  0.76702662  0.66401514  1
  H  H104  1  0.87383278  0.66154720  0.56598110  1
  H  H105  1  0.87533253  0.23297338  0.43104276  1
  H  H106  1  0.87383278  0.33845380  0.22752730  1
  H  H107  1  0.87369257  0.43475026  0.33738198  1
  H  H108  1  0.75000000  0.53734366  0.89144214  1
  H  H109  1  0.75000000  0.88399706  0.57275281  1
  H  H110  1  0.75000000  0.57117076  0.53744790  1
  H  H111  1  0.75000000  0.11600294  0.45674987  1
  H  H112  1  0.75000000  0.42882924  0.10861865  1
  H  H113  1  0.75000000  0.46265634  0.42878580  1
  H  H114  1  0.25000000  0.45901223  0.11387356  1
  H  H115  1  0.25000000  0.11494911  0.42640182  1
  H  H116  1  0.25000000  0.42740363  0.45836897  1
  H  H117  1  0.25000000  0.88505089  0.54135093  1
  H  H118  1  0.25000000  0.57259637  0.88577260  1
  H  H119  1  0.25000000  0.54098777  0.57288579  1
  H  H120  1  0.75000000  0.13869012  0.78371212  1
  H  H121  1  0.75000000  0.78340384  0.07812684  1
  H  H122  1  0.75000000  0.07722303  0.13926926  1
  H  H123  1  0.75000000  0.21659616  0.86153068  1
  H  H124  1  0.75000000  0.92277697  0.21649228  1
  H  H125  1  0.75000000  0.86130988  0.92240224  1
  H  H126  1  0.25000000  0.86127899  0.21748470  1
  H  H127  1  0.25000000  0.21660369  0.92165299  1
  H  H128  1  0.25000000  0.92256612  0.86143901  1
  H  H129  1  0.25000000  0.78339631  0.13825668  1
  H  H130  1  0.25000000  0.07743388  0.78400513  1
  H  H131  1  0.25000000  0.13872101  0.07876369  1
  H  H132  1  0.58441707  0.27542069  0.64657748  1
  H  H133  1  0.58517829  0.64662604  0.07841824  1
  H  H134  1  0.58470483  0.07774639  0.27532368  1
  H  H135  1  0.58517829  0.35337396  0.72504429  1
  H  H136  1  0.58470483  0.92225361  0.35307006  1
  H  H137  1  0.58441707  0.72457931  0.92199818  1
  H  H138  1  0.42236810  0.72307358  0.35527674  1
  H  H139  1  0.42220723  0.35501756  0.92154291  1
  H  H140  1  0.41594068  0.92221335  0.72451437  1
  H  H141  1  0.42220723  0.64498244  0.27656047  1
  H  H142  1  0.41594068  0.07778665  0.64672772  1
  H  H143  1  0.42236810  0.27692642  0.07835033  1
  H  H144  1  0.07763190  0.72307358  0.35527674  1
  H  H145  1  0.07779277  0.35501756  0.92154291  1
  H  H146  1  0.08405932  0.92221335  0.72451437  1
  H  H147  1  0.07779277  0.64498244  0.27656047  1
  H  H148  1  0.08405932  0.07778665  0.64672772  1
  H  H149  1  0.07763190  0.27692642  0.07835033  1
  H  H150  1  0.91558293  0.27542069  0.64657748  1
  H  H151  1  0.91482171  0.64662604  0.07841824  1
  H  H152  1  0.91529517  0.07774639  0.27532368  1
  H  H153  1  0.91482171  0.35337396  0.72504429  1
  H  H154  1  0.91529517  0.92225361  0.35307006  1
  H  H155  1  0.91558293  0.72457931  0.92199818  1
  H  H156  1  0.39790630  0.28760316  0.71249956  1
  H  H157  1  0.39790630  0.71239684  0.00010272  1
  H  H158  1  0.39768055  1.00000000  0.28655485  1
  H  H159  1  0.60896101  0.71248766  0.28740339  1
  H  H160  1  0.60896101  0.28751234  0.99989105  1
  H  H161  1  0.60268626  0.00000000  0.71325486  1
  H  H162  1  0.89103899  0.71248766  0.28740339  1
  H  H163  1  0.89103899  0.28751234  0.99989105  1
  H  H164  1  0.89731374  0.00000000  0.71325486  1
  H  H165  1  0.10209370  0.28760316  0.71249956  1
  H  H166  1  0.10209370  0.71239684  0.00010272  1
  H  H167  1  0.10231945  1.00000000  0.28655485  1
