# generated using pymatgen
data_LaZn2Ni3
_symmetry_space_group_name_H-M   'P 1'
_cell_length_a   3.90740219
_cell_length_b   5.24195833
_cell_length_c   5.24195751
_cell_angle_alpha   60.02871132
_cell_angle_beta   90.00000000
_cell_angle_gamma   90.00000000
_symmetry_Int_Tables_number   1
_chemical_formula_structural   LaZn2Ni3
_chemical_formula_sum   'La1 Zn2 Ni3'
_cell_volume   93.01037244
_cell_formula_units_Z   1
loop_
 _symmetry_equiv_pos_site_id
 _symmetry_equiv_pos_as_xyz
  1  'x, y, z'
loop_
 _atom_site_type_symbol
 _atom_site_label
 _atom_site_symmetry_multiplicity
 _atom_site_fract_x
 _atom_site_fract_y
 _atom_site_fract_z
 _atom_site_occupancy
  La  La0  1  0.00000000  0.99997785  0.00002215  1
  Zn  Zn1  1  0.00000000  0.33334327  0.33339787  1
  Zn  Zn2  1  0.00000000  0.66660213  0.66665673  1
  Ni  Ni3  1  0.50000000  0.49999387  0.50000613  1
  Ni  Ni4  1  0.50000000  0.49999545  0.00001257  1
  Ni  Ni5  1  0.50000000  0.99998743  0.50000455  1
