# generated using pymatgen
data_Li2InFe(P2O7)2
_symmetry_space_group_name_H-M   'P 1'
_cell_length_a   4.93510977
_cell_length_b   7.08403732
_cell_length_c   8.40642128
_cell_angle_alpha   89.76190196
_cell_angle_beta   89.75539116
_cell_angle_gamma   109.47615837
_symmetry_Int_Tables_number   1
_chemical_formula_structural   Li2InFe(P2O7)2
_chemical_formula_sum   'Li2 In1 Fe1 P4 O14'
_cell_volume   277.06888054
_cell_formula_units_Z   1
loop_
 _symmetry_equiv_pos_site_id
 _symmetry_equiv_pos_as_xyz
  1  'x, y, z'
loop_
 _atom_site_type_symbol
 _atom_site_label
 _atom_site_symmetry_multiplicity
 _atom_site_fract_x
 _atom_site_fract_y
 _atom_site_fract_z
 _atom_site_occupancy
  Li  Li0  1  0.69648871  0.17964391  0.34510480  1
  Li  Li1  1  0.30862239  0.82598980  0.85182212  1
  In  In2  1  0.27814277  0.76366351  0.48462031  1
  Fe  Fe3  1  0.71613256  0.23034373  0.98440088  1
  P  P4  1  0.70520036  0.57750560  0.26254846  1
  P  P5  1  0.29343903  0.41535433  0.77649444  1
  P  P6  1  0.10279472  0.98053122  0.16432906  1
  P  P7  1  0.90063552  0.02868405  0.67062453  1
  O  O8  1  0.31089603  0.01788497  0.02241136  1
  O  O9  1  0.70439438  0.99313388  0.52474216  1
  O  O10  1  0.86625702  0.56478021  0.41609356  1
  O  O11  1  0.10211152  0.41092421  0.92142162  1
  O  O12  1  0.91180012  0.74621344  0.14334875  1
  O  O13  1  0.10602756  0.25880328  0.64511196  1
  O  O14  1  0.89827736  0.10215320  0.16019222  1
  O  O15  1  0.09281735  0.89758564  0.67532967  1
  O  O16  1  0.43420817  0.62856102  0.29400184  1
  O  O17  1  0.55605437  0.35840472  0.81570668  1
  O  O18  1  0.64305973  0.38119411  0.17092395  1
  O  O19  1  0.37447761  0.61981543  0.69305811  1
  O  O20  1  0.26033483  0.00403853  0.32423802  1
  O  O21  1  0.73782790  0.01479122  0.82887752  1
