# generated using pymatgen
data_Li6AsS5I
_symmetry_space_group_name_H-M   'P 1'
_cell_length_a   7.42314024
_cell_length_b   7.29049432
_cell_length_c   7.37251526
_cell_angle_alpha   90.39166244
_cell_angle_beta   59.09810410
_cell_angle_gamma   120.55786292
_symmetry_Int_Tables_number   1
_chemical_formula_structural   Li6AsS5I
_chemical_formula_sum   'Li6 As1 S5 I1'
_cell_volume   276.79856299
_cell_formula_units_Z   1
loop_
 _symmetry_equiv_pos_site_id
 _symmetry_equiv_pos_as_xyz
  1  'x, y, z'
loop_
 _atom_site_type_symbol
 _atom_site_label
 _atom_site_symmetry_multiplicity
 _atom_site_fract_x
 _atom_site_fract_y
 _atom_site_fract_z
 _atom_site_occupancy
  Li  Li0  1  0.41966234  0.02843372  0.03316936  1
  Li  Li1  1  0.57001691  0.54468238  0.02139029  1
  Li  Li2  1  0.94493309  0.38810610  0.02946991  1
  Li  Li3  1  0.58146118  0.55476633  0.40639837  1
  Li  Li4  1  0.04614187  0.03436606  0.54522802  1
  Li  Li5  1  0.43827089  0.03017376  0.54450291  1
  As  As6  1  0.00311975  0.50213288  0.49919494  1
  S  S7  1  0.50008775  0.25465416  0.25509654  1
  S  S8  1  0.74877792  0.12990593  0.62742918  1
  S  S9  1  0.75970537  0.62361955  0.62143929  1
  S  S10  1  0.24205484  0.62080072  0.62089944  1
  S  S11  1  0.24678247  0.62312512  0.13039515  1
  I  I12  1  0.99898561  0.98523329  0.98538660  1
