# generated using pymatgen
data_NaCa2Mn5FeAs6(H2O13)2
_symmetry_space_group_name_H-M   'P 1'
_cell_length_a   12.19879452
_cell_length_b   13.09099099
_cell_length_c   13.70320535
_cell_angle_alpha   90.00000000
_cell_angle_beta   90.00000000
_cell_angle_gamma   90.01849508
_symmetry_Int_Tables_number   1
_chemical_formula_structural   NaCa2Mn5FeAs6(H2O13)2
_chemical_formula_sum   'Na4 Ca8 Mn20 Fe4 As24 H16 O104'
_cell_volume   2188.32379740
_cell_formula_units_Z   4
loop_
 _symmetry_equiv_pos_site_id
 _symmetry_equiv_pos_as_xyz
  1  'x, y, z'
loop_
 _atom_site_type_symbol
 _atom_site_label
 _atom_site_symmetry_multiplicity
 _atom_site_fract_x
 _atom_site_fract_y
 _atom_site_fract_z
 _atom_site_occupancy
  Na  Na0  1  -0.00000000  0.50000000  0.50000000  1
  Na  Na1  1  0.50000000  0.00000000  0.50000000  1
  Na  Na2  1  0.50000000  0.50000000  0.00000000  1
  Na  Na3  1  -0.00000000  0.00000000  0.00000000  1
  Ca  Ca4  1  0.49192932  0.76113911  0.12545407  1
  Ca  Ca5  1  0.01125309  0.26387904  0.86994362  1
  Ca  Ca6  1  0.98874691  0.23612096  0.36994362  1
  Ca  Ca7  1  0.50807068  0.73886089  0.62545407  1
  Ca  Ca8  1  0.50807068  0.23886089  0.87454593  1
  Ca  Ca9  1  0.98874691  0.73612096  0.13005638  1
  Ca  Ca10  1  0.01125309  0.76387904  0.63005638  1
  Ca  Ca11  1  0.49192932  0.26113911  0.37454593  1
  Mn  Mn12  1  0.45318757  0.52599010  0.23030103  1
  Mn  Mn13  1  0.04592169  0.02518594  0.77007894  1
  Mn  Mn14  1  0.95407831  0.47481406  0.27007894  1
  Mn  Mn15  1  0.54681243  0.97400990  0.73030103  1
  Mn  Mn16  1  0.54681243  0.47400990  0.76969897  1
  Mn  Mn17  1  0.95407831  0.97481406  0.22992106  1
  Mn  Mn18  1  0.04592169  0.52518594  0.72992106  1
  Mn  Mn19  1  0.45318757  0.02599010  0.26969897  1
  Mn  Mn20  1  0.21899186  0.64894390  0.29507654  1
  Mn  Mn21  1  0.27938203  0.15039129  0.70737221  1
  Mn  Mn22  1  0.72061797  0.34960871  0.20737221  1
  Mn  Mn23  1  0.78100814  0.85105610  0.79507654  1
  Mn  Mn24  1  0.78100814  0.35105610  0.70492346  1
  Mn  Mn25  1  0.72061797  0.84960871  0.29262779  1
  Mn  Mn26  1  0.27938203  0.65039129  0.79262779  1
  Mn  Mn27  1  0.21899186  0.14894390  0.20492346  1
  Mn  Mn28  1  0.22032137  0.83265467  0.45951778  1
  Mn  Mn29  1  0.77967863  0.66734533  0.95951778  1
  Mn  Mn30  1  0.77967863  0.16734533  0.54048222  1
  Mn  Mn31  1  0.22032137  0.33265467  0.04048222  1
  Fe  Fe32  1  0.28218004  0.33227101  0.54321829  1
  Fe  Fe33  1  0.71781996  0.16772899  0.04321829  1
  Fe  Fe34  1  0.71781996  0.66772899  0.45678171  1
  Fe  Fe35  1  0.28218004  0.83227101  0.95678171  1
  As  As36  1  0.24751510  0.60433926  0.05743500  1
  As  As37  1  0.25082600  0.09936963  0.94238265  1
  As  As38  1  0.74917400  0.40063037  0.44238265  1
  As  As39  1  0.75248490  0.89566074  0.55743500  1
  As  As40  1  0.75248490  0.39566074  0.94256500  1
  As  As41  1  0.74917400  0.90063037  0.05761735  1
  As  As42  1  0.25082600  0.59936963  0.55761735  1
  As  As43  1  0.24751510  0.10433926  0.44256500  1
  As  As44  1  0.22229910  0.88522892  0.19586928  1
  As  As45  1  0.27650490  0.38719070  0.79857132  1
  As  As46  1  0.72349510  0.11280930  0.29857132  1
  As  As47  1  0.77770090  0.61477108  0.69586928  1
  As  As48  1  0.77770090  0.11477108  0.80413072  1
  As  As49  1  0.72349510  0.61280930  0.20142868  1
  As  As50  1  0.27650490  0.88719070  0.70142868  1
  As  As51  1  0.22229910  0.38522892  0.30413072  1
  As  As52  1  0.47288350  0.77083032  0.37523466  1
  As  As53  1  0.03428804  0.27222155  0.62348439  1
  As  As54  1  0.96571196  0.22777845  0.12348439  1
  As  As55  1  0.52711650  0.72916968  0.87523466  1
  As  As56  1  0.52711650  0.22916968  0.62476534  1
  As  As57  1  0.96571196  0.72777845  0.37651561  1
  As  As58  1  0.03428804  0.77222155  0.87651561  1
  As  As59  1  0.47288350  0.27083032  0.12476534  1
  H  H60  1  0.55188724  0.50756768  0.41223185  1
  H  H61  1  0.94735982  0.00480693  0.58651202  1
  H  H62  1  0.05264018  0.49519307  0.08651202  1
  H  H63  1  0.44811276  0.99243232  0.91223185  1
  H  H64  1  0.44811276  0.49243232  0.58776815  1
  H  H65  1  0.05264018  0.99519307  0.41348798  1
  H  H66  1  0.94735982  0.50480693  0.91348798  1
  H  H67  1  0.55188724  0.00756768  0.08776815  1
  H  H68  1  0.42109909  0.49442473  0.42448576  1
  H  H69  1  0.07887808  0.99547497  0.57481407  1
  H  H70  1  0.92112192  0.50452503  0.07481407  1
  H  H71  1  0.57890091  0.00557527  0.92448576  1
  H  H72  1  0.57890091  0.50557527  0.57551424  1
  H  H73  1  0.92112192  0.00452503  0.42518593  1
  H  H74  1  0.07887808  0.49547497  0.92518593  1
  H  H75  1  0.42109909  0.99442473  0.07551424  1
  O  O76  1  0.18297767  0.49203803  0.02601513  1
  O  O77  1  0.31491579  0.98218912  0.96397555  1
  O  O78  1  0.68508421  0.51781088  0.46397555  1
  O  O79  1  0.81702233  0.00796197  0.52601513  1
  O  O80  1  0.81702233  0.50796197  0.97398487  1
  O  O81  1  0.68508421  0.01781088  0.03602445  1
  O  O82  1  0.31491579  0.48218912  0.53602445  1
  O  O83  1  0.18297767  0.99203803  0.47398487  1
  O  O84  1  0.53957471  0.86408918  0.30609412  1
  O  O85  1  0.96551200  0.36536991  0.69102839  1
  O  O86  1  0.03448800  0.13463009  0.19102839  1
  O  O87  1  0.46042529  0.63591082  0.80609412  1
  O  O88  1  0.46042529  0.13591082  0.69390588  1
  O  O89  1  0.03448800  0.63463009  0.30897161  1
  O  O90  1  0.96551200  0.86536991  0.80897161  1
  O  O91  1  0.53957471  0.36408918  0.19390588  1
  O  O92  1  0.28322940  0.99950339  0.22797993  1
  O  O93  1  0.21762525  0.50215666  0.76704360  1
  O  O94  1  0.78237475  0.99784334  0.26704360  1
  O  O95  1  0.71677060  0.50049661  0.72797993  1
  O  O96  1  0.71677060  0.00049661  0.77202007  1
  O  O97  1  0.78237475  0.49784334  0.23295640  1
  O  O98  1  0.21762525  0.00215666  0.73295640  1
  O  O99  1  0.28322940  0.49950339  0.27202007  1
  O  O100  1  0.55333488  0.69946996  0.45605204  1
  O  O101  1  0.95749757  0.20558880  0.53995249  1
  O  O102  1  0.04250243  0.29441120  0.03995249  1
  O  O103  1  0.44666512  0.80053004  0.95605204  1
  O  O104  1  0.44666512  0.30053004  0.54394796  1
  O  O105  1  0.04250243  0.79441120  0.46004751  1
  O  O106  1  0.95749757  0.70558880  0.96004751  1
  O  O107  1  0.55333488  0.19946996  0.04394796  1
  O  O108  1  0.25550122  0.67642234  0.95097750  1
  O  O109  1  0.24827492  0.16392542  0.05113824  1
  O  O110  1  0.75172508  0.33607458  0.55113824  1
  O  O111  1  0.74449878  0.82357766  0.45097750  1
  O  O112  1  0.74449878  0.32357766  0.04902250  1
  O  O113  1  0.75172508  0.83607458  0.94886176  1
  O  O114  1  0.24827492  0.66392542  0.44886176  1
  O  O115  1  0.25550122  0.17642234  0.54902250  1
  O  O116  1  0.38121257  0.59275175  0.09727952  1
  O  O117  1  0.11720101  0.09134889  0.90262657  1
  O  O118  1  0.88279899  0.40865111  0.40262657  1
  O  O119  1  0.61878743  0.90724825  0.59727952  1
  O  O120  1  0.61878743  0.40724825  0.90272048  1
  O  O121  1  0.88279899  0.90865111  0.09737343  1
  O  O122  1  0.11720101  0.59134889  0.59737343  1
  O  O123  1  0.38121257  0.09275175  0.40272048  1
  O  O124  1  0.16689475  0.66314530  0.14292547  1
  O  O125  1  0.33311862  0.16040645  0.85952391  1
  O  O126  1  0.66688138  0.33959355  0.35952391  1
  O  O127  1  0.83310525  0.83685470  0.64292547  1
  O  O128  1  0.83310525  0.33685470  0.85707453  1
  O  O129  1  0.66688138  0.83959355  0.14047609  1
  O  O130  1  0.33311862  0.66040645  0.64047609  1
  O  O131  1  0.16689475  0.16314530  0.35707453  1
  O  O132  1  0.48389245  0.47969381  0.38124406  1
  O  O133  1  0.01615354  0.98097827  0.61917265  1
  O  O134  1  0.98384646  0.51902173  0.11917265  1
  O  O135  1  0.51610755  0.02030619  0.88124406  1
  O  O136  1  0.51610755  0.52030619  0.61875594  1
  O  O137  1  0.98384646  0.01902173  0.38082735  1
  O  O138  1  0.01615354  0.48097827  0.88082735  1
  O  O139  1  0.48389245  0.97969381  0.11875594  1
  O  O140  1  0.09084644  0.90480214  0.15494382  1
  O  O141  1  0.40763494  0.40419053  0.84100986  1
  O  O142  1  0.59236506  0.09580947  0.34100986  1
  O  O143  1  0.90915356  0.59519786  0.65494382  1
  O  O144  1  0.90915356  0.09519786  0.84505618  1
  O  O145  1  0.59236506  0.59580947  0.15899014  1
  O  O146  1  0.40763494  0.90419053  0.65899014  1
  O  O147  1  0.09084644  0.40480214  0.34505618  1
  O  O148  1  0.21433492  0.81216408  0.29937810  1
  O  O149  1  0.28957045  0.31453010  0.69318422  1
  O  O150  1  0.71042955  0.18546990  0.19318422  1
  O  O151  1  0.78566508  0.68783592  0.79937810  1
  O  O152  1  0.78566508  0.18783592  0.70062190  1
  O  O153  1  0.71042955  0.68546990  0.30681578  1
  O  O154  1  0.28957045  0.81453010  0.80681578  1
  O  O155  1  0.21433492  0.31216408  0.20062190  1
  O  O156  1  0.30519847  0.83048456  0.10673048  1
  O  O157  1  0.19146266  0.32926217  0.88068433  1
  O  O158  1  0.80853734  0.17073783  0.38068433  1
  O  O159  1  0.69480153  0.66951544  0.60673048  1
  O  O160  1  0.69480153  0.16951544  0.89326952  1
  O  O161  1  0.80853734  0.67073783  0.11931567  1
  O  O162  1  0.19146266  0.82926217  0.61931567  1
  O  O163  1  0.30519847  0.33048456  0.39326952  1
  O  O164  1  0.39401228  0.83987434  0.45461289  1
  O  O165  1  0.12133645  0.34656846  0.55218456  1
  O  O166  1  0.87866355  0.15343154  0.05218456  1
  O  O167  1  0.60598772  0.66012566  0.95461289  1
  O  O168  1  0.60598772  0.16012566  0.54538711  1
  O  O169  1  0.87866355  0.65343154  0.44781544  1
  O  O170  1  0.12133645  0.84656846  0.94781544  1
  O  O171  1  0.39401228  0.33987434  0.04538711  1
  O  O172  1  0.41694460  0.69117172  0.28694680  1
  O  O173  1  0.08809606  0.19200860  0.71238386  1
  O  O174  1  0.91190394  0.30799140  0.21238386  1
  O  O175  1  0.58305540  0.80882828  0.78694680  1
  O  O176  1  0.58305540  0.30882828  0.71305320  1
  O  O177  1  0.91190394  0.80799140  0.28761614  1
  O  O178  1  0.08809606  0.69200860  0.78761614  1
  O  O179  1  0.41694460  0.19117172  0.21305320  1
