# generated using pymatgen
data_LiZr5TlF22
_symmetry_space_group_name_H-M   'P 1'
_cell_length_a   8.16327031
_cell_length_b   8.16330582
_cell_length_c   11.83876665
_cell_angle_alpha   90.00000000
_cell_angle_beta   90.00000000
_cell_angle_gamma   90.00000000
_symmetry_Int_Tables_number   1
_chemical_formula_structural   LiZr5TlF22
_chemical_formula_sum   'Li2 Zr10 Tl2 F44'
_cell_volume   788.92679131
_cell_formula_units_Z   2
loop_
 _symmetry_equiv_pos_site_id
 _symmetry_equiv_pos_as_xyz
  1  'x, y, z'
loop_
 _atom_site_type_symbol
 _atom_site_label
 _atom_site_symmetry_multiplicity
 _atom_site_fract_x
 _atom_site_fract_y
 _atom_site_fract_z
 _atom_site_occupancy
  Li  Li0  1  0.75000000  0.24959619  0.00000000  1
  Li  Li1  1  0.25000000  0.74959619  0.00000000  1
  Zr  Zr2  1  0.42982681  0.56978529  0.25471318  1
  Zr  Zr3  1  0.93039832  0.42999045  0.25490959  1
  Zr  Zr4  1  0.57017319  0.06978529  0.25471318  1
  Zr  Zr5  1  0.06960168  0.92999045  0.25490959  1
  Zr  Zr6  1  0.56960168  0.42999045  0.74509041  1
  Zr  Zr7  1  0.07017319  0.56978529  0.74528682  1
  Zr  Zr8  1  0.43039832  0.92999045  0.74509041  1
  Zr  Zr9  1  0.92982681  0.06978529  0.74528682  1
  Zr  Zr10  1  0.75000000  0.74997151  0.50000000  1
  Zr  Zr11  1  0.25000000  0.24997151  0.50000000  1
  Tl  Tl12  1  0.75000000  0.73554811  0.00000000  1
  Tl  Tl13  1  0.25000000  0.23554811  -0.00000000  1
  F  F14  1  0.38936114  0.61089725  0.08769329  1
  F  F15  1  0.88905317  0.38931271  0.08757505  1
  F  F16  1  0.61063886  0.11089725  0.08769329  1
  F  F17  1  0.11094683  0.88931271  0.08757505  1
  F  F18  1  0.61094683  0.38931271  0.91242495  1
  F  F19  1  0.11063886  0.61089725  0.91230671  1
  F  F20  1  0.38905317  0.88931271  0.91242495  1
  F  F21  1  0.88936114  0.11089725  0.91230671  1
  F  F22  1  0.54913575  0.66361045  0.40177027  1
  F  F23  1  0.04909958  0.33633533  0.40179520  1
  F  F24  1  0.45086425  0.16361045  0.40177027  1
  F  F25  1  0.95090042  0.83633533  0.40179520  1
  F  F26  1  0.45090042  0.33633533  0.59820480  1
  F  F27  1  0.95086425  0.66361045  0.59822973  1
  F  F28  1  0.54909958  0.83633533  0.59820480  1
  F  F29  1  0.04913575  0.16361045  0.59822973  1
  F  F30  1  0.66360004  0.54909746  0.59825808  1
  F  F31  1  0.33639996  0.04909746  0.59825808  1
  F  F32  1  0.16367393  0.45086825  0.59818201  1
  F  F33  1  0.83632607  0.95086825  0.59818201  1
  F  F34  1  0.33632607  0.45086825  0.40181799  1
  F  F35  1  0.66367393  0.95086825  0.40181799  1
  F  F36  1  0.83639996  0.54909746  0.40174192  1
  F  F37  1  0.16360004  0.04909746  0.40174192  1
  F  F38  1  0.53653315  0.82063004  0.21350748  1
  F  F39  1  0.03658351  0.17933222  0.21343102  1
  F  F40  1  0.46346685  0.32063004  0.21350748  1
  F  F41  1  0.96341649  0.67933222  0.21343102  1
  F  F42  1  0.46341649  0.17933222  0.78656898  1
  F  F43  1  0.96346685  0.82063004  0.78649252  1
  F  F44  1  0.53658351  0.67933222  0.78656898  1
  F  F45  1  0.03653315  0.32063004  0.78649252  1
  F  F46  1  0.82056325  0.53654014  0.78658468  1
  F  F47  1  0.17943675  0.03654014  0.78658468  1
  F  F48  1  0.32072409  0.46344208  0.78646584  1
  F  F49  1  0.67927591  0.96344208  0.78646584  1
  F  F50  1  0.17927591  0.46344208  0.21353416  1
  F  F51  1  0.82072409  0.96344208  0.21353416  1
  F  F52  1  0.67943675  0.53654014  0.21341532  1
  F  F53  1  0.32056325  0.03654014  0.21341532  1
  F  F54  1  0.75008995  0.25005044  0.29993593  1
  F  F55  1  0.24991005  0.75005044  0.29993593  1
  F  F56  1  0.25008995  0.75005044  0.70006407  1
  F  F57  1  0.74991005  0.25005044  0.70006407  1
