# generated using pymatgen
data_Li2Ti(IO3)6
_symmetry_space_group_name_H-M   'P 1'
_cell_length_a   5.18293744
_cell_length_b   9.53497677
_cell_length_c   9.53489712
_cell_angle_alpha   59.99995869
_cell_angle_beta   89.99951479
_cell_angle_gamma   89.99984885
_symmetry_Int_Tables_number   1
_chemical_formula_structural   Li2Ti(IO3)6
_chemical_formula_sum   'Li2 Ti1 I6 O18'
_cell_volume   408.07695356
_cell_formula_units_Z   1
loop_
 _symmetry_equiv_pos_site_id
 _symmetry_equiv_pos_as_xyz
  1  'x, y, z'
loop_
 _atom_site_type_symbol
 _atom_site_label
 _atom_site_symmetry_multiplicity
 _atom_site_fract_x
 _atom_site_fract_y
 _atom_site_fract_z
 _atom_site_occupancy
  Li  Li0  1  0.72500221  0.33336466  0.33331836  1
  Li  Li1  1  0.22097898  0.66663462  0.66668259  1
  Ti  Ti2  1  0.66383206  0.99999976  0.99999913  1
  I  I3  1  0.78374327  0.96718040  0.67138704  1
  I  I4  1  0.78373341  0.36142783  0.96718229  1
  I  I5  1  0.78373568  0.67139164  0.36143065  1
  I  I6  1  0.29643287  0.02749242  0.31554571  1
  I  I7  1  0.29642268  0.65696654  0.02748810  1
  I  I8  1  0.29642723  0.31553800  0.65696417  1
  O  O9  1  0.49886630  0.24437678  0.55014292  1
  O  O10  1  0.49886210  0.20548245  0.24436975  1
  O  O11  1  0.49886234  0.55015137  0.20547960  1
  O  O12  1  0.00435025  0.75649951  0.44737820  1
  O  O13  1  0.00434209  0.79612152  0.75650564  1
  O  O14  1  0.00434066  0.44736870  0.79612689  1
  O  O15  1  0.88153409  0.04390276  0.81446037  1
  O  O16  1  0.88153726  0.14163563  0.04390189  1
  O  O17  1  0.88153773  0.81446402  0.14163598  1
  O  O18  1  0.44471511  0.94284567  0.19204610  1
  O  O19  1  0.44471379  0.86511037  0.94284313  1
  O  O20  1  0.44471106  0.19204459  0.86510973  1
  O  O21  1  0.96624099  0.11420248  0.49507469  1
  O  O22  1  0.96622774  0.39072450  0.11420349  1
  O  O23  1  0.96621738  0.49508093  0.39071889  1
  O  O24  1  0.45708669  0.88612161  0.50387253  1
  O  O25  1  0.45707467  0.61000230  0.88612467  1
  O  O26  1  0.45707138  0.50386893  0.61000749  1
