# generated using pymatgen
data_La6Sb4(SO4)3
_symmetry_space_group_name_H-M   'P 1'
_cell_length_a   10.92362911
_cell_length_b   10.92362911
_cell_length_c   10.92362911
_cell_angle_alpha   60.07131125
_cell_angle_beta   60.07131125
_cell_angle_gamma   90.12355915
_symmetry_Int_Tables_number   1
_chemical_formula_structural   La6Sb4(SO4)3
_chemical_formula_sum   'La12 Sb8 S6 O24'
_cell_volume   922.68318806
_cell_formula_units_Z   2
loop_
 _symmetry_equiv_pos_site_id
 _symmetry_equiv_pos_as_xyz
  1  'x, y, z'
loop_
 _atom_site_type_symbol
 _atom_site_label
 _atom_site_symmetry_multiplicity
 _atom_site_fract_x
 _atom_site_fract_y
 _atom_site_fract_z
 _atom_site_occupancy
  La  La0  1  0.57021732  0.32275668  0.35572099  1
  La  La1  1  0.17724332  0.32152233  0.75253937  1
  La  La2  1  0.82275668  0.07021732  0.85572099  1
  La  La3  1  0.42978268  0.07406170  0.24746063  1
  La  La4  1  0.57406170  0.92978268  0.74746063  1
  La  La5  1  0.17847767  0.92593830  0.14427901  1
  La  La6  1  0.82152233  0.67724332  0.25253937  1
  La  La7  1  0.42593830  0.67847767  0.64427901  1
  La  La8  1  0.82203542  0.07203542  0.25000000  1
  La  La9  1  0.57203542  0.32203542  0.75000000  1
  La  La10  1  0.17796458  0.92796458  0.75000000  1
  La  La11  1  0.42796458  0.67796458  0.25000000  1
  Sb  Sb12  1  0.78513505  0.36123146  0.92804983  1
  Sb  Sb13  1  0.86123146  0.28513505  0.42804983  1
  Sb  Sb14  1  0.21318488  0.28928129  0.07195017  1
  Sb  Sb15  1  0.78928129  0.71318488  0.57195017  1
  Sb  Sb16  1  0.21071871  0.63876854  0.07609641  1
  Sb  Sb17  1  0.13876854  0.71071871  0.57609641  1
  Sb  Sb18  1  0.78681512  0.71486495  0.92390359  1
  Sb  Sb19  1  0.21486495  0.28681512  0.42390359  1
  S  S20  1  0.62500000  0.87500000  0.25000000  1
  S  S21  1  0.37500000  0.12500000  0.75000000  1
  S  S22  1  0.50000000  0.46836121  0.03163879  1
  S  S23  1  0.96836121  -0.00000000  0.53163879  1
  S  S24  1  -0.00000000  0.53163879  0.46836121  1
  S  S25  1  0.03163879  0.50000000  0.96836121  1
  O  O26  1  0.71924398  0.15667179  0.43456066  1
  O  O27  1  0.09123245  0.15380464  0.06543934  1
  O  O28  1  0.65667179  0.21924398  0.93456066  1
  O  O29  1  0.65380464  0.59123245  0.56543934  1
  O  O30  1  0.28075602  0.84619536  0.56257219  1
  O  O31  1  0.90876755  0.84332821  0.93742781  1
  O  O32  1  0.34619536  0.78075602  0.06257219  1
  O  O33  1  0.34332821  0.40876755  0.43742781  1
  O  O34  1  0.65750947  0.21865132  0.18990851  1
  O  O35  1  0.90887635  0.21885695  0.93501556  1
  O  O36  1  0.71865132  0.15750947  0.68990851  1
  O  O37  1  0.34389191  0.15387251  0.06498444  1
  O  O38  1  0.65387251  0.84389191  0.56498444  1
  O  O39  1  0.90855983  0.84741798  0.31009149  1
  O  O40  1  0.71885695  0.40887635  0.43501556  1
  O  O41  1  0.34741798  0.40855983  0.81009149  1
  O  O42  1  0.34612749  0.78114305  0.80998060  1
  O  O43  1  0.09144017  0.78134868  0.06114185  1
  O  O44  1  0.28114305  0.84612749  0.30998060  1
  O  O45  1  0.65258202  0.84249053  0.93885815  1
  O  O46  1  0.34249053  0.15258202  0.43885815  1
  O  O47  1  0.09112365  0.15610809  0.69001940  1
  O  O48  1  0.28134868  0.59144017  0.56114185  1
  O  O49  1  0.65610809  0.59112365  0.19001940  1
