# generated using pymatgen
data_Fe2CuAs2(HO5)2
_symmetry_space_group_name_H-M   'P 1'
_cell_length_a   5.27238392
_cell_length_b   5.38126843
_cell_length_c   8.20485971
_cell_angle_alpha   105.27451170
_cell_angle_beta   100.09883798
_cell_angle_gamma   110.83396084
_symmetry_Int_Tables_number   1
_chemical_formula_structural   Fe2CuAs2(HO5)2
_chemical_formula_sum   'Fe2 Cu1 As2 H2 O10'
_cell_volume   200.32011457
_cell_formula_units_Z   1
loop_
 _symmetry_equiv_pos_site_id
 _symmetry_equiv_pos_as_xyz
  1  'x, y, z'
loop_
 _atom_site_type_symbol
 _atom_site_label
 _atom_site_symmetry_multiplicity
 _atom_site_fract_x
 _atom_site_fract_y
 _atom_site_fract_z
 _atom_site_occupancy
  Fe  Fe0  1  0.33686817  0.59473531  0.31224884  1
  Fe  Fe1  1  0.66313183  0.40526469  0.68775116  1
  Cu  Cu2  1  0.00000000  0.00000000  0.00000000  1
  As  As3  1  0.37647889  0.78315458  0.73155205  1
  As  As4  1  0.62352111  0.21684542  0.26844795  1
  H  H5  1  0.98260945  0.24468984  0.52120655  1
  H  H6  1  0.01739055  0.75531016  0.47879345  1
  O  O7  1  0.07210953  0.72786502  0.80287616  1
  O  O8  1  0.37527687  0.28797851  0.12083992  1
  O  O9  1  0.23439135  0.83608057  0.51042666  1
  O  O10  1  0.30971961  0.43620732  0.58029019  1
  O  O11  1  0.38285240  0.85942415  0.19142014  1
  O  O12  1  0.61714760  0.14057585  0.80857986  1
  O  O13  1  0.69028039  0.56379268  0.41970981  1
  O  O14  1  0.76560865  0.16391943  0.48957334  1
  O  O15  1  0.62472313  0.71202149  0.87916008  1
  O  O16  1  0.92789047  0.27213498  0.19712384  1
