# generated using pymatgen
data_KSb5O13
_symmetry_space_group_name_H-M   'P 1'
_cell_length_a   5.62238412
_cell_length_b   5.66289369
_cell_length_c   17.07380664
_cell_angle_alpha   90.00000000
_cell_angle_beta   90.00000000
_cell_angle_gamma   107.30106497
_symmetry_Int_Tables_number   1
_chemical_formula_structural   KSb5O13
_chemical_formula_sum   'K2 Sb10 O26'
_cell_volume   519.01671670
_cell_formula_units_Z   2
loop_
 _symmetry_equiv_pos_site_id
 _symmetry_equiv_pos_as_xyz
  1  'x, y, z'
loop_
 _atom_site_type_symbol
 _atom_site_label
 _atom_site_symmetry_multiplicity
 _atom_site_fract_x
 _atom_site_fract_y
 _atom_site_fract_z
 _atom_site_occupancy
  K  K0  1  0.90623118  0.15724065  0.75000000  1
  K  K1  1  0.09376882  0.84275935  0.25000000  1
  Sb  Sb2  1  0.61357069  0.38586801  0.57752029  1
  Sb  Sb3  1  0.38642931  0.61413199  0.42247971  1
  Sb  Sb4  1  0.61357069  0.38586801  0.92247971  1
  Sb  Sb5  1  0.38642931  0.61413199  0.07752029  1
  Sb  Sb6  1  -0.00000000  0.00000000  0.50000000  1
  Sb  Sb7  1  -0.00000000  0.00000000  -0.00000000  1
  Sb  Sb8  1  0.76642871  0.22915327  0.36192949  1
  Sb  Sb9  1  0.23357129  0.77084673  0.63807051  1
  Sb  Sb10  1  0.76642871  0.22915327  0.13807051  1
  Sb  Sb11  1  0.23357129  0.77084673  0.86192949  1
  O  O12  1  0.18044321  0.81627086  0.75000000  1
  O  O13  1  0.81955679  0.18372914  0.25000000  1
  O  O14  1  0.55546388  0.44735743  0.34892346  1
  O  O15  1  0.44453612  0.55264257  0.65107654  1
  O  O16  1  0.55546388  0.44735743  0.15107654  1
  O  O17  1  0.44453612  0.55264257  0.84892346  1
  O  O18  1  0.01555502  0.98486207  0.61290816  1
  O  O19  1  0.98444498  0.01513793  0.38709184  1
  O  O20  1  0.01555502  0.98486207  0.88709184  1
  O  O21  1  0.98444498  0.01513793  0.11290816  1
  O  O22  1  0.31104588  0.31112496  0.49990869  1
  O  O23  1  0.31104588  0.31112496  0.00009131  1
  O  O24  1  0.68895412  0.68887504  0.50009131  1
  O  O25  1  0.68895412  0.68887504  0.99990869  1
  O  O26  1  0.93144421  0.47752445  0.63225948  1
  O  O27  1  0.47201047  0.92838237  0.36631040  1
  O  O28  1  0.93144421  0.47752445  0.86774052  1
  O  O29  1  0.47201047  0.92838237  0.13368960  1
  O  O30  1  0.06855579  0.52247555  0.36774052  1
  O  O31  1  0.52798953  0.07161763  0.63368960  1
  O  O32  1  0.06855579  0.52247555  0.13225948  1
  O  O33  1  0.52798953  0.07161763  0.86631040  1
  O  O34  1  0.22562669  0.77547786  0.51002149  1
  O  O35  1  0.77437331  0.22452214  0.48997851  1
  O  O36  1  0.22562669  0.77547786  0.98997851  1
  O  O37  1  0.77437331  0.22452214  0.01002149  1
