# generated using pymatgen
data_La2AlGe
_symmetry_space_group_name_H-M   'P 1'
_cell_length_a   4.18553956
_cell_length_b   4.58517408
_cell_length_c   6.26335684
_cell_angle_alpha   68.52890626
_cell_angle_beta   90.00000000
_cell_angle_gamma   90.00000000
_symmetry_Int_Tables_number   1
_chemical_formula_structural   La2AlGe
_chemical_formula_sum   'La2 Al1 Ge1'
_cell_volume   111.86097004
_cell_formula_units_Z   1
loop_
 _symmetry_equiv_pos_site_id
 _symmetry_equiv_pos_as_xyz
  1  'x, y, z'
loop_
 _atom_site_type_symbol
 _atom_site_label
 _atom_site_symmetry_multiplicity
 _atom_site_fract_x
 _atom_site_fract_y
 _atom_site_fract_z
 _atom_site_occupancy
  La  La0  1  0.25000000  0.64112829  0.71774343  1
  La  La1  1  0.75000000  0.35547607  0.28904786  1
  Al  Al2  1  0.25000000  0.93294713  0.13410573  1
  Ge  Ge3  1  0.75000000  0.07044851  0.85910298  1
