# generated using pymatgen
data_Na3Pb2S3ClO12
_symmetry_space_group_name_H-M   'P 1'
_cell_length_a   7.14330118
_cell_length_b   10.01665364
_cell_length_c   17.37998039
_cell_angle_alpha   90.17984319
_cell_angle_beta   90.00000000
_cell_angle_gamma   90.00000000
_symmetry_Int_Tables_number   1
_chemical_formula_structural   Na3Pb2S3ClO12
_chemical_formula_sum   'Na12 Pb8 S12 Cl4 O48'
_cell_volume   1243.56577462
_cell_formula_units_Z   4
loop_
 _symmetry_equiv_pos_site_id
 _symmetry_equiv_pos_as_xyz
  1  'x, y, z'
loop_
 _atom_site_type_symbol
 _atom_site_label
 _atom_site_symmetry_multiplicity
 _atom_site_fract_x
 _atom_site_fract_y
 _atom_site_fract_z
 _atom_site_occupancy
  Na  Na0  1  0.74729169  0.73275660  0.00458122  1
  Na  Na1  1  0.24729169  0.26724340  0.99541878  1
  Na  Na2  1  0.75233957  0.63944167  0.63048153  1
  Na  Na3  1  0.25233957  0.36055833  0.36951847  1
  Na  Na4  1  0.50588578  0.50668851  0.83876906  1
  Na  Na5  1  0.00588578  0.49331149  0.16123094  1
  Na  Na6  1  0.49280359  0.49880618  0.16461207  1
  Na  Na7  1  0.99280359  0.50119382  0.83538793  1
  Na  Na8  1  0.49395894  0.99665067  0.66718987  1
  Na  Na9  1  0.99395894  0.00334933  0.33281013  1
  Na  Na10  1  0.50584804  0.00298179  0.33492194  1
  Na  Na11  1  0.00584804  0.99701821  0.66507806  1
  Pb  Pb12  1  0.75436836  0.12957554  0.11934701  1
  Pb  Pb13  1  0.25436836  0.87042446  0.88065299  1
  Pb  Pb14  1  0.74914157  0.61711576  0.37365940  1
  Pb  Pb15  1  0.24914157  0.38288424  0.62634060  1
  Pb  Pb16  1  0.74844839  0.24913073  0.49937942  1
  Pb  Pb17  1  0.24844839  0.75086927  0.50062058  1
  Pb  Pb18  1  0.74888779  0.12460224  0.87455875  1
  Pb  Pb19  1  0.24888779  0.87539776  0.12544125  1
  S  S20  1  0.74964584  0.27853895  0.68949025  1
  S  S21  1  0.24964584  0.72146105  0.31050975  1
  S  S22  1  0.75134158  0.83000169  0.79377828  1
  S  S23  1  0.25134158  0.16999831  0.20622172  1
  S  S24  1  0.75204474  0.32614945  0.29620310  1
  S  S25  1  0.25204474  0.67385055  0.70379690  1
  S  S26  1  0.74911768  0.77530593  0.19371925  1
  S  S27  1  0.24911768  0.22469407  0.80628075  1
  S  S28  1  0.75131074  0.89741709  0.51869972  1
  S  S29  1  0.25131074  0.10258291  0.48130028  1
  S  S30  1  0.74608393  0.39382266  0.01805784  1
  S  S31  1  0.24608393  0.60617734  0.98194216  1
  Cl  Cl32  1  0.52179241  0.98557810  0.00013968  1
  Cl  Cl33  1  0.02179241  0.01442190  0.99986032  1
  Cl  Cl34  1  0.48140891  0.49352512  0.49355927  1
  Cl  Cl35  1  0.98140891  0.50647488  0.50644073  1
  O  O36  1  0.90952660  0.78784105  0.13910679  1
  O  O37  1  0.40952660  0.21215895  0.86089321  1
  O  O38  1  0.07341555  0.22588366  0.85252370  1
  O  O39  1  0.57341555  0.77411634  0.14747630  1
  O  O40  1  0.91808072  0.40182979  0.32638800  1
  O  O41  1  0.41808072  0.59817021  0.67361200  1
  O  O42  1  0.08088288  0.59740117  0.68019678  1
  O  O43  1  0.58088288  0.40259883  0.31980322  1
  O  O44  1  0.92416102  0.82772036  0.54534557  1
  O  O45  1  0.42416102  0.17227964  0.45465443  1
  O  O46  1  0.08693091  0.18481775  0.45752652  1
  O  O47  1  0.58693091  0.81518225  0.54247348  1
  O  O48  1  0.92057098  0.27385245  0.63917558  1
  O  O49  1  0.42057098  0.72614755  0.36082442  1
  O  O50  1  0.08584056  0.71603303  0.36502703  1
  O  O51  1  0.58584056  0.28396697  0.63497297  1
  O  O52  1  0.74809234  0.41444197  0.93343355  1
  O  O53  1  0.24809234  0.58555803  0.06656645  1
  O  O54  1  0.76441052  0.64091567  0.23276804  1
  O  O55  1  0.26441052  0.35908433  0.76723196  1
  O  O56  1  0.75676376  0.82688156  0.70875117  1
  O  O57  1  0.25676376  0.17311844  0.29124883  1
  O  O58  1  0.74933654  0.69545645  0.82808949  1
  O  O59  1  0.24933654  0.30454355  0.17191051  1
  O  O60  1  0.91729637  0.91006386  0.82261610  1
  O  O61  1  0.41729637  0.08993614  0.17738390  1
  O  O62  1  0.08157009  0.08982191  0.18172837  1
  O  O63  1  0.58157009  0.91017809  0.81827163  1
  O  O64  1  0.73912220  0.14867368  0.73211734  1
  O  O65  1  0.23912220  0.85132632  0.26788266  1
  O  O66  1  0.74915100  0.18843304  0.32727346  1
  O  O67  1  0.24915100  0.81156696  0.67272654  1
  O  O68  1  0.74941506  0.88409703  0.25162966  1
  O  O69  1  0.24941506  0.11590297  0.74837034  1
  O  O70  1  0.76099475  0.32447036  0.20974190  1
  O  O71  1  0.26099475  0.67552964  0.79025810  1
  O  O72  1  0.75147885  0.39356970  0.74240499  1
  O  O73  1  0.25147885  0.60643030  0.25759501  1
  O  O74  1  0.91738203  0.31734070  0.04338133  1
  O  O75  1  0.41738203  0.68265930  0.95661867  1
  O  O76  1  0.08007869  0.69053572  0.95907875  1
  O  O77  1  0.58007869  0.30946428  0.04092125  1
  O  O78  1  0.74104334  0.02883773  0.56173750  1
  O  O79  1  0.24104334  0.97116227  0.43826250  1
  O  O80  1  0.73957314  0.52229374  0.06067893  1
  O  O81  1  0.23957314  0.47770626  0.93932107  1
  O  O82  1  0.75316256  0.91985214  0.43445036  1
  O  O83  1  0.25316256  0.08014786  0.56554964  1
