# generated using pymatgen
data_KNaHf4(PO4)6
_symmetry_space_group_name_H-M   'P 1'
_cell_length_a   8.84326707
_cell_length_b   8.84326734
_cell_length_c   9.28548165
_cell_angle_alpha   89.99999996
_cell_angle_beta   61.56328138
_cell_angle_gamma   119.99999828
_symmetry_Int_Tables_number   1
_chemical_formula_structural   KNaHf4(PO4)6
_chemical_formula_sum   'K1 Na1 Hf4 P6 O24'
_cell_volume   525.26993368
_cell_formula_units_Z   1
loop_
 _symmetry_equiv_pos_site_id
 _symmetry_equiv_pos_as_xyz
  1  'x, y, z'
loop_
 _atom_site_type_symbol
 _atom_site_label
 _atom_site_symmetry_multiplicity
 _atom_site_fract_x
 _atom_site_fract_y
 _atom_site_fract_z
 _atom_site_occupancy
  K  K0  1  0.00000000  0.00000000  -0.00000000  1
  Na  Na1  1  0.00000000  0.50000000  0.50000000  1
  Hf  Hf2  1  0.29210534  0.64605267  0.06184199  1
  Hf  Hf3  1  0.29281469  0.14640735  0.56077796  1
  Hf  Hf4  1  0.70789466  0.35394733  0.93815801  1
  Hf  Hf5  1  0.70718531  0.85359265  0.43922204  1
  P  P6  1  0.50328630  0.46220746  0.74846228  1
  P  P7  1  0.21045887  0.74825141  0.74846228  1
  P  P8  1  0.78933026  0.04107885  0.74846228  1
  P  P9  1  0.78954113  0.25174859  0.25153772  1
  P  P10  1  0.21066974  0.95892115  0.25153772  1
  P  P11  1  0.49671370  0.53779254  0.25153772  1
  O  O12  1  0.37293084  0.49448804  0.91282409  1
  O  O13  1  0.20873312  0.71424507  0.91282409  1
  O  O14  1  0.59268786  0.87844279  0.91282409  1
  O  O15  1  0.59308529  0.21933583  0.41232581  1
  O  O16  1  0.21392474  0.99458891  0.41232581  1
  O  O17  1  0.36833836  0.37374946  0.41232581  1
  O  O18  1  0.62706916  0.50551196  0.08717591  1
  O  O19  1  0.79126688  0.28575493  0.08717591  1
  O  O20  1  0.40731214  0.12155721  0.08717591  1
  O  O21  1  0.40691471  0.78066417  0.58767419  1
  O  O22  1  0.78607526  0.00541109  0.58767419  1
  O  O23  1  0.63166164  0.62625054  0.58767419  1
  O  O24  1  0.35435932  0.28671328  0.72714492  1
  O  O25  1  0.20520904  0.91849576  0.72714492  1
  O  O26  1  0.98614180  0.06764604  0.72714492  1
  O  O27  1  0.98505891  0.42032883  0.23456485  1
  O  O28  1  0.20070508  0.78037625  0.23456485  1
  O  O29  1  0.34510632  0.56473007  0.23456485  1
  O  O30  1  0.64564068  0.71328672  0.27285508  1
  O  O31  1  0.79479096  0.08150424  0.27285508  1
  O  O32  1  0.01385820  0.93235396  0.27285508  1
  O  O33  1  0.01494109  0.57967117  0.76543515  1
  O  O34  1  0.79929492  0.21962375  0.76543515  1
  O  O35  1  0.65489368  0.43526993  0.76543515  1
