# generated using pymatgen
data_KNb4Ag(PS10)2
_symmetry_space_group_name_H-M   'P 1'
_cell_length_a   7.24379495
_cell_length_b   7.39533391
_cell_length_c   13.08413886
_cell_angle_alpha   89.57566762
_cell_angle_beta   76.34103043
_cell_angle_gamma   88.65216938
_symmetry_Int_Tables_number   1
_chemical_formula_structural   KNb4Ag(PS10)2
_chemical_formula_sum   'K1 Nb4 Ag1 P2 S20'
_cell_volume   680.90821675
_cell_formula_units_Z   1
loop_
 _symmetry_equiv_pos_site_id
 _symmetry_equiv_pos_as_xyz
  1  'x, y, z'
loop_
 _atom_site_type_symbol
 _atom_site_label
 _atom_site_symmetry_multiplicity
 _atom_site_fract_x
 _atom_site_fract_y
 _atom_site_fract_z
 _atom_site_occupancy
  K  K0  1  0.57071661  0.50009493  0.41847536  1
  Nb  Nb1  1  0.00225477  0.06705637  0.89408586  1
  Nb  Nb2  1  0.99793657  0.93364983  0.10489364  1
  Nb  Nb3  1  0.00111686  0.06704417  0.60584510  1
  Nb  Nb4  1  0.99856266  0.93314464  0.39577713  1
  Ag  Ag5  1  0.50227005  0.50005543  0.99908331  1
  P  P6  1  0.79200663  0.38794382  0.77644191  1
  P  P7  1  0.20558326  0.61416022  0.22285411  1
  S  S8  1  0.25153275  0.10687366  0.71658405  1
  S  S9  1  0.74758109  0.89486194  0.28269345  1
  S  S10  1  0.74472982  0.10853500  0.78286105  1
  S  S11  1  0.25560329  0.89148670  0.21732408  1
  S  S12  1  0.71947210  0.08346222  0.04949531  1
  S  S13  1  0.28094377  0.91613876  0.95021400  1
  S  S14  1  0.12642649  0.85796405  0.73406848  1
  S  S15  1  0.87410628  0.14258368  0.26679602  1
  S  S16  1  0.78475281  0.82770386  0.99111955  1
  S  S17  1  0.21582967  0.17193279  0.00833014  1
  S  S18  1  0.55513792  0.54453583  0.80739481  1
  S  S19  1  0.44309146  0.45575351  0.19201116  1
  S  S20  1  0.95484909  0.41536322  0.88433235  1
  S  S21  1  0.04384221  0.58344813  0.11558891  1
  S  S22  1  0.77731289  0.82989683  0.56641782  1
  S  S23  1  0.22180141  0.16820505  0.43429166  1
  S  S24  1  0.72249825  0.08740500  0.52160215  1
  S  S25  1  0.27702557  0.91146653  0.48043450  1
  S  S26  1  0.94724259  0.41736397  0.62368467  1
  S  S27  1  0.05437313  0.58166983  0.37699943  1
