# generated using pymatgen
data_LaCe(Mo3S4)4
_symmetry_space_group_name_H-M   'P 1'
_cell_length_a   6.52367975
_cell_length_b   6.51898801
_cell_length_c   13.06453241
_cell_angle_alpha   88.83063251
_cell_angle_beta   88.79840227
_cell_angle_gamma   88.87179168
_symmetry_Int_Tables_number   1
_chemical_formula_structural   LaCe(Mo3S4)4
_chemical_formula_sum   'La1 Ce1 Mo12 S16'
_cell_volume   555.26470459
_cell_formula_units_Z   1
loop_
 _symmetry_equiv_pos_site_id
 _symmetry_equiv_pos_as_xyz
  1  'x, y, z'
loop_
 _atom_site_type_symbol
 _atom_site_label
 _atom_site_symmetry_multiplicity
 _atom_site_fract_x
 _atom_site_fract_y
 _atom_site_fract_z
 _atom_site_occupancy
  La  La0  1  -0.00000000  0.00000000  0.50000000  1
  Ce  Ce1  1  -0.00000000  0.00000000  0.00000000  1
  Mo  Mo2  1  0.57978861  0.77414300  0.21788697  1
  Mo  Mo3  1  0.58114707  0.77442959  0.71922750  1
  Mo  Mo4  1  0.77362079  0.43656476  0.28965915  1
  Mo  Mo5  1  0.77497516  0.43703954  0.79072296  1
  Mo  Mo6  1  0.43599973  0.58046152  0.38682101  1
  Mo  Mo7  1  0.43693408  0.58097592  0.88849873  1
  Mo  Mo8  1  0.41885293  0.22557041  0.28077250  1
  Mo  Mo9  1  0.42021139  0.22585700  0.78211303  1
  Mo  Mo10  1  0.22502484  0.56296046  0.20927704  1
  Mo  Mo11  1  0.22637921  0.56343524  0.71034085  1
  Mo  Mo12  1  0.56306592  0.41902408  0.11150127  1
  Mo  Mo13  1  0.56400027  0.41953848  0.61317899  1
  S  S14  1  0.62354577  0.25027332  0.43658921  1
  S  S15  1  0.62714098  0.24818640  0.93727847  1
  S  S16  1  0.25062760  0.87349924  0.31189896  1
  S  S17  1  0.24768211  0.87389114  0.81379562  1
  S  S18  1  0.87346855  0.62670623  0.12313622  1
  S  S19  1  0.87416301  0.62368903  0.62545226  1
  S  S20  1  0.37285902  0.75181360  0.06272153  1
  S  S21  1  0.37645423  0.74972668  0.56341079  1
  S  S22  1  0.75231789  0.12610886  0.18620438  1
  S  S23  1  0.74937240  0.12650076  0.68810104  1
  S  S24  1  0.12583699  0.37631097  0.37454774  1
  S  S25  1  0.12653145  0.37329377  0.87686378  1
  S  S26  1  0.75542728  0.75604508  0.37775168  1
  S  S27  1  0.75769519  0.75862323  0.87962046  1
  S  S28  1  0.24230481  0.24137677  0.12037954  1
  S  S29  1  0.24457272  0.24395492  0.62224832  1
