# generated using pymatgen
data_Mn26As18CO57
_symmetry_space_group_name_H-M   'P 1'
_cell_length_a   9.00143538
_cell_length_b   13.68430432
_cell_length_c   13.68145450
_cell_angle_alpha   59.97829231
_cell_angle_beta   89.99101430
_cell_angle_gamma   89.99513203
_symmetry_Int_Tables_number   1
_chemical_formula_structural   Mn26As18CO57
_chemical_formula_sum   'Mn26 As18 C1 O57'
_cell_volume   1459.15809460
_cell_formula_units_Z   1
loop_
 _symmetry_equiv_pos_site_id
 _symmetry_equiv_pos_as_xyz
  1  'x, y, z'
loop_
 _atom_site_type_symbol
 _atom_site_label
 _atom_site_symmetry_multiplicity
 _atom_site_fract_x
 _atom_site_fract_y
 _atom_site_fract_z
 _atom_site_occupancy
  Mn  Mn0  1  0.34897660  0.32161071  0.09342537  1
  Mn  Mn1  1  0.34891283  0.58501213  0.32163081  1
  Mn  Mn2  1  0.34934659  0.09334392  0.58507753  1
  Mn  Mn3  1  0.65016018  0.67841643  0.90673085  1
  Mn  Mn4  1  0.65021630  0.41487646  0.67836171  1
  Mn  Mn5  1  0.65022229  0.90671597  0.41490461  1
  Mn  Mn6  1  0.30412684  0.82549372  0.33562597  1
  Mn  Mn7  1  0.30430261  0.83882381  0.82546410  1
  Mn  Mn8  1  0.30418477  0.33568624  0.83881329  1
  Mn  Mn9  1  0.69654596  0.17441968  0.66472797  1
  Mn  Mn10  1  0.69647278  0.16091702  0.17438858  1
  Mn  Mn11  1  0.69644568  0.66469439  0.16088624  1
  Mn  Mn12  1  0.29752343  0.33333814  0.33332735  1
  Mn  Mn13  1  0.70118004  0.66666422  0.66667985  1
  Mn  Mn14  1  0.00312906  0.99358363  0.25059817  1
  Mn  Mn15  1  0.00374236  0.75609753  0.99381085  1
  Mn  Mn16  1  0.00347711  0.25039711  0.75585381  1
  Mn  Mn17  1  0.99649668  0.00107121  0.75307640  1
  Mn  Mn18  1  0.99637419  0.24582774  0.00094704  1
  Mn  Mn19  1  0.99627150  0.75308568  0.24585514  1
  Mn  Mn20  1  0.30922561  0.08038675  0.32932760  1
  Mn  Mn21  1  0.30920424  0.59027092  0.08046339  1
  Mn  Mn22  1  0.30900822  0.32942477  0.59009038  1
  Mn  Mn23  1  0.69028209  0.91972384  0.67040286  1
  Mn  Mn24  1  0.69019264  0.40972614  0.91978181  1
  Mn  Mn25  1  0.69019978  0.67042866  0.40980564  1
  As  As26  1  0.34754331  0.09492558  0.09551016  1
  As  As27  1  0.34752262  0.80960417  0.09491965  1
  As  As28  1  0.34748558  0.09548604  0.80963079  1
  As  As29  1  0.65265883  0.90558789  0.90418601  1
  As  As30  1  0.65265680  0.19020178  0.90562663  1
  As  As31  1  0.65265830  0.90420180  0.19020579  1
  As  As32  1  0.37730827  0.58473826  0.58441000  1
  As  As33  1  0.37729762  0.83086362  0.58476747  1
  As  As34  1  0.37731778  0.58441722  0.83084470  1
  As  As35  1  0.62242134  0.41476812  0.41574681  1
  As  As36  1  0.62250341  0.16950214  0.41471913  1
  As  As37  1  0.62241917  0.41574661  0.16947666  1
  As  As38  1  0.01224821  0.19517690  0.28915254  1
  As  As39  1  0.01225396  0.51567422  0.19518772  1
  As  As40  1  0.01232460  0.28910028  0.51565385  1
  As  As41  1  0.98678890  0.80421320  0.70706643  1
  As  As42  1  0.98675911  0.48873838  0.80420329  1
  As  As43  1  0.98675362  0.70702441  0.48874030  1
  C  C44  1  0.99982046  0.00003233  -0.00007856  1
  O  O45  1  0.37418592  0.43364109  0.65325949  1
  O  O46  1  0.37422740  0.91309744  0.43365769  1
  O  O47  1  0.37424759  0.65328103  0.91307828  1
  O  O48  1  0.62713165  0.56572902  0.34680037  1
  O  O49  1  0.62700080  0.08747446  0.56572970  1
  O  O50  1  0.62713199  0.34680833  0.08745912  1
  O  O51  1  0.07632848  0.05404905  0.36625026  1
  O  O52  1  0.07640432  0.57973450  0.05405665  1
  O  O53  1  0.07632619  0.36622028  0.57968954  1
  O  O54  1  0.92274616  0.94561639  0.63387516  1
  O  O55  1  0.92279439  0.42044630  0.94562973  1
  O  O56  1  0.92277817  0.63390131  0.42047711  1
  O  O57  1  0.23878316  0.00505662  0.21740776  1
  O  O58  1  0.23878778  0.77759379  0.00503475  1
  O  O59  1  0.23875505  0.21739659  0.77752473  1
  O  O60  1  0.76035640  0.99597424  0.78167534  1
  O  O61  1  0.76032905  0.22235718  0.99598003  1
  O  O62  1  0.76027684  0.78167479  0.22235326  1
  O  O63  1  0.19704006  0.25661454  0.23892713  1
  O  O64  1  0.19704064  0.50444809  0.25664897  1
  O  O65  1  0.19714966  0.23890722  0.50449894  1
  O  O66  1  0.80256057  0.74300954  0.76059761  1
  O  O67  1  0.80251545  0.49634425  0.74306584  1
  O  O68  1  0.80252224  0.76056189  0.49636726  1
  O  O69  1  0.94206787  0.17463777  0.17378307  1
  O  O70  1  0.94205308  0.65157273  0.17464160  1
  O  O71  1  0.94213519  0.17375288  0.65161667  1
  O  O72  1  0.06221659  0.81999503  0.82327862  1
  O  O73  1  0.06221081  0.35676755  0.81992676  1
  O  O74  1  0.06221964  0.82328261  0.35679042  1
  O  O75  1  0.58023319  0.59204253  0.57466682  1
  O  O76  1  0.58023787  0.83323985  0.59207397  1
  O  O77  1  0.58023850  0.57465057  0.83327249  1
  O  O78  1  0.41948377  0.40789912  0.42536184  1
  O  O79  1  0.41958365  0.16684157  0.40780208  1
  O  O80  1  0.41948121  0.42534758  0.16674841  1
  O  O81  1  0.45490968  0.14870000  0.17174531  1
  O  O82  1  0.45488186  0.67960106  0.14867222  1
  O  O83  1  0.45496221  0.17171419  0.67966858  1
  O  O84  1  0.54492712  0.85196740  0.82794286  1
  O  O85  1  0.54489024  0.32007045  0.85195512  1
  O  O86  1  0.54487919  0.82797124  0.32007747  1
  O  O87  1  0.32863762  0.63577354  0.44159722  1
  O  O88  1  0.32870356  0.92266080  0.63575674  1
  O  O89  1  0.32863916  0.44160850  0.92262187  1
  O  O90  1  0.67175700  0.36364312  0.55853518  1
  O  O91  1  0.67178408  0.07777943  0.36367626  1
  O  O92  1  0.67171870  0.55853877  0.07780377  1
  O  O93  1  0.23590340  0.22252492  0.02363584  1
  O  O94  1  0.23584644  0.75380407  0.22251683  1
  O  O95  1  0.23592494  0.02365397  0.75382910  1
  O  O96  1  0.76318805  0.77753276  0.97582019  1
  O  O97  1  0.76314480  0.24666310  0.77753302  1
  O  O98  1  0.76316042  0.97580453  0.24667479  1
  O  O99  1  0.99985828  0.94286137  0.10983862  1
  O  O100  1  0.99986923  0.94728696  0.94283646  1
  O  O101  1  0.99987040  0.10983234  0.94722835  1
