# generated using pymatgen
data_La6Cr(GeS7)2
_symmetry_space_group_name_H-M   'P 1'
_cell_length_a   5.87430349
_cell_length_b   10.34614431
_cell_length_c   10.34929971
_cell_angle_alpha   60.04781298
_cell_angle_beta   90.14240075
_cell_angle_gamma   89.99736125
_symmetry_Int_Tables_number   1
_chemical_formula_structural   La6Cr(GeS7)2
_chemical_formula_sum   'La6 Cr1 Ge2 S14'
_cell_volume   544.98396762
_cell_formula_units_Z   1
loop_
 _symmetry_equiv_pos_site_id
 _symmetry_equiv_pos_as_xyz
  1  'x, y, z'
loop_
 _atom_site_type_symbol
 _atom_site_label
 _atom_site_symmetry_multiplicity
 _atom_site_fract_x
 _atom_site_fract_y
 _atom_site_fract_z
 _atom_site_occupancy
  La  La0  1  0.24731482  0.22957010  0.12652934  1
  La  La1  1  0.24758398  0.64348910  0.22983125  1
  La  La2  1  0.24757207  0.12722018  0.64352484  1
  La  La3  1  0.74879495  0.77150269  0.87258200  1
  La  La4  1  0.74977771  0.35616761  0.77177727  1
  La  La5  1  0.74891817  0.87184860  0.35613195  1
  Cr  Cr6  1  0.47894727  0.99972662  -0.00005810  1
  Ge  Ge7  1  0.83206028  0.33350807  0.33315746  1
  Ge  Ge8  1  0.33703901  0.66671470  0.66646195  1
  S  S9  1  0.70989599  0.15176695  0.08650785  1
  S  S10  1  0.71166602  0.75976781  0.15323519  1
  S  S11  1  0.70937300  0.08663209  0.76190109  1
  S  S12  1  0.24500811  0.84554436  0.91517809  1
  S  S13  1  0.24198777  0.24129382  0.84440569  1
  S  S14  1  0.24536627  0.91542144  0.23911919  1
  S  S15  1  0.45785948  0.33332419  0.33322797  1
  S  S16  1  0.96229740  0.66678238  0.66647535  1
  S  S17  1  0.98150264  0.10611679  0.41295478  1
  S  S18  1  0.98093395  0.48054538  0.10653008  1
  S  S19  1  0.98137070  0.41308799  0.48070803  1
  S  S20  1  0.48563438  0.89391534  0.58516940  1
  S  S21  1  0.48637893  0.52066870  0.89402062  1
  S  S22  1  0.48571711  0.58538509  0.52062873  1
