# generated using pymatgen
data_La14Zn45Si
_symmetry_space_group_name_H-M   'P 1'
_cell_length_a   4.52111257
_cell_length_b   15.56193618
_cell_length_c   17.42011336
_cell_angle_alpha   90.18404842
_cell_angle_beta   90.00000000
_cell_angle_gamma   90.00000000
_symmetry_Int_Tables_number   1
_chemical_formula_structural   La14Zn45Si
_chemical_formula_sum   'La14 Zn45 Si1'
_cell_volume   1225.62521326
_cell_formula_units_Z   1
loop_
 _symmetry_equiv_pos_site_id
 _symmetry_equiv_pos_as_xyz
  1  'x, y, z'
loop_
 _atom_site_type_symbol
 _atom_site_label
 _atom_site_symmetry_multiplicity
 _atom_site_fract_x
 _atom_site_fract_y
 _atom_site_fract_z
 _atom_site_occupancy
  La  La0  1  -0.00000000  0.66369789  0.04574476  1
  La  La1  1  -0.00000000  0.33485520  0.95554092  1
  La  La2  1  -0.00000000  0.16649693  0.45579944  1
  La  La3  1  -0.00000000  0.83512432  0.54356903  1
  La  La4  1  0.50000000  0.91531333  0.24435964  1
  La  La5  1  0.50000000  0.08399530  0.75551510  1
  La  La6  1  0.50000000  0.41960768  0.26012799  1
  La  La7  1  0.50000000  0.58358009  0.74499551  1
  La  La8  1  0.50000000  0.50029970  0.49136358  1
  La  La9  1  0.50000000  0.00018018  0.99948520  1
  La  La10  1  0.50000000  0.66498186  0.31911307  1
  La  La11  1  0.50000000  0.33188142  0.68187734  1
  La  La12  1  0.50000000  0.16840236  0.18200355  1
  La  La13  1  0.50000000  0.83211571  0.81830203  1
  Zn  Zn14  1  -0.00000000  0.75686486  0.21771797  1
  Zn  Zn15  1  -0.00000000  0.24223883  0.78282602  1
  Zn  Zn16  1  -0.00000000  0.25842543  0.28298715  1
  Zn  Zn17  1  -0.00000000  0.74177520  0.71673268  1
  Zn  Zn18  1  0.50000000  0.80045468  0.00620296  1
  Zn  Zn19  1  0.50000000  0.20005994  0.99501044  1
  Zn  Zn20  1  0.50000000  0.30222829  0.49479892  1
  Zn  Zn21  1  0.50000000  0.70014435  0.50537584  1
  Zn  Zn22  1  0.00000000  0.80516538  0.35759038  1
  Zn  Zn23  1  0.00000000  0.19482523  0.64229608  1
  Zn  Zn24  1  -0.00000000  0.30536172  0.14277439  1
  Zn  Zn25  1  -0.00000000  0.69478408  0.85801544  1
  Zn  Zn26  1  0.50000000  0.57391819  0.14146624  1
  Zn  Zn27  1  0.50000000  0.42524618  0.85943226  1
  Zn  Zn28  1  0.50000000  0.07426247  0.35898412  1
  Zn  Zn29  1  0.50000000  0.92591098  0.64057878  1
  Zn  Zn30  1  -0.00000000  0.57463127  0.21688697  1
  Zn  Zn31  1  -0.00000000  0.42479983  0.78416542  1
  Zn  Zn32  1  -0.00000000  0.07504630  0.28430883  1
  Zn  Zn33  1  -0.00000000  0.92530789  0.71492504  1
  Zn  Zn34  1  0.50000000  0.74999245  0.14635206  1
  Zn  Zn35  1  0.50000000  0.25019740  0.85386589  1
  Zn  Zn36  1  0.50000000  0.25178131  0.35388922  1
  Zn  Zn37  1  0.50000000  0.75012382  0.64593611  1
  Zn  Zn38  1  -0.00000000  0.86408896  0.09969784  1
  Zn  Zn39  1  -0.00000000  0.13458582  0.90096646  1
  Zn  Zn40  1  -0.00000000  0.36548812  0.40045551  1
  Zn  Zn41  1  0.00000000  0.63339375  0.59860889  1
  Zn  Zn42  1  -0.00000000  0.96755635  0.40071668  1
  Zn  Zn43  1  -0.00000000  0.03273025  0.59875385  1
  Zn  Zn44  1  -0.00000000  0.46615366  0.09995545  1
  Zn  Zn45  1  0.00000000  0.53254703  0.90059097  1
  Zn  Zn46  1  -0.00000000  0.65105662  0.44745760  1
  Zn  Zn47  1  -0.00000000  0.34842497  0.55201461  1
  Zn  Zn48  1  -0.00000000  0.15266324  0.05208378  1
  Zn  Zn49  1  -0.00000000  0.84713907  0.94838693  1
  Zn  Zn50  1  0.50000000  0.85133439  0.41834278  1
  Zn  Zn51  1  0.50000000  0.14861070  0.58142413  1
  Zn  Zn52  1  0.50000000  0.35228174  0.08273796  1
  Zn  Zn53  1  0.50000000  0.64915788  0.91854105  1
  Zn  Zn54  1  0.50000000  0.50009071  0.00000180  1
  Zn  Zn55  1  0.50000000  0.99995554  0.49987838  1
  Zn  Zn56  1  -0.00000000  0.47839962  0.64273771  1
  Zn  Zn57  1  -0.00000000  0.02186533  0.14218944  1
  Zn  Zn58  1  0.00000000  0.97735120  0.85680990  1
  Si  Si59  1  -0.00000000  0.52104699  0.35673191  1
