# generated using pymatgen
data_HoGaAu
_symmetry_space_group_name_H-M   'P 1'
_cell_length_a   4.51325895
_cell_length_b   5.78345247
_cell_length_c   5.68878884
_cell_angle_alpha   94.23581331
_cell_angle_beta   113.37080054
_cell_angle_gamma   67.03384816
_symmetry_Int_Tables_number   1
_chemical_formula_structural   HoGaAu
_chemical_formula_sum   'Ho2 Ga2 Au2'
_cell_volume   124.92659356
_cell_formula_units_Z   2
loop_
 _symmetry_equiv_pos_site_id
 _symmetry_equiv_pos_as_xyz
  1  'x, y, z'
loop_
 _atom_site_type_symbol
 _atom_site_label
 _atom_site_symmetry_multiplicity
 _atom_site_fract_x
 _atom_site_fract_y
 _atom_site_fract_z
 _atom_site_occupancy
  Ho  Ho0  1  0.75881103  0.70384181  0.22146386  1
  Ho  Ho1  1  0.24118897  0.29615819  0.77853614  1
  Ga  Ga2  1  0.04999480  0.10889092  0.20888052  1
  Ga  Ga3  1  0.95000520  0.89110908  0.79111948  1
  Au  Au4  1  0.54153570  0.28121530  0.36428670  1
  Au  Au5  1  0.45846430  0.71878470  0.63571330  1
