# generated using pymatgen
data_Gd3YV4O16
_symmetry_space_group_name_H-M   'P 1'
_cell_length_a   6.05998513
_cell_length_b   6.05998513
_cell_length_c   10.28118211
_cell_angle_alpha   90.00000000
_cell_angle_beta   90.00000000
_cell_angle_gamma   116.06519791
_symmetry_Int_Tables_number   1
_chemical_formula_structural   Gd3YV4O16
_chemical_formula_sum   'Gd3 Y1 V4 O16'
_cell_volume   339.16027146
_cell_formula_units_Z   1
loop_
 _symmetry_equiv_pos_site_id
 _symmetry_equiv_pos_as_xyz
  1  'x, y, z'
loop_
 _atom_site_type_symbol
 _atom_site_label
 _atom_site_symmetry_multiplicity
 _atom_site_fract_x
 _atom_site_fract_y
 _atom_site_fract_z
 _atom_site_occupancy
  Gd  Gd0  1  0.25000000  0.50000000  0.62500000  1
  Gd  Gd1  1  0.75000000  0.50000000  0.37439909  1
  Gd  Gd2  1  0.25000000  0.00000000  0.87560091  1
  Y  Y3  1  0.75000000  0.00000000  0.12500000  1
  V  V4  1  0.25000000  0.00000000  0.37337315  1
  V  V5  1  0.75000000  0.50000000  0.87662685  1
  V  V6  1  0.25000000  0.50000000  0.12500000  1
  V  V7  1  0.75000000  0.00000000  0.62500000  1
  O  O8  1  0.98394147  0.91972021  0.28177266  1
  O  O9  1  0.48540212  0.41786140  0.78409999  1
  O  O10  1  0.16590765  0.23338690  0.03370026  1
  O  O11  1  0.66786780  0.73437013  0.53326320  1
  O  O12  1  0.98338690  0.41590765  0.21629974  1
  O  O13  1  0.48437013  0.91786780  0.71673680  1
  O  O14  1  0.16786140  0.73540212  0.46590001  1
  O  O15  1  0.66972021  0.23394147  0.96822734  1
  O  O16  1  0.51661310  0.58409235  0.21629974  1
  O  O17  1  0.01562987  0.08213220  0.71673680  1
  O  O18  1  0.33213860  0.26459788  0.46590001  1
  O  O19  1  0.83027979  0.76605853  0.96822734  1
  O  O20  1  0.51605853  0.08027979  0.28177266  1
  O  O21  1  0.01459788  0.58213860  0.78409999  1
  O  O22  1  0.33409235  0.76661310  0.03370026  1
  O  O23  1  0.83213220  0.26562987  0.53326320  1
