# generated using pymatgen
data_K3Er7S12
_symmetry_space_group_name_H-M   'P 1'
_cell_length_a   3.96379674
_cell_length_b   11.89950002
_cell_length_c   24.73478897
_cell_angle_alpha   90.00000000
_cell_angle_beta   90.00000000
_cell_angle_gamma   90.00000000
_symmetry_Int_Tables_number   1
_chemical_formula_structural   K3Er7S12
_chemical_formula_sum   'K6 Er14 S24'
_cell_volume   1166.67072314
_cell_formula_units_Z   2
loop_
 _symmetry_equiv_pos_site_id
 _symmetry_equiv_pos_as_xyz
  1  'x, y, z'
loop_
 _atom_site_type_symbol
 _atom_site_label
 _atom_site_symmetry_multiplicity
 _atom_site_fract_x
 _atom_site_fract_y
 _atom_site_fract_z
 _atom_site_occupancy
  K  K0  1  0.50000000  0.80191084  0.13487216  1
  K  K1  1  0.50000000  0.19536354  0.86413323  1
  K  K2  1  0.00000000  0.30463646  0.36413323  1
  K  K3  1  0.00000000  0.69808916  0.63487216  1
  K  K4  1  0.50000000  0.06720531  0.46847273  1
  K  K5  1  -0.00000000  0.43279469  0.96847273  1
  Er  Er6  1  0.50000000  0.56079280  0.82031797  1
  Er  Er7  1  0.50000000  0.44218282  0.17851490  1
  Er  Er8  1  0.00000000  0.05781718  0.67851490  1
  Er  Er9  1  0.00000000  0.93920720  0.32031797  1
  Er  Er10  1  0.00000000  0.50135514  0.50018589  1
  Er  Er11  1  0.50000000  0.99864486  0.00018589  1
  Er  Er12  1  0.50000000  0.72989244  0.42156249  1
  Er  Er13  1  0.50000000  0.27023672  0.58030044  1
  Er  Er14  1  0.00000000  0.22976328  0.08030044  1
  Er  Er15  1  0.00000000  0.77010756  0.92156249  1
  Er  Er16  1  0.50000000  0.89507682  0.78843114  1
  Er  Er17  1  0.50000000  0.10548107  0.21088043  1
  Er  Er18  1  -0.00000000  0.39451893  0.71088043  1
  Er  Er19  1  -0.00000000  0.60492318  0.28843114  1
  S  S20  1  0.50000000  0.77026422  0.30763465  1
  S  S21  1  0.50000000  0.23012710  0.69259651  1
  S  S22  1  -0.00000000  0.26987290  0.19259651  1
  S  S23  1  -0.00000000  0.72973578  0.80763465  1
  S  S24  1  0.50000000  0.90592469  0.67841540  1
  S  S25  1  0.50000000  0.09443871  0.32306991  1
  S  S26  1  -0.00000000  0.40556129  0.82306991  1
  S  S27  1  -0.00000000  0.59407531  0.17841540  1
  S  S28  1  0.50000000  0.65207959  0.52231521  1
  S  S29  1  0.50000000  0.34440796  0.47711715  1
  S  S30  1  -0.00000000  0.15559204  0.97711715  1
  S  S31  1  0.00000000  0.84792041  0.02231521  1
  S  S32  1  0.50000000  0.61409279  0.92624086  1
  S  S33  1  0.50000000  0.38504335  0.07260391  1
  S  S34  1  0.00000000  0.11495665  0.57260391  1
  S  S35  1  0.00000000  0.88590721  0.42624086  1
  S  S36  1  0.50000000  0.54434797  0.71274583  1
  S  S37  1  0.50000000  0.45512755  0.28730807  1
  S  S38  1  -0.00000000  0.04487245  0.78730807  1
  S  S39  1  -0.00000000  0.95565203  0.21274583  1
  S  S40  1  0.50000000  0.92074708  0.89787269  1
  S  S41  1  0.50000000  0.07833668  0.10230845  1
  S  S42  1  0.00000000  0.42166332  0.60230845  1
  S  S43  1  -0.00000000  0.57925292  0.39787269  1
