# generated using pymatgen
data_K3Ti8O17
_symmetry_space_group_name_H-M   'P 1'
_cell_length_a   3.83459615
_cell_length_b   8.13839592
_cell_length_c   12.20193312
_cell_angle_alpha   95.12157076
_cell_angle_beta   90.00000000
_cell_angle_gamma   76.37378632
_symmetry_Int_Tables_number   1
_chemical_formula_structural   K3Ti8O17
_chemical_formula_sum   'K3 Ti8 O17'
_cell_volume   368.50883257
_cell_formula_units_Z   1
loop_
 _symmetry_equiv_pos_site_id
 _symmetry_equiv_pos_as_xyz
  1  'x, y, z'
loop_
 _atom_site_type_symbol
 _atom_site_label
 _atom_site_symmetry_multiplicity
 _atom_site_fract_x
 _atom_site_fract_y
 _atom_site_fract_z
 _atom_site_occupancy
  K  K0  1  0.55764933  0.88470134  0.16944663  1
  K  K1  1  0.44307924  0.11384152  0.82560019  1
  K  K2  1  0.51062389  0.97875222  0.46305483  1
  Ti  Ti3  1  0.84728832  0.30542336  0.32437628  1
  Ti  Ti4  1  0.15187148  0.69625704  0.67455590  1
  Ti  Ti5  1  0.75769133  0.48461734  0.83004069  1
  Ti  Ti6  1  0.24192373  0.51615254  0.17013456  1
  Ti  Ti7  1  0.88822947  0.22354107  0.06945570  1
  Ti  Ti8  1  0.11141993  0.77716015  0.92948127  1
  Ti  Ti9  1  0.80377156  0.39245689  0.57833667  1
  Ti  Ti10  1  0.19874513  0.60250974  0.42270802  1
  O  O11  1  0.82845767  0.34308465  0.93556351  1
  O  O12  1  0.17154683  0.65690633  0.06472382  1
  O  O13  1  0.72492294  0.55015413  0.43286814  1
  O  O14  1  0.27505041  0.44989918  0.56654301  1
  O  O15  1  0.63783010  0.72433980  0.91316982  1
  O  O16  1  0.36212879  0.27574241  0.08769201  1
  O  O17  1  0.68606544  0.62786912  0.67454680  1
  O  O18  1  0.31447005  0.37105990  0.32526605  1
  O  O19  1  0.89246944  0.21506111  0.46312416  1
  O  O20  1  0.10809103  0.78381794  0.53564737  1
  O  O21  1  0.00000041  -0.00000081  0.00017888  1
  O  O22  1  0.85023500  0.29953001  0.70852319  1
  O  O23  1  0.14865600  0.70268800  0.29381602  1
  O  O24  1  0.77054654  0.45890693  0.18661005  1
  O  O25  1  0.22911443  0.54177113  0.81356919  1
  O  O26  1  0.93726043  0.12547914  0.22566352  1
  O  O27  1  0.06376109  0.87247783  0.77632372  1
