# generated using pymatgen
data_MgNiB2P2(H3O4)4
_symmetry_space_group_name_H-M   'P 1'
_cell_length_a   9.86391928
_cell_length_b   9.86274185
_cell_length_c   9.86561281
_cell_angle_alpha   99.17125326
_cell_angle_beta   99.16498458
_cell_angle_gamma   99.18871952
_symmetry_Int_Tables_number   1
_chemical_formula_structural   MgNiB2P2(H3O4)4
_chemical_formula_sum   'Mg3 Ni3 B6 P6 H36 O48'
_cell_volume   918.39314965
_cell_formula_units_Z   3
loop_
 _symmetry_equiv_pos_site_id
 _symmetry_equiv_pos_as_xyz
  1  'x, y, z'
loop_
 _atom_site_type_symbol
 _atom_site_label
 _atom_site_symmetry_multiplicity
 _atom_site_fract_x
 _atom_site_fract_y
 _atom_site_fract_z
 _atom_site_occupancy
  Mg  Mg0  1  0.24942871  0.75002814  0.25061289  1
  Mg  Mg1  1  0.74995968  0.25055652  0.24940810  1
  Mg  Mg2  1  0.25059248  0.24939286  0.75001817  1
  Ni  Ni3  1  0.75000403  0.75003069  0.25001526  1
  Ni  Ni4  1  0.75001590  0.24994875  0.74997267  1
  Ni  Ni5  1  0.25004333  0.75000076  0.75000032  1
  B  B6  1  0.44079377  0.05919255  0.25001397  1
  B  B7  1  0.05917941  0.24999759  0.44080700  1
  B  B8  1  0.24998953  0.44082087  0.05920892  1
  B  B9  1  0.94111065  0.74998794  0.55891261  1
  B  B10  1  0.75004950  0.55890226  0.94109956  1
  B  B11  1  0.55886453  0.94110735  0.74996955  1
  P  P12  1  0.06000278  0.44001103  0.25002029  1
  P  P13  1  0.43998990  0.25001185  0.05999648  1
  P  P14  1  0.24997448  0.06000197  0.44000939  1
  P  P15  1  0.55946218  0.75000780  0.94049814  1
  P  P16  1  0.74999792  0.94047081  0.55948145  1
  P  P17  1  0.94061992  0.55943788  0.74999623  1
  H  H18  1  0.52318215  0.20208683  0.54160958  1
  H  H19  1  0.20213814  0.54176133  0.52309877  1
  H  H20  1  0.54176575  0.52319694  0.20216376  1
  H  H21  1  0.01906278  0.03913175  0.70298815  1
  H  H22  1  0.03896199  0.70300819  0.01896134  1
  H  H23  1  0.70289448  0.01903482  0.03886599  1
  H  H24  1  0.48097920  0.79706715  0.46110573  1
  H  H25  1  0.79700730  0.46101156  0.48105505  1
  H  H26  1  0.46087846  0.48093737  0.79702077  1
  H  H27  1  0.97678226  0.95823598  0.29784235  1
  H  H28  1  0.95822195  0.29786017  0.97688292  1
  H  H29  1  0.29791884  0.97684946  0.95843902  1
  H  H30  1  0.02805839  0.33371645  0.63204469  1
  H  H31  1  0.33381990  0.63214176  0.02807196  1
  H  H32  1  0.63208460  0.02813969  0.33378787  1
  H  H33  1  0.52809562  0.13330052  0.83478157  1
  H  H34  1  0.13327956  0.83495486  0.52812568  1
  H  H35  1  0.83482028  0.52805252  0.13320858  1
  H  H36  1  0.97195145  0.66512314  0.36681292  1
  H  H37  1  0.66512529  0.36668427  0.97184601  1
  H  H38  1  0.36671369  0.97188162  0.66514473  1
  H  H39  1  0.47191365  0.86792683  0.16624535  1
  H  H40  1  0.86781957  0.16614732  0.47186276  1
  H  H41  1  0.16628995  0.47195281  0.86798431  1
  H  H42  1  0.63042436  0.33164689  0.52281824  1
  H  H43  1  0.33151983  0.52279548  0.63035778  1
  H  H44  1  0.52283401  0.63042758  0.33162736  1
  H  H45  1  0.12648838  0.02083978  0.83190544  1
  H  H46  1  0.02087144  0.83192711  0.12645501  1
  H  H47  1  0.83194565  0.12651026  0.02083794  1
  H  H48  1  0.37350771  0.66802495  0.47915724  1
  H  H49  1  0.66815839  0.47919450  0.37354165  1
  H  H50  1  0.47911537  0.37352399  0.66805587  1
  H  H51  1  0.86953365  0.97717989  0.16840861  1
  H  H52  1  0.97723143  0.16843473  0.86967251  1
  H  H53  1  0.16836382  0.86956478  0.97714766  1
  O  O54  1  0.10176090  0.29067140  0.59322513  1
  O  O55  1  0.29072335  0.59330460  0.10177720  1
  O  O56  1  0.59326458  0.10178421  0.29065244  1
  O  O57  1  0.60115709  0.09359365  0.79129827  1
  O  O58  1  0.09356096  0.79157429  0.60125209  1
  O  O59  1  0.79136741  0.60114478  0.09353143  1
  O  O60  1  0.89883065  0.70852607  0.40648925  1
  O  O61  1  0.70856681  0.40642463  0.89875892  1
  O  O62  1  0.40640507  0.89882500  0.70863614  1
  O  O63  1  0.39824560  0.90670958  0.20937510  1
  O  O64  1  0.90671230  0.20925870  0.39820781  1
  O  O65  1  0.20931134  0.39822252  0.90678740  1
  O  O66  1  0.29846141  0.10578410  0.59828183  1
  O  O67  1  0.10580114  0.59834611  0.29847875  1
  O  O68  1  0.59833532  0.29862639  0.10583284  1
  O  O69  1  0.79918240  0.09897942  0.60464377  1
  O  O70  1  0.09907025  0.60462150  0.79891416  1
  O  O71  1  0.60462638  0.79917572  0.09894826  1
  O  O72  1  0.70095687  0.89533730  0.40102344  1
  O  O73  1  0.89543363  0.40092731  0.70105004  1
  O  O74  1  0.40104184  0.70070629  0.89528531  1
  O  O75  1  0.20138111  0.90166340  0.39417718  1
  O  O76  1  0.90165882  0.39416247  0.20157933  1
  O  O77  1  0.39424426  0.20148570  0.90172251  1
  O  O78  1  0.58904552  0.28673424  0.59558766  1
  O  O79  1  0.28675856  0.59564696  0.58899770  1
  O  O80  1  0.59565652  0.58906610  0.28679869  1
  O  O81  1  0.08659021  0.09362105  0.78614504  1
  O  O82  1  0.09359316  0.78610306  0.08654181  1
  O  O83  1  0.78602524  0.08655684  0.09351417  1
  O  O84  1  0.41343887  0.71394210  0.40646696  1
  O  O85  1  0.71390884  0.40642737  0.41347090  1
  O  O86  1  0.40636401  0.41340928  0.71386649  1
  O  O87  1  0.91092108  0.90435294  0.21319872  1
  O  O88  1  0.90436063  0.21320331  0.91100338  1
  O  O89  1  0.21331695  0.91097106  0.90441931  1
  O  O90  1  0.37720583  0.11247931  0.37184577  1
  O  O91  1  0.11251902  0.37186397  0.37720358  1
  O  O92  1  0.37176725  0.37716443  0.11248995  1
  O  O93  1  0.87671311  0.87142111  0.61154628  1
  O  O94  1  0.87170441  0.61155456  0.87689735  1
  O  O95  1  0.61147389  0.87685434  0.87151980  1
  O  O96  1  0.62315026  0.88844932  0.62842968  1
  O  O97  1  0.88845794  0.62835868  0.62319219  1
  O  O98  1  0.62862599  0.62327497  0.88844794  1
  O  O99  1  0.12282465  0.12821755  0.38750035  1
  O  O100  1  0.12812453  0.38749746  0.12281861  1
  O  O101  1  0.38751607  0.12279394  0.12819291  1
