# generated using pymatgen
data_Ho2Ga3Ni
_symmetry_space_group_name_H-M   'P 1'
_cell_length_a   4.35873604
_cell_length_b   5.63448647
_cell_length_c   5.55258302
_cell_angle_alpha   96.09180959
_cell_angle_beta   113.10991287
_cell_angle_gamma   67.24503421
_symmetry_Int_Tables_number   1
_chemical_formula_structural   Ho2Ga3Ni
_chemical_formula_sum   'Ho2 Ga3 Ni1'
_cell_volume   115.49419364
_cell_formula_units_Z   1
loop_
 _symmetry_equiv_pos_site_id
 _symmetry_equiv_pos_as_xyz
  1  'x, y, z'
loop_
 _atom_site_type_symbol
 _atom_site_label
 _atom_site_symmetry_multiplicity
 _atom_site_fract_x
 _atom_site_fract_y
 _atom_site_fract_z
 _atom_site_occupancy
  Ho  Ho0  1  0.75124134  0.70809104  0.21057373  1
  Ho  Ho1  1  0.24857379  0.29713302  0.79428060  1
  Ga  Ga2  1  0.46117298  0.68663719  0.60898314  1
  Ga  Ga3  1  0.05333861  0.12321288  0.22989009  1
  Ga  Ga4  1  0.93309173  0.90443103  0.77061450  1
  Ni  Ni5  1  0.55258155  0.28049484  0.38565794  1
