# generated using pymatgen
data_KMnP2H5O9
_symmetry_space_group_name_H-M   'P 1'
_cell_length_a   6.74500923
_cell_length_b   7.87922058
_cell_length_c   15.94011041
_cell_angle_alpha   90.00000000
_cell_angle_beta   90.00000000
_cell_angle_gamma   90.00000000
_symmetry_Int_Tables_number   1
_chemical_formula_structural   KMnP2H5O9
_chemical_formula_sum   'K4 Mn4 P8 H20 O36'
_cell_volume   847.14379145
_cell_formula_units_Z   4
loop_
 _symmetry_equiv_pos_site_id
 _symmetry_equiv_pos_as_xyz
  1  'x, y, z'
loop_
 _atom_site_type_symbol
 _atom_site_label
 _atom_site_symmetry_multiplicity
 _atom_site_fract_x
 _atom_site_fract_y
 _atom_site_fract_z
 _atom_site_occupancy
  K  K0  1  0.37578066  0.74465837  0.53768066  1
  K  K1  1  0.12421934  0.74465837  0.03768066  1
  K  K2  1  0.62421934  0.24465837  0.46231934  1
  K  K3  1  0.87578066  0.24465837  0.96231934  1
  Mn  Mn4  1  0.05830589  0.75031738  0.80435459  1
  Mn  Mn5  1  0.44169411  0.75031738  0.30435459  1
  Mn  Mn6  1  0.94169411  0.25031738  0.19564541  1
  Mn  Mn7  1  0.55830589  0.25031738  0.69564541  1
  P  P8  1  0.85685231  0.93747099  0.63556358  1
  P  P9  1  0.63345015  0.55641313  0.13272899  1
  P  P10  1  0.14314769  0.43747099  0.36443642  1
  P  P11  1  0.36654985  0.05641313  0.86727101  1
  P  P12  1  0.13345015  0.05641313  0.36727101  1
  P  P13  1  0.35685231  0.43747099  0.86443642  1
  P  P14  1  0.86654985  0.55641313  0.63272899  1
  P  P15  1  0.64314769  0.93747099  0.13556358  1
  H  H16  1  0.89751015  0.14813061  0.76605814  1
  H  H17  1  0.60265872  0.35604887  0.26461860  1
  H  H18  1  0.10248985  0.64813061  0.23394186  1
  H  H19  1  0.39734128  0.85604887  0.73538140  1
  H  H20  1  0.10265872  0.85604887  0.23538140  1
  H  H21  1  0.39751015  0.64813061  0.73394186  1
  H  H22  1  0.89734128  0.35604887  0.76461860  1
  H  H23  1  0.60248985  0.14813061  0.26605814  1
  H  H24  1  0.21782782  0.15284065  0.60334895  1
  H  H25  1  0.28477349  0.35275270  0.10058336  1
  H  H26  1  0.78217218  0.65284065  0.39665105  1
  H  H27  1  0.71522651  0.85275270  0.89941664  1
  H  H28  1  0.78477349  0.85275270  0.39941664  1
  H  H29  1  0.71782782  0.65284065  0.89665105  1
  H  H30  1  0.21522651  0.35275270  0.60058336  1
  H  H31  1  0.28217218  0.15284065  0.10334895  1
  H  H32  1  0.00531591  0.99568280  0.51155325  1
  H  H33  1  0.99468409  0.49568280  0.48844675  1
  H  H34  1  0.50531591  0.49568280  0.98844675  1
  H  H35  1  0.49468409  0.99568280  0.01155325  1
  O  O36  1  0.78072934  0.74850868  0.61214456  1
  O  O37  1  0.71927066  0.74850868  0.11214456  1
  O  O38  1  0.21927066  0.24850868  0.38785544  1
  O  O39  1  0.28072934  0.24850868  0.88785544  1
  O  O40  1  0.82563901  0.25229464  0.78397708  1
  O  O41  1  0.67436099  0.25229464  0.28397708  1
  O  O42  1  0.17436099  0.75229464  0.21602292  1
  O  O43  1  0.32563901  0.75229464  0.71602292  1
  O  O44  1  0.68464474  0.05239537  0.61246906  1
  O  O45  1  0.81133066  0.44404114  0.11290005  1
  O  O46  1  0.31535526  0.55239537  0.38753094  1
  O  O47  1  0.18866934  0.94404114  0.88709995  1
  O  O48  1  0.31133066  0.94404114  0.38709995  1
  O  O49  1  0.18464474  0.55239537  0.88753094  1
  O  O50  1  0.68866934  0.44404114  0.61290005  1
  O  O51  1  0.81535526  0.05239537  0.11246906  1
  O  O52  1  0.30537575  0.25331323  0.60405955  1
  O  O53  1  0.19462425  0.25331323  0.10405955  1
  O  O54  1  0.69462425  0.75331323  0.39594045  1
  O  O55  1  0.80537575  0.75331323  0.89594045  1
  O  O56  1  0.92622266  0.94388927  0.72581356  1
  O  O57  1  0.56692535  0.55437604  0.22413804  1
  O  O58  1  0.07377734  0.44388927  0.27418644  1
  O  O59  1  0.43307465  0.05437604  0.77586196  1
  O  O60  1  0.06692535  0.05437604  0.27586196  1
  O  O61  1  0.42622266  0.44388927  0.77418644  1
  O  O62  1  0.93307465  0.55437604  0.72413804  1
  O  O63  1  0.57377734  0.94388927  0.22581356  1
  O  O64  1  0.04256374  0.97280147  0.57687202  1
  O  O65  1  0.45783453  0.52606467  0.07198898  1
  O  O66  1  0.95743626  0.47280147  0.42312798  1
  O  O67  1  0.54216547  0.02606467  0.92801102  1
  O  O68  1  0.95783453  0.02606467  0.42801102  1
  O  O69  1  0.54256374  0.47280147  0.92312798  1
  O  O70  1  0.04216547  0.52606467  0.57198898  1
  O  O71  1  0.45743626  0.97280147  0.07687202  1
