# generated using pymatgen
data_HoUTe4
_symmetry_space_group_name_H-M   'P 1'
_cell_length_a   4.19555070
_cell_length_b   6.09478867
_cell_length_c   7.97362045
_cell_angle_alpha   67.53093302
_cell_angle_beta   74.74654206
_cell_angle_gamma   90.00000000
_symmetry_Int_Tables_number   1
_chemical_formula_structural   HoUTe4
_chemical_formula_sum   'Ho1 U1 Te4'
_cell_volume   180.61767050
_cell_formula_units_Z   1
loop_
 _symmetry_equiv_pos_site_id
 _symmetry_equiv_pos_as_xyz
  1  'x, y, z'
loop_
 _atom_site_type_symbol
 _atom_site_label
 _atom_site_symmetry_multiplicity
 _atom_site_fract_x
 _atom_site_fract_y
 _atom_site_fract_z
 _atom_site_occupancy
  Ho  Ho0  1  0.86149840  0.86149840  0.27700320  1
  U  U1  1  0.13711048  0.13711048  0.72577905  1
  Te  Te2  1  0.79512921  0.29512921  0.40974158  1
  Te  Te3  1  0.20336886  0.70336886  0.59326227  1
  Te  Te4  1  0.50144653  0.75370607  0.99710695  1
  Te  Te5  1  0.50144653  0.24918698  0.99710695  1
