# generated using pymatgen
data_Hf4CN3
_symmetry_space_group_name_H-M   'P 1'
_cell_length_a   3.23294480
_cell_length_b   3.23294480
_cell_length_c   10.70345062
_cell_angle_alpha   90.00000000
_cell_angle_beta   81.31375642
_cell_angle_gamma   120.00000000
_symmetry_Int_Tables_number   1
_chemical_formula_structural   Hf4CN3
_chemical_formula_sum   'Hf4 C1 N3'
_cell_volume   95.39923818
_cell_formula_units_Z   1
loop_
 _symmetry_equiv_pos_site_id
 _symmetry_equiv_pos_as_xyz
  1  'x, y, z'
loop_
 _atom_site_type_symbol
 _atom_site_label
 _atom_site_symmetry_multiplicity
 _atom_site_fract_x
 _atom_site_fract_y
 _atom_site_fract_z
 _atom_site_occupancy
  Hf  Hf0  1  0.99850080  0.49925040  0.50224879  1
  Hf  Hf1  1  0.50149920  0.75074960  0.74775121  1
  Hf  Hf2  1  0.99891563  0.99945782  0.00162655  1
  Hf  Hf3  1  0.50108437  0.25054218  0.24837345  1
  C  C4  1  0.25000000  0.62500000  0.12500000  1
  N  N5  1  0.74706934  0.87353467  0.37939599  1
  N  N6  1  0.25000000  0.12500000  0.62500000  1
  N  N7  1  0.75293066  0.37646533  0.87060401  1
