# generated using pymatgen
data_EuZnGa
_symmetry_space_group_name_H-M   'P 1'
_cell_length_a   4.63582580
_cell_length_b   5.91440904
_cell_length_c   5.85848458
_cell_angle_alpha   98.22553112
_cell_angle_beta   113.30655046
_cell_angle_gamma   66.92664129
_symmetry_Int_Tables_number   1
_chemical_formula_structural   EuZnGa
_chemical_formula_sum   'Eu2 Zn2 Ga2'
_cell_volume   135.70694844
_cell_formula_units_Z   2
loop_
 _symmetry_equiv_pos_site_id
 _symmetry_equiv_pos_as_xyz
  1  'x, y, z'
loop_
 _atom_site_type_symbol
 _atom_site_label
 _atom_site_symmetry_multiplicity
 _atom_site_fract_x
 _atom_site_fract_y
 _atom_site_fract_z
 _atom_site_occupancy
  Eu  Eu0  1  0.75209556  0.70296445  0.20715558  1
  Eu  Eu1  1  0.24790444  0.29703555  0.79284442  1
  Zn  Zn2  1  0.55955939  0.27612278  0.39524155  1
  Zn  Zn3  1  0.44044061  0.72387722  0.60475845  1
  Ga  Ga4  1  0.05856943  0.10436713  0.22150598  1
  Ga  Ga5  1  0.94143057  0.89563287  0.77849402  1
