# generated using pymatgen
data_K2Sc2Mo(PO6)2
_symmetry_space_group_name_H-M   'P 1'
_cell_length_a   10.54675507
_cell_length_b   10.55927086
_cell_length_c   10.52151571
_cell_angle_alpha   89.44821102
_cell_angle_beta   89.81641435
_cell_angle_gamma   89.60336193
_symmetry_Int_Tables_number   1
_chemical_formula_structural   K2Sc2Mo(PO6)2
_chemical_formula_sum   'K8 Sc8 Mo4 P8 O48'
_cell_volume   1171.65139615
_cell_formula_units_Z   4
loop_
 _symmetry_equiv_pos_site_id
 _symmetry_equiv_pos_as_xyz
  1  'x, y, z'
loop_
 _atom_site_type_symbol
 _atom_site_label
 _atom_site_symmetry_multiplicity
 _atom_site_fract_x
 _atom_site_fract_y
 _atom_site_fract_z
 _atom_site_occupancy
  K  K0  1  0.08355409  0.42846246  0.56274212  1
  K  K1  1  0.41121622  0.55593926  0.06129725  1
  K  K2  1  0.55394857  0.08813075  0.44456062  1
  K  K3  1  0.94347906  0.92411536  0.90672371  1
  K  K4  1  0.31058177  0.19437405  0.79433103  1
  K  K5  1  0.19969034  0.79548454  0.30573265  1
  K  K6  1  0.79166118  0.30506262  0.22128790  1
  K  K7  1  0.69770356  0.69894045  0.69759822  1
  Sc  Sc8  1  0.87588720  0.62312465  0.37622629  1
  Sc  Sc9  1  0.62350815  0.34778251  0.84700922  1
  Sc  Sc10  1  0.34900146  0.86235357  0.65659992  1
  Sc  Sc11  1  0.16607749  0.14617121  0.15492441  1
  Sc  Sc12  1  0.56842644  0.93406815  0.06622055  1
  Sc  Sc13  1  0.91027860  0.08317478  0.58566490  1
  Sc  Sc14  1  0.10638002  0.60033301  0.91102621  1
  Sc  Sc15  1  0.40779173  0.39914749  0.41564730  1
  Mo  Mo16  1  0.54510021  0.72736148  0.37167606  1
  Mo  Mo17  1  0.87218507  0.95263160  0.26750648  1
  Mo  Mo18  1  0.77194812  0.62701922  0.04392858  1
  Mo  Mo19  1  0.95689680  0.27793391  0.87733191  1
  P  P20  1  0.62311059  0.03937157  0.76366877  1
  P  P21  1  0.72788547  0.36590473  0.54338495  1
  P  P22  1  0.04322327  0.77324747  0.62928669  1
  P  P23  1  0.37409206  0.54170145  0.72163629  1
  P  P24  1  0.26795039  0.88216991  0.96341819  1
  P  P25  1  0.46126418  0.23637892  0.12594966  1
  P  P26  1  0.13217207  0.45612851  0.22657205  1
  P  P27  1  0.22544366  0.12056838  0.46587795  1
  O  O28  1  0.44400019  0.80464496  0.48291252  1
  O  O29  1  0.98659265  0.05599956  0.19925707  1
  O  O30  1  0.70050685  0.51485683  0.94099564  1
  O  O31  1  0.05988573  0.20168359  0.98747564  1
  O  O32  1  0.52563060  0.95321540  0.69731765  1
  O  O33  1  0.79942190  0.47255380  0.46856989  1
  O  O34  1  0.96901133  0.69594804  0.52806160  1
  O  O35  1  0.47362125  0.45763817  0.79294376  1
  O  O36  1  0.20327931  0.97937767  0.05162162  1
  O  O37  1  0.54058476  0.30746941  0.02431258  1
  O  O38  1  0.02698500  0.53148028  0.29982626  1
  O  O39  1  0.29582135  0.02525763  0.55401847  1
  O  O40  1  0.52446819  0.81657136  0.22901651  1
  O  O41  1  0.73490466  0.97510826  0.17318328  1
  O  O42  1  0.68176457  0.76792473  0.02104512  1
  O  O43  1  0.98195217  0.18903079  0.73549861  1
  O  O44  1  0.75173826  0.02918415  0.69389964  1
  O  O45  1  0.80482079  0.24226496  0.52161656  1
  O  O46  1  0.02811111  0.70442732  0.75906345  1
  O  O47  1  0.24911810  0.52785828  0.79991433  1
  O  O48  1  0.19726077  0.75484940  0.97955294  1
  O  O49  1  0.47696120  0.30314450  0.25500073  1
  O  O50  1  0.25648043  0.47205471  0.30312479  1
  O  O51  1  0.29745552  0.24848770  0.47887599  1
  O  O52  1  0.49332115  0.57010643  0.34247819  1
  O  O53  1  0.83102369  0.00157812  0.42413413  1
  O  O54  1  0.93020157  0.66127322  0.99579233  1
  O  O55  1  0.00361383  0.43788097  0.84801417  1
  O  O56  1  0.64505621  0.99632016  0.90276571  1
  O  O57  1  0.59193742  0.34987329  0.49106917  1
  O  O58  1  0.98473881  0.90744414  0.64239443  1
  O  O59  1  0.35330039  0.49126655  0.58576275  1
  O  O60  1  0.40720623  0.85862025  0.00171148  1
  O  O61  1  0.50706718  0.09769433  0.14315443  1
  O  O62  1  0.14990003  0.51126608  0.09048065  1
  O  O63  1  0.08491070  0.13841740  0.50403396  1
  O  O64  1  0.70692172  0.73288362  0.42727137  1
  O  O65  1  0.92937511  0.79137375  0.26362932  1
  O  O66  1  0.76497776  0.57095375  0.20662015  1
  O  O67  1  0.79709044  0.26769985  0.93486711  1
  O  O68  1  0.57174187  0.17843672  0.76393096  1
  O  O69  1  0.72701725  0.40307474  0.68591193  1
  O  O70  1  0.18349603  0.77892234  0.58658880  1
  O  O71  1  0.41873049  0.68138411  0.72090907  1
  O  O72  1  0.26321759  0.92918442  0.82304661  1
  O  O73  1  0.32117436  0.23668968  0.08116728  1
  O  O74  1  0.08982749  0.31590235  0.22357565  1
  O  O75  1  0.23331818  0.07364023  0.32575582  1
