# generated using pymatgen
data_Na11Mn21(Ge3O10)8
_symmetry_space_group_name_H-M   'P 1'
_cell_length_a   10.32756903
_cell_length_b   12.52225066
_cell_length_c   13.50383749
_cell_angle_alpha   82.34000555
_cell_angle_beta   92.52002119
_cell_angle_gamma   81.04188973
_symmetry_Int_Tables_number   1
_chemical_formula_structural   Na11Mn21(Ge3O10)8
_chemical_formula_sum   'Na11 Mn21 Ge24 O80'
_cell_volume   1705.94003709
_cell_formula_units_Z   1
loop_
 _symmetry_equiv_pos_site_id
 _symmetry_equiv_pos_as_xyz
  1  'x, y, z'
loop_
 _atom_site_type_symbol
 _atom_site_label
 _atom_site_symmetry_multiplicity
 _atom_site_fract_x
 _atom_site_fract_y
 _atom_site_fract_z
 _atom_site_occupancy
  Na  Na0  1  0.47809107  0.15197107  0.76971245  1
  Na  Na1  1  0.97735654  0.65220967  0.26877336  1
  Na  Na2  1  0.52196623  0.84812700  0.23010037  1
  Na  Na3  1  0.02187659  0.34722901  0.73066555  1
  Na  Na4  1  0.70155339  0.91135823  0.53813155  1
  Na  Na5  1  0.20112119  0.41031109  0.03783410  1
  Na  Na6  1  0.29899417  0.09000642  0.46229180  1
  Na  Na7  1  0.79860356  0.58919747  0.96236923  1
  Na  Na8  1  0.73514497  0.20264352  0.14322844  1
  Na  Na9  1  0.76472410  0.29719232  0.35653512  1
  Na  Na10  1  0.26687115  0.79826117  0.85915496  1
  Mn  Mn11  1  0.97631554  0.75486843  0.48527472  1
  Mn  Mn12  1  0.47514656  0.25384858  0.98482928  1
  Mn  Mn13  1  0.02459752  0.24596352  0.51533648  1
  Mn  Mn14  1  0.52448842  0.74557988  0.01570658  1
  Mn  Mn15  1  0.24018196  0.60772470  0.42889875  1
  Mn  Mn16  1  0.74083986  0.10768092  0.93068673  1
  Mn  Mn17  1  0.75972012  0.39095625  0.56950068  1
  Mn  Mn18  1  0.25914071  0.89187218  0.06890491  1
  Mn  Mn19  1  0.49984594  0.00005670  0.99982806  1
  Mn  Mn20  1  0.00224523  0.50008167  0.50197537  1
  Mn  Mn21  1  0.99237930  0.95435657  0.89158694  1
  Mn  Mn22  1  0.49329471  0.45309874  0.39165424  1
  Mn  Mn23  1  0.00677140  0.04629632  0.10777748  1
  Mn  Mn24  1  0.51088678  0.54404498  0.60867367  1
  Mn  Mn25  1  0.96707728  0.85155396  0.69508372  1
  Mn  Mn26  1  0.46838497  0.35385650  0.19348922  1
  Mn  Mn27  1  0.03145381  0.14631534  0.30642405  1
  Mn  Mn28  1  0.53230469  0.64934938  0.80606861  1
  Mn  Mn29  1  0.00363698  0.99837486  0.49958939  1
  Mn  Mn30  1  0.49975033  0.50034261  0.00087523  1
  Mn  Mn31  1  0.23457884  0.70481762  0.64320640  1
  Ge  Ge32  1  0.55235719  0.10728632  0.32646543  1
  Ge  Ge33  1  0.05441918  0.60467710  0.82650787  1
  Ge  Ge34  1  0.44463792  0.89424676  0.67231769  1
  Ge  Ge35  1  0.94745805  0.39286078  0.17341400  1
  Ge  Ge36  1  0.56560702  0.20198151  0.53689328  1
  Ge  Ge37  1  0.06514143  0.70249201  0.03701297  1
  Ge  Ge38  1  0.43323447  0.79889926  0.46426370  1
  Ge  Ge39  1  0.93488776  0.29780495  0.96317939  1
  Ge  Ge40  1  0.82660547  0.12089509  0.67983573  1
  Ge  Ge41  1  0.32633470  0.62103200  0.18114156  1
  Ge  Ge42  1  0.17348923  0.87860602  0.31840577  1
  Ge  Ge43  1  0.67435290  0.37793933  0.82016362  1
  Ge  Ge44  1  0.82023754  0.94767922  0.29623028  1
  Ge  Ge45  1  0.31851825  0.44846871  0.79534997  1
  Ge  Ge46  1  0.17917851  0.05201441  0.70431635  1
  Ge  Ge47  1  0.68014547  0.55211008  0.20400140  1
  Ge  Ge48  1  0.30708297  0.35152037  0.59196427  1
  Ge  Ge49  1  0.80624044  0.85113494  0.09210401  1
  Ge  Ge50  1  0.69462360  0.64863457  0.40796751  1
  Ge  Ge51  1  0.19348705  0.14879806  0.90782180  1
  Ge  Ge52  1  0.31179568  0.12579728  0.17416753  1
  Ge  Ge53  1  0.81246308  0.62598967  0.67294798  1
  Ge  Ge54  1  0.68707220  0.87451042  0.82734523  1
  Ge  Ge55  1  0.18795669  0.37414426  0.32577170  1
  O  O56  1  0.38433525  0.09864683  0.30240151  1
  O  O57  1  0.88558656  0.60066047  0.80153243  1
  O  O58  1  0.61300426  0.89909867  0.69885795  1
  O  O59  1  0.11550651  0.40137932  0.19776484  1
  O  O60  1  0.59906326  0.22519188  0.26783440  1
  O  O61  1  0.11256291  0.71607033  0.76378876  1
  O  O62  1  0.38727938  0.77695048  0.72308531  1
  O  O63  1  0.90065390  0.27501244  0.23213112  1
  O  O64  1  0.09621494  0.62215197  0.53761170  1
  O  O65  1  0.59177144  0.11818965  0.03128129  1
  O  O66  1  0.90933770  0.38183558  0.46924406  1
  O  O67  1  0.40918695  0.88092348  0.96812063  1
  O  O68  1  0.13767546  0.35289045  0.57861897  1
  O  O69  1  0.63666850  0.85195860  0.07808039  1
  O  O70  1  0.86455179  0.64778434  0.42248187  1
  O  O71  1  0.36285510  0.14718779  0.92155561  1
  O  O72  1  0.87292173  0.89997736  0.42347434  1
  O  O73  1  0.37247260  0.40260785  0.92195076  1
  O  O74  1  0.12830702  0.09922446  0.57696451  1
  O  O75  1  0.62800711  0.59915643  0.07700915  1
  O  O76  1  0.87772316  0.00827416  0.61288557  1
  O  O77  1  0.37732287  0.50412318  0.11782538  1
  O  O78  1  0.12304379  0.99530475  0.38230443  1
  O  O79  1  0.62146010  0.49243536  0.88433282  1
  O  O80  1  0.64347788  0.98419445  0.29502574  1
  O  O81  1  0.14200558  0.48133239  0.79425848  1
  O  O82  1  0.35641588  0.01655495  0.70596755  1
  O  O83  1  0.85676289  0.51558228  0.20553381  1
  O  O84  1  0.88932897  0.23883524  0.62788296  1
  O  O85  1  0.38845614  0.73823786  0.12896643  1
  O  O86  1  0.11158213  0.76132780  0.37063717  1
  O  O87  1  0.61138014  0.26061280  0.87223261  1
  O  O88  1  0.89023661  0.05507736  0.23644564  1
  O  O89  1  0.37770712  0.56122805  0.73043166  1
  O  O90  1  0.11076575  0.94391476  0.76441066  1
  O  O91  1  0.61008624  0.44487598  0.26382627  1
  O  O92  1  0.62296040  0.31729607  0.48166927  1
  O  O93  1  0.12229000  0.81718901  0.98088043  1
  O  O94  1  0.36948169  0.68769621  0.52552436  1
  O  O95  1  0.87704209  0.18288137  0.01850337  1
  O  O96  1  0.13853751  0.13923337  0.18700170  1
  O  O97  1  0.63991726  0.63872189  0.68330693  1
  O  O98  1  0.85900342  0.86035540  0.81872935  1
  O  O99  1  0.36117965  0.36096414  0.31302955  1
  O  O100  1  0.39509867  0.22449177  0.56229248  1
  O  O101  1  0.89503283  0.72389224  0.06302082  1
  O  O102  1  0.60292042  0.77436264  0.43842618  1
  O  O103  1  0.10513294  0.27589766  0.93755335  1
  O  O104  1  0.36958796  0.46232162  0.52547728  1
  O  O105  1  0.86870836  0.96164555  0.02580044  1
  O  O106  1  0.63003952  0.53917066  0.47433274  1
  O  O107  1  0.13072142  0.03867598  0.97460004  1
  O  O108  1  0.85845053  0.09487267  0.81052046  1
  O  O109  1  0.36003530  0.59421621  0.31126719  1
  O  O110  1  0.14095649  0.90592959  0.18845492  1
  O  O111  1  0.64136436  0.40477152  0.68958370  1
  O  O112  1  0.84487728  0.83613765  0.22540807  1
  O  O113  1  0.34678829  0.33698165  0.72517771  1
  O  O114  1  0.15466048  0.16402404  0.77455680  1
  O  O115  1  0.65555434  0.66380071  0.27490435  1
  O  O116  1  0.64818128  0.14606472  0.65486575  1
  O  O117  1  0.14854903  0.64515967  0.15459335  1
  O  O118  1  0.35132390  0.85293725  0.34600588  1
  O  O119  1  0.85226480  0.35411881  0.84517078  1
  O  O120  1  0.07685138  0.85050463  0.57029947  1
  O  O121  1  0.56521413  0.35579950  0.07449520  1
  O  O122  1  0.93555352  0.14377184  0.42598380  1
  O  O123  1  0.43297596  0.64422852  0.93031877  1
  O  O124  1  0.57405597  0.09322744  0.46134694  1
  O  O125  1  0.07431453  0.59403422  0.96069129  1
  O  O126  1  0.42590223  0.90907039  0.53738355  1
  O  O127  1  0.92597556  0.40698541  0.03851255  1
  O  O128  1  0.37849760  0.00915545  0.11844608  1
  O  O129  1  0.87943719  0.50835864  0.61818695  1
  O  O130  1  0.61980855  0.99190902  0.88177709  1
  O  O131  1  0.12112414  0.49085012  0.38200168  1
  O  O132  1  0.85783011  0.74920150  0.61522850  1
  O  O133  1  0.35834553  0.24852835  0.11520365  1
  O  O134  1  0.14150811  0.25161526  0.38513380  1
  O  O135  1  0.63955693  0.75107003  0.88382009  1
