# generated using pymatgen
data_DyY(FeO3)2
_symmetry_space_group_name_H-M   'P 1'
_cell_length_a   5.35546122
_cell_length_b   5.64675055
_cell_length_c   7.73693312
_cell_angle_alpha   90.00000000
_cell_angle_beta   90.00000000
_cell_angle_gamma   90.00000000
_symmetry_Int_Tables_number   1
_chemical_formula_structural   DyY(FeO3)2
_chemical_formula_sum   'Dy2 Y2 Fe4 O12'
_cell_volume   233.97223541
_cell_formula_units_Z   2
loop_
 _symmetry_equiv_pos_site_id
 _symmetry_equiv_pos_as_xyz
  1  'x, y, z'
loop_
 _atom_site_type_symbol
 _atom_site_label
 _atom_site_symmetry_multiplicity
 _atom_site_fract_x
 _atom_site_fract_y
 _atom_site_fract_z
 _atom_site_occupancy
  Dy  Dy0  1  0.01973917  0.93348715  0.75000000  1
  Dy  Dy1  1  0.48026083  0.43348715  0.75000000  1
  Y  Y2  1  0.98049351  0.06614814  0.25000000  1
  Y  Y3  1  0.51950649  0.56614814  0.25000000  1
  Fe  Fe4  1  0.50008375  0.99990296  0.99952562  1
  Fe  Fe5  1  0.99991625  0.49990296  0.50047438  1
  Fe  Fe6  1  0.50008375  0.99990296  0.50047438  1
  Fe  Fe7  1  0.99991625  0.49990296  0.99952562  1
  O  O8  1  0.80633544  0.80374228  0.05972630  1
  O  O9  1  0.69366456  0.30374228  0.44027370  1
  O  O10  1  0.19412698  0.19637810  0.56104305  1
  O  O11  1  0.30587302  0.69637810  0.93895695  1
  O  O12  1  0.19412698  0.19637810  0.93895695  1
  O  O13  1  0.30587302  0.69637810  0.56104305  1
  O  O14  1  0.80633544  0.80374228  0.44027370  1
  O  O15  1  0.69366456  0.30374228  0.05972630  1
  O  O16  1  0.11568053  0.45631873  0.25000000  1
  O  O17  1  0.38431947  0.95631873  0.25000000  1
  O  O18  1  0.88281594  0.54399931  0.75000000  1
  O  O19  1  0.61718406  0.04399931  0.75000000  1
