# generated using pymatgen
data_Li2VO2F
_symmetry_space_group_name_H-M   'P 1'
_cell_length_a   3.02528622
_cell_length_b   9.07367467
_cell_length_c   8.96513138
_cell_angle_alpha   109.46241774
_cell_angle_beta   89.97489153
_cell_angle_gamma   91.13921382
_symmetry_Int_Tables_number   1
_chemical_formula_structural   Li2VO2F
_chemical_formula_sum   'Li8 V4 O8 F4'
_cell_volume   231.98422431
_cell_formula_units_Z   4
loop_
 _symmetry_equiv_pos_site_id
 _symmetry_equiv_pos_as_xyz
  1  'x, y, z'
loop_
 _atom_site_type_symbol
 _atom_site_label
 _atom_site_symmetry_multiplicity
 _atom_site_fract_x
 _atom_site_fract_y
 _atom_site_fract_z
 _atom_site_occupancy
  Li  Li0  1  0.00088566  0.08885993  0.25072493  1
  Li  Li1  1  0.99489040  0.61497142  0.73902419  1
  Li  Li2  1  0.99935811  0.40978577  0.25817956  1
  Li  Li3  1  0.00510739  0.88029001  0.74425338  1
  Li  Li4  1  0.49991021  0.34200757  0.49808947  1
  Li  Li5  1  0.50092094  0.15295132  0.00088721  1
  Li  Li6  1  0.49817597  0.67256957  0.53006330  1
  Li  Li7  1  0.49965621  0.85254128  0.97267762  1
  V  V8  1  0.00276468  0.75376520  0.25988377  1
  V  V9  1  0.00055072  0.24815681  0.74749907  1
  V  V10  1  0.49013371  0.48179559  0.99739053  1
  V  V11  1  0.50733604  0.00316056  0.50310505  1
  O  O12  1  0.99252576  0.15991553  0.50412387  1
  O  O13  1  -0.00164488  0.33767964  0.99719631  1
  O  O14  1  0.01512931  0.84196206  0.49168979  1
  O  O15  1  0.49879531  0.90642137  0.25821076  1
  O  O16  1  0.49661121  0.59308759  0.23088790  1
  O  O17  1  0.48955594  0.09623531  0.74186847  1
  O  O18  1  0.51196556  0.40539042  0.76212792  1
  O  O19  1  0.50069099  0.74989096  0.75441171  1
  F  F20  1  0.99526328  0.65479347  0.00464841  1
  F  F21  1  0.99971475  0.00925744  0.01319524  1
  F  F22  1  0.00176795  0.49259955  0.49008498  1
  F  F23  1  0.49985579  0.25191062  0.24977555  1
