# generated using pymatgen
data_DyYMn2O6
_symmetry_space_group_name_H-M   'P 1'
_cell_length_a   6.22945368
_cell_length_b   6.22939034
_cell_length_c   11.57240002
_cell_angle_alpha   89.99942210
_cell_angle_beta   90.00007303
_cell_angle_gamma   59.99961128
_symmetry_Int_Tables_number   1
_chemical_formula_structural   DyYMn2O6
_chemical_formula_sum   'Dy3 Y3 Mn6 O18'
_cell_volume   388.90889270
_cell_formula_units_Z   3
loop_
 _symmetry_equiv_pos_site_id
 _symmetry_equiv_pos_as_xyz
  1  'x, y, z'
loop_
 _atom_site_type_symbol
 _atom_site_label
 _atom_site_symmetry_multiplicity
 _atom_site_fract_x
 _atom_site_fract_y
 _atom_site_fract_z
 _atom_site_occupancy
  Dy  Dy0  1  0.33331959  0.33333937  0.76932774  1
  Dy  Dy1  1  0.00000164  0.00000715  0.22622394  1
  Dy  Dy2  1  0.99998825  0.00000678  0.72612721  1
  Y  Y3  1  0.33333478  0.33334217  0.26890084  1
  Y  Y4  1  0.66667032  0.66666893  0.26884045  1
  Y  Y5  1  0.66665479  0.66666912  0.76864727  1
  Mn  Mn6  1  0.66628387  0.00012328  0.50083903  1
  Mn  Mn7  1  0.00012862  0.33360117  0.50084527  1
  Mn  Mn8  1  0.33361682  0.66625049  0.50084880  1
  Mn  Mn9  1  0.33359634  0.00002434  0.00056317  1
  Mn  Mn10  1  0.00002371  0.66637318  0.00056863  1
  Mn  Mn11  1  0.66638712  0.33360741  0.00056437  1
  O  O12  1  0.35858621  0.00007591  0.16490650  1
  O  O13  1  0.00008167  0.64132895  0.16491199  1
  O  O14  1  0.64133928  0.35860503  0.16490907  1
  O  O15  1  0.64080437  0.00076551  0.66514850  1
  O  O16  1  0.00074428  0.35844116  0.66515384  1
  O  O17  1  0.35842204  0.64079931  0.66515654  1
  O  O18  1  0.69307237  0.99996681  0.33636802  1
  O  O19  1  0.99997758  0.30697458  0.33637441  1
  O  O20  1  0.30698610  0.69306258  0.33637537  1
  O  O21  1  0.30694680  0.00043961  0.83617472  1
  O  O22  1  0.00042201  0.69260325  0.83617810  1
  O  O23  1  0.69258130  0.30695800  0.83617770  1
  O  O24  1  0.99995672  0.99999149  0.02534650  1
  O  O25  1  0.00005397  0.99999303  0.52552578  1
  O  O26  1  0.33338694  0.33333292  0.48088707  1
  O  O27  1  0.66671937  0.66665730  0.48104346  1
  O  O28  1  0.66662929  0.66665872  0.98076303  1
  O  O29  1  0.33328384  0.33333246  0.98030270  1
