# generated using pymatgen
data_Er2(B2Rh3)3
_symmetry_space_group_name_H-M   'P 1'
_cell_length_a   5.59672155
_cell_length_b   5.59631486
_cell_length_c   8.56918197
_cell_angle_alpha   90.00227978
_cell_angle_beta   90.00455935
_cell_angle_gamma   59.99759578
_symmetry_Int_Tables_number   1
_chemical_formula_structural   Er2(B2Rh3)3
_chemical_formula_sum   'Er2 B6 Rh9'
_cell_volume   232.43167641
_cell_formula_units_Z   1
loop_
 _symmetry_equiv_pos_site_id
 _symmetry_equiv_pos_as_xyz
  1  'x, y, z'
loop_
 _atom_site_type_symbol
 _atom_site_label
 _atom_site_symmetry_multiplicity
 _atom_site_fract_x
 _atom_site_fract_y
 _atom_site_fract_z
 _atom_site_occupancy
  Er  Er0  1  0.99998622  0.00000000  0.29351551  1
  Er  Er1  1  -0.00000600  -0.00000000  0.70648475  1
  B  B2  1  0.66667006  0.66664766  0.99999485  1
  B  B3  1  0.33331771  0.33335234  0.99999485  1
  B  B4  1  0.66667216  0.66665356  0.33287411  1
  B  B5  1  0.33332572  0.33334644  0.33287411  1
  B  B6  1  0.33331426  0.33333539  0.66712498  1
  B  B7  1  0.66664964  0.66666461  0.66712498  1
  Rh  Rh8  1  0.49997559  0.00000000  0.16454618  1
  Rh  Rh9  1  -0.00002195  0.49999282  0.16454427  1
  Rh  Rh10  1  0.49997086  0.50000718  0.16454427  1
  Rh  Rh11  1  0.50008547  0.00000000  0.83545505  1
  Rh  Rh12  1  -0.00001638  0.50003133  0.83546041  1
  Rh  Rh13  1  0.50001495  0.49996867  0.83546041  1
  Rh  Rh14  1  0.49998081  -0.00000000  0.50001247  1
  Rh  Rh15  1  0.99997662  0.50002766  0.49999441  1
  Rh  Rh16  1  0.50000427  0.49997234  0.49999441  1
