# generated using pymatgen
data_ErUTe4
_symmetry_space_group_name_H-M   'P 1'
_cell_length_a   4.19203102
_cell_length_b   6.09750427
_cell_length_c   7.96248968
_cell_angle_alpha   67.48723200
_cell_angle_beta   74.73783031
_cell_angle_gamma   90.00000000
_symmetry_Int_Tables_number   1
_chemical_formula_structural   ErUTe4
_chemical_formula_sum   'Er1 U1 Te4'
_cell_volume   180.22370291
_cell_formula_units_Z   1
loop_
 _symmetry_equiv_pos_site_id
 _symmetry_equiv_pos_as_xyz
  1  'x, y, z'
loop_
 _atom_site_type_symbol
 _atom_site_label
 _atom_site_symmetry_multiplicity
 _atom_site_fract_x
 _atom_site_fract_y
 _atom_site_fract_z
 _atom_site_occupancy
  Er  Er0  1  0.13873973  0.13873973  0.72252055  1
  U  U1  1  0.86321238  0.86321238  0.27357524  1
  Te  Te2  1  0.79613942  0.29613942  0.40772117  1
  Te  Te3  1  0.20463177  0.70463177  0.59073646  1
  Te  Te4  1  0.49863836  0.75100952  0.00272329  1
  Te  Te5  1  0.49863836  0.24626720  0.00272329  1
