# generated using pymatgen
data_Ga3Fe4Co8Si
_symmetry_space_group_name_H-M   'P 1'
_cell_length_a   4.03242514
_cell_length_b   4.03242514
_cell_length_c   13.36400855
_cell_angle_alpha   81.32271914
_cell_angle_beta   98.67728086
_cell_angle_gamma   120.00000000
_symmetry_Int_Tables_number   1
_chemical_formula_structural   Ga3Fe4Co8Si
_chemical_formula_sum   'Ga3 Fe4 Co8 Si1'
_cell_volume   185.31382927
_cell_formula_units_Z   1
loop_
 _symmetry_equiv_pos_site_id
 _symmetry_equiv_pos_as_xyz
  1  'x, y, z'
loop_
 _atom_site_type_symbol
 _atom_site_label
 _atom_site_symmetry_multiplicity
 _atom_site_fract_x
 _atom_site_fract_y
 _atom_site_fract_z
 _atom_site_occupancy
  Ga  Ga0  1  0.12432236  0.87567764  0.37296709  1
  Ga  Ga1  1  0.87500000  0.12500000  0.62500000  1
  Ga  Ga2  1  0.62567764  0.37432236  0.87703291  1
  Fe  Fe3  1  0.25029436  0.74970564  0.75088307  1
  Fe  Fe4  1  0.49970564  0.50029436  0.49911693  1
  Fe  Fe5  1  0.99989181  0.00010819  0.99967543  1
  Fe  Fe6  1  0.75010819  0.24989181  0.25032457  1
  Co  Co7  1  0.93784662  0.06215338  0.81353987  1
  Co  Co8  1  0.18727845  0.81272155  0.56183536  1
  Co  Co9  1  0.68904229  0.31095771  0.06712686  1
  Co  Co10  1  0.43532881  0.56467119  0.30598644  1
  Co  Co11  1  0.31467119  0.68532881  0.94401356  1
  Co  Co12  1  0.56272155  0.43727845  0.68816464  1
  Co  Co13  1  0.06095771  0.93904229  0.18287314  1
  Co  Co14  1  0.81215338  0.18784662  0.43646013  1
  Si  Si15  1  0.37500000  0.62500000  0.12500000  1
