# generated using pymatgen
data_FeNiP6
_symmetry_space_group_name_H-M   'P 1'
_cell_length_a   6.71379292
_cell_length_b   6.70558188
_cell_length_c   6.71379292
_cell_angle_alpha   70.47881789
_cell_angle_beta   70.53169568
_cell_angle_gamma   109.47379684
_symmetry_Int_Tables_number   1
_chemical_formula_structural   FeNiP6
_chemical_formula_sum   'Fe2 Ni2 P12'
_cell_volume   232.53275360
_cell_formula_units_Z   2
loop_
 _symmetry_equiv_pos_site_id
 _symmetry_equiv_pos_as_xyz
  1  'x, y, z'
loop_
 _atom_site_type_symbol
 _atom_site_label
 _atom_site_symmetry_multiplicity
 _atom_site_fract_x
 _atom_site_fract_y
 _atom_site_fract_z
 _atom_site_occupancy
  Fe  Fe0  1  0.00000000  0.50000000  0.00000000  1
  Fe  Fe1  1  0.50000000  0.50000000  0.50000000  1
  Ni  Ni2  1  0.50000000  0.00000000  0.00000000  1
  Ni  Ni3  1  0.00000000  0.00000000  0.50000000  1
  P  P4  1  0.65416120  0.50639007  0.14777113  1
  P  P5  1  0.34583880  0.49360993  0.85222887  1
  P  P6  1  0.64753971  0.79139328  0.85614643  1
  P  P7  1  0.35246029  0.20860672  0.14385357  1
  P  P8  1  0.86023604  0.35526892  0.79635274  1
  P  P9  1  0.13976396  0.64473108  0.20364726  1
  P  P10  1  0.15162166  0.35526892  0.50496713  1
  P  P11  1  0.84837834  0.64473108  0.49503287  1
  P  P12  1  0.49474771  0.15087207  0.64531231  1
  P  P13  1  0.50525229  0.84912793  0.35468769  1
  P  P14  1  0.20381563  0.84912793  0.65612435  1
  P  P15  1  0.79618437  0.15087207  0.34387565  1
