# generated using pymatgen
data_Er2SbO2
_symmetry_space_group_name_H-M   'P 1'
_cell_length_a   3.83714369
_cell_length_b   3.82051251
_cell_length_c   7.16931131
_cell_angle_alpha   74.54693040
_cell_angle_beta   74.47796971
_cell_angle_gamma   90.00000000
_symmetry_Int_Tables_number   1
_chemical_formula_structural   Er2SbO2
_chemical_formula_sum   'Er2 Sb1 O2'
_cell_volume   97.31873235
_cell_formula_units_Z   1
loop_
 _symmetry_equiv_pos_site_id
 _symmetry_equiv_pos_as_xyz
  1  'x, y, z'
loop_
 _atom_site_type_symbol
 _atom_site_label
 _atom_site_symmetry_multiplicity
 _atom_site_fract_x
 _atom_site_fract_y
 _atom_site_fract_z
 _atom_site_occupancy
  Er  Er0  1  0.33299414  0.33800046  0.33401172  1
  Er  Er1  1  0.66700586  0.67201219  0.66598828  1
  Sb  Sb2  1  1.00000000  0.05120743  0.00000000  1
  O  O3  1  0.75011064  0.25700059  0.49977873  1
  O  O4  1  0.24988936  0.75677932  0.50022127  1
