# generated using pymatgen
data_CsCrFeF6
_symmetry_space_group_name_H-M   'P 1'
_cell_length_a   7.55990613
_cell_length_b   7.50638083
_cell_length_c   7.47674036
_cell_angle_alpha   90.00000000
_cell_angle_beta   60.36324448
_cell_angle_gamma   119.76606548
_symmetry_Int_Tables_number   1
_chemical_formula_structural   CsCrFeF6
_chemical_formula_sum   'Cs2 Cr2 Fe2 F12'
_cell_volume   302.70334756
_cell_formula_units_Z   2
loop_
 _symmetry_equiv_pos_site_id
 _symmetry_equiv_pos_as_xyz
  1  'x, y, z'
loop_
 _atom_site_type_symbol
 _atom_site_label
 _atom_site_symmetry_multiplicity
 _atom_site_fract_x
 _atom_site_fract_y
 _atom_site_fract_z
 _atom_site_occupancy
  Cs  Cs0  1  0.75813527  0.37906763  0.37093237  1
  Cs  Cs1  1  0.24186473  0.62093237  0.62906763  1
  Cr  Cr2  1  0.00000000  0.00000000  0.50000000  1
  Cr  Cr3  1  0.00000000  0.00000000  0.00000000  1
  Fe  Fe4  1  0.50000000  0.50000000  0.00000000  1
  Fe  Fe5  1  0.50000000  0.00000000  0.00000000  1
  F  F6  1  0.87813001  0.93906501  0.31093499  1
  F  F7  1  0.65696694  0.32848347  0.92151653  1
  F  F8  1  0.24196384  0.93483272  0.92599232  1
  F  F9  1  0.24196384  0.30713113  0.33204384  1
  F  F10  1  0.24196384  0.30713113  0.92599232  1
  F  F11  1  0.24196384  0.93483272  0.33204384  1
  F  F12  1  0.12186999  0.06093499  0.68906501  1
  F  F13  1  0.34303306  0.67151653  0.07848347  1
  F  F14  1  0.75803616  0.06516728  0.07400768  1
  F  F15  1  0.75803616  0.69286887  0.66795616  1
  F  F16  1  0.75803616  0.69286887  0.07400768  1
  F  F17  1  0.75803616  0.06516728  0.66795616  1
