# generated using pymatgen
data_Li2VO2F
_symmetry_space_group_name_H-M   'P 1'
_cell_length_a   3.02510869
_cell_length_b   9.10220006
_cell_length_c   8.92976466
_cell_angle_alpha   109.58286987
_cell_angle_beta   90.02878479
_cell_angle_gamma   90.23785567
_symmetry_Int_Tables_number   1
_chemical_formula_structural   Li2VO2F
_chemical_formula_sum   'Li8 V4 O8 F4'
_cell_volume   231.65749562
_cell_formula_units_Z   4
loop_
 _symmetry_equiv_pos_site_id
 _symmetry_equiv_pos_as_xyz
  1  'x, y, z'
loop_
 _atom_site_type_symbol
 _atom_site_label
 _atom_site_symmetry_multiplicity
 _atom_site_fract_x
 _atom_site_fract_y
 _atom_site_fract_z
 _atom_site_occupancy
  Li  Li0  1  0.00034768  0.09801923  0.25631919  1
  Li  Li1  1  0.00032254  0.58065211  0.71808923  1
  Li  Li2  1  0.99788924  0.40964242  0.27482832  1
  Li  Li3  1  0.99975336  0.90419819  0.74555765  1
  Li  Li4  1  0.50088125  0.36742410  0.49772286  1
  Li  Li5  1  0.50025065  0.15584970  0.00241650  1
  Li  Li6  1  0.50278684  0.63291784  0.50241550  1
  Li  Li7  1  0.49990185  0.85583115  0.99928448  1
  V  V8  1  0.00378199  0.75541940  0.26312901  1
  V  V9  1  0.00754134  0.24940571  0.74581742  1
  V  V10  1  0.49394347  0.48097540  0.00045757  1
  V  V11  1  0.49169377  0.00264274  0.50073194  1
  O  O12  1  0.99906231  0.15479000  0.50640602  1
  O  O13  1  0.00576918  0.33733623  0.99573883  1
  O  O14  1  0.98516812  0.84743940  0.49672439  1
  O  O15  1  0.00219816  0.50046124  0.49656272  1
  O  O16  1  0.48467521  0.90826479  0.25332691  1
  O  O17  1  0.51091802  0.59979354  0.22946940  1
  O  O18  1  0.49982980  0.09394276  0.74514968  1
  O  O19  1  0.51408892  0.40977405  0.76541711  1
  F  F20  1  0.99925978  0.65846020  0.99989065  1
  F  F21  1  0.99923152  0.99799264  0.99992544  1
  F  F22  1  0.50105847  0.23940235  0.23799564  1
  F  F23  1  0.49956554  0.75936481  0.76662354  1
