# generated using pymatgen
data_Cu2SnS3
_symmetry_space_group_name_H-M   'P 1'
_cell_length_a   3.89368836
_cell_length_b   5.44358230
_cell_length_c   6.68403524
_cell_angle_alpha   65.97044389
_cell_angle_beta   73.06613342
_cell_angle_gamma   90.00000000
_symmetry_Int_Tables_number   1
_chemical_formula_structural   Cu2SnS3
_chemical_formula_sum   'Cu2 Sn1 S3'
_cell_volume   122.63815019
_cell_formula_units_Z   1
loop_
 _symmetry_equiv_pos_site_id
 _symmetry_equiv_pos_as_xyz
  1  'x, y, z'
loop_
 _atom_site_type_symbol
 _atom_site_label
 _atom_site_symmetry_multiplicity
 _atom_site_fract_x
 _atom_site_fract_y
 _atom_site_fract_z
 _atom_site_occupancy
  Cu  Cu0  1  0.99698229  0.99011599  0.00603543  1
  Cu  Cu1  1  0.33635071  0.32948442  0.32729757  1
  Sn  Sn2  1  0.66666700  0.68593829  0.66666700  1
  S  S3  1  0.48991501  0.75312646  0.02016998  1
  S  S4  1  0.84341799  0.10662943  0.31316302  1
  S  S5  1  0.16666700  0.38470541  0.66666700  1
