# generated using pymatgen
data_Dy5(ReO6)2
_symmetry_space_group_name_H-M   'P 1'
_cell_length_a   5.68165399
_cell_length_b   7.57013803
_cell_length_c   12.45748146
_cell_angle_alpha   107.51760701
_cell_angle_beta   90.00000000
_cell_angle_gamma   90.00000000
_symmetry_Int_Tables_number   1
_chemical_formula_structural   Dy5(ReO6)2
_chemical_formula_sum   'Dy10 Re4 O24'
_cell_volume   510.95920718
_cell_formula_units_Z   2
loop_
 _symmetry_equiv_pos_site_id
 _symmetry_equiv_pos_as_xyz
  1  'x, y, z'
loop_
 _atom_site_type_symbol
 _atom_site_label
 _atom_site_symmetry_multiplicity
 _atom_site_fract_x
 _atom_site_fract_y
 _atom_site_fract_z
 _atom_site_occupancy
  Dy  Dy0  1  0.25000000  0.61138711  0.43652668  1
  Dy  Dy1  1  0.75000000  0.38861289  0.56347332  1
  Dy  Dy2  1  0.25000000  0.08796321  0.44590875  1
  Dy  Dy3  1  0.75000000  0.91203679  0.55409125  1
  Dy  Dy4  1  0.25000000  0.88955983  0.06431673  1
  Dy  Dy5  1  0.75000000  0.11044017  0.93568327  1
  Dy  Dy6  1  0.25000000  0.41359187  0.05321027  1
  Dy  Dy7  1  0.75000000  0.58640813  0.94678973  1
  Dy  Dy8  1  0.25000000  0.24708704  0.74974501  1
  Dy  Dy9  1  0.75000000  0.75291296  0.25025499  1
  Re  Re10  1  0.46407826  0.74706699  0.75068144  1
  Re  Re11  1  0.96407826  0.25293301  0.24931856  1
  Re  Re12  1  0.53592174  0.25293301  0.24931856  1
  Re  Re13  1  0.03592174  0.74706699  0.75068144  1
  O  O14  1  0.25000000  0.95542522  0.75363580  1
  O  O15  1  0.75000000  0.04457478  0.24636420  1
  O  O16  1  0.50193730  0.32870181  0.90375416  1
  O  O17  1  0.00193730  0.67129819  0.09624584  1
  O  O18  1  0.49806270  0.67129819  0.09624584  1
  O  O19  1  0.99806270  0.32870181  0.90375416  1
  O  O20  1  0.25000000  0.53961077  0.74870980  1
  O  O21  1  0.75000000  0.46038923  0.25129020  1
  O  O22  1  0.25000000  0.07689409  0.25020299  1
  O  O23  1  0.75000000  0.92310591  0.74979701  1
  O  O24  1  0.50294489  0.82702066  0.91557750  1
  O  O25  1  0.00294489  0.17297934  0.08442250  1
  O  O26  1  0.49705511  0.17297934  0.08442250  1
  O  O27  1  0.99705511  0.82702066  0.91557750  1
  O  O28  1  0.50179335  0.16916401  0.59510174  1
  O  O29  1  0.00179335  0.83083599  0.40489826  1
  O  O30  1  0.49820665  0.83083599  0.40489826  1
  O  O31  1  0.99820665  0.16916401  0.59510174  1
  O  O32  1  0.50248380  0.66810147  0.58564820  1
  O  O33  1  0.00248380  0.33189853  0.41435180  1
  O  O34  1  0.49751620  0.33189853  0.41435180  1
  O  O35  1  0.99751620  0.66810147  0.58564820  1
  O  O36  1  0.25000000  0.42902154  0.24909168  1
  O  O37  1  0.75000000  0.57097846  0.75090832  1
