# generated using pymatgen
data_Er2P7Rh12
_symmetry_space_group_name_H-M   'P 1'
_cell_length_a   3.86152464
_cell_length_b   9.61056012
_cell_length_c   9.61249240
_cell_angle_alpha   120.00310588
_cell_angle_beta   90.00026900
_cell_angle_gamma   89.99954740
_symmetry_Int_Tables_number   1
_chemical_formula_structural   Er2P7Rh12
_chemical_formula_sum   'Er2 P7 Rh12'
_cell_volume   308.93033714
_cell_formula_units_Z   1
loop_
 _symmetry_equiv_pos_site_id
 _symmetry_equiv_pos_as_xyz
  1  'x, y, z'
loop_
 _atom_site_type_symbol
 _atom_site_label
 _atom_site_symmetry_multiplicity
 _atom_site_fract_x
 _atom_site_fract_y
 _atom_site_fract_z
 _atom_site_occupancy
  Er  Er0  1  0.74906662  0.33354237  0.66682878  1
  Er  Er1  1  0.25093338  0.66645763  0.33317122  1
  P  P2  1  0.50000000  0.00000000  0.00000000  1
  P  P3  1  0.75378334  0.88076064  0.59459710  1
  P  P4  1  0.75325832  0.40523384  0.28609160  1
  P  P5  1  0.75380448  0.71391428  0.11936573  1
  P  P6  1  0.24621666  0.11923936  0.40540290  1
  P  P7  1  0.24674168  0.59476616  0.71390840  1
  P  P8  1  0.24619552  0.28608572  0.88063427  1
  Rh  Rh9  1  0.75118725  0.61795055  0.54842038  1
  Rh  Rh10  1  0.75106519  0.45142267  0.06924060  1
  Rh  Rh11  1  0.75102367  0.93076588  0.38213148  1
  Rh  Rh12  1  0.24881275  0.38204945  0.45157962  1
  Rh  Rh13  1  0.24893481  0.54857733  0.93075940  1
  Rh  Rh14  1  0.24897633  0.06923412  0.61786852  1
  Rh  Rh15  1  0.74904315  0.11156720  0.84993972  1
  Rh  Rh16  1  0.74890140  0.14996449  0.26144342  1
  Rh  Rh17  1  0.74935175  0.73824564  0.88853425  1
  Rh  Rh18  1  0.25095685  0.88843280  0.15006028  1
  Rh  Rh19  1  0.25109860  0.85003551  0.73855658  1
  Rh  Rh20  1  0.25064825  0.26175436  0.11146575  1
