# generated using pymatgen
data_Dy2As7Rh12
_symmetry_space_group_name_H-M   'P 1'
_cell_length_a   3.92471782
_cell_length_b   9.97569238
_cell_length_c   9.97587236
_cell_angle_alpha   119.98212660
_cell_angle_beta   90.00485493
_cell_angle_gamma   89.99982177
_symmetry_Int_Tables_number   1
_chemical_formula_structural   Dy2As7Rh12
_chemical_formula_sum   'Dy2 As7 Rh12'
_cell_volume   338.30716009
_cell_formula_units_Z   1
loop_
 _symmetry_equiv_pos_site_id
 _symmetry_equiv_pos_as_xyz
  1  'x, y, z'
loop_
 _atom_site_type_symbol
 _atom_site_label
 _atom_site_symmetry_multiplicity
 _atom_site_fract_x
 _atom_site_fract_y
 _atom_site_fract_z
 _atom_site_occupancy
  Dy  Dy0  1  0.74887333  0.33334701  0.66672980  1
  Dy  Dy1  1  0.25066800  0.66661046  0.33327959  1
  As  As2  1  0.58572090  0.00000541  0.00003549  1
  As  As3  1  0.75193582  0.87959156  0.59302512  1
  As  As4  1  0.75182807  0.40693609  0.28653069  1
  As  As5  1  0.75177885  0.71352195  0.12039241  1
  As  As6  1  0.24972634  0.11705441  0.40507268  1
  As  As7  1  0.24979710  0.59497042  0.71202600  1
  As  As8  1  0.24970884  0.28799152  0.88292290  1
  Rh  Rh9  1  0.75122444  0.61767834  0.55204896  1
  Rh  Rh10  1  0.75123424  0.44795658  0.06575487  1
  Rh  Rh11  1  0.75131359  0.93431251  0.38221821  1
  Rh  Rh12  1  0.25079674  0.38213958  0.44875803  1
  Rh  Rh13  1  0.25071642  0.55111413  0.93329141  1
  Rh  Rh14  1  0.25062715  0.06670762  0.61786871  1
  Rh  Rh15  1  0.75202122  0.11558757  0.84662677  1
  Rh  Rh16  1  0.75200781  0.15354989  0.26910791  1
  Rh  Rh17  1  0.75189826  0.73109259  0.88444800  1
  Rh  Rh18  1  0.25063452  0.88654186  0.14571690  1
  Rh  Rh19  1  0.25074355  0.85426588  0.74070954  1
  Rh  Rh20  1  0.25074484  0.25902464  0.11343600  1
