# generated using pymatgen
data_CsUSbO6
_symmetry_space_group_name_H-M   'P 1'
_cell_length_a   7.70788902
_cell_length_b   7.41607150
_cell_length_c   7.95974919
_cell_angle_alpha   90.00000000
_cell_angle_beta   58.91308143
_cell_angle_gamma   118.75532214
_symmetry_Int_Tables_number   1
_chemical_formula_structural   CsUSbO6
_chemical_formula_sum   'Cs2 U2 Sb2 O12'
_cell_volume   322.36375487
_cell_formula_units_Z   2
loop_
 _symmetry_equiv_pos_site_id
 _symmetry_equiv_pos_as_xyz
  1  'x, y, z'
loop_
 _atom_site_type_symbol
 _atom_site_label
 _atom_site_symmetry_multiplicity
 _atom_site_fract_x
 _atom_site_fract_y
 _atom_site_fract_z
 _atom_site_occupancy
  Cs  Cs0  1  0.75651079  0.37825539  0.37174461  1
  Cs  Cs1  1  0.24348921  0.62174461  0.62825539  1
  U  U2  1  -0.00000000  0.00000000  0.50000000  1
  U  U3  1  -0.00000000  0.00000000  -0.00000000  1
  Sb  Sb4  1  0.50000000  0.50000000  -0.00000000  1
  Sb  Sb5  1  0.50000000  0.00000000  -0.00000000  1
  O  O6  1  0.86474013  0.93237006  0.31762994  1
  O  O7  1  0.63568229  0.31784115  0.93215885  1
  O  O8  1  0.25131969  0.93174362  0.94380354  1
  O  O9  1  0.25131969  0.31957607  0.30487676  1
  O  O10  1  0.25131969  0.31957607  0.94380354  1
  O  O11  1  0.25131969  0.93174362  0.30487676  1
  O  O12  1  0.13525987  0.06762994  0.68237006  1
  O  O13  1  0.36431771  0.68215885  0.06784115  1
  O  O14  1  0.74868031  0.06825638  0.05619646  1
  O  O15  1  0.74868031  0.68042393  0.69512324  1
  O  O16  1  0.74868031  0.68042393  0.05619646  1
  O  O17  1  0.74868031  0.06825638  0.69512324  1
