# generated using pymatgen
data_CeThB8
_symmetry_space_group_name_H-M   'P 1'
_cell_length_a   4.10439043
_cell_length_b   7.22129749
_cell_length_c   7.22129749
_cell_angle_alpha   89.52283148
_cell_angle_beta   90.00000000
_cell_angle_gamma   90.00000000
_symmetry_Int_Tables_number   1
_chemical_formula_structural   CeThB8
_chemical_formula_sum   'Ce2 Th2 B16'
_cell_volume   214.02478927
_cell_formula_units_Z   2
loop_
 _symmetry_equiv_pos_site_id
 _symmetry_equiv_pos_as_xyz
  1  'x, y, z'
loop_
 _atom_site_type_symbol
 _atom_site_label
 _atom_site_symmetry_multiplicity
 _atom_site_fract_x
 _atom_site_fract_y
 _atom_site_fract_z
 _atom_site_occupancy
  Ce  Ce0  1  0.00000000  0.31459301  0.81459301  1
  Ce  Ce1  1  0.00000000  0.68540699  0.18540699  1
  Th  Th2  1  0.00000000  0.18631959  0.31368041  1
  Th  Th3  1  0.00000000  0.81368041  0.68631959  1
  B  B4  1  0.79847538  0.50000000  0.50000000  1
  B  B5  1  0.79847538  -0.00000000  0.00000000  1
  B  B6  1  0.20152462  0.50000000  0.50000000  1
  B  B7  1  0.20152462  -0.00000000  0.00000000  1
  B  B8  1  0.50000000  0.53805886  0.67578289  1
  B  B9  1  0.50000000  0.46194114  0.32421711  1
  B  B10  1  0.50000000  0.95887929  0.17483276  1
  B  B11  1  0.50000000  0.04112071  0.82516724  1
  B  B12  1  0.50000000  0.67483276  0.45887929  1
  B  B13  1  0.50000000  0.32516724  0.54112071  1
  B  B14  1  0.50000000  0.17578289  0.03805886  1
  B  B15  1  0.50000000  0.82421711  0.96194114  1
  B  B16  1  0.50000000  0.08884829  0.58884829  1
  B  B17  1  0.50000000  0.91115171  0.41115171  1
  B  B18  1  0.50000000  0.41099129  0.08900871  1
  B  B19  1  0.50000000  0.58900871  0.91099129  1
