# generated using pymatgen
data_Li2VO2F
_symmetry_space_group_name_H-M   'P 1'
_cell_length_a   3.02449526
_cell_length_b   9.10033280
_cell_length_c   8.94934353
_cell_angle_alpha   109.64952963
_cell_angle_beta   89.92124162
_cell_angle_gamma   90.21367874
_symmetry_Int_Tables_number   1
_chemical_formula_structural   Li2VO2F
_chemical_formula_sum   'Li8 V4 O8 F4'
_cell_volume   231.97536247
_cell_formula_units_Z   4
loop_
 _symmetry_equiv_pos_site_id
 _symmetry_equiv_pos_as_xyz
  1  'x, y, z'
loop_
 _atom_site_type_symbol
 _atom_site_label
 _atom_site_symmetry_multiplicity
 _atom_site_fract_x
 _atom_site_fract_y
 _atom_site_fract_z
 _atom_site_occupancy
  Li  Li0  1  0.99745877  0.11962149  0.25566112  1
  Li  Li1  1  0.99979741  0.58305965  0.73611234  1
  Li  Li2  1  0.00138919  0.37854145  0.25602921  1
  Li  Li3  1  0.00118321  0.91535395  0.75022091  1
  Li  Li4  1  0.49992301  0.32805331  0.47349307  1
  Li  Li5  1  0.50050954  0.16406594  0.02699220  1
  Li  Li6  1  0.49865764  0.65939661  0.50604757  1
  Li  Li7  1  0.50019575  0.86342708  0.00230602  1
  V  V8  1  0.00257451  0.75491088  0.25704217  1
  V  V9  1  0.99022999  0.24786357  0.74700022  1
  V  V10  1  0.50502047  0.47931381  0.00223735  1
  V  V11  1  0.50594925  0.00282378  0.49892844  1
  O  O12  1  0.99950088  0.15882929  0.50940490  1
  O  O13  1  0.99297122  0.33748244  0.99114443  1
  O  O14  1  0.01214293  0.84292802  0.49648702  1
  O  O15  1  0.51038880  0.90412192  0.25436522  1
  O  O16  1  0.49694647  0.60144699  0.23270558  1
  O  O17  1  0.49570613  0.09165686  0.74093363  1
  O  O18  1  0.48791187  0.41242795  0.76479388  1
  O  O19  1  0.49910701  0.25002681  0.24959309  1
  F  F20  1  0.00187424  0.65671940  0.99738954  1
  F  F21  1  0.00128816  0.98878420  0.98769313  1
  F  F22  1  0.99786476  0.51163548  0.50767102  1
  F  F23  1  0.50132878  0.74751110  0.75574695  1
