# generated using pymatgen
data_CeThB12
_symmetry_space_group_name_H-M   'P 1'
_cell_length_a   4.11226288
_cell_length_b   4.11226288
_cell_length_c   8.22805196
_cell_angle_alpha   90.00000000
_cell_angle_beta   90.00000000
_cell_angle_gamma   90.00000000
_symmetry_Int_Tables_number   1
_chemical_formula_structural   CeThB12
_chemical_formula_sum   'Ce1 Th1 B12'
_cell_volume   139.14216760
_cell_formula_units_Z   1
loop_
 _symmetry_equiv_pos_site_id
 _symmetry_equiv_pos_as_xyz
  1  'x, y, z'
loop_
 _atom_site_type_symbol
 _atom_site_label
 _atom_site_symmetry_multiplicity
 _atom_site_fract_x
 _atom_site_fract_y
 _atom_site_fract_z
 _atom_site_occupancy
  Ce  Ce0  1  0.00000000  0.00000000  0.00000000  1
  Th  Th1  1  0.00000000  0.00000000  0.50000000  1
  B  B2  1  0.19781554  0.50000000  0.25004825  1
  B  B3  1  0.19781554  0.50000000  0.74995175  1
  B  B4  1  0.50000000  0.50000000  0.40125148  1
  B  B5  1  0.50000000  0.50000000  0.90103724  1
  B  B6  1  0.50000000  0.19781554  0.25004825  1
  B  B7  1  0.50000000  0.19781554  0.74995175  1
  B  B8  1  0.50000000  0.50000000  0.09896276  1
  B  B9  1  0.50000000  0.50000000  0.59874852  1
  B  B10  1  0.50000000  0.80218446  0.25004825  1
  B  B11  1  0.50000000  0.80218446  0.74995175  1
  B  B12  1  0.80218446  0.50000000  0.25004825  1
  B  B13  1  0.80218446  0.50000000  0.74995175  1
