# generated using pymatgen
data_Cs2CoCu3F10
_symmetry_space_group_name_H-M   'P 1'
_cell_length_a   6.95186558
_cell_length_b   6.83803407
_cell_length_c   7.31265192
_cell_angle_alpha   62.14029870
_cell_angle_beta   61.69495160
_cell_angle_gamma   65.48784128
_symmetry_Int_Tables_number   1
_chemical_formula_structural   Cs2CoCu3F10
_chemical_formula_sum   'Cs2 Co1 Cu3 F10'
_cell_volume   262.10843360
_cell_formula_units_Z   1
loop_
 _symmetry_equiv_pos_site_id
 _symmetry_equiv_pos_as_xyz
  1  'x, y, z'
loop_
 _atom_site_type_symbol
 _atom_site_label
 _atom_site_symmetry_multiplicity
 _atom_site_fract_x
 _atom_site_fract_y
 _atom_site_fract_z
 _atom_site_occupancy
  Cs  Cs0  1  0.62081620  0.61450199  0.62679326  1
  Cs  Cs1  1  0.37918380  0.38549801  0.37320674  1
  Co  Co2  1  -0.00000000  -0.00000000  0.50000000  1
  Cu  Cu3  1  -0.00000000  0.50000000  0.00000000  1
  Cu  Cu4  1  0.50000000  -0.00000000  0.00000000  1
  Cu  Cu5  1  -0.00000000  -0.00000000  0.00000000  1
  F  F6  1  0.26373699  0.25719296  0.91920836  1
  F  F7  1  0.73626301  0.74280704  0.08079164  1
  F  F8  1  0.07314938  0.08660500  0.68661268  1
  F  F9  1  0.92685062  0.91339500  0.31338732  1
  F  F10  1  0.05203671  0.66312456  0.69146328  1
  F  F11  1  0.33822483  0.95066190  0.30660667  1
  F  F12  1  0.94796329  0.33687544  0.30853672  1
  F  F13  1  0.66177517  0.04933810  0.69339333  1
  F  F14  1  0.78991826  0.28818227  0.99696463  1
  F  F15  1  0.21008174  0.71181773  0.00303537  1
