# generated using pymatgen
data_Cr4InAgS8
_symmetry_space_group_name_H-M   'P 1'
_cell_length_a   7.27503064
_cell_length_b   7.27503064
_cell_length_c   7.27503064
_cell_angle_alpha   90.00000000
_cell_angle_beta   60.00000000
_cell_angle_gamma   120.00000000
_symmetry_Int_Tables_number   1
_chemical_formula_structural   Cr4InAgS8
_chemical_formula_sum   'Cr4 In1 Ag1 S8'
_cell_volume   272.26353736
_cell_formula_units_Z   1
loop_
 _symmetry_equiv_pos_site_id
 _symmetry_equiv_pos_as_xyz
  1  'x, y, z'
loop_
 _atom_site_type_symbol
 _atom_site_label
 _atom_site_symmetry_multiplicity
 _atom_site_fract_x
 _atom_site_fract_y
 _atom_site_fract_z
 _atom_site_occupancy
  Cr  Cr0  1  0.75781621  0.37890811  0.86327568  1
  Cr  Cr1  1  0.24218379  0.37890811  0.37890811  1
  Cr  Cr2  1  0.24218379  0.86327568  0.37890811  1
  Cr  Cr3  1  0.75781621  0.37890811  0.37890811  1
  In  In4  1  -0.00000000  -0.00000000  -0.00000000  1
  Ag  Ag5  1  0.50000000  0.75000000  0.75000000  1
  S  S6  1  0.28038873  0.14019437  0.57941690  1
  S  S7  1  0.71961127  0.14019437  0.14019437  1
  S  S8  1  0.71961127  0.57941690  0.14019437  1
  S  S9  1  0.28038873  0.14019437  0.14019437  1
  S  S10  1  0.21927775  0.60963888  0.17108337  1
  S  S11  1  0.78072225  0.60963888  0.60963888  1
  S  S12  1  0.78072225  0.17108337  0.60963888  1
  S  S13  1  0.21927775  0.60963888  0.60963888  1
