# generated using pymatgen
data_CoTeO4
_symmetry_space_group_name_H-M   'P 1'
_cell_length_a   4.73996518
_cell_length_b   5.66830004
_cell_length_c   5.64103208
_cell_angle_alpha   113.03559609
_cell_angle_beta   90.00000000
_cell_angle_gamma   90.00000000
_symmetry_Int_Tables_number   1
_chemical_formula_structural   CoTeO4
_chemical_formula_sum   'Co2 Te2 O8'
_cell_volume   139.47552533
_cell_formula_units_Z   2
loop_
 _symmetry_equiv_pos_site_id
 _symmetry_equiv_pos_as_xyz
  1  'x, y, z'
loop_
 _atom_site_type_symbol
 _atom_site_label
 _atom_site_symmetry_multiplicity
 _atom_site_fract_x
 _atom_site_fract_y
 _atom_site_fract_z
 _atom_site_occupancy
  Co  Co0  1  0.50045013  0.25050077  0.74883917  1
  Co  Co1  1  0.99954987  0.25050077  0.24883917  1
  Te  Te2  1  0.00013117  0.74979250  0.75091420  1
  Te  Te3  1  0.49986883  0.74979250  0.25091420  1
  O  O4  1  0.31948030  0.07570926  0.38869351  1
  O  O5  1  0.78216642  0.89818244  0.08048590  1
  O  O6  1  0.71783358  0.89818244  0.58048590  1
  O  O7  1  0.18051970  0.07570926  0.88869351  1
  O  O8  1  0.82042621  0.42361084  0.61116168  1
  O  O9  1  0.28363512  0.60220419  0.91990555  1
  O  O10  1  0.21636488  0.60220419  0.41990555  1
  O  O11  1  0.67957379  0.42361084  0.11116168  1
