# generated using pymatgen
data_Cs2GeB4O9
_symmetry_space_group_name_H-M   'P 1'
_cell_length_a   6.99252409
_cell_length_b   6.84209591
_cell_length_c   7.10789734
_cell_angle_alpha   60.06046147
_cell_angle_beta   59.51270937
_cell_angle_gamma   87.86115560
_symmetry_Int_Tables_number   1
_chemical_formula_structural   Cs2GeB4O9
_chemical_formula_sum   'Cs2 Ge1 B4 O9'
_cell_volume   243.09889385
_cell_formula_units_Z   1
loop_
 _symmetry_equiv_pos_site_id
 _symmetry_equiv_pos_as_xyz
  1  'x, y, z'
loop_
 _atom_site_type_symbol
 _atom_site_label
 _atom_site_symmetry_multiplicity
 _atom_site_fract_x
 _atom_site_fract_y
 _atom_site_fract_z
 _atom_site_occupancy
  Cs  Cs0  1  0.25892382  0.75702058  0.48269595  1
  Cs  Cs1  1  0.99034463  0.98637371  0.02216918  1
  Ge  Ge2  1  0.74588291  0.24112328  0.51073706  1
  B  B3  1  0.66437463  0.52141833  0.11081486  1
  B  B4  1  0.22817490  0.36327548  0.10925147  1
  B  B5  1  0.64529402  0.41199989  0.83631347  1
  B  B6  1  0.52385428  0.74537125  0.83251548  1
  O  O7  1  0.59751008  0.71896085  0.00798283  1
  O  O8  1  0.39638877  0.26560994  0.01054723  1
  O  O9  1  0.71497735  0.37679896  0.02107039  1
  O  O10  1  0.26932733  0.59792652  0.01681940  1
  O  O11  1  0.67974982  0.48224926  0.31452684  1
  O  O12  1  0.00906808  0.20062030  0.31105656  1
  O  O13  1  0.79694360  0.31715307  0.68684008  1
  O  O14  1  0.52339860  0.98928803  0.67817773  1
  O  O15  1  0.66578717  0.65861055  0.67288147  1
