# generated using pymatgen
data_CrNiPO5
_symmetry_space_group_name_H-M   'P 1'
_cell_length_a   5.38435741
_cell_length_b   5.38435741
_cell_length_c   7.18476650
_cell_angle_alpha   68.35838393
_cell_angle_beta   68.35838393
_cell_angle_gamma   90.27651676
_symmetry_Int_Tables_number   1
_chemical_formula_structural   CrNiPO5
_chemical_formula_sum   'Cr2 Ni2 P2 O10'
_cell_volume   177.55760024
_cell_formula_units_Z   2
loop_
 _symmetry_equiv_pos_site_id
 _symmetry_equiv_pos_as_xyz
  1  'x, y, z'
loop_
 _atom_site_type_symbol
 _atom_site_label
 _atom_site_symmetry_multiplicity
 _atom_site_fract_x
 _atom_site_fract_y
 _atom_site_fract_z
 _atom_site_occupancy
  Cr  Cr0  1  0.50000000  0.50000000  -0.00000000  1
  Cr  Cr1  1  0.00000000  0.00000000  0.50000000  1
  Ni  Ni2  1  0.50000000  0.00000000  0.50000000  1
  Ni  Ni3  1  0.50000000  0.00000000  -0.00000000  1
  P  P4  1  0.88004769  0.61995231  0.25000000  1
  P  P5  1  0.11995231  0.38004769  0.75000000  1
  O  O6  1  0.29892646  0.31709485  0.88201071  1
  O  O7  1  0.81709485  0.79892646  0.38201071  1
  O  O8  1  0.81182409  0.31125545  0.39113295  1
  O  O9  1  0.81125545  0.31182409  0.89113295  1
  O  O10  1  0.70107354  0.68290515  0.11798929  1
  O  O11  1  0.18290515  0.20107354  0.61798929  1
  O  O12  1  0.18817591  0.68874455  0.60886705  1
  O  O13  1  0.18874455  0.68817591  0.10886705  1
  O  O14  1  0.63388379  0.86611621  0.75000000  1
  O  O15  1  0.36611621  0.13388379  0.25000000  1
