# generated using pymatgen
data_Ce2(TlSn)3
_symmetry_space_group_name_H-M   'P 1'
_cell_length_a   4.71228248
_cell_length_b   4.83157462
_cell_length_c   9.70231142
_cell_angle_alpha   90.00000000
_cell_angle_beta   90.00000000
_cell_angle_gamma   90.00000000
_symmetry_Int_Tables_number   1
_chemical_formula_structural   Ce2(TlSn)3
_chemical_formula_sum   'Ce2 Tl3 Sn3'
_cell_volume   220.89974682
_cell_formula_units_Z   1
loop_
 _symmetry_equiv_pos_site_id
 _symmetry_equiv_pos_as_xyz
  1  'x, y, z'
loop_
 _atom_site_type_symbol
 _atom_site_label
 _atom_site_symmetry_multiplicity
 _atom_site_fract_x
 _atom_site_fract_y
 _atom_site_fract_z
 _atom_site_occupancy
  Ce  Ce0  1  0.00000000  -0.00000000  0.01092378  1
  Ce  Ce1  1  0.00000000  -0.00000000  0.48907622  1
  Tl  Tl2  1  0.50000000  -0.00000000  0.75000000  1
  Tl  Tl3  1  0.00000000  0.50000000  0.25000000  1
  Tl  Tl4  1  0.00000000  0.50000000  0.75000000  1
  Sn  Sn5  1  0.50000000  0.50000000  0.00342836  1
  Sn  Sn6  1  0.50000000  0.50000000  0.49657164  1
  Sn  Sn7  1  0.50000000  -0.00000000  0.25000000  1
