# generated using pymatgen
data_CaZrTi2O7
_symmetry_space_group_name_H-M   'P 1'
_cell_length_a   7.28565537
_cell_length_b   7.31520218
_cell_length_c   11.47749424
_cell_angle_alpha   80.97728778
_cell_angle_beta   80.84894126
_cell_angle_gamma   60.60793726
_symmetry_Int_Tables_number   1
_chemical_formula_structural   CaZrTi2O7
_chemical_formula_sum   'Ca4 Zr4 Ti8 O28'
_cell_volume   523.97312407
_cell_formula_units_Z   4
loop_
 _symmetry_equiv_pos_site_id
 _symmetry_equiv_pos_as_xyz
  1  'x, y, z'
loop_
 _atom_site_type_symbol
 _atom_site_label
 _atom_site_symmetry_multiplicity
 _atom_site_fract_x
 _atom_site_fract_y
 _atom_site_fract_z
 _atom_site_occupancy
  Ca  Ca0  1  0.24760258  0.49970152  0.00047601  1
  Ca  Ca1  1  0.50008944  0.75362985  0.48912095  1
  Ca  Ca2  1  0.75239742  0.50029848  0.99952399  1
  Ca  Ca3  1  0.49991056  0.24637015  0.51087905  1
  Zr  Zr4  1  0.00349526  0.24302232  0.52701815  1
  Zr  Zr5  1  0.75566656  0.99912677  0.97470615  1
  Zr  Zr6  1  0.99650474  0.75697768  0.47298185  1
  Zr  Zr7  1  0.24433344  0.00087323  0.02529385  1
  Ti  Ti8  1  0.13709499  0.37260669  0.75263652  1
  Ti  Ti9  1  0.62224390  0.88498950  0.74580366  1
  Ti  Ti10  1  0.86290501  0.62739331  0.24736348  1
  Ti  Ti11  1  0.37775610  0.11501050  0.25419634  1
  Ti  Ti12  1  0.87463004  0.12754123  0.25169539  1
  Ti  Ti13  1  0.12536996  0.87245877  0.74830461  1
  Ti  Ti14  1  0.41473631  0.51744111  0.24613580  1
  Ti  Ti15  1  0.58526369  0.48255889  0.75386420  1
  O  O16  1  0.19851440  0.44512868  0.22247334  1
  O  O17  1  0.57926563  0.83569337  0.28170653  1
  O  O18  1  0.80148560  0.55487132  0.77752666  1
  O  O19  1  0.42073437  0.16430663  0.71829347  1
  O  O20  1  0.33718737  0.60408681  0.39508553  1
  O  O21  1  0.39168833  0.66895629  0.09843274  1
  O  O22  1  0.66281263  0.39591319  0.60491447  1
  O  O23  1  0.60831167  0.33104371  0.90156726  1
  O  O24  1  0.12082565  0.29569025  0.92577012  1
  O  O25  1  0.70839791  0.87809217  0.57110758  1
  O  O26  1  0.87917435  0.70430975  0.07422988  1
  O  O27  1  0.29160209  0.12190783  0.42889242  1
  O  O28  1  0.06083839  0.16285050  0.70905698  1
  O  O29  1  0.83694223  0.93228071  0.79094175  1
  O  O30  1  0.93916161  0.83714950  0.29094302  1
  O  O31  1  0.16305777  0.06771929  0.20905825  1
  O  O32  1  0.25238068  0.55627132  0.77740888  1
  O  O33  1  0.43233409  0.78028855  0.71673195  1
  O  O34  1  0.74761932  0.44372868  0.22259112  1
  O  O35  1  0.56766591  0.21971145  0.28326805  1
  O  O36  1  0.54095429  0.88055465  0.91741656  1
  O  O37  1  0.11780731  0.46413088  0.58348045  1
  O  O38  1  0.45904571  0.11944535  0.08258344  1
  O  O39  1  0.88219269  0.53586912  0.41651955  1
  O  O40  1  0.87841075  0.11867730  0.08240694  1
  O  O41  1  0.87937137  0.12454876  0.42021116  1
  O  O42  1  0.12158925  0.88132270  0.91759306  1
  O  O43  1  0.12062863  0.87545124  0.57978884  1
