# generated using pymatgen
data_CaLaMnNbO6
_symmetry_space_group_name_H-M   'P 1'
_cell_length_a   5.63175639
_cell_length_b   5.81284161
_cell_length_c   8.06815729
_cell_angle_alpha   90.00000000
_cell_angle_beta   89.89196013
_cell_angle_gamma   90.00000000
_symmetry_Int_Tables_number   1
_chemical_formula_structural   CaLaMnNbO6
_chemical_formula_sum   'Ca2 La2 Mn2 Nb2 O12'
_cell_volume   264.12282496
_cell_formula_units_Z   2
loop_
 _symmetry_equiv_pos_site_id
 _symmetry_equiv_pos_as_xyz
  1  'x, y, z'
loop_
 _atom_site_type_symbol
 _atom_site_label
 _atom_site_symmetry_multiplicity
 _atom_site_fract_x
 _atom_site_fract_y
 _atom_site_fract_z
 _atom_site_occupancy
  Ca  Ca0  1  0.48862613  0.55096819  0.24803965  1
  Ca  Ca1  1  0.98862613  0.94903181  0.74803965  1
  La  La2  1  0.51087372  0.45008083  0.75240662  1
  La  La3  1  0.01087372  0.04991917  0.25240662  1
  Mn  Mn4  1  0.00103294  0.50270229  0.49954850  1
  Mn  Mn5  1  0.50103294  0.99729771  0.99954850  1
  Nb  Nb6  1  0.00042209  0.50221393  0.00164249  1
  Nb  Nb7  1  0.50042209  0.99778607  0.50164249  1
  O  O8  1  0.20889374  0.80896093  0.44998662  1
  O  O9  1  0.70889374  0.69103907  0.94998662  1
  O  O10  1  0.79103726  0.18766734  0.55022846  1
  O  O11  1  0.29103726  0.31233266  0.05022846  1
  O  O12  1  0.31579714  0.28670442  0.44207419  1
  O  O13  1  0.81579714  0.21329558  0.94207419  1
  O  O14  1  0.68717227  0.71013695  0.55637955  1
  O  O15  1  0.18717227  0.78986305  0.05637955  1
  O  O16  1  0.60047579  0.95954759  0.26071068  1
  O  O17  1  0.10047579  0.54045241  0.76071068  1
  O  O18  1  0.39566892  0.03665256  0.73898323  1
  O  O19  1  0.89566892  0.46334744  0.23898323  1
