# generated using pymatgen
data_CeGa2Cu3
_symmetry_space_group_name_H-M   'P 1'
_cell_length_a   4.19380023
_cell_length_b   5.17040188
_cell_length_c   5.17040194
_cell_angle_alpha   61.56278774
_cell_angle_beta   90.00000000
_cell_angle_gamma   90.00000000
_symmetry_Int_Tables_number   1
_chemical_formula_structural   CeGa2Cu3
_chemical_formula_sum   'Ce1 Ga2 Cu3'
_cell_volume   98.58547158
_cell_formula_units_Z   1
loop_
 _symmetry_equiv_pos_site_id
 _symmetry_equiv_pos_as_xyz
  1  'x, y, z'
loop_
 _atom_site_type_symbol
 _atom_site_label
 _atom_site_symmetry_multiplicity
 _atom_site_fract_x
 _atom_site_fract_y
 _atom_site_fract_z
 _atom_site_occupancy
  Ce  Ce0  1  -0.00000000  0.99997955  0.00002045  1
  Ga  Ga1  1  0.50000000  0.49999434  0.00001132  1
  Ga  Ga2  1  0.50000000  0.99998868  0.50000566  1
  Cu  Cu3  1  -0.00000000  0.33620586  0.33626639  1
  Cu  Cu4  1  0.00000000  0.66373361  0.66379414  1
  Cu  Cu5  1  0.50000000  0.49999796  0.50000204  1
