# generated using pymatgen
data_CaGa3Pt
_symmetry_space_group_name_H-M   'P 1'
_cell_length_a   4.23406593
_cell_length_b   4.23406593
_cell_length_c   6.31715388
_cell_angle_alpha   70.41989184
_cell_angle_beta   70.41989184
_cell_angle_gamma   90.00000000
_symmetry_Int_Tables_number   1
_chemical_formula_structural   CaGa3Pt
_chemical_formula_sum   'Ca1 Ga3 Pt1'
_cell_volume   99.72289318
_cell_formula_units_Z   1
loop_
 _symmetry_equiv_pos_site_id
 _symmetry_equiv_pos_as_xyz
  1  'x, y, z'
loop_
 _atom_site_type_symbol
 _atom_site_label
 _atom_site_symmetry_multiplicity
 _atom_site_fract_x
 _atom_site_fract_y
 _atom_site_fract_z
 _atom_site_occupancy
  Ca  Ca0  1  0.99965047  0.99965047  0.00069907  1
  Ga  Ga1  1  0.74514372  0.24514372  0.50971256  1
  Ga  Ga2  1  0.24514372  0.74514372  0.50971256  1
  Ga  Ga3  1  0.39306705  0.39306705  0.21386591  1
  Pt  Pt4  1  0.61699505  0.61699505  0.76600991  1
