# generated using pymatgen
data_Li6Mn(OF2)2
_symmetry_space_group_name_H-M   'P 1'
_cell_length_a   5.50152394
_cell_length_b   5.49327291
_cell_length_c   11.04768813
_cell_angle_alpha   101.87905544
_cell_angle_beta   101.56435239
_cell_angle_gamma   99.93330546
_symmetry_Int_Tables_number   1
_chemical_formula_structural   Li6Mn(OF2)2
_chemical_formula_sum   'Li12 Mn2 O4 F8'
_cell_volume   312.03521970
_cell_formula_units_Z   2
loop_
 _symmetry_equiv_pos_site_id
 _symmetry_equiv_pos_as_xyz
  1  'x, y, z'
loop_
 _atom_site_type_symbol
 _atom_site_label
 _atom_site_symmetry_multiplicity
 _atom_site_fract_x
 _atom_site_fract_y
 _atom_site_fract_z
 _atom_site_occupancy
  Li  Li0  1  0.31946194  0.00328267  0.81320999  1
  Li  Li1  1  0.40217189  0.97517120  0.33379503  1
  Li  Li2  1  0.35716791  0.66837882  0.99260965  1
  Li  Li3  1  0.32611006  0.63744574  0.51106831  1
  Li  Li4  1  0.01660349  0.31459551  0.31050763  1
  Li  Li5  1  0.98194574  0.39239752  0.83074018  1
  Li  Li6  1  0.01805426  0.60760248  0.16925982  1
  Li  Li7  1  0.98339651  0.68540449  0.68949237  1
  Li  Li8  1  0.67388994  0.36255426  0.48893169  1
  Li  Li9  1  0.64283209  0.33162118  0.00739035  1
  Li  Li10  1  0.59782811  0.02482880  0.66620497  1
  Li  Li11  1  0.68053806  0.99671733  0.18679001  1
  Mn  Mn12  1  0.00000000  0.00000000  0.00000000  1
  Mn  Mn13  1  0.00000000  0.00000000  0.50000000  1
  O  O14  1  0.23798083  0.89126696  0.62948400  1
  O  O15  1  0.10800639  0.75424781  0.87237435  1
  O  O16  1  0.89199361  0.24575219  0.12762565  1
  O  O17  1  0.76201917  0.10873304  0.37051600  1
  F  F18  1  0.30370526  0.85713770  0.15023924  1
  F  F19  1  0.14895817  0.69396901  0.35226552  1
  F  F20  1  0.71932712  0.69484086  0.06659433  1
  F  F21  1  0.68822753  0.72329500  0.56675188  1
  F  F22  1  0.31177247  0.27670500  0.43324812  1
  F  F23  1  0.28067288  0.30515914  0.93340567  1
  F  F24  1  0.85104183  0.30603099  0.64773448  1
  F  F25  1  0.69629474  0.14286230  0.84976076  1
