# generated using pymatgen
data_Ce4H11
_symmetry_space_group_name_H-M   'P 1'
_cell_length_a   5.44932279
_cell_length_b   6.63125187
_cell_length_c   5.44932279
_cell_angle_alpha   114.26024673
_cell_angle_beta   90.00000000
_cell_angle_gamma   65.73975327
_symmetry_Int_Tables_number   1
_chemical_formula_structural   Ce4H11
_chemical_formula_sum   'Ce4 H11'
_cell_volume   160.25997013
_cell_formula_units_Z   1
loop_
 _symmetry_equiv_pos_site_id
 _symmetry_equiv_pos_as_xyz
  1  'x, y, z'
loop_
 _atom_site_type_symbol
 _atom_site_label
 _atom_site_symmetry_multiplicity
 _atom_site_fract_x
 _atom_site_fract_y
 _atom_site_fract_z
 _atom_site_occupancy
  Ce  Ce0  1  0.75000000  0.50000000  0.75000000  1
  Ce  Ce1  1  0.50876775  0.98246450  0.49123225  1
  Ce  Ce2  1  0.25000000  0.50000000  0.25000000  1
  Ce  Ce3  1  0.99123225  0.01753550  0.00876775  1
  H  H4  1  0.36707408  0.74111615  0.10819023  1
  H  H5  1  0.13292592  0.25888385  0.86707408  1
  H  H6  1  0.89180977  0.74111615  0.63292592  1
  H  H7  1  0.60819023  0.25888385  0.39180977  1
  H  H8  1  0.60819023  0.25888385  0.86707408  1
  H  H9  1  0.36707408  0.74111615  0.63292592  1
  H  H10  1  0.13292592  0.25888385  0.39180977  1
  H  H11  1  0.89180977  0.74111615  0.10819023  1
  H  H12  1  0.00000000  -0.00000000  0.50000000  1
  H  H13  1  0.75000000  0.50000000  0.25000000  1
  H  H14  1  0.50000000  -0.00000000  -0.00000000  1
