# generated using pymatgen
data_Ca2LaTaO6
_symmetry_space_group_name_H-M   'P 1'
_cell_length_a   5.70567949
_cell_length_b   5.93742916
_cell_length_c   8.23748264
_cell_angle_alpha   90.00000000
_cell_angle_beta   90.09322044
_cell_angle_gamma   90.00000000
_symmetry_Int_Tables_number   1
_chemical_formula_structural   Ca2LaTaO6
_chemical_formula_sum   'Ca4 La2 Ta2 O12'
_cell_volume   279.06138849
_cell_formula_units_Z   2
loop_
 _symmetry_equiv_pos_site_id
 _symmetry_equiv_pos_as_xyz
  1  'x, y, z'
loop_
 _atom_site_type_symbol
 _atom_site_label
 _atom_site_symmetry_multiplicity
 _atom_site_fract_x
 _atom_site_fract_y
 _atom_site_fract_z
 _atom_site_occupancy
  Ca  Ca0  1  0.51232047  0.94879033  0.24556760  1
  Ca  Ca1  1  0.01232047  0.55120967  0.74556760  1
  Ca  Ca2  1  0.99926640  0.99708996  0.49956114  1
  Ca  Ca3  1  0.49926640  0.50291004  0.99956114  1
  La  La4  1  0.48728377  0.05223986  0.75434811  1
  La  La5  1  0.98728377  0.44776014  0.25434811  1
  Ta  Ta6  1  0.49958786  0.50106620  0.50123338  1
  Ta  Ta7  1  0.99958786  0.99893380  0.00123338  1
  O  O8  1  0.82837750  0.71595840  0.06744411  1
  O  O9  1  0.32837750  0.78404160  0.56744411  1
  O  O10  1  0.17144961  0.28135752  0.93239410  1
  O  O11  1  0.67144961  0.21864248  0.43239410  1
  O  O12  1  0.38754021  0.55323470  0.27072082  1
  O  O13  1  0.88754021  0.94676530  0.77072082  1
  O  O14  1  0.61354858  0.44930351  0.72934224  1
  O  O15  1  0.11354858  0.05069649  0.22934224  1
  O  O16  1  0.78862600  0.67699373  0.44778563  1
  O  O17  1  0.28862600  0.82300627  0.94778563  1
  O  O18  1  0.21199960  0.32302400  0.55160287  1
  O  O19  1  0.71199960  0.17697600  0.05160287  1
