# generated using pymatgen
data_Ca2MnRuO6
_symmetry_space_group_name_H-M   'P 1'
_cell_length_a   5.51413331
_cell_length_b   5.67400936
_cell_length_c   7.53689811
_cell_angle_alpha   90.00000000
_cell_angle_beta   89.23768050
_cell_angle_gamma   90.00000000
_symmetry_Int_Tables_number   1
_chemical_formula_structural   Ca2MnRuO6
_chemical_formula_sum   'Ca4 Mn2 Ru2 O12'
_cell_volume   235.78789888
_cell_formula_units_Z   2
loop_
 _symmetry_equiv_pos_site_id
 _symmetry_equiv_pos_as_xyz
  1  'x, y, z'
loop_
 _atom_site_type_symbol
 _atom_site_label
 _atom_site_symmetry_multiplicity
 _atom_site_fract_x
 _atom_site_fract_y
 _atom_site_fract_z
 _atom_site_occupancy
  Ca  Ca0  1  0.48884664  0.05553383  0.24949318  1
  Ca  Ca1  1  0.01115336  0.55553383  0.25050682  1
  Ca  Ca2  1  0.51115336  0.94446617  0.75050682  1
  Ca  Ca3  1  0.98884664  0.44446617  0.74949318  1
  Mn  Mn4  1  0.50000000  0.50000000  0.50000000  1
  Mn  Mn5  1  0.00000000  -0.00000000  -0.00000000  1
  Ru  Ru6  1  0.50000000  0.50000000  -0.00000000  1
  Ru  Ru7  1  0.00000000  -0.00000000  0.50000000  1
  O  O8  1  0.30794684  0.78722892  0.04808075  1
  O  O9  1  0.19205316  0.28722892  0.45191925  1
  O  O10  1  0.71071352  0.19490556  0.54772229  1
  O  O11  1  0.78928648  0.69490556  0.95227771  1
  O  O12  1  0.69205316  0.21277108  0.95191925  1
  O  O13  1  0.80794684  0.71277108  0.54808075  1
  O  O14  1  0.28928648  0.80509444  0.45227771  1
  O  O15  1  0.21071352  0.30509444  0.04772229  1
  O  O16  1  0.59471145  0.47009859  0.25333921  1
  O  O17  1  0.90528855  0.97009859  0.24666079  1
  O  O18  1  0.40528855  0.52990141  0.74666079  1
  O  O19  1  0.09471145  0.02990141  0.75333921  1
