# generated using pymatgen
data_CaNp(PO4)2
_symmetry_space_group_name_H-M   'P 1'
_cell_length_a   6.37451812
_cell_length_b   6.69404075
_cell_length_c   6.90581844
_cell_angle_alpha   90.57405239
_cell_angle_beta   89.69770819
_cell_angle_gamma   103.93527808
_symmetry_Int_Tables_number   1
_chemical_formula_structural   CaNp(PO4)2
_chemical_formula_sum   'Ca2 Np2 P4 O16'
_cell_volume   285.99162817
_cell_formula_units_Z   2
loop_
 _symmetry_equiv_pos_site_id
 _symmetry_equiv_pos_as_xyz
  1  'x, y, z'
loop_
 _atom_site_type_symbol
 _atom_site_label
 _atom_site_symmetry_multiplicity
 _atom_site_fract_x
 _atom_site_fract_y
 _atom_site_fract_z
 _atom_site_occupancy
  Ca  Ca0  1  0.09301520  0.28613952  0.65021625  1
  Ca  Ca1  1  0.90698480  0.71386048  0.34978375  1
  Np  Np2  1  0.60845898  0.78092116  0.83352274  1
  Np  Np3  1  0.39154102  0.21907884  0.16647726  1
  P  P4  1  0.61295906  0.30335667  0.66501865  1
  P  P5  1  0.11537917  0.80684096  0.83889769  1
  P  P6  1  0.38704094  0.69664333  0.33498135  1
  P  P7  1  0.88462083  0.19315904  0.16110231  1
  O  O8  1  0.80922477  0.47579303  0.61297731  1
  O  O9  1  0.31620199  0.97795963  0.90647553  1
  O  O10  1  0.19077523  0.52420697  0.38702269  1
  O  O11  1  0.68379801  0.02204037  0.09352447  1
  O  O12  1  0.69982491  0.11270397  0.71247982  1
  O  O13  1  0.22881344  0.63306277  0.78887208  1
  O  O14  1  0.30017509  0.88729603  0.28752018  1
  O  O15  1  0.77118656  0.36693723  0.21112792  1
  O  O16  1  0.06611291  0.25208846  0.00588810  1
  O  O17  1  0.55965260  0.74731790  0.49841910  1
  O  O18  1  0.93388709  0.74791154  0.99411190  1
  O  O19  1  0.44034740  0.25268210  0.50158090  1
  O  O20  1  0.50083370  0.38369696  0.84324203  1
  O  O21  1  0.00083721  0.88631848  0.66918367  1
  O  O22  1  0.49916630  0.61630304  0.15675797  1
  O  O23  1  0.99916279  0.11368152  0.33081633  1
