# generated using pymatgen
data_CaLa3(FeO3)4
_symmetry_space_group_name_H-M   'P 1'
_cell_length_a   5.56820110
_cell_length_b   5.55936584
_cell_length_c   7.86406377
_cell_angle_alpha   90.00000000
_cell_angle_beta   90.00000000
_cell_angle_gamma   89.94069236
_symmetry_Int_Tables_number   1
_chemical_formula_structural   CaLa3(FeO3)4
_chemical_formula_sum   'Ca1 La3 Fe4 O12'
_cell_volume   243.43720883
_cell_formula_units_Z   1
loop_
 _symmetry_equiv_pos_site_id
 _symmetry_equiv_pos_as_xyz
  1  'x, y, z'
loop_
 _atom_site_type_symbol
 _atom_site_label
 _atom_site_symmetry_multiplicity
 _atom_site_fract_x
 _atom_site_fract_y
 _atom_site_fract_z
 _atom_site_occupancy
  Ca  Ca0  1  0.46812500  0.49249241  0.75000000  1
  La  La1  1  0.96951816  0.00709840  0.75000000  1
  La  La2  1  0.52997809  0.50653701  0.25000000  1
  La  La3  1  0.03114953  0.99475399  0.25000000  1
  Fe  Fe4  1  0.49973769  0.00077460  0.99564856  1
  Fe  Fe5  1  0.00055045  0.49955041  0.50384438  1
  Fe  Fe6  1  0.49973769  0.00077460  0.50435144  1
  Fe  Fe7  1  0.00055045  0.49955041  0.99615562  1
  O  O8  1  0.21318834  0.21330261  0.53715131  1
  O  O9  1  0.71539386  0.28403866  0.95801637  1
  O  O10  1  0.78410648  0.78372861  0.04157821  1
  O  O11  1  0.28097999  0.72011807  0.45609431  1
  O  O12  1  0.78410648  0.78372861  0.45842179  1
  O  O13  1  0.28097999  0.72011807  0.04390569  1
  O  O14  1  0.21318834  0.21330261  0.96284869  1
  O  O15  1  0.71539386  0.28403866  0.54198363  1
  O  O16  1  0.02199238  0.57718659  0.75000000  1
  O  O17  1  0.51679879  0.91679991  0.75000000  1
  O  O18  1  0.98593027  0.42676632  0.25000000  1
  O  O19  1  0.48859414  0.07533943  0.25000000  1
