# generated using pymatgen
data_CaNd2Mn3O9
_symmetry_space_group_name_H-M   'P 1'
_cell_length_a   5.49570995
_cell_length_b   16.74955674
_cell_length_c   7.69655588
_cell_angle_alpha   90.00000000
_cell_angle_beta   90.00000000
_cell_angle_gamma   90.00000000
_symmetry_Int_Tables_number   1
_chemical_formula_structural   CaNd2Mn3O9
_chemical_formula_sum   'Ca4 Nd8 Mn12 O36'
_cell_volume   708.47339971
_cell_formula_units_Z   4
loop_
 _symmetry_equiv_pos_site_id
 _symmetry_equiv_pos_as_xyz
  1  'x, y, z'
loop_
 _atom_site_type_symbol
 _atom_site_label
 _atom_site_symmetry_multiplicity
 _atom_site_fract_x
 _atom_site_fract_y
 _atom_site_fract_z
 _atom_site_occupancy
  Ca  Ca0  1  0.50888917  0.18148744  0.25000000  1
  Ca  Ca1  1  0.99111083  0.68148744  0.25000000  1
  Ca  Ca2  1  0.49111083  0.48517856  0.75000000  1
  Ca  Ca3  1  0.00888917  0.98517856  0.75000000  1
  Nd  Nd4  1  0.51225590  0.51569769  0.25000000  1
  Nd  Nd5  1  0.50820195  0.84724262  0.25000000  1
  Nd  Nd6  1  0.98774410  0.01569769  0.25000000  1
  Nd  Nd7  1  0.99179805  0.34724262  0.25000000  1
  Nd  Nd8  1  0.48774410  0.15096931  0.75000000  1
  Nd  Nd9  1  0.49179805  0.81942438  0.75000000  1
  Nd  Nd10  1  0.00820195  0.31942438  0.75000000  1
  Nd  Nd11  1  0.01225590  0.65096931  0.75000000  1
  Mn  Mn12  1  0.99838370  0.16629450  0.00146593  1
  Mn  Mn13  1  0.00161630  0.50037250  0.99853407  1
  Mn  Mn14  1  0.00000000  0.83333300  -0.00000000  1
  Mn  Mn15  1  0.50000000  0.33333300  0.50000000  1
  Mn  Mn16  1  0.50161630  0.66629450  0.49853407  1
  Mn  Mn17  1  0.49838370  0.00037250  0.50146593  1
  Mn  Mn18  1  0.99838370  0.16629450  0.49853407  1
  Mn  Mn19  1  0.00161630  0.50037250  0.50146593  1
  Mn  Mn20  1  0.00000000  0.83333300  0.50000000  1
  Mn  Mn21  1  0.49838370  0.00037250  0.99853407  1
  Mn  Mn22  1  0.50000000  0.33333300  -0.00000000  1
  Mn  Mn23  1  0.50161630  0.66629450  0.00146593  1
  O  O24  1  0.79078272  0.26433679  0.03745939  1
  O  O25  1  0.78851326  0.59656882  0.04397364  1
  O  O26  1  0.78208312  0.92893913  0.04624050  1
  O  O27  1  0.71148674  0.09656882  0.45602636  1
  O  O28  1  0.71791688  0.42893913  0.45375950  1
  O  O29  1  0.70921728  0.76433679  0.46254061  1
  O  O30  1  0.21148674  0.07009718  0.54397364  1
  O  O31  1  0.20921728  0.40233021  0.53745939  1
  O  O32  1  0.21791688  0.73772787  0.54624050  1
  O  O33  1  0.28208312  0.23772787  0.95375950  1
  O  O34  1  0.28851326  0.57009718  0.95602636  1
  O  O35  1  0.29078272  0.90233021  0.96254061  1
  O  O36  1  0.21148674  0.07009718  0.95602636  1
  O  O37  1  0.20921728  0.40233021  0.96254061  1
  O  O38  1  0.21791688  0.73772787  0.95375950  1
  O  O39  1  0.28208312  0.23772787  0.54624050  1
  O  O40  1  0.28851326  0.57009718  0.54397364  1
  O  O41  1  0.29078272  0.90233021  0.53745939  1
  O  O42  1  0.79078272  0.26433679  0.46254061  1
  O  O43  1  0.78851326  0.59656882  0.45602636  1
  O  O44  1  0.78208312  0.92893913  0.45375950  1
  O  O45  1  0.71148674  0.09656882  0.04397364  1
  O  O46  1  0.71791688  0.42893913  0.04624050  1
  O  O47  1  0.70921728  0.76433679  0.03745939  1
  O  O48  1  0.42186441  0.32773274  0.25000000  1
  O  O49  1  0.41673464  0.65985801  0.25000000  1
  O  O50  1  0.41666994  0.99199052  0.25000000  1
  O  O51  1  0.08326536  0.15985801  0.25000000  1
  O  O52  1  0.08333006  0.49199052  0.25000000  1
  O  O53  1  0.07813559  0.82773274  0.25000000  1
  O  O54  1  0.58326536  0.00680899  0.75000000  1
  O  O55  1  0.57813559  0.33893426  0.75000000  1
  O  O56  1  0.58333006  0.67467548  0.75000000  1
  O  O57  1  0.91666994  0.17467548  0.75000000  1
  O  O58  1  0.91673464  0.50680899  0.75000000  1
  O  O59  1  0.92186441  0.83893426  0.75000000  1
