# generated using pymatgen
data_Bi2PdPt
_symmetry_space_group_name_H-M   'P 1'
_cell_length_a   4.36493164
_cell_length_b   4.36493164
_cell_length_c   5.66779665
_cell_angle_alpha   90.27920424
_cell_angle_beta   89.72079576
_cell_angle_gamma   119.90564553
_symmetry_Int_Tables_number   1
_chemical_formula_structural   Bi2PdPt
_chemical_formula_sum   'Bi2 Pd1 Pt1'
_cell_volume   93.60629065
_cell_formula_units_Z   1
loop_
 _symmetry_equiv_pos_site_id
 _symmetry_equiv_pos_as_xyz
  1  'x, y, z'
loop_
 _atom_site_type_symbol
 _atom_site_label
 _atom_site_symmetry_multiplicity
 _atom_site_fract_x
 _atom_site_fract_y
 _atom_site_fract_z
 _atom_site_occupancy
  Bi  Bi0  1  0.66665836  0.33334164  0.75770353  1
  Bi  Bi1  1  0.33334164  0.66665836  0.24229647  1
  Pd  Pd2  1  -0.00000000  -0.00000000  0.50000000  1
  Pt  Pt3  1  -0.00000000  -0.00000000  0.00000000  1
