# generated using pymatgen
data_Na2Fe2O5
_symmetry_space_group_name_H-M   'P 1'
_cell_length_a   5.45352099
_cell_length_b   8.29873923
_cell_length_c   5.53814427
_cell_angle_alpha   70.50808533
_cell_angle_beta   90.00000000
_cell_angle_gamma   70.81767690
_symmetry_Int_Tables_number   1
_chemical_formula_structural   Na2Fe2O5
_chemical_formula_sum   'Na4 Fe4 O10'
_cell_volume   221.46009367
_cell_formula_units_Z   2
loop_
 _symmetry_equiv_pos_site_id
 _symmetry_equiv_pos_as_xyz
  1  'x, y, z'
loop_
 _atom_site_type_symbol
 _atom_site_label
 _atom_site_symmetry_multiplicity
 _atom_site_fract_x
 _atom_site_fract_y
 _atom_site_fract_z
 _atom_site_occupancy
  Na  Na0  1  0.60832400  0.78651367  0.12867616  1
  Na  Na1  1  0.89483766  0.21348633  0.41518883  1
  Na  Na2  1  0.39483766  0.21348633  0.87132384  1
  Na  Na3  1  0.10832400  0.78651367  0.58481117  1
  Fe  Fe4  1  0.00901523  0.00000000  0.00000000  1
  Fe  Fe5  1  0.21106418  0.50000000  0.17965640  1
  Fe  Fe6  1  0.50901523  0.00000000  0.50000000  1
  Fe  Fe7  1  0.71106418  0.50000000  0.82034360  1
  O  O8  1  0.74992077  0.01875483  0.23913233  1
  O  O9  1  0.24992077  0.01875483  0.24211284  1
  O  O10  1  0.87428618  0.50000000  0.11893589  1
  O  O11  1  0.16308231  0.72171276  0.18973553  1
  O  O12  1  0.38479507  0.27828724  0.41144829  1
  O  O13  1  0.88479507  0.27828724  0.81026447  1
  O  O14  1  0.66308231  0.72171276  0.58855171  1
  O  O15  1  0.37428618  0.50000000  0.88106411  1
  O  O16  1  0.26867560  0.98124517  0.75788716  1
  O  O17  1  0.76867560  0.98124517  0.76086767  1
