# generated using pymatgen
data_ErCd6
_symmetry_space_group_name_H-M   'P 1'
_cell_length_a   13.67983898
_cell_length_b   13.67983898
_cell_length_c   13.67983898
_cell_angle_alpha   71.67301131
_cell_angle_beta   70.11436098
_cell_angle_gamma   110.20722256
_symmetry_Int_Tables_number   1
_chemical_formula_structural   ErCd6
_chemical_formula_sum   'Er12 Cd72'
_cell_volume   1970.09859414
_cell_formula_units_Z   12
loop_
 _symmetry_equiv_pos_site_id
 _symmetry_equiv_pos_as_xyz
  1  'x, y, z'
loop_
 _atom_site_type_symbol
 _atom_site_label
 _atom_site_symmetry_multiplicity
 _atom_site_fract_x
 _atom_site_fract_y
 _atom_site_fract_z
 _atom_site_occupancy
  Er  Er0  1  0.70399599  0.50905346  0.19494253  1
  Er  Er1  1  0.29600401  0.49094654  0.80505747  1
  Er  Er2  1  0.70399599  0.89893852  0.80505747  1
  Er  Er3  1  0.29600401  0.10106148  0.19494253  1
  Er  Er4  1  0.80617964  0.30082710  0.89299326  1
  Er  Er5  1  0.19382036  0.69917290  0.10700674  1
  Er  Er6  1  0.19382036  0.30082710  0.50535254  1
  Er  Er7  1  0.80617964  0.69917290  0.49464746  1
  Er  Er8  1  0.49286063  0.19310234  0.70024171  1
  Er  Er9  1  0.50713937  0.80689766  0.29975829  1
  Er  Er10  1  0.10665595  0.80689766  0.70024171  1
  Er  Er11  1  0.89334405  0.19310234  0.29975829  1
  Cd  Cd12  1  0.00083530  0.67917106  0.00072471  1
  Cd  Cd13  1  0.32010423  0.32082894  0.67833576  1
  Cd  Cd14  1  0.67989577  0.00156002  0.99927529  1
  Cd  Cd15  1  0.99916470  0.99843998  0.32166424  1
  Cd  Cd16  1  0.99916470  0.32082894  0.99927529  1
  Cd  Cd17  1  0.67989577  0.67917106  0.32166424  1
  Cd  Cd18  1  0.32010423  0.99843998  0.00072471  1
  Cd  Cd19  1  0.00083530  0.00156002  0.67833576  1
  Cd  Cd20  1  0.65175876  0.24954048  0.40221828  1
  Cd  Cd21  1  0.34824124  0.75045952  0.59778172  1
  Cd  Cd22  1  0.65175876  0.05397705  0.59778172  1
  Cd  Cd23  1  0.34824124  0.94602295  0.40221828  1
  Cd  Cd24  1  0.59589607  0.34797949  0.05612445  1
  Cd  Cd25  1  0.40410393  0.65202051  0.94387555  1
  Cd  Cd26  1  0.40410393  0.34797949  0.24791658  1
  Cd  Cd27  1  0.59589607  0.65202051  0.75208342  1
  Cd  Cd28  1  0.75037053  0.40373312  0.65336260  1
  Cd  Cd29  1  0.24962947  0.59626688  0.34663740  1
  Cd  Cd30  1  0.94290428  0.59626688  0.65336260  1
  Cd  Cd31  1  0.05709572  0.40373312  0.34663740  1
  Cd  Cd32  1  0.90530439  0.65149163  0.25381276  1
  Cd  Cd33  1  0.09469561  0.34850837  0.74618724  1
  Cd  Cd34  1  0.90530439  0.15911714  0.74618724  1
  Cd  Cd35  1  0.09469561  0.84088286  0.25381276  1
  Cd  Cd36  1  0.76535917  0.09117232  0.14346851  1
  Cd  Cd37  1  0.23464083  0.90882768  0.85653149  1
  Cd  Cd38  1  0.23464083  0.09117232  0.67418685  1
  Cd  Cd39  1  0.76535917  0.90882768  0.32581315  1
  Cd  Cd40  1  0.33621292  0.24062786  0.90441495  1
  Cd  Cd41  1  0.66378708  0.75937214  0.09558505  1
  Cd  Cd42  1  0.85495719  0.75937214  0.90441495  1
  Cd  Cd43  1  0.14504281  0.24062786  0.09558505  1
  Cd  Cd44  1  0.00000000  0.59385900  0.40614100  1
  Cd  Cd45  1  -0.00000000  0.40614100  0.59385900  1
  Cd  Cd46  1  0.59648134  0.00000000  0.40351866  1
  Cd  Cd47  1  0.40351866  -0.00000000  0.59648134  1
  Cd  Cd48  1  0.40383044  0.40383044  0.00000000  1
  Cd  Cd49  1  0.59616956  0.59616956  0.00000000  1
  Cd  Cd50  1  0.80722136  0.30722136  0.50000000  1
  Cd  Cd51  1  0.19277864  0.69277864  0.50000000  1
  Cd  Cd52  1  0.50000000  0.19280260  0.30719740  1
  Cd  Cd53  1  0.50000000  0.80719740  0.69280260  1
  Cd  Cd54  1  0.68866833  0.50000000  0.81133167  1
  Cd  Cd55  1  0.31133167  0.50000000  0.18866833  1
  Cd  Cd56  1  0.91583680  0.45566189  0.22632413  1
  Cd  Cd57  1  0.31801398  0.54433811  0.53982509  1
  Cd  Cd58  1  0.68198602  0.14216093  0.77367587  1
  Cd  Cd59  1  0.08416320  0.85783907  0.46017491  1
  Cd  Cd60  1  0.54525382  0.08662862  0.14004080  1
  Cd  Cd61  1  0.22666942  0.68529462  0.85995920  1
  Cd  Cd62  1  0.45474618  0.31470538  0.45862520  1
  Cd  Cd63  1  0.77333058  0.91337138  0.54137480  1
  Cd  Cd64  1  0.54045268  0.45693738  0.68331687  1
  Cd  Cd65  1  0.45954732  0.77623045  0.08351530  1
  Cd  Cd66  1  0.85974575  0.54306262  0.91648470  1
  Cd  Cd67  1  0.14025425  0.22376955  0.31668313  1
  Cd  Cd68  1  0.08416320  0.54433811  0.77367587  1
  Cd  Cd69  1  0.68198602  0.45566189  0.46017491  1
  Cd  Cd70  1  0.31801398  0.85783907  0.22632413  1
  Cd  Cd71  1  0.91583680  0.14216093  0.53982509  1
  Cd  Cd72  1  0.45474618  0.91337138  0.85995920  1
  Cd  Cd73  1  0.77333058  0.31470538  0.14004080  1
  Cd  Cd74  1  0.54525382  0.68529462  0.54137480  1
  Cd  Cd75  1  0.22666942  0.08662862  0.45862520  1
  Cd  Cd76  1  0.45954732  0.54306262  0.31668313  1
  Cd  Cd77  1  0.54045268  0.22376955  0.91648470  1
  Cd  Cd78  1  0.14025425  0.45693738  0.08351530  1
  Cd  Cd79  1  0.85974575  0.77623045  0.68331687  1
  Cd  Cd80  1  0.90752194  0.82341148  0.08411046  1
  Cd  Cd81  1  0.09247806  0.17658852  0.91588954  1
  Cd  Cd82  1  0.90752194  0.99163240  0.91588954  1
  Cd  Cd83  1  0.09247806  0.00836760  0.08411046  1
