# generated using pymatgen
data_Be2BH3O5
_symmetry_space_group_name_H-M   'P 1'
_cell_length_a   4.46097219
_cell_length_b   4.42779506
_cell_length_c   10.80684488
_cell_angle_alpha   89.99915881
_cell_angle_beta   91.76007998
_cell_angle_gamma   60.24591732
_symmetry_Int_Tables_number   1
_chemical_formula_structural   Be2BH3O5
_chemical_formula_sum   'Be4 B2 H6 O10'
_cell_volume   185.20186469
_cell_formula_units_Z   2
loop_
 _symmetry_equiv_pos_site_id
 _symmetry_equiv_pos_as_xyz
  1  'x, y, z'
loop_
 _atom_site_type_symbol
 _atom_site_label
 _atom_site_symmetry_multiplicity
 _atom_site_fract_x
 _atom_site_fract_y
 _atom_site_fract_z
 _atom_site_occupancy
  Be  Be0  1  0.65980172  0.66902738  0.19483372  1
  Be  Be1  1  0.65980749  0.67117895  0.69482788  1
  Be  Be2  1  0.33963429  0.33055043  0.29873560  1
  Be  Be3  1  0.33963128  0.32981645  0.79873141  1
  B  B4  1  -0.00008567  -0.00017874  0.24896151  1
  B  B5  1  0.99994196  0.00025498  0.74896100  1
  H  H6  1  0.86562956  0.56659187  0.01016681  1
  H  H7  1  0.86574540  0.56773200  0.51016018  1
  H  H8  1  0.46710300  0.45870880  0.49215003  1
  H  H9  1  0.46800277  0.07540543  0.49225731  1
  H  H10  1  0.46796203  0.45659824  0.99225995  1
  H  H11  1  0.46708802  0.07417597  0.99215699  1
  O  O12  1  0.63438430  0.67862230  0.04463333  1
  O  O13  1  0.63431488  0.68703763  0.54464719  1
  O  O14  1  0.69160840  0.00018474  0.24883954  1
  O  O15  1  0.00097329  0.31097584  0.24932573  1
  O  O16  1  0.30859122  0.69138594  0.24924835  1
  O  O17  1  0.30857800  0.00002608  0.74924457  1
  O  O18  1  0.69159519  0.30822669  0.74884273  1
  O  O19  1  0.00097466  0.68805614  0.74932518  1
  O  O20  1  0.35606760  0.32331756  0.45333789  1
  O  O21  1  0.35605062  0.32060531  0.95333311  1
