# generated using pymatgen
data_Ba3Fe2WO9
_symmetry_space_group_name_H-M   'P 1'
_cell_length_a   5.86012988
_cell_length_b   5.86016173
_cell_length_c   14.38421681
_cell_angle_alpha   90.00000000
_cell_angle_beta   90.00000000
_cell_angle_gamma   59.99887945
_symmetry_Int_Tables_number   1
_chemical_formula_structural   Ba3Fe2WO9
_chemical_formula_sum   'Ba6 Fe4 W2 O18'
_cell_volume   427.78819086
_cell_formula_units_Z   2
loop_
 _symmetry_equiv_pos_site_id
 _symmetry_equiv_pos_as_xyz
  1  'x, y, z'
loop_
 _atom_site_type_symbol
 _atom_site_label
 _atom_site_symmetry_multiplicity
 _atom_site_fract_x
 _atom_site_fract_y
 _atom_site_fract_z
 _atom_site_occupancy
  Ba  Ba0  1  0.00000113  0.99999908  0.75370923  1
  Ba  Ba1  1  0.99999887  0.00000092  0.25370923  1
  Ba  Ba2  1  0.33332706  0.33334277  0.58763082  1
  Ba  Ba3  1  0.66666983  0.66665436  0.39993550  1
  Ba  Ba4  1  0.66667294  0.66665723  0.08763082  1
  Ba  Ba5  1  0.33333017  0.33334564  0.89993550  1
  Fe  Fe6  1  0.00003079  0.99999406  0.49335856  1
  Fe  Fe7  1  0.99996921  0.00000594  0.99335856  1
  Fe  Fe8  1  0.33334571  0.33332760  0.35619732  1
  Fe  Fe9  1  0.66665429  0.66667240  0.85619732  1
  W  W10  1  0.66667383  0.66666996  0.65846439  1
  W  W11  1  0.33332617  0.33333004  0.15846439  1
  O  O12  1  0.51649271  0.96926485  0.74518463  1
  O  O13  1  0.96927019  0.51424818  0.74518584  1
  O  O14  1  0.51425325  0.51649628  0.74518415  1
  O  O15  1  0.48350729  0.03073515  0.24518463  1
  O  O16  1  0.48574675  0.48350372  0.24518415  1
  O  O17  1  0.03072981  0.48575182  0.24518584  1
  O  O18  1  0.83089756  0.34248746  0.58532054  1
  O  O19  1  0.34248893  0.82663371  0.58531744  1
  O  O20  1  0.82663064  0.83089030  0.58532369  1
  O  O21  1  0.16276902  0.67142525  0.41972958  1
  O  O22  1  0.16582878  0.16275837  0.41972928  1
  O  O23  1  0.67143717  0.16581319  0.41972904  1
  O  O24  1  0.16910244  0.65751254  0.08532054  1
  O  O25  1  0.65751107  0.17336629  0.08531744  1
  O  O26  1  0.17336936  0.16910970  0.08532369  1
  O  O27  1  0.83723098  0.32857475  0.91972958  1
  O  O28  1  0.83417122  0.83724163  0.91972928  1
  O  O29  1  0.32856283  0.83418681  0.91972904  1
