# generated using pymatgen
data_Ba(V5S8)2
_symmetry_space_group_name_H-M   'P 1'
_cell_length_a   6.50762168
_cell_length_b   8.94666945
_cell_length_c   9.06830365
_cell_angle_alpha   107.09373611
_cell_angle_beta   68.99443631
_cell_angle_gamma   100.46580570
_symmetry_Int_Tables_number   1
_chemical_formula_structural   Ba(V5S8)2
_chemical_formula_sum   'Ba1 V10 S16'
_cell_volume   469.38674636
_cell_formula_units_Z   1
loop_
 _symmetry_equiv_pos_site_id
 _symmetry_equiv_pos_as_xyz
  1  'x, y, z'
loop_
 _atom_site_type_symbol
 _atom_site_label
 _atom_site_symmetry_multiplicity
 _atom_site_fract_x
 _atom_site_fract_y
 _atom_site_fract_z
 _atom_site_occupancy
  Ba  Ba0  1  -0.00000000  0.00000000  0.00000000  1
  V  V1  1  0.17562024  0.42293519  0.85909081  1
  V  V2  1  0.67664074  0.42153290  0.85839309  1
  V  V3  1  0.32335926  0.57846710  0.14160691  1
  V  V4  1  0.82437976  0.57706481  0.14090919  1
  V  V5  1  0.50000000  0.00000000  0.50000000  1
  V  V6  1  -0.00000000  0.00000000  0.50000000  1
  V  V7  1  0.17171211  0.70618717  0.50903990  1
  V  V8  1  0.67208319  0.70321326  0.50763440  1
  V  V9  1  0.32791681  0.29678674  0.49236560  1
  V  V10  1  0.82828789  0.29381283  0.49096010  1
  S  S11  1  0.36720248  0.83095062  0.68605892  1
  S  S12  1  0.86219624  0.83125788  0.68621988  1
  S  S13  1  0.13780376  0.16874212  0.31378012  1
  S  S14  1  0.63279752  0.16904938  0.31394108  1
  S  S15  1  0.04078823  0.48165922  0.65916709  1
  S  S16  1  0.54125888  0.48157224  0.65885441  1
  S  S17  1  0.45874112  0.51842776  0.34114559  1
  S  S18  1  0.95921177  0.51834078  0.34083291  1
  S  S19  1  0.66899767  0.67858571  0.99835913  1
  S  S20  1  0.17213135  0.67932406  0.99827047  1
  S  S21  1  0.82786865  0.32067594  0.00172953  1
  S  S22  1  0.33100233  0.32141429  0.00164087  1
  S  S23  1  0.19854221  0.14977395  0.67774913  1
  S  S24  1  0.69857006  0.14956683  0.67751510  1
  S  S25  1  0.30142994  0.85043317  0.32248490  1
  S  S26  1  0.80145779  0.85022605  0.32225087  1
