# generated using pymatgen
data_Ba4InSbO8
_symmetry_space_group_name_H-M   'P 1'
_cell_length_a   5.99540037
_cell_length_b   6.00486794
_cell_length_c   7.35162568
_cell_angle_alpha   90.00000000
_cell_angle_beta   65.93578995
_cell_angle_gamma   90.00000000
_symmetry_Int_Tables_number   1
_chemical_formula_structural   Ba4InSbO8
_chemical_formula_sum   'Ba4 In1 Sb1 O8'
_cell_volume   241.66746066
_cell_formula_units_Z   1
loop_
 _symmetry_equiv_pos_site_id
 _symmetry_equiv_pos_as_xyz
  1  'x, y, z'
loop_
 _atom_site_type_symbol
 _atom_site_label
 _atom_site_symmetry_multiplicity
 _atom_site_fract_x
 _atom_site_fract_y
 _atom_site_fract_z
 _atom_site_occupancy
  Ba  Ba0  1  0.35429714  0.00000000  0.29140572  1
  Ba  Ba1  1  0.85485948  0.50000000  0.29028104  1
  Ba  Ba2  1  0.14514052  0.50000000  0.70971896  1
  Ba  Ba3  1  0.64570286  -0.00000000  0.70859428  1
  In  In4  1  0.00000000  -0.00000000  0.00000000  1
  Sb  Sb5  1  0.50000000  0.50000000  0.00000000  1
  O  O6  1  0.26133933  0.26394138  0.00000000  1
  O  O7  1  0.73866067  0.73605862  -0.00000000  1
  O  O8  1  0.73866067  0.26394138  0.00000000  1
  O  O9  1  0.26133933  0.73605862  -0.00000000  1
  O  O10  1  0.15969910  0.00000000  0.68060180  1
  O  O11  1  0.65267737  0.50000000  0.69464527  1
  O  O12  1  0.34732263  0.50000000  0.30535473  1
  O  O13  1  0.84030090  -0.00000000  0.31939820  1
