# generated using pymatgen
data_Ba3Ta4TiO15
_symmetry_space_group_name_H-M   'P 1'
_cell_length_a   4.01854477
_cell_length_b   12.68451803
_cell_length_c   12.76002077
_cell_angle_alpha   90.00000000
_cell_angle_beta   90.00000000
_cell_angle_gamma   90.04783564
_symmetry_Int_Tables_number   1
_chemical_formula_structural   Ba3Ta4TiO15
_chemical_formula_sum   'Ba6 Ta8 Ti2 O30'
_cell_volume   650.42018612
_cell_formula_units_Z   2
loop_
 _symmetry_equiv_pos_site_id
 _symmetry_equiv_pos_as_xyz
  1  'x, y, z'
loop_
 _atom_site_type_symbol
 _atom_site_label
 _atom_site_symmetry_multiplicity
 _atom_site_fract_x
 _atom_site_fract_y
 _atom_site_fract_z
 _atom_site_occupancy
  Ba  Ba0  1  0.29499424  0.49435811  0.49757123  1
  Ba  Ba1  1  0.29499424  0.99435811  0.00242877  1
  Ba  Ba2  1  0.29152565  0.82854381  0.32262430  1
  Ba  Ba3  1  0.29351033  0.17372000  0.66667585  1
  Ba  Ba4  1  0.29351033  0.67372000  0.83332415  1
  Ba  Ba5  1  0.29152565  0.32854381  0.17737570  1
  Ta  Ta6  1  0.80044279  0.00416555  0.50128401  1
  Ta  Ta7  1  0.80044279  0.50416555  0.99871599  1
  Ta  Ta8  1  0.79055999  0.71406826  0.57395066  1
  Ta  Ta9  1  0.79055999  0.21406826  0.92604934  1
  Ta  Ta10  1  0.79151530  0.42354629  0.71030595  1
  Ta  Ta11  1  0.79324644  0.57401052  0.28597088  1
  Ta  Ta12  1  0.79151530  0.92354629  0.78969405  1
  Ta  Ta13  1  0.79324644  0.07401052  0.21402912  1
  Ti  Ti14  1  0.76010549  0.28403081  0.42031957  1
  Ti  Ti15  1  0.76010549  0.78403081  0.07968043  1
  O  O16  1  0.80126578  0.71702282  0.21848294  1
  O  O17  1  0.79954907  0.28251847  0.78382716  1
  O  O18  1  0.79954907  0.78251847  0.71617284  1
  O  O19  1  0.80126578  0.21702282  0.28151706  1
  O  O20  1  0.80539247  0.43274983  0.35815510  1
  O  O21  1  0.80224516  0.56825937  0.64187099  1
  O  O22  1  0.80224516  0.06825937  0.85812901  1
  O  O23  1  0.80539247  0.93274983  0.14184490  1
  O  O24  1  0.80495344  0.35876539  0.57150155  1
  O  O25  1  0.80145492  0.64111574  0.43254274  1
  O  O26  1  0.80495344  0.85876539  0.92849845  1
  O  O27  1  0.80145492  0.14111574  0.06745726  1
  O  O28  1  0.80840822  0.49395558  0.15595945  1
  O  O29  1  0.81015947  0.50661903  0.84450573  1
  O  O30  1  0.81015947  0.00661903  0.65549427  1
  O  O31  1  0.80840822  0.99395558  0.34404055  1
  O  O32  1  0.81255003  0.15751921  0.50449397  1
  O  O33  1  0.80942202  0.84430343  0.49471965  1
  O  O34  1  0.81255003  0.65751921  0.99550603  1
  O  O35  1  0.80942202  0.34430343  0.00528035  1
  O  O36  1  0.31010638  0.00007060  0.49933029  1
  O  O37  1  0.31010638  0.50007060  0.00066971  1
  O  O38  1  0.31945074  0.29315220  0.42165797  1
  O  O39  1  0.30246870  0.70594544  0.57853070  1
  O  O40  1  0.30246870  0.20594544  0.92146930  1
  O  O41  1  0.31945074  0.79315220  0.07834203  1
  O  O42  1  0.30290517  0.42229470  0.70923283  1
  O  O43  1  0.30276818  0.57926484  0.29398248  1
  O  O44  1  0.30290517  0.92229470  0.79076717  1
  O  O45  1  0.30276818  0.07926484  0.20601752  1
