# generated using pymatgen
data_Ba5Nb3O3F20
_symmetry_space_group_name_H-M   'P 1'
_cell_length_a   8.02794816
_cell_length_b   12.09943541
_cell_length_c   12.09993796
_cell_angle_alpha   119.99010232
_cell_angle_beta   90.00000000
_cell_angle_gamma   90.00000000
_symmetry_Int_Tables_number   1
_chemical_formula_structural   Ba5Nb3O3F20
_chemical_formula_sum   'Ba10 Nb6 O6 F40'
_cell_volume   1017.95070209
_cell_formula_units_Z   2
loop_
 _symmetry_equiv_pos_site_id
 _symmetry_equiv_pos_as_xyz
  1  'x, y, z'
loop_
 _atom_site_type_symbol
 _atom_site_label
 _atom_site_symmetry_multiplicity
 _atom_site_fract_x
 _atom_site_fract_y
 _atom_site_fract_z
 _atom_site_occupancy
  Ba  Ba0  1  0.75000000  0.08685164  0.44613508  1
  Ba  Ba1  1  0.75000000  0.55383896  0.64073030  1
  Ba  Ba2  1  0.75000000  0.35927675  0.91313069  1
  Ba  Ba3  1  0.25000000  0.91314836  0.55386492  1
  Ba  Ba4  1  0.25000000  0.44616104  0.35926970  1
  Ba  Ba5  1  0.25000000  0.64072325  0.08686931  1
  Ba  Ba6  1  0.75000000  0.66665215  0.33334169  1
  Ba  Ba7  1  0.25000000  0.33334785  0.66665831  1
  Ba  Ba8  1  0.50000000  -0.00000000  0.00000000  1
  Ba  Ba9  1  0.00000000  -0.00000000  0.00000000  1
  Nb  Nb10  1  0.75000000  0.95420935  0.67119542  1
  Nb  Nb11  1  0.75000000  0.32882653  0.28309843  1
  Nb  Nb12  1  0.75000000  0.71691161  0.04567542  1
  Nb  Nb13  1  0.25000000  0.04579065  0.32880458  1
  Nb  Nb14  1  0.25000000  0.67117347  0.71690157  1
  Nb  Nb15  1  0.25000000  0.28308839  0.95432458  1
  O  O16  1  0.75000000  0.58659113  0.88602284  1
  O  O17  1  0.75000000  0.11402153  0.70057484  1
  O  O18  1  0.75000000  0.29938923  0.41344472  1
  O  O19  1  0.25000000  0.41340887  0.11397716  1
  O  O20  1  0.25000000  0.88597847  0.29942516  1
  O  O21  1  0.25000000  0.70061077  0.58655528  1
  F  F22  1  0.75000000  0.41034856  0.16192086  1
  F  F23  1  0.75000000  0.83807322  0.24841108  1
  F  F24  1  0.75000000  0.75156163  0.58966132  1
  F  F25  1  0.25000000  0.58965144  0.83807914  1
  F  F26  1  0.25000000  0.16192678  0.75158892  1
  F  F27  1  0.25000000  0.24843837  0.41033868  1
  F  F28  1  0.59835527  0.89989294  0.50769289  1
  F  F29  1  0.59836905  0.49228844  0.39219661  1
  F  F30  1  0.59834382  0.60776631  0.10009129  1
  F  F31  1  0.09835527  0.10010706  0.49230711  1
  F  F32  1  0.09836905  0.50771156  0.60780339  1
  F  F33  1  0.09834382  0.39223369  0.89990871  1
  F  F34  1  0.40164473  0.10010706  0.49230711  1
  F  F35  1  0.40163095  0.50771156  0.60780339  1
  F  F36  1  0.40165618  0.39223369  0.89990871  1
  F  F37  1  0.90164473  0.89989294  0.50769289  1
  F  F38  1  0.90163095  0.49228844  0.39219661  1
  F  F39  1  0.90165618  0.60776631  0.10009129  1
  F  F40  1  0.37391913  0.66660927  0.33330693  1
  F  F41  1  0.87391913  0.33339073  0.66669307  1
  F  F42  1  0.62608087  0.33339073  0.66669307  1
  F  F43  1  0.12608087  0.66660927  0.33330693  1
  F  F44  1  0.98990722  0.94751548  0.72189319  1
  F  F45  1  0.98991075  0.27811042  0.22566266  1
  F  F46  1  0.98992131  0.77433035  0.05242422  1
  F  F47  1  0.48990722  0.05248452  0.27810681  1
  F  F48  1  0.48991075  0.72188958  0.77433734  1
  F  F49  1  0.48992131  0.22566965  0.94757578  1
  F  F50  1  0.01009278  0.05248452  0.27810681  1
  F  F51  1  0.01008925  0.72188958  0.77433734  1
  F  F52  1  0.01007869  0.22566965  0.94757578  1
  F  F53  1  0.51009278  0.94751548  0.72189319  1
  F  F54  1  0.51008925  0.27811042  0.22566266  1
  F  F55  1  0.51007869  0.77433035  0.05242422  1
  F  F56  1  0.75000000  0.99911368  0.85829402  1
  F  F57  1  0.75000000  0.14169456  0.14083074  1
  F  F58  1  0.75000000  0.85915190  0.00085649  1
  F  F59  1  0.25000000  0.00088632  0.14170598  1
  F  F60  1  0.25000000  0.85830544  0.85916926  1
  F  F61  1  0.25000000  0.14084810  0.99914351  1
