# generated using pymatgen
data_Ba2Ta15O32
_symmetry_space_group_name_H-M   'P 1'
_cell_length_a   7.86492255
_cell_length_b   7.86913412
_cell_length_c   12.81515688
_cell_angle_alpha   72.13841099
_cell_angle_beta   72.11817187
_cell_angle_gamma   59.99059100
_symmetry_Int_Tables_number   1
_chemical_formula_structural   Ba2Ta15O32
_chemical_formula_sum   'Ba2 Ta15 O32'
_cell_volume   642.24329752
_cell_formula_units_Z   1
loop_
 _symmetry_equiv_pos_site_id
 _symmetry_equiv_pos_as_xyz
  1  'x, y, z'
loop_
 _atom_site_type_symbol
 _atom_site_label
 _atom_site_symmetry_multiplicity
 _atom_site_fract_x
 _atom_site_fract_y
 _atom_site_fract_z
 _atom_site_occupancy
  Ba  Ba0  1  0.14301016  0.12570425  0.58193498  1
  Ba  Ba1  1  0.87417645  0.85029209  0.41806524  1
  Ta  Ta2  1  0.02858188  0.69392139  0.70309691  1
  Ta  Ta3  1  0.69574316  0.57253607  0.70234883  1
  Ta  Ta4  1  0.57320591  0.02922102  0.70203659  1
  Ta  Ta5  1  0.97099510  0.30480765  0.29748248  1
  Ta  Ta6  1  0.30598172  0.42497292  0.29763151  1
  Ta  Ta7  1  0.42815110  0.97040447  0.29740911  1
  Ta  Ta8  1  0.50032709  0.49942206  0.50000227  1
  Ta  Ta9  1  0.22477498  0.81693628  0.90276063  1
  Ta  Ta10  1  0.81694433  0.05559466  0.90270485  1
  Ta  Ta11  1  0.05564442  0.22449832  0.90269322  1
  Ta  Ta12  1  0.77551500  0.18297538  0.09726508  1
  Ta  Ta13  1  0.18309138  0.94441577  0.09728310  1
  Ta  Ta14  1  0.94457162  0.77525069  0.09728911  1
  Ta  Ta15  1  0.36168842  0.36126085  0.91583047  1
  Ta  Ta16  1  0.63857054  0.63875932  0.08416976  1
  O  O17  1  0.73901736  0.83344466  0.99936204  1
  O  O18  1  0.83342774  0.42814439  0.99941708  1
  O  O19  1  0.42822058  0.73894807  0.99938946  1
  O  O20  1  0.26098454  0.16664587  0.00056120  1
  O  O21  1  0.16655890  0.57182289  0.00058713  1
  O  O22  1  0.57183491  0.26100639  0.00068389  1
  O  O23  1  0.26375293  0.68387517  0.59529529  1
  O  O24  1  0.68290293  0.45702419  0.59525780  1
  O  O25  1  0.45701513  0.26484037  0.59537305  1
  O  O26  1  0.73536791  0.31719518  0.40472035  1
  O  O27  1  0.31614539  0.54353104  0.40457155  1
  O  O28  1  0.54261845  0.73546966  0.40478341  1
  O  O29  1  0.85235663  0.96790173  0.62056422  1
  O  O30  1  0.96837317  0.55918873  0.62051933  1
  O  O31  1  0.55939887  0.85151625  0.62068196  1
  O  O32  1  0.14828393  0.03136635  0.37940339  1
  O  O33  1  0.03195641  0.44057332  0.37935518  1
  O  O34  1  0.44073728  0.14777035  0.37949140  1
  O  O35  1  0.03954422  0.86354302  0.79424097  1
  O  O36  1  0.86352020  0.30261381  0.79437410  1
  O  O37  1  0.30280534  0.03923997  0.79428385  1
  O  O38  1  0.96079203  0.13635708  0.20567396  1
  O  O39  1  0.13641891  0.69723720  0.20582570  1
  O  O40  1  0.69751996  0.96041198  0.20560227  1
  O  O41  1  0.45697347  0.57198820  0.81227823  1
  O  O42  1  0.57190503  0.15876618  0.81225356  1
  O  O43  1  0.15907369  0.45655599  0.81245583  1
  O  O44  1  0.54320005  0.42805208  0.18763434  1
  O  O45  1  0.42805894  0.84119208  0.18767383  1
  O  O46  1  0.84110257  0.54311387  0.18770745  1
  O  O47  1  0.73794923  0.73769730  0.78660041  1
  O  O48  1  0.26217706  0.26199348  0.21340662  1
