# generated using pymatgen
data_EuTmCuS3
_symmetry_space_group_name_H-M   'P 1'
_cell_length_a   3.88278168
_cell_length_b   6.69374727
_cell_length_c   10.07571105
_cell_angle_alpha   90.00000000
_cell_angle_beta   90.00000000
_cell_angle_gamma   106.85978176
_symmetry_Int_Tables_number   1
_chemical_formula_structural   EuTmCuS3
_chemical_formula_sum   'Eu2 Tm2 Cu2 S6'
_cell_volume   250.61543983
_cell_formula_units_Z   2
loop_
 _symmetry_equiv_pos_site_id
 _symmetry_equiv_pos_as_xyz
  1  'x, y, z'
loop_
 _atom_site_type_symbol
 _atom_site_label
 _atom_site_symmetry_multiplicity
 _atom_site_fract_x
 _atom_site_fract_y
 _atom_site_fract_z
 _atom_site_occupancy
  S  S0  1  0.92035798  0.84071596  0.25000000  1
  S  S1  1  0.07964202  0.15928404  0.75000000  1
  S  S2  1  0.36217685  0.72435369  0.56831742  1
  S  S3  1  0.36217685  0.72435369  0.93168258  1
  S  S4  1  0.63782315  0.27564631  0.06831742  1
  S  S5  1  0.63782315  0.27564631  0.43168258  1
  Cu  Cu6  1  0.47415967  0.94831933  0.75000000  1
  Cu  Cu7  1  0.52584033  0.05168067  0.25000000  1
  Eu  Eu8  1  0.24894412  0.49788825  0.25000000  1
  Eu  Eu9  1  0.75105588  0.50211175  0.75000000  1
  Tm  Tm10  1  0.00000000  0.00000000  0.50000000  1
  Tm  Tm11  1  0.00000000  0.00000000  0.00000000  1
