# generated using pymatgen
data_Dy2CrFeO6
_symmetry_space_group_name_H-M   'P 1'
_cell_length_a   5.31119124
_cell_length_b   5.63088294
_cell_length_c   7.67966927
_cell_angle_alpha   90.00000000
_cell_angle_beta   89.95931489
_cell_angle_gamma   90.00000000
_symmetry_Int_Tables_number   1
_chemical_formula_structural   Dy2CrFeO6
_chemical_formula_sum   'Dy4 Cr2 Fe2 O12'
_cell_volume   229.67347734
_cell_formula_units_Z   2
loop_
 _symmetry_equiv_pos_site_id
 _symmetry_equiv_pos_as_xyz
  1  'x, y, z'
loop_
 _atom_site_type_symbol
 _atom_site_label
 _atom_site_symmetry_multiplicity
 _atom_site_fract_x
 _atom_site_fract_y
 _atom_site_fract_z
 _atom_site_occupancy
  Dy  Dy0  1  0.51987086  0.56742958  0.24950596  1
  Dy  Dy1  1  0.48012914  0.43257042  0.75049404  1
  Dy  Dy2  1  0.98012914  0.06742958  0.25049404  1
  Dy  Dy3  1  0.01987086  0.93257042  0.74950596  1
  Cr  Cr4  1  -0.00000000  0.50000000  0.00000000  1
  Cr  Cr5  1  0.50000000  -0.00000000  0.50000000  1
  Fe  Fe6  1  0.50000000  -0.00000000  0.00000000  1
  Fe  Fe7  1  -0.00000000  0.50000000  0.50000000  1
  O  O8  1  0.19295569  0.19743525  0.94078397  1
  O  O9  1  0.80704431  0.80256475  0.05921603  1
  O  O10  1  0.30704431  0.69743525  0.55921603  1
  O  O11  1  0.69295569  0.30256475  0.44078397  1
  O  O12  1  0.30622823  0.69690009  0.94076351  1
  O  O13  1  0.69377177  0.30309991  0.05923649  1
  O  O14  1  0.19377177  0.19690009  0.55923649  1
  O  O15  1  0.80622823  0.80309991  0.44076351  1
  O  O16  1  0.38515537  0.95666447  0.25052765  1
  O  O17  1  0.61484463  0.04333553  0.74947235  1
  O  O18  1  0.11484463  0.45666447  0.24947235  1
  O  O19  1  0.88515537  0.54333553  0.75052765  1
