# generated using pymatgen
data_Ba(GaO2)2
_symmetry_space_group_name_H-M   'P 1'
_cell_length_a   9.00193247
_cell_length_b   10.86041640
_cell_length_c   10.86035668
_cell_angle_alpha   60.00009596
_cell_angle_beta   90.00000000
_cell_angle_gamma   90.00000000
_symmetry_Int_Tables_number   1
_chemical_formula_structural   Ba(GaO2)2
_chemical_formula_sum   'Ba8 Ga16 O32'
_cell_volume   919.51192895
_cell_formula_units_Z   8
loop_
 _symmetry_equiv_pos_site_id
 _symmetry_equiv_pos_as_xyz
  1  'x, y, z'
loop_
 _atom_site_type_symbol
 _atom_site_label
 _atom_site_symmetry_multiplicity
 _atom_site_fract_x
 _atom_site_fract_y
 _atom_site_fract_z
 _atom_site_occupancy
  Ba  Ba0  1  0.27541781  0.50425402  0.51590427  1
  Ba  Ba1  1  0.27541820  0.97982486  0.50426320  1
  Ba  Ba2  1  0.27542130  0.51590106  0.97983919  1
  Ba  Ba3  1  0.77541781  0.49574598  0.48409573  1
  Ba  Ba4  1  0.77541820  0.02017514  0.49573680  1
  Ba  Ba5  1  0.77542130  0.48409894  0.02016081  1
  Ba  Ba6  1  0.26330799  0.00000415  0.99999566  1
  Ba  Ba7  1  0.76330799  0.99999585  0.00000434  1
  Ga  Ga8  1  0.47264227  0.15329553  0.17320931  1
  Ga  Ga9  1  0.47264158  0.67349992  0.15330161  1
  Ga  Ga10  1  0.47264512  0.17320522  0.67349455  1
  Ga  Ga11  1  0.97264227  0.84670447  0.82679069  1
  Ga  Ga12  1  0.97264158  0.32650008  0.84669839  1
  Ga  Ga13  1  0.97264512  0.82679478  0.32650545  1
  Ga  Ga14  1  0.08381967  0.15558580  0.17400359  1
  Ga  Ga15  1  0.08381933  0.67040978  0.15558340  1
  Ga  Ga16  1  0.08382167  0.17400021  0.67040787  1
  Ga  Ga17  1  0.58381967  0.84441420  0.82599641  1
  Ga  Ga18  1  0.58381933  0.32959022  0.84441660  1
  Ga  Ga19  1  0.58382167  0.82599979  0.32959213  1
  Ga  Ga20  1  0.55785194  0.33334611  0.33332729  1
  Ga  Ga21  1  0.05785194  0.66665389  0.66667271  1
  Ga  Ga22  1  0.97829712  0.33334447  0.33332502  1
  Ga  Ga23  1  0.47829712  0.66665553  0.66667498  1
  O  O24  1  0.57524813  0.32262340  0.67689085  1
  O  O25  1  0.57524720  0.00048956  0.32262519  1
  O  O26  1  0.57524709  0.67689017  0.00049143  1
  O  O27  1  0.07524813  0.67737660  0.32310915  1
  O  O28  1  0.07524720  0.99951044  0.67737481  1
  O  O29  1  0.07524709  0.32310983  0.99950857  1
  O  O30  1  0.52703633  0.66838164  0.50061661  1
  O  O31  1  0.52702659  0.83100028  0.66838239  1
  O  O32  1  0.52705125  0.50061893  0.83100281  1
  O  O33  1  0.02703633  0.33161836  0.49938339  1
  O  O34  1  0.02702659  0.16899972  0.33161761  1
  O  O35  1  0.02705125  0.49938107  0.16899719  1
  O  O36  1  0.49705824  0.83335972  0.17137383  1
  O  O37  1  0.49705770  0.99527213  0.83334814  1
  O  O38  1  0.49705861  0.17137403  0.99527273  1
  O  O39  1  0.99705824  0.16664028  0.82862617  1
  O  O40  1  0.99705770  0.00472787  0.16665186  1
  O  O41  1  0.99705861  0.82862597  0.00472727  1
  O  O42  1  0.27850928  0.08797913  0.22081207  1
  O  O43  1  0.27850886  0.69122578  0.08797062  1
  O  O44  1  0.27850945  0.22080547  0.69121388  1
  O  O45  1  0.77850928  0.91202087  0.77918793  1
  O  O46  1  0.77850886  0.30877422  0.91202938  1
  O  O47  1  0.77850945  0.77919453  0.30878612  1
  O  O48  1  0.76750799  0.33337273  0.33331331  1
  O  O49  1  0.26750799  0.66662727  0.66668669  1
  O  O50  1  0.50494470  0.32467767  0.17173259  1
  O  O51  1  0.50493492  0.50359876  0.32467510  1
  O  O52  1  0.50494964  0.17174019  0.50358629  1
  O  O53  1  0.00494470  0.67532233  0.82826741  1
  O  O54  1  0.00493492  0.49640124  0.67532490  1
  O  O55  1  0.00494964  0.82825981  0.49641371  1
