# generated using pymatgen
data_ZnCu2SiSe4
_symmetry_space_group_name_H-M   'P 1'
_cell_length_a   11.18263469
_cell_length_b   11.18263469
_cell_length_c   13.70234043
_cell_angle_alpha   114.08275381
_cell_angle_beta   114.08275381
_cell_angle_gamma   90.00000000
_symmetry_Int_Tables_number   1
_chemical_formula_structural   ZnCu2SiSe4
_chemical_formula_sum   'Zn8 Cu16 Si8 Se32'
_cell_volume   1399.39333860
_cell_formula_units_Z   8
loop_
 _symmetry_equiv_pos_site_id
 _symmetry_equiv_pos_as_xyz
  1  'x, y, z'
loop_
 _atom_site_type_symbol
 _atom_site_label
 _atom_site_symmetry_multiplicity
 _atom_site_fract_x
 _atom_site_fract_y
 _atom_site_fract_z
 _atom_site_occupancy
  Zn  Zn0  1  0.00000000  0.00000000  0.00000000  1
  Zn  Zn1  1  0.00000000  0.00000000  0.50000000  1
  Zn  Zn2  1  0.00000000  0.50000000  0.00000000  1
  Zn  Zn3  1  0.00000000  0.50000000  0.50000000  1
  Zn  Zn4  1  0.50000000  0.00000000  0.00000000  1
  Zn  Zn5  1  0.50000000  0.00000000  0.50000000  1
  Zn  Zn6  1  0.50000000  0.50000000  0.00000000  1
  Zn  Zn7  1  0.50000000  0.50000000  0.50000000  1
  Cu  Cu8  1  0.37500000  0.12500000  0.25000000  1
  Cu  Cu9  1  0.37500000  0.12500000  0.75000000  1
  Cu  Cu10  1  0.37500000  0.62500000  0.25000000  1
  Cu  Cu11  1  0.37500000  0.62500000  0.75000000  1
  Cu  Cu12  1  0.87500000  0.12500000  0.25000000  1
  Cu  Cu13  1  0.87500000  0.12500000  0.75000000  1
  Cu  Cu14  1  0.87500000  0.62500000  0.25000000  1
  Cu  Cu15  1  0.87500000  0.62500000  0.75000000  1
  Cu  Cu16  1  0.12500000  0.37500000  0.25000000  1
  Cu  Cu17  1  0.12500000  0.37500000  0.75000000  1
  Cu  Cu18  1  0.12500000  0.87500000  0.25000000  1
  Cu  Cu19  1  0.12500000  0.87500000  0.75000000  1
  Cu  Cu20  1  0.62500000  0.37500000  0.25000000  1
  Cu  Cu21  1  0.62500000  0.37500000  0.75000000  1
  Cu  Cu22  1  0.62500000  0.87500000  0.25000000  1
  Cu  Cu23  1  0.62500000  0.87500000  0.75000000  1
  Si  Si24  1  0.25000000  0.25000000  0.00000000  1
  Si  Si25  1  0.25000000  0.25000000  0.50000000  1
  Si  Si26  1  0.25000000  0.75000000  0.00000000  1
  Si  Si27  1  0.25000000  0.75000000  0.50000000  1
  Si  Si28  1  0.75000000  0.25000000  0.00000000  1
  Si  Si29  1  0.75000000  0.25000000  0.50000000  1
  Si  Si30  1  0.75000000  0.75000000  0.00000000  1
  Si  Si31  1  0.75000000  0.75000000  0.50000000  1
  Se  Se32  1  0.43090676  0.43090676  0.12552776  1
  Se  Se33  1  0.43090676  0.43090676  0.62552776  1
  Se  Se34  1  0.43090676  0.93090676  0.12552776  1
  Se  Se35  1  0.43090676  0.93090676  0.62552776  1
  Se  Se36  1  0.93090676  0.43090676  0.12552776  1
  Se  Se37  1  0.93090676  0.43090676  0.62552776  1
  Se  Se38  1  0.93090676  0.93090676  0.12552776  1
  Se  Se39  1  0.93090676  0.93090676  0.62552776  1
  Se  Se40  1  0.19462000  0.19462000  0.12552776  1
  Se  Se41  1  0.19462000  0.19462000  0.62552776  1
  Se  Se42  1  0.19462000  0.69462000  0.12552776  1
  Se  Se43  1  0.19462000  0.69462000  0.62552776  1
  Se  Se44  1  0.69462000  0.19462000  0.12552776  1
  Se  Se45  1  0.69462000  0.19462000  0.62552776  1
  Se  Se46  1  0.69462000  0.69462000  0.12552776  1
  Se  Se47  1  0.69462000  0.69462000  0.62552776  1
  Se  Se48  1  0.06909324  0.30538000  0.37447224  1
  Se  Se49  1  0.06909324  0.30538000  0.87447224  1
  Se  Se50  1  0.06909324  0.80538000  0.37447224  1
  Se  Se51  1  0.06909324  0.80538000  0.87447224  1
  Se  Se52  1  0.56909324  0.30538000  0.37447224  1
  Se  Se53  1  0.56909324  0.30538000  0.87447224  1
  Se  Se54  1  0.56909324  0.80538000  0.37447224  1
  Se  Se55  1  0.56909324  0.80538000  0.87447224  1
  Se  Se56  1  0.30538000  0.06909324  0.37447224  1
  Se  Se57  1  0.30538000  0.06909324  0.87447224  1
  Se  Se58  1  0.30538000  0.56909324  0.37447224  1
  Se  Se59  1  0.30538000  0.56909324  0.87447224  1
  Se  Se60  1  0.80538000  0.06909324  0.37447224  1
  Se  Se61  1  0.80538000  0.06909324  0.87447224  1
  Se  Se62  1  0.80538000  0.56909324  0.37447224  1
  Se  Se63  1  0.80538000  0.56909324  0.87447224  1
