# generated using pymatgen
data_Li4Fe3TeO8
_symmetry_space_group_name_H-M   'P 1'
_cell_length_a   5.99467957
_cell_length_b   6.64901550
_cell_length_c   4.99179158
_cell_angle_alpha   90.48271383
_cell_angle_beta   90.66732882
_cell_angle_gamma   92.77912144
_symmetry_Int_Tables_number   1
_chemical_formula_structural   Li4Fe3TeO8
_chemical_formula_sum   'Li4 Fe3 Te1 O8'
_cell_volume   198.71087105
_cell_formula_units_Z   1
loop_
 _symmetry_equiv_pos_site_id
 _symmetry_equiv_pos_as_xyz
  1  'x, y, z'
loop_
 _atom_site_type_symbol
 _atom_site_label
 _atom_site_symmetry_multiplicity
 _atom_site_fract_x
 _atom_site_fract_y
 _atom_site_fract_z
 _atom_site_occupancy
  Li  Li0  1  0.09433464  0.60537745  0.97336122  1
  Li  Li1  1  0.41817978  0.13552920  0.50731894  1
  Li  Li2  1  0.54690291  0.88369707  0.98456704  1
  Li  Li3  1  0.91138659  0.37303730  0.50355586  1
  Fe  Fe4  1  0.09393239  0.14840047  0.96626640  1
  Fe  Fe5  1  0.42247691  0.61894774  0.51027317  1
  Fe  Fe6  1  0.59087539  0.37428995  0.00286190  1
  Te  Te7  1  0.91341400  0.86287948  0.43420565  1
  O  O8  1  0.07770527  0.12418061  0.40264863  1
  O  O9  1  0.11706533  0.61518008  0.40708981  1
  O  O10  1  0.41890349  0.13788701  0.90694909  1
  O  O11  1  0.42769678  0.60659206  0.89348338  1
  O  O12  1  0.58614325  0.39628089  0.39103838  1
  O  O13  1  0.55815622  0.87718051  0.42292227  1
  O  O14  1  0.89309762  0.37002363  0.90030554  1
  O  O15  1  0.92972943  0.87051756  0.81955275  1
