# generated using pymatgen
data_Ba3Ag2
_symmetry_space_group_name_H-M   'P 1'
_cell_length_a   8.94118027
_cell_length_b   8.94118027
_cell_length_c   8.94118027
_cell_angle_alpha   72.70255421
_cell_angle_beta   72.70255425
_cell_angle_gamma   72.70255424
_symmetry_Int_Tables_number   1
_chemical_formula_structural   Ba3Ag2
_chemical_formula_sum   'Ba9 Ag6'
_cell_volume   634.26276594
_cell_formula_units_Z   3
loop_
 _symmetry_equiv_pos_site_id
 _symmetry_equiv_pos_as_xyz
  1  'x, y, z'
loop_
 _atom_site_type_symbol
 _atom_site_label
 _atom_site_symmetry_multiplicity
 _atom_site_fract_x
 _atom_site_fract_y
 _atom_site_fract_z
 _atom_site_occupancy
  Ag  Ag0  1  0.63439235  0.46298920  0.09015803  1
  Ag  Ag1  1  0.09015803  0.63439235  0.46298920  1
  Ag  Ag2  1  0.46298920  0.09015803  0.63439235  1
  Ag  Ag3  1  0.36560765  0.53701080  0.90984197  1
  Ag  Ag4  1  0.90984197  0.36560765  0.53701080  1
  Ag  Ag5  1  0.53701080  0.90984197  0.36560765  1
  Ba  Ba6  1  0.50000000  0.50000000  0.50000000  1
  Ba  Ba7  1  0.29379608  0.29379608  0.29379608  1
  Ba  Ba8  1  0.70620392  0.70620392  0.70620392  1
  Ba  Ba9  1  0.33466380  0.83246662  0.11450010  1
  Ba  Ba10  1  0.11450010  0.33466380  0.83246662  1
  Ba  Ba11  1  0.83246662  0.11450010  0.33466380  1
  Ba  Ba12  1  0.66533620  0.16753338  0.88549990  1
  Ba  Ba13  1  0.88549990  0.66533620  0.16753338  1
  Ba  Ba14  1  0.16753338  0.88549990  0.66533620  1
