# generated using pymatgen
data_AsBrOF8
_symmetry_space_group_name_H-M   'P 1'
_cell_length_a   8.88653242
_cell_length_b   8.88004825
_cell_length_c   8.86014436
_cell_angle_alpha   90.00000000
_cell_angle_beta   89.60353439
_cell_angle_gamma   90.00000000
_symmetry_Int_Tables_number   1
_chemical_formula_structural   AsBrOF8
_chemical_formula_sum   'As4 Br4 O4 F32'
_cell_volume   699.16238659
_cell_formula_units_Z   4
loop_
 _symmetry_equiv_pos_site_id
 _symmetry_equiv_pos_as_xyz
  1  'x, y, z'
loop_
 _atom_site_type_symbol
 _atom_site_label
 _atom_site_symmetry_multiplicity
 _atom_site_fract_x
 _atom_site_fract_y
 _atom_site_fract_z
 _atom_site_occupancy
  As  As0  1  0.36396934  0.36496750  0.36398637  1
  As  As1  1  0.86548961  0.13510275  0.63532027  1
  As  As2  1  0.13451039  0.63510275  0.86467973  1
  As  As3  1  0.63603066  0.86496750  0.13601363  1
  Br  Br4  1  0.30383672  0.22038431  0.79590486  1
  Br  Br5  1  0.20420006  0.80368733  0.27962625  1
  Br  Br6  1  0.79579994  0.30368733  0.22037375  1
  Br  Br7  1  0.69616328  0.72038431  0.70409514  1
  O  O8  1  0.45286962  0.28471443  0.86883531  1
  O  O9  1  0.13078535  0.95290321  0.21539428  1
  O  O10  1  0.86921465  0.45290321  0.28460572  1
  O  O11  1  0.54713038  0.78471443  0.63116469  1
  F  F12  1  0.37930870  0.35878259  0.56908291  1
  F  F13  1  0.06560499  0.11913625  0.63649354  1
  F  F14  1  0.14094153  0.43027929  0.87998699  1
  F  F15  1  0.12176760  0.63894874  0.07063531  1
  F  F16  1  0.43118802  0.87768340  0.14030442  1
  F  F17  1  0.36233450  0.56512842  0.38055231  1
  F  F18  1  0.87823240  0.13894874  0.42936469  1
  F  F19  1  0.56881198  0.37768340  0.35969558  1
  F  F20  1  0.63766550  0.06512842  0.11944769  1
  F  F21  1  0.62069130  0.85878259  0.93091709  1
  F  F22  1  0.93439501  0.61913625  0.86350646  1
  F  F23  1  0.85905847  0.93027929  0.62001301  1
  F  F24  1  0.36144929  0.37793254  0.16737723  1
  F  F25  1  0.66903799  0.13849263  0.62139414  1
  F  F26  1  0.12201004  0.83115450  0.86160892  1
  F  F27  1  0.14088990  0.62052066  0.66838675  1
  F  F28  1  0.83190998  0.85972863  0.12065748  1
  F  F29  1  0.37878847  0.16866615  0.36081017  1
  F  F30  1  0.85911010  0.12052066  0.83161325  1
  F  F31  1  0.16809002  0.35972863  0.37934252  1
  F  F32  1  0.62121153  0.66866615  0.13918983  1
  F  F33  1  0.63855071  0.87793254  0.33262277  1
  F  F34  1  0.33096201  0.63849263  0.87860586  1
  F  F35  1  0.87798996  0.33115450  0.63839108  1
  F  F36  1  0.36427990  0.04503265  0.71935103  1
  F  F37  1  0.21535259  0.12655900  0.95000044  1
  F  F38  1  0.05042157  0.71597149  0.37390686  1
  F  F39  1  0.27999021  0.86422353  0.45481316  1
  F  F40  1  0.94957843  0.21597149  0.12609314  1
  F  F41  1  0.72000979  0.36422353  0.04518684  1
  F  F42  1  0.63572010  0.54503265  0.78064897  1
  F  F43  1  0.78464741  0.62655900  0.54999956  1
