# generated using pymatgen
data_Sr2Ta2O7
_symmetry_space_group_name_H-M   'P 1'
_cell_length_a   3.99051455
_cell_length_b   5.75446030
_cell_length_c   13.96637815
_cell_angle_alpha   90.00000000
_cell_angle_beta   98.21346099
_cell_angle_gamma   90.00000000
_symmetry_Int_Tables_number   1
_chemical_formula_structural   Sr2Ta2O7
_chemical_formula_sum   'Sr4 Ta4 O14'
_cell_volume   317.42388214
_cell_formula_units_Z   2
loop_
 _symmetry_equiv_pos_site_id
 _symmetry_equiv_pos_as_xyz
  1  'x, y, z'
loop_
 _atom_site_type_symbol
 _atom_site_label
 _atom_site_symmetry_multiplicity
 _atom_site_fract_x
 _atom_site_fract_y
 _atom_site_fract_z
 _atom_site_occupancy
  O  O0  1  0.79280516  0.48892636  0.58561032  1
  O  O1  1  0.20719484  0.98892636  0.41438968  1
  O  O2  1  0.89911800  0.51280597  0.79823600  1
  O  O3  1  0.10088200  0.01280597  0.20176400  1
  O  O4  1  0.35094178  0.26079809  0.70188357  1
  O  O5  1  0.64905822  0.76079809  0.29811643  1
  O  O6  1  0.45297483  0.76342203  0.90594967  1
  O  O7  1  0.54702517  0.26342203  0.09405033  1
  O  O8  1  0.99809828  0.50442715  0.99619657  1
  O  O9  1  0.00190172  0.00442715  0.00380343  1
  O  O10  1  0.09712649  0.52784038  0.19425298  1
  O  O11  1  0.90287351  0.02784038  0.80574702  1
  O  O12  1  0.20441169  0.51265210  0.40882338  1
  O  O13  1  0.79558831  0.01265210  0.59117662  1
  Sr  Sr14  1  0.55337891  0.76251280  0.10675782  1
  Sr  Sr15  1  0.44662109  0.26251280  0.89324218  1
  Sr  Sr16  1  0.71450190  0.24976342  0.42900380  1
  Sr  Sr17  1  0.28549810  0.74976342  0.57099620  1
  Ta  Ta18  1  0.05472834  0.26039651  0.10945667  1
  Ta  Ta19  1  0.94527166  0.76039651  0.89054333  1
  Ta  Ta20  1  0.15908613  0.75625519  0.31817227  1
  Ta  Ta21  1  0.84091387  0.25625519  0.68182773  1
