# generated using pymatgen
data_Sn3N4
_symmetry_space_group_name_H-M   'P 1'
_cell_length_a   6.46468721
_cell_length_b   6.46468720
_cell_length_c   6.46468720
_cell_angle_alpha   60.00000002
_cell_angle_beta   60.00000003
_cell_angle_gamma   60.00000001
_symmetry_Int_Tables_number   1
_chemical_formula_structural   Sn3N4
_chemical_formula_sum   'Sn6 N8'
_cell_volume   191.04142593
_cell_formula_units_Z   2
loop_
 _symmetry_equiv_pos_site_id
 _symmetry_equiv_pos_as_xyz
  1  'x, y, z'
loop_
 _atom_site_type_symbol
 _atom_site_label
 _atom_site_symmetry_multiplicity
 _atom_site_fract_x
 _atom_site_fract_y
 _atom_site_fract_z
 _atom_site_occupancy
  N  N0  1  0.74093499  0.74093499  0.74093499  1
  N  N1  1  0.25906501  0.25906501  0.72280496  1
  N  N2  1  0.25906501  0.72280496  0.25906501  1
  N  N3  1  0.72280496  0.25906501  0.25906501  1
  N  N4  1  0.74093499  0.27719504  0.74093499  1
  N  N5  1  0.27719504  0.74093499  0.74093499  1
  N  N6  1  0.25906501  0.25906501  0.25906501  1
  N  N7  1  0.74093499  0.74093499  0.27719504  1
  Sn  Sn8  1  0.50000000  0.00000000  0.50000000  1
  Sn  Sn9  1  0.00000000  0.50000000  0.50000000  1
  Sn  Sn10  1  0.50000000  0.50000000  0.00000000  1
  Sn  Sn11  1  0.50000000  0.50000000  0.50000000  1
  Sn  Sn12  1  0.87500000  0.87500000  0.87500000  1
  Sn  Sn13  1  0.12500000  0.12500000  0.12500000  1
