# generated using pymatgen
data_V3(OF)4
_symmetry_space_group_name_H-M   'P 1'
_cell_length_a   4.79117784
_cell_length_b   9.67409753
_cell_length_c   2.99993199
_cell_angle_alpha   90.00000000
_cell_angle_beta   90.00000000
_cell_angle_gamma   89.33033467
_symmetry_Int_Tables_number   1
_chemical_formula_structural   V3(OF)4
_chemical_formula_sum   'V3 O4 F4'
_cell_volume   139.03831558
_cell_formula_units_Z   1
loop_
 _symmetry_equiv_pos_site_id
 _symmetry_equiv_pos_as_xyz
  1  'x, y, z'
loop_
 _atom_site_type_symbol
 _atom_site_label
 _atom_site_symmetry_multiplicity
 _atom_site_fract_x
 _atom_site_fract_y
 _atom_site_fract_z
 _atom_site_occupancy
  V  V0  1  0.01808016  0.86242798  0.75000000  1
  V  V1  1  0.44512917  0.37095716  0.75000000  1
  V  V2  1  0.53151901  0.63819126  0.25000000  1
  O  O3  1  0.28806605  0.47394232  0.25000000  1
  O  O4  1  0.32439872  0.72705826  0.75000000  1
  O  O5  1  0.69488904  0.53449935  0.75000000  1
  O  O6  1  0.83699449  0.76993785  0.25000000  1
  F  F7  1  0.20461849  0.23472394  0.75000000  1
  F  F8  1  0.22730775  0.94658459  0.25000000  1
  F  F9  1  0.66987823  0.29461678  0.25000000  1
  F  F10  1  0.78824189  0.00654251  0.75000000  1
