# generated using pymatgen
data_K2Ti(Si2O5)3
_symmetry_space_group_name_H-M   'P 1'
_cell_length_a   7.38923162
_cell_length_b   7.37116527
_cell_length_c   15.34480734
_cell_angle_alpha   76.33425607
_cell_angle_beta   76.06783010
_cell_angle_gamma   59.91889005
_symmetry_Int_Tables_number   1
_chemical_formula_structural   K2Ti(Si2O5)3
_chemical_formula_sum   'K4 Ti2 Si12 O30'
_cell_volume   695.26813570
_cell_formula_units_Z   2
loop_
 _symmetry_equiv_pos_site_id
 _symmetry_equiv_pos_as_xyz
  1  'x, y, z'
loop_
 _atom_site_type_symbol
 _atom_site_label
 _atom_site_symmetry_multiplicity
 _atom_site_fract_x
 _atom_site_fract_y
 _atom_site_fract_z
 _atom_site_occupancy
  O  O0  1  0.61714974  0.45770149  0.93697614  1
  O  O1  1  0.98817263  0.95770149  0.43697614  1
  O  O2  1  0.43580984  0.41247553  0.81452196  1
  O  O3  1  0.33719267  0.91247553  0.31452196  1
  O  O4  1  0.84669186  0.35899600  0.77049780  1
  O  O5  1  0.02381434  0.85899600  0.27049780  1
  O  O6  1  0.54029571  0.11946354  0.96501976  1
  O  O7  1  0.37522100  0.61946354  0.46501976  1
  O  O8  1  0.77216907  0.43642674  0.49576506  1
  O  O9  1  0.29563913  0.93642674  0.99576506  1
  O  O10  1  0.77822083  0.00913243  0.79187153  1
  O  O11  1  0.42077521  0.50913243  0.29187153  1
  O  O12  1  0.13958781  0.01073827  0.69523177  1
  O  O13  1  0.15444215  0.51073827  0.19523177  1
  O  O14  1  0.58949710  0.19779551  0.51195981  1
  O  O15  1  0.70074758  0.69779551  0.01195981  1
  O  O16  1  0.88670152  0.96701908  0.61611131  1
  O  O17  1  0.53016809  0.46701908  0.11611131  1
  O  O18  1  0.95937423  0.04110699  0.92351389  1
  O  O19  1  0.07600488  0.54110699  0.42351389  1
  O  O20  1  0.74872403  0.75053566  0.23257058  1
  O  O21  1  0.26816973  0.25053566  0.73257058  1
  O  O22  1  0.43111269  0.96432245  0.13362468  1
  O  O23  1  0.47094018  0.46432245  0.63362468  1
  O  O24  1  0.97075177  0.89068818  0.09807075  1
  O  O25  1  0.04048930  0.39068818  0.59807075  1
  O  O26  1  0.74500427  0.78289115  0.53846833  1
  O  O27  1  0.93363625  0.28289115  0.03846833  1
  O  O28  1  0.50782607  0.15753341  0.23687693  1
  O  O29  1  0.09776359  0.65753341  0.73687693  1
  Si  Si30  1  0.54309016  0.43420025  0.52652491  1
  Si  Si31  1  0.49618468  0.93420025  0.02652491  1
  Si  Si32  1  0.97225004  0.91350169  0.71206303  1
  Si  Si33  1  0.40218524  0.41350169  0.21206303  1
  Si  Si34  1  0.81122302  0.97395001  0.52382593  1
  Si  Si35  1  0.69100105  0.47395001  0.02382593  1
  Si  Si36  1  0.32616282  0.44144599  0.73030354  1
  Si  Si37  1  0.50208765  0.94144599  0.23030354  1
  Si  Si38  1  0.03738886  0.03944730  0.01302959  1
  Si  Si39  1  0.91013426  0.53944730  0.51302959  1
  Si  Si40  1  0.06256264  0.26261306  0.70172473  1
  Si  Si41  1  0.97309957  0.76261306  0.20172473  1
  K  K42  1  0.31954753  0.03440631  0.47539831  1
  K  K43  1  0.17064785  0.53440631  0.97539831  1
  K  K44  1  0.88128694  0.28658244  0.29355603  1
  K  K45  1  0.53857460  0.78658244  0.79355603  1
  Ti  Ti46  1  0.20837141  0.72392652  0.36699365  1
  Ti  Ti47  1  0.70070842  0.22392652  0.86699365  1
