# generated using pymatgen
data_BaBPO5
_symmetry_space_group_name_H-M   'P 1'
_cell_length_a   7.22862532
_cell_length_b   7.22862532
_cell_length_c   7.06292909
_cell_angle_alpha   90.00000000
_cell_angle_beta   90.00000000
_cell_angle_gamma   120.00000001
_symmetry_Int_Tables_number   1
_chemical_formula_structural   BaBPO5
_chemical_formula_sum   'Ba3 B3 P3 O15'
_cell_volume   319.61481874
_cell_formula_units_Z   3
loop_
 _symmetry_equiv_pos_site_id
 _symmetry_equiv_pos_as_xyz
  1  'x, y, z'
loop_
 _atom_site_type_symbol
 _atom_site_label
 _atom_site_symmetry_multiplicity
 _atom_site_fract_x
 _atom_site_fract_y
 _atom_site_fract_z
 _atom_site_occupancy
  B  B0  1  0.09286600  0.09286600  0.00000000  1
  B  B1  1  0.00000000  0.90713400  0.66666667  1
  B  B2  1  0.90713400  0.00000000  0.33333333  1
  O  O3  1  0.85743376  0.42545599  0.03425753  1
  O  O4  1  0.57454401  0.43197778  0.36759087  1
  O  O5  1  0.56802222  0.14256624  0.70092420  1
  O  O6  1  0.96036284  0.00000000  0.83333333  1
  O  O7  1  0.00000000  0.96036284  0.16666667  1
  O  O8  1  0.03963716  0.03963716  0.50000000  1
  O  O9  1  0.32041362  0.13858621  0.96381943  1
  O  O10  1  0.86141379  0.18182741  0.29715276  1
  O  O11  1  0.81817259  0.67958638  0.63048610  1
  O  O12  1  0.18182741  0.86141379  0.70284724  1
  O  O13  1  0.67958638  0.81817259  0.36951390  1
  O  O14  1  0.13858621  0.32041362  0.03618057  1
  O  O15  1  0.42545599  0.85743376  0.96574247  1
  O  O16  1  0.14256624  0.56802222  0.29907580  1
  O  O17  1  0.43197778  0.57454401  0.63240913  1
  P  P18  1  0.61238891  0.61238891  0.50000000  1
  P  P19  1  0.00000000  0.38761109  0.16666667  1
  P  P20  1  0.38761109  0.00000000  0.83333333  1
  Ba  Ba21  1  0.60677763  0.60677763  0.00000000  1
  Ba  Ba22  1  0.00000000  0.39322237  0.66666667  1
  Ba  Ba23  1  0.39322237  0.00000000  0.33333333  1
