# generated using pymatgen
data_WO3
_symmetry_space_group_name_H-M   'P 1'
_cell_length_a   5.41855309
_cell_length_b   5.41855309
_cell_length_c   7.80323852
_cell_angle_alpha   90.00000000
_cell_angle_beta   90.00000000
_cell_angle_gamma   90.00000000
_symmetry_Int_Tables_number   1
_chemical_formula_structural   WO3
_chemical_formula_sum   'W4 O12'
_cell_volume   229.10868247
_cell_formula_units_Z   4
loop_
 _symmetry_equiv_pos_site_id
 _symmetry_equiv_pos_as_xyz
  1  'x, y, z'
loop_
 _atom_site_type_symbol
 _atom_site_label
 _atom_site_symmetry_multiplicity
 _atom_site_fract_x
 _atom_site_fract_y
 _atom_site_fract_z
 _atom_site_occupancy
  O  O0  1  0.47396544  0.52603456  0.75000000  1
  O  O1  1  0.97396544  0.47396544  0.75000000  1
  O  O2  1  0.52603456  0.02603456  0.75000000  1
  O  O3  1  0.02603456  0.97396544  0.75000000  1
  O  O4  1  0.25000000  0.25000000  0.00377923  1
  O  O5  1  0.75000000  0.75000000  0.49622077  1
  O  O6  1  0.75000000  0.75000000  0.99622077  1
  O  O7  1  0.25000000  0.25000000  0.50377923  1
  O  O8  1  0.97396544  0.02603456  0.25000000  1
  O  O9  1  0.47396544  0.97396544  0.25000000  1
  O  O10  1  0.02603456  0.52603456  0.25000000  1
  O  O11  1  0.52603456  0.47396544  0.25000000  1
  W  W12  1  0.25000000  0.25000000  0.76796028  1
  W  W13  1  0.75000000  0.75000000  0.73203972  1
  W  W14  1  0.75000000  0.75000000  0.23203972  1
  W  W15  1  0.25000000  0.25000000  0.26796028  1
