# generated using pymatgen
data_RbLiCrO4
_symmetry_space_group_name_H-M   'P 1'
_cell_length_a   5.49731529
_cell_length_b   5.49731530
_cell_length_c   9.32239353
_cell_angle_alpha   90.00000000
_cell_angle_beta   90.00000000
_cell_angle_gamma   119.99999996
_symmetry_Int_Tables_number   1
_chemical_formula_structural   RbLiCrO4
_chemical_formula_sum   'Rb2 Li2 Cr2 O8'
_cell_volume   243.98288156
_cell_formula_units_Z   2
loop_
 _symmetry_equiv_pos_site_id
 _symmetry_equiv_pos_as_xyz
  1  'x, y, z'
loop_
 _atom_site_type_symbol
 _atom_site_label
 _atom_site_symmetry_multiplicity
 _atom_site_fract_x
 _atom_site_fract_y
 _atom_site_fract_z
 _atom_site_occupancy
  Li  Li0  1  0.66666554  0.33333235  0.68190695  1
  Li  Li1  1  0.33333334  0.66666674  0.18190699  1
  O  O2  1  0.64953288  0.03799908  0.23505929  1
  O  O3  1  0.96200082  0.61153437  0.23505929  1
  O  O4  1  0.61153309  0.64953338  0.73505925  1
  O  O5  1  0.35046600  0.96200002  0.73505925  1
  O  O6  1  0.66666554  0.33333235  0.47112811  1
  O  O7  1  0.03799911  0.38846683  0.73505925  1
  O  O8  1  0.38846684  0.35046782  0.23505929  1
  O  O9  1  0.33333334  0.66666674  0.97112807  1
  Cr  Cr10  1  0.33333334  0.66666674  0.79225084  1
  Cr  Cr11  1  0.66666554  0.33333235  0.29225087  1
  Rb  Rb12  1  0.00000000  0.00000000  0.49793620  1
  Rb  Rb13  1  0.00000000  0.00000000  0.99793616  1
