# generated using pymatgen
data_PdSe
_symmetry_space_group_name_H-M   'P 1'
_cell_length_a   6.84495766
_cell_length_b   6.84495766
_cell_length_c   7.03218554
_cell_angle_alpha   90.00000000
_cell_angle_beta   90.00000000
_cell_angle_gamma   90.00000000
_symmetry_Int_Tables_number   1
_chemical_formula_structural   PdSe
_chemical_formula_sum   'Pd8 Se8'
_cell_volume   329.48212101
_cell_formula_units_Z   8
loop_
 _symmetry_equiv_pos_site_id
 _symmetry_equiv_pos_as_xyz
  1  'x, y, z'
loop_
 _atom_site_type_symbol
 _atom_site_label
 _atom_site_symmetry_multiplicity
 _atom_site_fract_x
 _atom_site_fract_y
 _atom_site_fract_z
 _atom_site_occupancy
  Se  Se0  1  0.19431451  0.30738463  0.77189099  1
  Se  Se1  1  0.69261537  0.19431451  0.27189099  1
  Se  Se2  1  0.30738463  0.80568549  0.27189099  1
  Se  Se3  1  0.80568549  0.69261537  0.77189099  1
  Se  Se4  1  0.80568549  0.69261537  0.22810901  1
  Se  Se5  1  0.30738463  0.80568549  0.72810901  1
  Se  Se6  1  0.69261537  0.19431451  0.72810901  1
  Se  Se7  1  0.19431451  0.30738463  0.22810901  1
  Pd  Pd8  1  0.52992663  0.73902944  0.00000000  1
  Pd  Pd9  1  0.26097056  0.52992663  0.50000000  1
  Pd  Pd10  1  0.73902944  0.47007337  0.50000000  1
  Pd  Pd11  1  0.47007337  0.26097056  0.00000000  1
  Pd  Pd12  1  0.50000000  0.00000000  0.50000000  1
  Pd  Pd13  1  0.00000000  0.50000000  0.00000000  1
  Pd  Pd14  1  0.00000000  0.00000000  0.75000000  1
  Pd  Pd15  1  0.00000000  0.00000000  0.25000000  1
