# generated using pymatgen
data_WCl6
_symmetry_space_group_name_H-M   'P 1'
_cell_length_a   11.27471076
_cell_length_b   11.27471076
_cell_length_c   6.21537025
_cell_angle_alpha   90.00000000
_cell_angle_beta   90.00000000
_cell_angle_gamma   120.00000000
_symmetry_Int_Tables_number   1
_chemical_formula_structural   WCl6
_chemical_formula_sum   'W3 Cl18'
_cell_volume   684.23999394
_cell_formula_units_Z   3
loop_
 _symmetry_equiv_pos_site_id
 _symmetry_equiv_pos_as_xyz
  1  'x, y, z'
loop_
 _atom_site_type_symbol
 _atom_site_label
 _atom_site_symmetry_multiplicity
 _atom_site_fract_x
 _atom_site_fract_y
 _atom_site_fract_z
 _atom_site_occupancy
  Cl  Cl0  1  0.23672198  0.76327802  0.67675061  1
  Cl  Cl1  1  0.23672198  0.47344397  0.67675061  1
  Cl  Cl2  1  0.52655603  0.76327802  0.67675061  1
  Cl  Cl3  1  0.09649746  0.90350254  0.21434818  1
  Cl  Cl4  1  0.09649746  0.19299491  0.21434818  1
  Cl  Cl5  1  0.80700509  0.90350254  0.21434818  1
  Cl  Cl6  1  0.19299491  0.09649746  0.78565182  1
  Cl  Cl7  1  0.90350254  0.80700509  0.78565182  1
  Cl  Cl8  1  0.90350254  0.09649746  0.78565182  1
  Cl  Cl9  1  0.42977087  0.57022913  0.24815455  1
  Cl  Cl10  1  0.42977087  0.85954174  0.24815455  1
  Cl  Cl11  1  0.14045826  0.57022913  0.24815455  1
  Cl  Cl12  1  0.85954174  0.42977087  0.75184545  1
  Cl  Cl13  1  0.57022913  0.14045826  0.75184545  1
  Cl  Cl14  1  0.57022913  0.42977087  0.75184545  1
  Cl  Cl15  1  0.76327802  0.23672198  0.32324939  1
  Cl  Cl16  1  0.76327802  0.52655603  0.32324939  1
  Cl  Cl17  1  0.47344397  0.23672198  0.32324939  1
  W  W18  1  0.66666667  0.33333333  0.53715748  1
  W  W19  1  0.33333333  0.66666667  0.46284252  1
  W  W20  1  0.00000000  0.00000000  0.00000000  1
