# generated using pymatgen
data_KSn2Br5
_symmetry_space_group_name_H-M   'P 1'
_cell_length_a   8.47852239
_cell_length_b   8.47852240
_cell_length_c   9.62016663
_cell_angle_alpha   116.14625524
_cell_angle_beta   116.14625529
_cell_angle_gamma   89.99999999
_symmetry_Int_Tables_number   1
_chemical_formula_structural   KSn2Br5
_chemical_formula_sum   'K2 Sn4 Br10'
_cell_volume   540.83836442
_cell_formula_units_Z   2
loop_
 _symmetry_equiv_pos_site_id
 _symmetry_equiv_pos_as_xyz
  1  'x, y, z'
loop_
 _atom_site_type_symbol
 _atom_site_label
 _atom_site_symmetry_multiplicity
 _atom_site_fract_x
 _atom_site_fract_y
 _atom_site_fract_z
 _atom_site_occupancy
  K  K0  1  0.25000000  0.25000000  0.50000000  1
  K  K1  1  0.75000000  0.75000000  0.50000000  1
  Br  Br2  1  0.79643354  0.29643354  0.26760815  1
  Br  Br3  1  0.20356646  0.70356646  0.73239185  1
  Br  Br4  1  0.47117461  0.97117461  0.26760815  1
  Br  Br5  1  0.52882539  0.02882539  0.73239185  1
  Br  Br6  1  0.00000000  0.00000000  0.00000000  1
  Br  Br7  1  0.50000000  0.50000000  0.00000000  1
  Br  Br8  1  0.70356646  0.52882539  0.73239185  1
  Br  Br9  1  0.29643354  0.47117461  0.26760815  1
  Br  Br10  1  0.02882539  0.20356646  0.73239185  1
  Br  Br11  1  0.97117461  0.79643354  0.26760815  1
  Sn  Sn12  1  0.17702315  0.67702315  0.00000000  1
  Sn  Sn13  1  0.82297685  0.32297685  0.00000000  1
  Sn  Sn14  1  0.67702315  0.82297685  0.00000000  1
  Sn  Sn15  1  0.32297685  0.17702315  0.00000000  1
