# generated using pymatgen
data_BaPbO3
_symmetry_space_group_name_H-M   'P 1'
_cell_length_a   6.13386156
_cell_length_b   6.21654866
_cell_length_c   6.15581808
_cell_angle_alpha   120.32318460
_cell_angle_beta   119.88460149
_cell_angle_gamma   90.00030654
_symmetry_Int_Tables_number   1
_chemical_formula_structural   BaPbO3
_chemical_formula_sum   'Ba2 Pb2 O6'
_cell_volume   165.45383169
_cell_formula_units_Z   2
loop_
 _symmetry_equiv_pos_site_id
 _symmetry_equiv_pos_as_xyz
  1  'x, y, z'
loop_
 _atom_site_type_symbol
 _atom_site_label
 _atom_site_symmetry_multiplicity
 _atom_site_fract_x
 _atom_site_fract_y
 _atom_site_fract_z
 _atom_site_occupancy
  O  O0  1  0.70963606  0.20959161  0.91924264  1
  O  O1  1  0.75002602  0.67912400  0.50008388  1
  Pb  Pb2  1  -0.00022249  -0.00030710  -0.00028927  1
  Ba  Ba3  1  0.75002911  0.24305282  0.49998536  1
  O  O4  1  0.25002714  0.32094668  0.50004659  1
  O  O5  1  0.20977261  0.20964416  0.91931854  1
  O  O6  1  0.29039782  0.79038350  0.08075809  1
  O  O7  1  0.79040658  0.79040814  0.08078248  1
  Ba  Ba8  1  0.25006141  0.75695057  0.50002543  1
  Pb  Pb9  1  0.49986573  0.50020560  1.00004627  1
