# generated using pymatgen
data_Li5Fe7O3F13
_symmetry_space_group_name_H-M   'P 1'
_cell_length_a   6.17082990
_cell_length_b   6.17082990
_cell_length_c   10.80383097
_cell_angle_alpha   106.34800185
_cell_angle_beta   73.65199815
_cell_angle_gamma   121.06776466
_symmetry_Int_Tables_number   1
_chemical_formula_structural   Li5Fe7O3F13
_chemical_formula_sum   'Li5 Fe7 O3 F13'
_cell_volume   333.46511965
_cell_formula_units_Z   1
loop_
 _symmetry_equiv_pos_site_id
 _symmetry_equiv_pos_as_xyz
  1  'x, y, z'
loop_
 _atom_site_type_symbol
 _atom_site_label
 _atom_site_symmetry_multiplicity
 _atom_site_fract_x
 _atom_site_fract_y
 _atom_site_fract_z
 _atom_site_occupancy
  Li  Li0  1  0.01044966  0.98955034  0.98809112  1
  Li  Li1  1  0.11728791  0.88271209  0.63148363  1
  Li  Li2  1  0.59876452  0.40123548  0.13299071  1
  Li  Li3  1  0.52553255  0.47446745  0.50761675  1
  Li  Li4  1  0.55706156  0.44293844  0.80855047  1
  Fe  Fe5  1  0.31784789  0.68215211  0.06356991  1
  Fe  Fe6  1  0.06088153  0.93911847  0.31307325  1
  Fe  Fe7  1  0.56299324  0.93643421  0.31309596  1
  Fe  Fe8  1  0.06356579  0.43700676  0.31309596  1
  Fe  Fe9  1  0.60966815  0.97382489  0.80719855  1
  Fe  Fe10  1  0.02617511  0.39033185  0.80719855  1
  Fe  Fe11  1  0.81510116  0.18489884  0.56062900  1
  O  O12  1  0.40372429  0.59627571  0.19982640  1
  O  O13  1  0.72436938  0.27563062  0.42582595  1
  O  O14  1  0.92725188  0.07274812  0.67689210  1
  F  F15  1  0.17741207  0.82258793  0.43349037  1
  F  F16  1  0.20235906  0.30474325  0.43178572  1
  F  F17  1  0.69525675  0.79764094  0.43178572  1
  F  F18  1  0.42285918  0.06308170  0.18761076  1
  F  F19  1  0.93691830  0.57714082  0.18761076  1
  F  F20  1  0.20923218  0.79076782  0.93236808  1
  F  F21  1  0.43145754  0.56854246  0.70604854  1
  F  F22  1  0.95063274  0.04936726  0.18536937  1
  F  F23  1  0.67645528  0.81284550  0.93153790  1
  F  F24  1  0.18715450  0.32354472  0.93153790  1
  F  F25  1  0.92252335  0.55429324  0.70115674  1
  F  F26  1  0.44570676  0.07747665  0.70115674  1
  F  F27  1  0.67135667  0.32864333  0.93940410  1
