# generated using pymatgen
data_Cs2PbO3
_symmetry_space_group_name_H-M   'P 1'
_cell_length_a   6.20148185
_cell_length_b   7.00771344
_cell_length_c   7.00771344
_cell_angle_alpha   111.15460803
_cell_angle_beta   90.00000000
_cell_angle_gamma   90.00000000
_symmetry_Int_Tables_number   1
_chemical_formula_structural   Cs2PbO3
_chemical_formula_sum   'Cs4 Pb2 O6'
_cell_volume   284.01953619
_cell_formula_units_Z   2
loop_
 _symmetry_equiv_pos_site_id
 _symmetry_equiv_pos_as_xyz
  1  'x, y, z'
loop_
 _atom_site_type_symbol
 _atom_site_label
 _atom_site_symmetry_multiplicity
 _atom_site_fract_x
 _atom_site_fract_y
 _atom_site_fract_z
 _atom_site_occupancy
  O  O0  1  0.75000000  0.65012962  0.65012962  1
  O  O1  1  0.25000000  0.34987038  0.34987038  1
  O  O2  1  0.50000000  0.12455843  0.87544157  1
  O  O3  1  0.00000000  0.87544157  0.12455843  1
  O  O4  1  0.00000000  0.12455843  0.87544157  1
  O  O5  1  0.50000000  0.87544157  0.12455843  1
  Cs  Cs6  1  0.25000000  0.48303586  0.80867508  1
  Cs  Cs7  1  0.25000000  0.80867508  0.48303586  1
  Cs  Cs8  1  0.75000000  0.51696414  0.19132492  1
  Cs  Cs9  1  0.75000000  0.19132492  0.51696414  1
  Pb  Pb10  1  0.75000000  0.91165842  0.91165842  1
  Pb  Pb11  1  0.25000000  0.08834158  0.08834158  1
