# generated using pymatgen
data_Sr2Co(BrO)2
_symmetry_space_group_name_H-M   'P 1'
_cell_length_a   4.11013926
_cell_length_b   4.11013926
_cell_length_c   9.15080157
_cell_angle_alpha   102.97807013
_cell_angle_beta   102.97807013
_cell_angle_gamma   90.00000000
_symmetry_Int_Tables_number   1
_chemical_formula_structural   Sr2Co(BrO)2
_chemical_formula_sum   'Sr2 Co1 Br2 O2'
_cell_volume   146.58289677
_cell_formula_units_Z   1
loop_
 _symmetry_equiv_pos_site_id
 _symmetry_equiv_pos_as_xyz
  1  'x, y, z'
loop_
 _atom_site_type_symbol
 _atom_site_label
 _atom_site_symmetry_multiplicity
 _atom_site_fract_x
 _atom_site_fract_y
 _atom_site_fract_z
 _atom_site_occupancy
  O  O0  1  0.50000124  0.99999999  0.00000013  1
  O  O1  1  0.99999893  0.50000009  0.99999990  1
  Co  Co2  1  0.00000000  0.00000000  0.00000000  1
  Br  Br3  1  0.17221824  0.17221778  0.34443499  1
  Br  Br4  1  0.82778157  0.82778146  0.65556428  1
  Sr  Sr5  1  0.59461269  0.59461147  0.18922368  1
  Sr  Sr6  1  0.40538707  0.40538772  0.81077665  1
