# generated using pymatgen
data_CaPH3O4
_symmetry_space_group_name_H-M   'P 1'
_cell_length_a   6.79294674
_cell_length_b   7.74876171
_cell_length_c   7.97936917
_cell_angle_alpha   110.12190337
_cell_angle_beta   90.00000000
_cell_angle_gamma   90.00000000
_symmetry_Int_Tables_number   1
_chemical_formula_structural   CaPH3O4
_chemical_formula_sum   'Ca4 P4 H12 O16'
_cell_volume   394.37326298
_cell_formula_units_Z   4
loop_
 _symmetry_equiv_pos_site_id
 _symmetry_equiv_pos_as_xyz
  1  'x, y, z'
loop_
 _atom_site_type_symbol
 _atom_site_label
 _atom_site_symmetry_multiplicity
 _atom_site_fract_x
 _atom_site_fract_y
 _atom_site_fract_z
 _atom_site_occupancy
  H  H0  1  0.94567894  0.81286516  0.72234265  1
  H  H1  1  0.44567894  0.18713484  0.77765735  1
  H  H2  1  0.05432106  0.18713484  0.27765735  1
  H  H3  1  0.55432106  0.81286516  0.22234265  1
  H  H4  1  0.91887733  0.99652499  0.67929174  1
  H  H5  1  0.41887733  0.00347501  0.82070826  1
  H  H6  1  0.08112267  0.00347501  0.32070826  1
  H  H7  1  0.58112267  0.99652499  0.17929174  1
  H  H8  1  0.22630356  0.88590508  0.00924645  1
  H  H9  1  0.72630356  0.11409492  0.49075355  1
  H  H10  1  0.77369644  0.11409492  0.99075355  1
  H  H11  1  0.27369644  0.88590508  0.50924645  1
  O  O12  1  0.90478011  0.86079836  0.62750679  1
  O  O13  1  0.78953953  0.43276266  0.54184571  1
  O  O14  1  0.21046047  0.56723734  0.45815429  1
  O  O15  1  0.71046047  0.43276266  0.04184571  1
  O  O16  1  0.47557295  0.32444891  0.63851975  1
  O  O17  1  0.97557295  0.67555109  0.86148025  1
  O  O18  1  0.52442705  0.67555109  0.36148025  1
  O  O19  1  0.02442705  0.32444891  0.13851975  1
  O  O20  1  0.55234562  0.23449137  0.30037569  1
  O  O21  1  0.05234562  0.76550863  0.19962431  1
  O  O22  1  0.44765438  0.76550863  0.69962431  1
  O  O23  1  0.94765438  0.23449137  0.80037569  1
  O  O24  1  0.09521989  0.13920164  0.37249321  1
  O  O25  1  0.59521989  0.86079836  0.12750679  1
  O  O26  1  0.28953953  0.56723734  0.95815429  1
  O  O27  1  0.40478011  0.13920164  0.87249321  1
  P  P28  1  0.86629479  0.27584133  0.98901595  1
  P  P29  1  0.36629479  0.72415867  0.51098405  1
  P  P30  1  0.13370521  0.72415867  0.01098405  1
  P  P31  1  0.63370521  0.27584133  0.48901595  1
  Ca  Ca32  1  0.87156009  0.61023547  0.35189500  1
  Ca  Ca33  1  0.37156009  0.38976453  0.14810500  1
  Ca  Ca34  1  0.12843991  0.38976453  0.64810500  1
  Ca  Ca35  1  0.62843991  0.61023547  0.85189500  1
