# generated using pymatgen
data_YH3
_symmetry_space_group_name_H-M   'P 1'
_cell_length_a   6.34359129
_cell_length_b   6.34359129
_cell_length_c   6.61458540
_cell_angle_alpha   90.00000000
_cell_angle_beta   90.00000000
_cell_angle_gamma   120.00000003
_symmetry_Int_Tables_number   1
_chemical_formula_structural   YH3
_chemical_formula_sum   'Y6 H18'
_cell_volume   230.51736577
_cell_formula_units_Z   6
loop_
 _symmetry_equiv_pos_site_id
 _symmetry_equiv_pos_as_xyz
  1  'x, y, z'
loop_
 _atom_site_type_symbol
 _atom_site_label
 _atom_site_symmetry_multiplicity
 _atom_site_fract_x
 _atom_site_fract_y
 _atom_site_fract_z
 _atom_site_occupancy
  H  H0  1  0.33333333  0.66666667  0.68538477  1
  H  H1  1  0.66666667  0.33333333  0.81461523  1
  H  H2  1  0.66666667  0.33333333  0.31461523  1
  H  H3  1  0.33333333  0.66666667  0.18538477  1
  H  H4  1  0.00000000  0.00000000  0.75000000  1
  H  H5  1  0.00000000  0.00000000  0.25000000  1
  H  H6  1  0.35032514  0.02881149  0.09205836  1
  H  H7  1  0.97118851  0.32151365  0.09205836  1
  H  H8  1  0.67848635  0.64967486  0.09205836  1
  H  H9  1  0.32151365  0.97118851  0.40794164  1
  H  H10  1  0.64967486  0.67848635  0.40794164  1
  H  H11  1  0.02881149  0.35032514  0.40794164  1
  H  H12  1  0.64967486  0.97118851  0.90794164  1
  H  H13  1  0.02881149  0.67848635  0.90794164  1
  H  H14  1  0.32151365  0.35032514  0.90794164  1
  H  H15  1  0.67848635  0.02881149  0.59205836  1
  H  H16  1  0.35032514  0.32151365  0.59205836  1
  H  H17  1  0.97118851  0.64967486  0.59205836  1
  Y  Y18  1  0.66312855  0.66312855  0.75000000  1
  Y  Y19  1  0.00000000  0.33687145  0.75000000  1
  Y  Y20  1  0.33687145  0.00000000  0.75000000  1
  Y  Y21  1  0.33687145  0.33687145  0.25000000  1
  Y  Y22  1  0.00000000  0.66312855  0.25000000  1
  Y  Y23  1  0.66312855  0.00000000  0.25000000  1
