# generated using pymatgen
data_LiBeH3
_symmetry_space_group_name_H-M   'P 1'
_cell_length_a   6.05026896
_cell_length_b   6.17207177
_cell_length_c   6.81432241
_cell_angle_alpha   103.99761050
_cell_angle_beta   97.22049059
_cell_angle_gamma   90.37632158
_symmetry_Int_Tables_number   1
_chemical_formula_structural   LiBeH3
_chemical_formula_sum   'Li6 Be6 H18'
_cell_volume   244.77027236
_cell_formula_units_Z   6
loop_
 _symmetry_equiv_pos_site_id
 _symmetry_equiv_pos_as_xyz
  1  'x, y, z'
loop_
 _atom_site_type_symbol
 _atom_site_label
 _atom_site_symmetry_multiplicity
 _atom_site_fract_x
 _atom_site_fract_y
 _atom_site_fract_z
 _atom_site_occupancy
  H  H0  1  0.29368259  0.82041453  0.26945186  1
  H  H1  1  0.70631741  0.17958547  0.73054814  1
  H  H2  1  0.42421154  0.50363944  0.26067524  1
  H  H3  1  0.57578846  0.49636056  0.73932476  1
  H  H4  1  0.42302680  0.13641386  0.26479543  1
  H  H5  1  0.57697320  0.86358614  0.73520457  1
  H  H6  1  0.20004711  0.63666507  0.52038586  1
  H  H7  1  0.79995289  0.36333493  0.47961414  1
  H  H8  1  0.22120873  0.13306062  0.53547953  1
  H  H9  1  0.77879127  0.86693938  0.46452047  1
  H  H10  1  0.02598763  0.53732243  0.18436801  1
  H  H11  1  0.97401237  0.46267757  0.81563199  1
  H  H12  1  0.33112226  0.72289476  0.88814185  1
  H  H13  1  0.66887774  0.27710524  0.11185815  1
  H  H14  1  0.29290677  0.22953885  0.93839147  1
  H  H15  1  0.70709323  0.77046115  0.06160853  1
  H  H16  1  0.97184012  0.93723998  0.80482089  1
  H  H17  1  0.02815988  0.06276002  0.19517911  1
  Li  Li18  1  0.01072272  0.75189850  0.00456179  1
  Li  Li19  1  0.98927728  0.24810150  0.99543821  1
  Li  Li20  1  0.74670558  0.07304649  0.29733013  1
  Li  Li21  1  0.25329442  0.92695351  0.70266987  1
  Li  Li22  1  0.76138531  0.56775714  0.31521178  1
  Li  Li23  1  0.23861469  0.43224286  0.68478822  1
  Be  Be24  1  0.22805785  0.04738148  0.32478673  1
  Be  Be25  1  0.77194215  0.95261852  0.67521327  1
  Be  Be26  1  0.22506540  0.61803636  0.31649055  1
  Be  Be27  1  0.77493460  0.38196364  0.68350945  1
  Be  Be28  1  0.43462438  0.28254285  0.12785799  1
  Be  Be29  1  0.56537562  0.71745715  0.87214201  1
