# generated using pymatgen
data_CaGa4
_symmetry_space_group_name_H-M   'P 1'
_cell_length_a   4.38333834
_cell_length_b   4.38333833
_cell_length_c   6.17800135
_cell_angle_alpha   69.83220363
_cell_angle_beta   69.83220371
_cell_angle_gamma   89.72086759
_symmetry_Int_Tables_number   1
_chemical_formula_structural   CaGa4
_chemical_formula_sum   'Ca1 Ga4'
_cell_volume   103.71326393
_cell_formula_units_Z   1
loop_
 _symmetry_equiv_pos_site_id
 _symmetry_equiv_pos_as_xyz
  1  'x, y, z'
loop_
 _atom_site_type_symbol
 _atom_site_label
 _atom_site_symmetry_multiplicity
 _atom_site_fract_x
 _atom_site_fract_y
 _atom_site_fract_z
 _atom_site_occupancy
  Ca  Ca0  1  0.00000000  0.00000000  0.00000000  1
  Ga  Ga1  1  0.40204624  0.40204624  0.22994429  1
  Ga  Ga2  1  0.59795376  0.59795376  0.77005571  1
  Ga  Ga3  1  0.23502616  0.76497384  0.50000000  1
  Ga  Ga4  1  0.76497384  0.23502616  0.50000000  1
