# generated using pymatgen
data_UH6C2(SO4)2
_symmetry_space_group_name_H-M   'P 1'
_cell_length_a   10.34117597
_cell_length_b   13.36240552
_cell_length_c   15.86635140
_cell_angle_alpha   112.39240711
_cell_angle_beta   90.00000000
_cell_angle_gamma   90.00000000
_symmetry_Int_Tables_number   1
_chemical_formula_structural   UH6C2(SO4)2
_chemical_formula_sum   'U8 H48 C16 S16 O64'
_cell_volume   2027.14073820
_cell_formula_units_Z   8
loop_
 _symmetry_equiv_pos_site_id
 _symmetry_equiv_pos_as_xyz
  1  'x, y, z'
loop_
 _atom_site_type_symbol
 _atom_site_label
 _atom_site_symmetry_multiplicity
 _atom_site_fract_x
 _atom_site_fract_y
 _atom_site_fract_z
 _atom_site_occupancy
  U  U0  1  0.27774363  0.92423332  0.19991811  1
  U  U1  1  0.77774363  0.07576668  0.30008189  1
  U  U2  1  0.72225637  0.07576668  0.80008189  1
  U  U3  1  0.22225637  0.92423332  0.69991811  1
  U  U4  1  0.94500300  0.56767013  0.28006738  1
  U  U5  1  0.44500300  0.43232987  0.21993262  1
  U  U6  1  0.05499700  0.43232987  0.71993262  1
  U  U7  1  0.55499700  0.56767013  0.78006738  1
  H  H8  1  0.10850712  0.32254264  0.33802772  1
  H  H9  1  0.60850712  0.67745736  0.16197228  1
  H  H10  1  0.89149288  0.67745736  0.66197228  1
  H  H11  1  0.39149288  0.32254264  0.83802772  1
  H  H12  1  0.13067087  0.34519369  0.45671971  1
  H  H13  1  0.63067087  0.65480631  0.04328029  1
  H  H14  1  0.86932913  0.65480631  0.54328029  1
  H  H15  1  0.36932913  0.34519369  0.95671971  1
  H  H16  1  0.26420003  0.29918612  0.37872460  1
  H  H17  1  0.76420003  0.70081388  0.12127540  1
  H  H18  1  0.73579997  0.70081388  0.62127540  1
  H  H19  1  0.23579997  0.29918612  0.87872460  1
  H  H20  1  0.12485377  0.17566328  0.15330884  1
  H  H21  1  0.62485377  0.82433672  0.34669116  1
  H  H22  1  0.87514623  0.82433672  0.84669116  1
  H  H23  1  0.37514623  0.17566328  0.65330884  1
  H  H24  1  0.98116134  0.18667702  0.09301395  1
  H  H25  1  0.48116134  0.81332298  0.40698605  1
  H  H26  1  0.01883866  0.81332298  0.90698605  1
  H  H27  1  0.51883866  0.18667702  0.59301395  1
  H  H28  1  0.13273680  0.14832697  0.03297246  1
  H  H29  1  0.63273680  0.85167303  0.46702754  1
  H  H30  1  0.86726320  0.85167303  0.96702754  1
  H  H31  1  0.36726320  0.14832697  0.53297246  1
  H  H32  1  0.29855738  0.61290674  0.00603367  1
  H  H33  1  0.79855738  0.38709326  0.49396633  1
  H  H34  1  0.70144262  0.38709326  0.99396633  1
  H  H35  1  0.20144262  0.61290674  0.50603367  1
  H  H36  1  0.18101795  0.51210674  0.00527957  1
  H  H37  1  0.68101795  0.48789326  0.49472043  1
  H  H38  1  0.81898205  0.48789326  0.99472043  1
  H  H39  1  0.31898205  0.51210674  0.50527957  1
  H  H40  1  0.13149525  0.64995216  0.03473206  1
  H  H41  1  0.63149525  0.35004784  0.46526794  1
  H  H42  1  0.86850475  0.35004784  0.96526794  1
  H  H43  1  0.36850475  0.64995216  0.53473206  1
  H  H44  1  0.12160998  0.95857217  0.44642664  1
  H  H45  1  0.62160998  0.04142783  0.05357336  1
  H  H46  1  0.87839002  0.04142783  0.55357336  1
  H  H47  1  0.37839002  0.95857217  0.94642664  1
  H  H48  1  0.02670487  0.85368825  0.46369157  1
  H  H49  1  0.52670487  0.14631175  0.03630843  1
  H  H50  1  0.97329513  0.14631175  0.53630843  1
  H  H51  1  0.47329513  0.85368825  0.96369157  1
  H  H52  1  0.16656125  0.81850428  0.39044374  1
  H  H53  1  0.66656125  0.18149572  0.10955626  1
  H  H54  1  0.83343875  0.18149572  0.60955626  1
  H  H55  1  0.33343875  0.81850428  0.89044374  1
  C  C56  1  0.15921462  0.29618301  0.38652835  1
  C  C57  1  0.65921462  0.70381699  0.11347165  1
  C  C58  1  0.84078538  0.70381699  0.61347165  1
  C  C59  1  0.34078538  0.29618301  0.88652835  1
  C  C60  1  0.08640383  0.19668943  0.09793420  1
  C  C61  1  0.58640383  0.80331057  0.40206580  1
  C  C62  1  0.91359617  0.80331057  0.90206580  1
  C  C63  1  0.41359617  0.19668943  0.59793420  1
  C  C64  1  0.21080914  0.59690358  0.03766429  1
  C  C65  1  0.71080914  0.40309642  0.46233571  1
  C  C66  1  0.78919086  0.40309642  0.96233571  1
  C  C67  1  0.28919086  0.59690358  0.53766429  1
  C  C68  1  0.08588458  0.87521732  0.41589261  1
  C  C69  1  0.58588458  0.12478268  0.08410739  1
  C  C70  1  0.91411542  0.12478268  0.58410739  1
  C  C71  1  0.41411542  0.87521732  0.91589261  1
  S  S72  1  0.11729824  0.16067795  0.36617890  1
  S  S73  1  0.61729824  0.83932205  0.13382110  1
  S  S74  1  0.88270176  0.83932205  0.63382110  1
  S  S75  1  0.38270176  0.16067795  0.86617890  1
  S  S76  1  0.12050236  0.33386357  0.11937455  1
  S  S77  1  0.62050236  0.66613643  0.38062545  1
  S  S78  1  0.87949764  0.66613643  0.88062545  1
  S  S79  1  0.37949764  0.33386357  0.61937455  1
  S  S80  1  0.24452039  0.62491750  0.15317939  1
  S  S81  1  0.74452039  0.37508250  0.34682061  1
  S  S82  1  0.75547961  0.37508250  0.84682061  1
  S  S83  1  0.25547961  0.62491750  0.65317939  1
  S  S84  1  0.98991162  0.86288410  0.32076580  1
  S  S85  1  0.48991162  0.13711590  0.17923420  1
  S  S86  1  0.01008838  0.13711590  0.67923420  1
  S  S87  1  0.51008838  0.86288410  0.82076580  1
  O  O88  1  0.20082387  0.88197068  0.09038471  1
  O  O89  1  0.70082387  0.11802932  0.40961529  1
  O  O90  1  0.79917613  0.11802932  0.90961529  1
  O  O91  1  0.29917613  0.88197068  0.59038471  1
  O  O92  1  0.35677852  0.96199071  0.30793604  1
  O  O93  1  0.85677852  0.03800929  0.19206396  1
  O  O94  1  0.64322148  0.03800929  0.69206396  1
  O  O95  1  0.14322148  0.96199071  0.80793604  1
  O  O96  1  0.84249285  0.52515184  0.18178289  1
  O  O97  1  0.34249285  0.47484816  0.31821711  1
  O  O98  1  0.15750715  0.47484816  0.81821711  1
  O  O99  1  0.65750715  0.52515184  0.68178289  1
  O  O100  1  0.04517207  0.61422998  0.38045460  1
  O  O101  1  0.54517207  0.38577002  0.11954540  1
  O  O102  1  0.95482793  0.38577002  0.61954540  1
  O  O103  1  0.45482793  0.61422998  0.88045460  1
  O  O104  1  0.17428310  0.13013149  0.43623647  1
  O  O105  1  0.67428310  0.86986851  0.06376353  1
  O  O106  1  0.82571690  0.86986851  0.56376353  1
  O  O107  1  0.32571690  0.13013149  0.93623647  1
  O  O108  1  0.97253427  0.15904443  0.36951866  1
  O  O109  1  0.47253427  0.84095557  0.13048134  1
  O  O110  1  0.02746573  0.84095557  0.63048134  1
  O  O111  1  0.52746573  0.15904443  0.86951866  1
  O  O112  1  0.16288570  0.09480222  0.27158544  1
  O  O113  1  0.66288570  0.90519778  0.22841456  1
  O  O114  1  0.83711430  0.90519778  0.72841456  1
  O  O115  1  0.33711430  0.09480222  0.77158544  1
  O  O116  1  0.07393701  0.35861177  0.04346849  1
  O  O117  1  0.57393701  0.64138823  0.45653151  1
  O  O118  1  0.92606299  0.64138823  0.95653151  1
  O  O119  1  0.42606299  0.35861177  0.54346849  1
  O  O120  1  0.26429576  0.34573696  0.13049695  1
  O  O121  1  0.76429576  0.65426304  0.36950305  1
  O  O122  1  0.73570424  0.65426304  0.86950305  1
  O  O123  1  0.23570424  0.34573696  0.63049695  1
  O  O124  1  0.05686594  0.39845699  0.20868264  1
  O  O125  1  0.55686594  0.60154301  0.29131736  1
  O  O126  1  0.94313406  0.60154301  0.79131736  1
  O  O127  1  0.44313406  0.39845699  0.70868264  1
  O  O128  1  0.12778898  0.59979927  0.19446759  1
  O  O129  1  0.62778898  0.40020073  0.30553241  1
  O  O130  1  0.87221102  0.40020073  0.80553241  1
  O  O131  1  0.37221102  0.59979927  0.69446759  1
  O  O132  1  0.28005180  0.74029278  0.19668306  1
  O  O133  1  0.78005180  0.25970722  0.30331694  1
  O  O134  1  0.71994820  0.25970722  0.80331694  1
  O  O135  1  0.21994820  0.74029278  0.69668306  1
  O  O136  1  0.35579654  0.55654758  0.15607781  1
  O  O137  1  0.85579654  0.44345242  0.34392219  1
  O  O138  1  0.64420346  0.44345242  0.84392219  1
  O  O139  1  0.14420346  0.55654758  0.65607781  1
  O  O140  1  0.93586552  0.75238687  0.28376229  1
  O  O141  1  0.43586552  0.24761313  0.21623771  1
  O  O142  1  0.06413448  0.24761313  0.71623771  1
  O  O143  1  0.56413448  0.75238687  0.78376229  1
  O  O144  1  0.07377108  0.88302181  0.25360064  1
  O  O145  1  0.57377108  0.11697819  0.24639936  1
  O  O146  1  0.92622892  0.11697819  0.74639936  1
  O  O147  1  0.42622892  0.88302181  0.75360064  1
  O  O148  1  0.88516550  0.94415428  0.35156847  1
  O  O149  1  0.38516550  0.05584572  0.14843153  1
  O  O150  1  0.11483450  0.05584572  0.64843153  1
  O  O151  1  0.61483450  0.94415428  0.85156847  1
