# generated using pymatgen
data_KTlCl4
_symmetry_space_group_name_H-M   'P 1'
_cell_length_a   7.09270492
_cell_length_b   7.09270492
_cell_length_c   9.36670280
_cell_angle_alpha   112.24777537
_cell_angle_beta   112.24777537
_cell_angle_gamma   89.99999999
_symmetry_Int_Tables_number   1
_chemical_formula_structural   KTlCl4
_chemical_formula_sum   'K2 Tl2 Cl8'
_cell_volume   397.96797125
_cell_formula_units_Z   2
loop_
 _symmetry_equiv_pos_site_id
 _symmetry_equiv_pos_as_xyz
  1  'x, y, z'
loop_
 _atom_site_type_symbol
 _atom_site_label
 _atom_site_symmetry_multiplicity
 _atom_site_fract_x
 _atom_site_fract_y
 _atom_site_fract_z
 _atom_site_occupancy
  Cl  Cl0  1  0.62903091  0.29339673  0.58094120  1
  Cl  Cl1  1  0.79339673  0.45191029  0.08094120  1
  Cl  Cl2  1  0.37096909  0.70660327  0.41905880  1
  Cl  Cl3  1  0.71245553  0.87096909  0.91905880  1
  Cl  Cl4  1  0.28754447  0.12903091  0.08094120  1
  Cl  Cl5  1  0.04808971  0.21245553  0.41905880  1
  Cl  Cl6  1  0.20660327  0.54808971  0.91905880  1
  Cl  Cl7  1  0.95191029  0.78754447  0.58094120  1
  K  K8  1  0.62500000  0.87500000  0.25000000  1
  K  K9  1  0.37500000  0.12500000  0.75000000  1
  Tl  Tl10  1  0.87500000  0.62500000  0.75000000  1
  Tl  Tl11  1  0.12500000  0.37500000  0.25000000  1
