# generated using pymatgen
data_Mn3As
_symmetry_space_group_name_H-M   'P 1'
_cell_length_a   3.67683601
_cell_length_b   3.64754629
_cell_length_c   7.93035699
_cell_angle_alpha   90.00000000
_cell_angle_beta   103.40426616
_cell_angle_gamma   90.00000000
_symmetry_Int_Tables_number   1
_chemical_formula_structural   Mn3As
_chemical_formula_sum   'Mn6 As2'
_cell_volume   103.46010089
_cell_formula_units_Z   2
loop_
 _symmetry_equiv_pos_site_id
 _symmetry_equiv_pos_as_xyz
  1  'x, y, z'
loop_
 _atom_site_type_symbol
 _atom_site_label
 _atom_site_symmetry_multiplicity
 _atom_site_fract_x
 _atom_site_fract_y
 _atom_site_fract_z
 _atom_site_occupancy
  Mn  Mn0  1  0.94783856  0.25000000  0.89567712  1
  Mn  Mn1  1  0.05216144  0.75000000  0.10432288  1
  Mn  Mn2  1  0.54965811  0.25000000  0.09931623  1
  Mn  Mn3  1  0.45034189  0.75000000  0.90068377  1
  Mn  Mn4  1  0.31971260  0.25000000  0.63942520  1
  Mn  Mn5  1  0.68028740  0.75000000  0.36057480  1
  As  As6  1  0.15816746  0.25000000  0.31633491  1
  As  As7  1  0.84183254  0.75000000  0.68366509  1
