# generated using pymatgen
data_Li4P2O7
_symmetry_space_group_name_H-M   'P 1'
_cell_length_a   5.26054234
_cell_length_b   7.21548052
_cell_length_c   8.66200639
_cell_angle_alpha   102.67261846
_cell_angle_beta   89.98018421
_cell_angle_gamma   111.11651542
_symmetry_Int_Tables_number   1
_chemical_formula_structural   Li4P2O7
_chemical_formula_sum   'Li8 P4 O14'
_cell_volume   298.11649267
_cell_formula_units_Z   2
loop_
 _symmetry_equiv_pos_site_id
 _symmetry_equiv_pos_as_xyz
  1  'x, y, z'
loop_
 _atom_site_type_symbol
 _atom_site_label
 _atom_site_symmetry_multiplicity
 _atom_site_fract_x
 _atom_site_fract_y
 _atom_site_fract_z
 _atom_site_occupancy
  Li  Li0  1  0.25553681  0.14497668  0.01202865  1
  Li  Li1  1  0.74446319  0.85502332  0.98797135  1
  Li  Li2  1  0.60432261  0.58872653  0.24834748  1
  Li  Li3  1  0.39567739  0.41127347  0.75165252  1
  Li  Li4  1  0.97223133  0.32773828  0.20872408  1
  Li  Li5  1  0.02776867  0.67226172  0.79127592  1
  Li  Li6  1  0.94304846  0.24188577  0.54920426  1
  Li  Li7  1  0.05695154  0.75811423  0.45079574  1
  O  O8  1  0.48008754  0.74175913  0.12566001  1
  O  O9  1  0.99386969  0.60572047  0.20931617  1
  O  O10  1  0.00613031  0.39427953  0.79068383  1
  O  O11  1  0.11708875  0.84859063  0.01802409  1
  O  O12  1  0.26743888  0.74334990  0.62354497  1
  O  O13  1  0.73256112  0.25665010  0.37645503  1
  O  O14  1  0.68515630  0.73218871  0.47380991  1
  O  O15  1  0.31484370  0.26781129  0.52619009  1
  O  O16  1  0.66177759  0.70240325  0.76349552  1
  O  O17  1  0.33822241  0.29759675  0.23650448  1
  O  O18  1  0.26693062  0.96238408  0.31610588  1
  O  O19  1  0.73306938  0.03761592  0.68389412  1
  O  O20  1  0.88291125  0.15140937  0.98197591  1
  O  O21  1  0.51991246  0.25824087  0.87433999  1
  P  P22  1  0.42600982  0.21329807  0.36804443  1
  P  P23  1  0.57399018  0.78670193  0.63195557  1
  P  P24  1  0.21572788  0.77924139  0.15449762  1
  P  P25  1  0.78427212  0.22075861  0.84550238  1
