# generated using pymatgen
data_Na2CaV4O12
_symmetry_space_group_name_H-M   'P 1'
_cell_length_a   5.05984927
_cell_length_b   10.55097191
_cell_length_c   10.55097191
_cell_angle_alpha   90.00000000
_cell_angle_beta   90.00000000
_cell_angle_gamma   90.00000000
_symmetry_Int_Tables_number   1
_chemical_formula_structural   Na2CaV4O12
_chemical_formula_sum   'Na4 Ca2 V8 O24'
_cell_volume   563.27764201
_cell_formula_units_Z   2
loop_
 _symmetry_equiv_pos_site_id
 _symmetry_equiv_pos_as_xyz
  1  'x, y, z'
loop_
 _atom_site_type_symbol
 _atom_site_label
 _atom_site_symmetry_multiplicity
 _atom_site_fract_x
 _atom_site_fract_y
 _atom_site_fract_z
 _atom_site_occupancy
  O  O0  1  0.24252991  0.56059415  0.68468437  1
  O  O1  1  0.24252991  0.93940585  0.81531563  1
  O  O2  1  0.24252991  0.68468437  0.93940585  1
  O  O3  1  0.24252991  0.81531563  0.56059415  1
  O  O4  1  0.75747009  0.68468437  0.56059415  1
  O  O5  1  0.75747009  0.93940585  0.68468437  1
  O  O6  1  0.75747009  0.56059415  0.81531563  1
  O  O7  1  0.75747009  0.81531563  0.93940585  1
  O  O8  1  0.75747009  0.43940585  0.31531563  1
  O  O9  1  0.75747009  0.06059415  0.18468437  1
  O  O10  1  0.75747009  0.31531563  0.06059415  1
  O  O11  1  0.75747009  0.18468437  0.43940585  1
  O  O12  1  0.24252991  0.31531563  0.43940585  1
  O  O13  1  0.24252991  0.06059415  0.31531563  1
  O  O14  1  0.14603022  0.62831990  0.37168010  1
  O  O15  1  0.14603022  0.12831990  0.62831990  1
  O  O16  1  0.14603022  0.37168010  0.87168010  1
  O  O17  1  0.14603022  0.87168010  0.12831990  1
  O  O18  1  0.85396978  0.62831990  0.12831990  1
  O  O19  1  0.85396978  0.87168010  0.37168010  1
  O  O20  1  0.85396978  0.37168010  0.62831990  1
  O  O21  1  0.85396978  0.12831990  0.87168010  1
  O  O22  1  0.24252991  0.18468437  0.06059415  1
  O  O23  1  0.24252991  0.43940585  0.18468437  1
  Na  Na24  1  0.50000000  0.00000000  0.00000000  1
  Na  Na25  1  0.50000000  0.50000000  0.00000000  1
  Na  Na26  1  0.50000000  0.00000000  0.50000000  1
  Na  Na27  1  0.50000000  0.50000000  0.50000000  1
  Ca  Ca28  1  0.50000000  0.25000000  0.25000000  1
  Ca  Ca29  1  0.50000000  0.75000000  0.75000000  1
  V  V30  1  0.00000000  0.25000000  0.52669498  1
  V  V31  1  0.00000000  0.52669498  0.25000000  1
  V  V32  1  0.00000000  0.25000000  0.97330502  1
  V  V33  1  0.00000000  0.97330502  0.25000000  1
  V  V34  1  0.00000000  0.47330502  0.75000000  1
  V  V35  1  0.00000000  0.75000000  0.47330502  1
  V  V36  1  0.00000000  0.75000000  0.02669498  1
  V  V37  1  0.00000000  0.02669498  0.75000000  1
