# generated using pymatgen
data_Ca2MnGaO5
_symmetry_space_group_name_H-M   'P 1'
_cell_length_a   5.38966182
_cell_length_b   5.63113524
_cell_length_c   8.49390067
_cell_angle_alpha   109.35705564
_cell_angle_beta   108.49771668
_cell_angle_gamma   90.00024189
_symmetry_Int_Tables_number   1
_chemical_formula_structural   Ca2MnGaO5
_chemical_formula_sum   'Ca4 Mn2 Ga2 O10'
_cell_volume   229.05245690
_cell_formula_units_Z   2
loop_
 _symmetry_equiv_pos_site_id
 _symmetry_equiv_pos_as_xyz
  1  'x, y, z'
loop_
 _atom_site_type_symbol
 _atom_site_label
 _atom_site_symmetry_multiplicity
 _atom_site_fract_x
 _atom_site_fract_y
 _atom_site_fract_z
 _atom_site_occupancy
  O  O0  1  0.63259565  0.12858257  0.50002162  1
  O  O1  1  0.13255575  0.87146375  0.50000526  1
  O  O2  1  0.30325606  0.42878057  0.71125774  1
  O  O3  1  0.59186277  0.57123808  0.28874377  1
  O  O4  1  0.80323821  0.78247497  0.71127057  1
  O  O5  1  0.09188034  0.21751193  0.28873407  1
  O  O6  1  0.25131843  0.76776077  0.02758926  1
  O  O7  1  0.22377264  0.23220824  0.97240313  1
  O  O8  1  0.72377438  0.24017629  0.97239502  1
  O  O9  1  0.75131291  0.75983949  0.02760665  1
  Ca  Ca10  1  0.60888973  0.13842593  0.21933308  1
  Ca  Ca11  1  0.38955361  0.86157766  0.78067078  1
  Ca  Ca12  1  0.10887698  0.58091188  0.21933235  1
  Ca  Ca13  1  0.88956436  0.41909077  0.78066856  1
  Mn  Mn14  1  0.98605090  0.99998811  0.99999607  1
  Mn  Mn15  1  0.48604888  0.49998456  0.99998885  1
  Ga  Ga16  1  0.27874225  0.18167954  0.49998333  1
  Ga  Ga17  1  0.77870825  0.81830846  0.50000267  1
