# generated using pymatgen
data_KEr2F7
_symmetry_space_group_name_H-M   'P 1'
_cell_length_a   7.81234254
_cell_length_b   11.85847564
_cell_length_c   13.34199364
_cell_angle_alpha   90.00000000
_cell_angle_beta   90.00000000
_cell_angle_gamma   90.00000000
_symmetry_Int_Tables_number   1
_chemical_formula_structural   KEr2F7
_chemical_formula_sum   'K8 Er16 F56'
_cell_volume   1236.03529492
_cell_formula_units_Z   8
loop_
 _symmetry_equiv_pos_site_id
 _symmetry_equiv_pos_as_xyz
  1  'x, y, z'
loop_
 _atom_site_type_symbol
 _atom_site_label
 _atom_site_symmetry_multiplicity
 _atom_site_fract_x
 _atom_site_fract_y
 _atom_site_fract_z
 _atom_site_occupancy
  F  F0  1  0.33832348  0.58886065  0.12301581  1
  F  F1  1  0.83832348  0.41113935  0.87698419  1
  F  F2  1  0.83832348  0.91113935  0.62301581  1
  F  F3  1  0.33832348  0.08886065  0.37698419  1
  F  F4  1  0.25302873  0.92532557  0.23255307  1
  F  F5  1  0.75302873  0.07467443  0.76744693  1
  F  F6  1  0.75302873  0.57467443  0.73255307  1
  F  F7  1  0.25302873  0.42532557  0.26744693  1
  F  F8  1  0.33573620  0.66948521  0.30157520  1
  F  F9  1  0.83573620  0.33051479  0.69842480  1
  F  F10  1  0.83573620  0.83051479  0.80157520  1
  F  F11  1  0.33573620  0.16948521  0.19842480  1
  F  F12  1  0.50412657  0.52648974  0.41095716  1
  F  F13  1  1.00412657  0.47351026  0.58904284  1
  F  F14  1  1.00412657  0.97351026  0.91095716  1
  F  F15  1  0.50412657  0.02648974  0.08904284  1
  F  F16  1  0.50985428  0.87634351  0.37453822  1
  F  F17  1  0.00985428  0.12365649  0.62546178  1
  F  F18  1  0.00985428  0.62365649  0.87453822  1
  F  F19  1  0.76022650  0.92661524  0.23048737  1
  F  F20  1  0.50985428  0.37634351  0.12546178  1
  F  F21  1  0.18075705  0.41359533  0.87580810  1
  F  F22  1  0.18075705  0.91359533  0.62419190  1
  F  F23  1  0.68075705  0.08640467  0.37580810  1
  F  F24  1  0.00686026  0.16285489  0.41946774  1
  F  F25  1  0.50686026  0.83714511  0.58053226  1
  F  F26  1  0.50686026  0.33714511  0.91946774  1
  F  F27  1  0.00686026  0.66285489  0.08053226  1
  F  F28  1  0.67338860  0.17016452  0.19842879  1
  F  F29  1  0.17338860  0.82983548  0.80157121  1
  F  F30  1  0.17338860  0.32983548  0.69842879  1
  F  F31  1  0.67338860  0.67016452  0.30157121  1
  F  F32  1  0.26977475  0.28115910  0.50232698  1
  F  F33  1  0.76977475  0.71884090  0.49767302  1
  F  F34  1  0.76977475  0.21884090  0.00232698  1
  F  F35  1  0.26977475  0.78115910  0.99767302  1
  F  F36  1  0.24116840  0.21910581  0.00187400  1
  F  F37  1  0.74116840  0.78089419  0.99812600  1
  F  F38  1  0.74116840  0.28089419  0.50187400  1
  F  F39  1  0.24116840  0.71910581  0.49812600  1
  F  F40  1  0.00499701  0.24289777  0.23488942  1
  F  F41  1  0.50499701  0.75710223  0.76511058  1
  F  F42  1  0.50499701  0.25710223  0.73488942  1
  F  F43  1  0.00499701  0.74289777  0.26511058  1
  F  F44  1  0.00608286  0.36646876  0.40461934  1
  F  F45  1  0.50608286  0.63353124  0.59538066  1
  F  F46  1  0.50608286  0.13353124  0.90461934  1
  F  F47  1  0.00608286  0.86646876  0.09538066  1
  F  F48  1  0.50606760  0.30742635  0.33904701  1
  F  F49  1  0.00606760  0.69257365  0.66095299  1
  F  F50  1  0.00606760  0.19257365  0.83904701  1
  F  F51  1  0.50606760  0.80742635  0.16095299  1
  F  F52  1  0.76022650  0.42661524  0.26951263  1
  F  F53  1  0.26022650  0.57338476  0.73048737  1
  F  F54  1  0.26022650  0.07338476  0.76951263  1
  F  F55  1  0.68075705  0.58640467  0.12419190  1
  K  K56  1  0.00443454  0.08540977  0.09389776  1
  K  K57  1  0.50443454  0.91459023  0.90610224  1
  K  K58  1  0.50443454  0.41459023  0.59389776  1
  K  K59  1  0.00443454  0.58540977  0.40610224  1
  K  K60  1  0.98170653  0.43490698  0.06841295  1
  K  K61  1  0.48170653  0.56509302  0.93158705  1
  K  K62  1  0.48170653  0.06509302  0.56841295  1
  K  K63  1  0.98170653  0.93490698  0.43158705  1
  Er  Er64  1  0.77948370  0.75605853  0.16264251  1
  Er  Er65  1  0.27948370  0.24394147  0.83735749  1
  Er  Er66  1  0.27948370  0.74394147  0.66264251  1
  Er  Er67  1  0.77948370  0.25605853  0.33735749  1
  Er  Er68  1  0.00611052  0.49293456  0.75845762  1
  Er  Er69  1  0.50611052  0.50706544  0.24154238  1
  Er  Er70  1  0.50611052  0.00706544  0.25845762  1
  Er  Er71  1  0.00611052  0.99293456  0.74154238  1
  Er  Er72  1  0.73209963  0.24368695  0.83701241  1
  Er  Er73  1  0.23209963  0.75631305  0.16298759  1
  Er  Er74  1  0.23209963  0.25631305  0.33701241  1
  Er  Er75  1  0.73209963  0.74368695  0.66298759  1
  Er  Er76  1  0.50481278  0.21018445  0.06271838  1
  Er  Er77  1  0.00481278  0.78981555  0.93728162  1
  Er  Er78  1  0.00481278  0.28981555  0.56271838  1
  Er  Er79  1  0.50481278  0.71018445  0.43728162  1
