# generated using pymatgen
data_Cu(IO3)2
_symmetry_space_group_name_H-M   'P 1'
_cell_length_a   5.27456356
_cell_length_b   5.64894603
_cell_length_c   9.32840735
_cell_angle_alpha   97.29884140
_cell_angle_beta   90.00000000
_cell_angle_gamma   90.00000000
_symmetry_Int_Tables_number   1
_chemical_formula_structural   Cu(IO3)2
_chemical_formula_sum   'Cu2 I4 O12'
_cell_volume   275.69446034
_cell_formula_units_Z   2
loop_
 _symmetry_equiv_pos_site_id
 _symmetry_equiv_pos_as_xyz
  1  'x, y, z'
loop_
 _atom_site_type_symbol
 _atom_site_label
 _atom_site_symmetry_multiplicity
 _atom_site_fract_x
 _atom_site_fract_y
 _atom_site_fract_z
 _atom_site_occupancy
  O  O0  1  0.34221317  0.45581934  0.58207700  1
  O  O1  1  0.84221317  0.54418066  0.41792300  1
  O  O2  1  0.40231209  0.86579552  0.43296707  1
  O  O3  1  0.90231209  0.13420448  0.56703293  1
  O  O4  1  0.28126036  0.91132001  0.72766031  1
  O  O5  1  0.78126036  0.08867999  0.27233969  1
  O  O6  1  0.79318929  0.64185583  0.08156222  1
  O  O7  1  0.29318929  0.35814417  0.91843778  1
  O  O8  1  0.87579734  0.50172843  0.79166109  1
  O  O9  1  0.37579734  0.49827157  0.20833891  1
  O  O10  1  0.80809026  0.97980754  0.88410554  1
  O  O11  1  0.30809026  0.02019246  0.11589446  1
  Cu  Cu12  1  0.59932777  0.78060986  0.25395428  1
  Cu  Cu13  1  0.09932777  0.21939014  0.74604572  1
  I  I14  1  0.49912202  0.26652272  0.06553668  1
  I  I15  1  -0.00087798  0.73347728  0.93446332  1
  I  I16  1  0.00810770  0.25844536  0.40219323  1
  I  I17  1  0.50810770  0.74155464  0.59780677  1
