# generated using pymatgen
data_Na2Fe2O5
_symmetry_space_group_name_H-M   'P 1'
_cell_length_a   5.53526501
_cell_length_b   14.55295330
_cell_length_c   5.42084932
_cell_angle_alpha   89.99888418
_cell_angle_beta   89.99982135
_cell_angle_gamma   89.99940808
_symmetry_Int_Tables_number   1
_chemical_formula_structural   Na2Fe2O5
_chemical_formula_sum   'Na8 Fe8 O20'
_cell_volume   436.67355276
_cell_formula_units_Z   4
loop_
 _symmetry_equiv_pos_site_id
 _symmetry_equiv_pos_as_xyz
  1  'x, y, z'
loop_
 _atom_site_type_symbol
 _atom_site_label
 _atom_site_symmetry_multiplicity
 _atom_site_fract_x
 _atom_site_fract_y
 _atom_site_fract_z
 _atom_site_occupancy
  Na  Na0  1  0.02238721  0.10772034  0.48475588  1
  Na  Na1  1  0.02235743  0.39228232  0.48474402  1
  Na  Na2  1  0.47760279  0.10771829  0.98475760  1
  Na  Na3  1  0.47761108  0.39228277  0.98477595  1
  Na  Na4  1  0.52238320  0.60771772  0.01521864  1
  Na  Na5  1  0.52242224  0.89228335  0.01522800  1
  Na  Na6  1  0.97764250  0.60771816  0.51524957  1
  Na  Na7  1  0.97758522  0.89227992  0.51524454  1
  Fe  Fe8  1  -0.00000180  0.00000716  0.99999357  1
  Fe  Fe9  1  -0.00000076  0.49999410  -0.00000073  1
  Fe  Fe10  1  0.07018181  0.74999025  0.04852486  1
  Fe  Fe11  1  0.42984653  0.74996219  0.54851825  1
  Fe  Fe12  1  0.50000522  0.00000876  0.49999129  1
  Fe  Fe13  1  0.49999641  0.49999402  0.49999377  1
  Fe  Fe14  1  0.57017106  0.25002393  0.45148932  1
  Fe  Fe15  1  0.92981883  0.25000313  0.95149369  1
  O  O16  1  0.05569530  0.13865945  0.01577723  1
  O  O17  1  0.05567830  0.36137313  0.01577042  1
  O  O18  1  0.13124395  0.74998606  0.38776618  1
  O  O19  1  0.24208460  0.51175503  0.25453962  1
  O  O20  1  0.24209506  0.98823826  0.25453551  1
  O  O21  1  0.25789365  0.51175630  0.75454860  1
  O  O22  1  0.25790770  0.98823977  0.75453408  1
  O  O23  1  0.36877363  0.74998736  0.88775594  1
  O  O24  1  0.44431159  0.13865588  0.51577151  1
  O  O25  1  0.44436182  0.36138045  0.51574094  1
  O  O26  1  0.55563768  0.63861369  0.48425040  1
  O  O27  1  0.55569994  0.86136162  0.48421444  1
  O  O28  1  0.63124762  0.25001357  0.11228151  1
  O  O29  1  0.74209608  0.01177781  0.24545429  1
  O  O30  1  0.74210136  0.48822669  0.24543835  1
  O  O31  1  0.75790499  0.48822707  0.74545658  1
  O  O32  1  0.75790711  0.01177541  0.74546152  1
  O  O33  1  0.86873231  0.25001338  0.61228077  1
  O  O34  1  0.94431880  0.63862303  0.98422501  1
  O  O35  1  0.94429951  0.86134964  0.98421889  1
