# generated using pymatgen
data_RbHF2
_symmetry_space_group_name_H-M   'P 1'
_cell_length_a   5.59664443
_cell_length_b   5.59664443
_cell_length_c   5.59664443
_cell_angle_alpha   97.97736215
_cell_angle_beta   115.50622042
_cell_angle_gamma   115.50622044
_symmetry_Int_Tables_number   1
_chemical_formula_structural   RbHF2
_chemical_formula_sum   'Rb2 H2 F4'
_cell_volume   130.99818269
_cell_formula_units_Z   2
loop_
 _symmetry_equiv_pos_site_id
 _symmetry_equiv_pos_as_xyz
  1  'x, y, z'
loop_
 _atom_site_type_symbol
 _atom_site_label
 _atom_site_symmetry_multiplicity
 _atom_site_fract_x
 _atom_site_fract_y
 _atom_site_fract_z
 _atom_site_occupancy
  H  H0  1  0.50000000  0.50000000  0.00000000  1
  H  H1  1  0.50000000  0.00000000  0.50000000  1
  F  F2  1  0.22710502  0.36355251  0.86355251  1
  F  F3  1  0.50000000  0.86355251  0.63644749  1
  F  F4  1  0.77289498  0.63644749  0.13644749  1
  F  F5  1  0.50000000  0.13644749  0.36355251  1
  Rb  Rb6  1  0.00000000  0.75000000  0.75000000  1
  Rb  Rb7  1  0.00000000  0.25000000  0.25000000  1
