# generated using pymatgen
data_K2CuF4
_symmetry_space_group_name_H-M   'P 1'
_cell_length_a   5.93524254
_cell_length_b   5.93524254
_cell_length_c   13.56057802
_cell_angle_alpha   102.64101529
_cell_angle_beta   102.64101528
_cell_angle_gamma   90.00000005
_symmetry_Int_Tables_number   1
_chemical_formula_structural   K2CuF4
_chemical_formula_sum   'K8 Cu4 F16'
_cell_volume   454.24626600
_cell_formula_units_Z   4
loop_
 _symmetry_equiv_pos_site_id
 _symmetry_equiv_pos_as_xyz
  1  'x, y, z'
loop_
 _atom_site_type_symbol
 _atom_site_label
 _atom_site_symmetry_multiplicity
 _atom_site_fract_x
 _atom_site_fract_y
 _atom_site_fract_z
 _atom_site_occupancy
  F  F0  1  0.73188469  0.76811531  0.00000000  1
  F  F1  1  0.76811531  0.26811531  0.00000000  1
  F  F2  1  0.23188469  0.73188469  0.00000000  1
  F  F3  1  0.26811531  0.23188469  0.00000000  1
  F  F4  1  0.48191849  0.01808151  0.50000000  1
  F  F5  1  0.51808151  0.51808151  0.50000000  1
  F  F6  1  0.98191849  0.98191849  0.50000000  1
  F  F7  1  0.01808151  0.48191849  0.50000000  1
  F  F8  1  0.07677047  0.57677047  0.15354093  1
  F  F9  1  0.42322953  0.92322953  0.84645907  1
  F  F10  1  0.92322953  0.42322953  0.84645907  1
  F  F11  1  0.57677047  0.07677047  0.15354093  1
  F  F12  1  0.17324040  0.17324040  0.34648079  1
  F  F13  1  0.82675960  0.82675960  0.65351921  1
  F  F14  1  0.32675960  0.32675960  0.65351921  1
  F  F15  1  0.67324040  0.67324040  0.34648079  1
  K  K16  1  0.17895805  0.67895805  0.35791609  1
  K  K17  1  0.32104195  0.82104195  0.64208391  1
  K  K18  1  0.82104195  0.32104195  0.64208391  1
  K  K19  1  0.67895805  0.17895805  0.35791609  1
  K  K20  1  0.57105906  0.57105906  0.14211813  1
  K  K21  1  0.42894094  0.42894094  0.85788187  1
  K  K22  1  0.92894094  0.92894094  0.85788187  1
  K  K23  1  0.07105906  0.07105906  0.14211813  1
  Cu  Cu24  1  0.00000000  0.50000000  0.00000000  1
  Cu  Cu25  1  0.50000000  0.00000000  0.00000000  1
  Cu  Cu26  1  0.75000000  0.75000000  0.50000000  1
  Cu  Cu27  1  0.25000000  0.25000000  0.50000000  1
