# generated using pymatgen
data_Li10Mn5Fe3O16
_symmetry_space_group_name_H-M   'P 1'
_cell_length_a   6.03020612
_cell_length_b   5.96791098
_cell_length_c   10.02190763
_cell_angle_alpha   89.53157916
_cell_angle_beta   89.08264910
_cell_angle_gamma   118.87560669
_symmetry_Int_Tables_number   1
_chemical_formula_structural   Li10Mn5Fe3O16
_chemical_formula_sum   'Li10 Mn5 Fe3 O16'
_cell_volume   315.73164261
_cell_formula_units_Z   1
loop_
 _symmetry_equiv_pos_site_id
 _symmetry_equiv_pos_as_xyz
  1  'x, y, z'
loop_
 _atom_site_type_symbol
 _atom_site_label
 _atom_site_symmetry_multiplicity
 _atom_site_fract_x
 _atom_site_fract_y
 _atom_site_fract_z
 _atom_site_occupancy
  Li  Li0  1  0.39464543  0.20582061  0.93363642  1
  Li  Li1  1  0.34125504  0.68735531  0.22412244  1
  Li  Li2  1  0.18678602  0.81846796  0.43606510  1
  Li  Li3  1  0.18557695  0.40355424  0.43586631  1
  Li  Li4  1  0.67336593  0.35003643  0.72620586  1
  Li  Li5  1  0.81226255  0.21331791  0.94190210  1
  Li  Li6  1  0.60273601  0.80414143  0.44532892  1
  Li  Li7  1  0.79101913  0.61768876  0.94358027  1
  Li  Li8  1  0.99582656  0.01932731  0.52048396  1
  Li  Li9  1  0.01376950  0.01645560  0.01541423  1
  Mn  Mn10  1  0.65973766  0.34569738  0.47674853  1
  Mn  Mn11  1  0.16712506  0.84434772  0.71361923  1
  Mn  Mn12  1  0.33330882  0.68191120  0.97338046  1
  Mn  Mn13  1  0.83664010  0.68175487  0.21530186  1
  Mn  Mn14  1  0.66214792  0.84563482  0.71536575  1
  Fe  Fe15  1  0.34214902  0.18752301  0.21363826  1
  Fe  Fe16  1  0.16688043  0.34941133  0.71370362  1
  Fe  Fe17  1  0.83499494  0.18422399  0.21490095  1
  O  O18  1  0.16119179  0.33232027  0.09705552  1
  O  O19  1  0.31001149  0.16617933  0.60330195  1
  O  O20  1  0.50810841  0.02525719  0.33160291  1
  O  O21  1  0.01646008  0.52446812  0.82627849  1
  O  O22  1  0.16057786  0.84952656  0.10431122  1
  O  O23  1  0.66012327  0.32780449  0.09045449  1
  O  O24  1  0.84313572  0.17990270  0.60986593  1
  O  O25  1  0.50778184  0.51137930  0.32587766  1
  O  O26  1  0.29965302  0.66695134  0.59447201  1
  O  O27  1  0.48687117  0.51605283  0.82372594  1
  O  O28  1  0.98019835  0.51055413  0.32771862  1
  O  O29  1  0.69444119  0.84948296  0.09943756  1
  O  O30  1  0.51750343  0.00326866  0.83578304  1
  O  O31  1  0.80435632  0.69236864  0.59195112  1
  O  O32  1  0.01573508  0.04098886  0.33407350  1
  O  O33  1  0.03278990  0.02609374  0.82908776  1
