# generated using pymatgen
data_Ga3Ni5Ge2
_symmetry_space_group_name_H-M   'P 1'
_cell_length_a   3.90476633
_cell_length_b   6.37413869
_cell_length_c   11.15499113
_cell_angle_alpha   90.00000000
_cell_angle_beta   90.00000000
_cell_angle_gamma   107.83624567
_symmetry_Int_Tables_number   1
_chemical_formula_structural   Ga3Ni5Ge2
_chemical_formula_sum   'Ga6 Ni10 Ge4'
_cell_volume   264.29774357
_cell_formula_units_Z   2
loop_
 _symmetry_equiv_pos_site_id
 _symmetry_equiv_pos_as_xyz
  1  'x, y, z'
loop_
 _atom_site_type_symbol
 _atom_site_label
 _atom_site_symmetry_multiplicity
 _atom_site_fract_x
 _atom_site_fract_y
 _atom_site_fract_z
 _atom_site_occupancy
  Ni  Ni0  1  0.65925222  0.31850444  0.86806995  1
  Ni  Ni1  1  0.34074778  0.68149556  0.13193005  1
  Ni  Ni2  1  0.34074778  0.68149556  0.36806995  1
  Ni  Ni3  1  0.65925222  0.31850444  0.63193005  1
  Ni  Ni4  1  0.02050517  0.04101034  0.86811812  1
  Ni  Ni5  1  0.97949483  0.95898966  0.13188188  1
  Ni  Ni6  1  0.97949483  0.95898966  0.36811812  1
  Ni  Ni7  1  0.02050517  0.04101034  0.63188188  1
  Ni  Ni8  1  0.83957295  0.67914590  0.75000000  1
  Ni  Ni9  1  0.16042705  0.32085410  0.25000000  1
  Ga  Ga10  1  0.83127134  0.66254269  0.97678872  1
  Ga  Ga11  1  0.16872866  0.33745731  0.02321128  1
  Ga  Ga12  1  0.16872866  0.33745731  0.47678872  1
  Ga  Ga13  1  0.83127134  0.66254269  0.52321128  1
  Ga  Ga14  1  0.50000000  0.00000000  0.00000000  1
  Ga  Ga15  1  0.50000000  0.00000000  0.50000000  1
  Ge  Ge16  1  0.21066098  0.42132195  0.75000000  1
  Ge  Ge17  1  0.78933902  0.57867805  0.25000000  1
  Ge  Ge18  1  0.46259215  0.92518430  0.75000000  1
  Ge  Ge19  1  0.53740785  0.07481570  0.25000000  1
