# generated using pymatgen
data_Cd3PCl3
_symmetry_space_group_name_H-M   'P 1'
_cell_length_a   7.79893713
_cell_length_b   7.79893713
_cell_length_c   7.25730331
_cell_angle_alpha   90.00000000
_cell_angle_beta   90.00000000
_cell_angle_gamma   119.99999999
_symmetry_Int_Tables_number   1
_chemical_formula_structural   Cd3PCl3
_chemical_formula_sum   'Cd6 P2 Cl6'
_cell_volume   382.27574631
_cell_formula_units_Z   2
loop_
 _symmetry_equiv_pos_site_id
 _symmetry_equiv_pos_as_xyz
  1  'x, y, z'
loop_
 _atom_site_type_symbol
 _atom_site_label
 _atom_site_symmetry_multiplicity
 _atom_site_fract_x
 _atom_site_fract_y
 _atom_site_fract_z
 _atom_site_occupancy
  P  P0  1  0.66666667  0.33333333  0.14208600  1
  P  P1  1  0.33333333  0.66666667  0.85791400  1
  Cl  Cl2  1  0.34250939  0.17072384  0.69057909  1
  Cl  Cl3  1  0.82821445  0.65749061  0.69057909  1
  Cl  Cl4  1  0.65749061  0.82927616  0.30942091  1
  Cl  Cl5  1  0.17178555  0.34250939  0.30942091  1
  Cl  Cl6  1  0.17072384  0.82821445  0.30942091  1
  Cl  Cl7  1  0.82927616  0.17178555  0.69057909  1
  Cd  Cd8  1  0.66666667  0.33333333  0.48521466  1
  Cd  Cd9  1  0.33333333  0.66666667  0.51478534  1
  Cd  Cd10  1  0.50000000  0.50000000  0.00000000  1
  Cd  Cd11  1  0.00000000  0.50000000  0.00000000  1
  Cd  Cd12  1  0.50000000  0.00000000  0.00000000  1
  Cd  Cd13  1  0.00000000  0.00000000  0.50000000  1
