# generated using pymatgen
data_SrHgO2
_symmetry_space_group_name_H-M   'P 1'
_cell_length_a   3.89983474
_cell_length_b   3.89983474
_cell_length_c   19.24411056
_cell_angle_alpha   90.00000000
_cell_angle_beta   90.00000000
_cell_angle_gamma   119.99999997
_symmetry_Int_Tables_number   1
_chemical_formula_structural   SrHgO2
_chemical_formula_sum   'Sr3 Hg3 O6'
_cell_volume   253.46668389
_cell_formula_units_Z   3
loop_
 _symmetry_equiv_pos_site_id
 _symmetry_equiv_pos_as_xyz
  1  'x, y, z'
loop_
 _atom_site_type_symbol
 _atom_site_label
 _atom_site_symmetry_multiplicity
 _atom_site_fract_x
 _atom_site_fract_y
 _atom_site_fract_z
 _atom_site_occupancy
  O  O0  1  0.66589323  0.66157684  0.89601368  1
  O  O1  1  0.33842316  1.00431640  0.56268035  1
  O  O2  1  -0.00431640  0.33410677  0.22934702  1
  O  O3  1  1.00431640  0.33842316  0.43731965  1
  O  O4  1  0.66157684  0.66589323  0.10398632  1
  O  O5  1  0.33410677  -0.00431640  0.77065298  1
  Sr  Sr6  1  0.32887463  0.00000000  0.16666667  1
  Sr  Sr7  1  0.00000000  0.32887463  0.83333333  1
  Sr  Sr8  1  0.67112537  0.67112537  0.50000000  1
  Hg  Hg9  1  0.66407474  0.66407474  0.00000000  1
  Hg  Hg10  1  0.00000000  0.33592526  0.33333333  1
  Hg  Hg11  1  0.33592526  0.00000000  0.66666667  1
