# generated using pymatgen
data_Nb4B3C2
_symmetry_space_group_name_H-M   'P 1'
_cell_length_a   3.15409830
_cell_length_b   3.25544785
_cell_length_c   19.01891640
_cell_angle_alpha   94.90963523
_cell_angle_beta   90.00000000
_cell_angle_gamma   90.00000000
_symmetry_Int_Tables_number   1
_chemical_formula_structural   Nb4B3C2
_chemical_formula_sum   'Nb8 B6 C4'
_cell_volume   194.56976015
_cell_formula_units_Z   2
loop_
 _symmetry_equiv_pos_site_id
 _symmetry_equiv_pos_as_xyz
  1  'x, y, z'
loop_
 _atom_site_type_symbol
 _atom_site_label
 _atom_site_symmetry_multiplicity
 _atom_site_fract_x
 _atom_site_fract_y
 _atom_site_fract_z
 _atom_site_occupancy
  B  B0  1  0.25000000  0.91458745  0.82917490  1
  B  B1  1  0.75000000  0.08541255  0.17082510  1
  B  B2  1  0.25000000  0.06028027  0.12056054  1
  B  B3  1  0.75000000  0.93971973  0.87943946  1
  B  B4  1  0.25000000  0.01178443  0.02356885  1
  B  B5  1  0.75000000  0.98821557  0.97643115  1
  C  C6  1  0.75000000  0.33828527  0.67657054  1
  C  C7  1  0.25000000  0.66171473  0.32342946  1
  C  C8  1  0.75000000  0.22021901  0.44043802  1
  C  C9  1  0.25000000  0.77978099  0.55956198  1
  Nb  Nb10  1  0.25000000  0.46420941  0.92841882  1
  Nb  Nb11  1  0.75000000  0.53579059  0.07158118  1
  Nb  Nb12  1  0.75000000  0.39455715  0.78911430  1
  Nb  Nb13  1  0.25000000  0.60544285  0.21088570  1
  Nb  Nb14  1  0.75000000  0.28053699  0.56107398  1
  Nb  Nb15  1  0.25000000  0.71946301  0.43892602  1
  Nb  Nb16  1  0.25000000  0.83786402  0.67572805  1
  Nb  Nb17  1  0.75000000  0.16213598  0.32427195  1
