# generated using pymatgen
data_Sb2(AuF6)3
_symmetry_space_group_name_H-M   'P 1'
_cell_length_a   8.69836345
_cell_length_b   9.45132154
_cell_length_c   9.89008094
_cell_angle_alpha   115.08109078
_cell_angle_beta   90.00000000
_cell_angle_gamma   90.00000000
_symmetry_Int_Tables_number   1
_chemical_formula_structural   Sb2(AuF6)3
_chemical_formula_sum   'Sb4 Au6 F36'
_cell_volume   736.40799778
_cell_formula_units_Z   2
loop_
 _symmetry_equiv_pos_site_id
 _symmetry_equiv_pos_as_xyz
  1  'x, y, z'
loop_
 _atom_site_type_symbol
 _atom_site_label
 _atom_site_symmetry_multiplicity
 _atom_site_fract_x
 _atom_site_fract_y
 _atom_site_fract_z
 _atom_site_occupancy
  F  F0  1  0.94765390  0.09899231  0.16171035  1
  F  F1  1  0.44765390  0.40100769  0.33828965  1
  F  F2  1  0.05234610  0.90100769  0.83828965  1
  F  F3  1  0.55234610  0.59899231  0.66171035  1
  F  F4  1  0.10341404  0.36076005  0.33987161  1
  F  F5  1  0.60341404  0.13923995  0.16012839  1
  F  F6  1  0.79143992  0.89978141  0.30793072  1
  F  F7  1  0.29143992  0.60021859  0.19206928  1
  F  F8  1  0.20856008  0.10021859  0.69206928  1
  F  F9  1  0.70856008  0.39978141  0.80793072  1
  F  F10  1  0.48682504  0.90028939  0.25995504  1
  F  F11  1  0.98682504  0.59971061  0.24004496  1
  F  F12  1  0.51317496  0.09971061  0.74004496  1
  F  F13  1  0.01317496  0.40028939  0.75995504  1
  F  F14  1  0.85465906  0.69129002  0.01187759  1
  F  F15  1  0.35465906  0.80870998  0.48812241  1
  F  F16  1  0.14534094  0.30870998  0.98812241  1
  F  F17  1  0.64534094  0.19129002  0.51187759  1
  F  F18  1  0.89658596  0.63923995  0.66012839  1
  F  F19  1  0.39658596  0.86076005  0.83987161  1
  F  F20  1  0.27967162  0.18318032  0.43300711  1
  F  F21  1  0.77967162  0.31681968  0.06699289  1
  F  F22  1  0.52922320  0.67003104  0.95628492  1
  F  F23  1  0.02922320  0.82996896  0.54371508  1
  F  F24  1  0.47077680  0.32996896  0.04371508  1
  F  F25  1  0.97077680  0.17003104  0.45628492  1
  F  F26  1  0.23509300  0.60742441  0.62693282  1
  F  F27  1  0.73509300  0.89257559  0.87306718  1
  F  F28  1  0.76490700  0.39257559  0.37306718  1
  F  F29  1  0.26490700  0.10742441  0.12693282  1
  F  F30  1  0.37164818  0.43070138  0.75829211  1
  F  F31  1  0.87164818  0.06929862  0.74170789  1
  F  F32  1  0.62835182  0.56929862  0.24170789  1
  F  F33  1  0.12835182  0.93070138  0.25829211  1
  F  F34  1  0.22032838  0.68318032  0.93300711  1
  F  F35  1  0.72032838  0.81681968  0.56699289  1
  Sb  Sb36  1  0.12425392  0.14342847  0.28447941  1
  Sb  Sb37  1  0.62425392  0.35657153  0.21552059  1
  Sb  Sb38  1  0.87574608  0.85657153  0.71552059  1
  Sb  Sb39  1  0.37574608  0.64342847  0.78447941  1
  Au  Au40  1  0.50000000  0.00000000  0.50000000  1
  Au  Au41  1  0.00000000  0.50000000  0.00000000  1
  Au  Au42  1  0.83200861  0.29406079  0.63266077  1
  Au  Au43  1  0.33200861  0.20593921  0.86733923  1
  Au  Au44  1  0.16799139  0.70593921  0.36733923  1
  Au  Au45  1  0.66799139  0.79406079  0.13266077  1
