# generated using pymatgen
data_Ho14Ge23
_symmetry_space_group_name_H-M   'P 1'
_cell_length_a   5.74162472
_cell_length_b   7.45304160
_cell_length_c   40.29495623
_cell_angle_alpha   90.00000000
_cell_angle_beta   90.00000000
_cell_angle_gamma   112.65533015
_symmetry_Int_Tables_number   1
_chemical_formula_structural   Ho14Ge23
_chemical_formula_sum   'Ho28 Ge46'
_cell_volume   1591.27347654
_cell_formula_units_Z   2
loop_
 _symmetry_equiv_pos_site_id
 _symmetry_equiv_pos_as_xyz
  1  'x, y, z'
loop_
 _atom_site_type_symbol
 _atom_site_label
 _atom_site_symmetry_multiplicity
 _atom_site_fract_x
 _atom_site_fract_y
 _atom_site_fract_z
 _atom_site_occupancy
  Ge  Ge0  1  0.80267412  0.60534823  0.00000000  1
  Ge  Ge1  1  0.19732588  0.39465177  0.50000000  1
  Ge  Ge2  1  0.78901673  0.20096907  0.02762733  1
  Ge  Ge3  1  0.58804765  0.79903093  0.47237267  1
  Ge  Ge4  1  0.21098327  0.79903093  0.52762733  1
  Ge  Ge5  1  0.41195235  0.20096907  0.97237267  1
  Ge  Ge6  1  0.30110541  0.10627082  0.10739843  1
  Ge  Ge7  1  0.19483459  0.89372918  0.39260157  1
  Ge  Ge8  1  0.69889459  0.89372918  0.60739843  1
  Ge  Ge9  1  0.80516541  0.10627082  0.89260157  1
  Ge  Ge10  1  0.91990375  0.20425221  0.18768922  1
  Ge  Ge11  1  0.71565154  0.79574779  0.31231078  1
  Ge  Ge12  1  0.08009625  0.79574779  0.68768922  1
  Ge  Ge13  1  0.28434846  0.20425221  0.81231078  1
  Ge  Ge14  1  0.30137350  0.18513202  0.24546434  1
  Ge  Ge15  1  0.11624148  0.81486798  0.25453566  1
  Ge  Ge16  1  0.69862650  0.81486798  0.74546434  1
  Ge  Ge17  1  0.88375852  0.18513202  0.75453566  1
  Ge  Ge18  1  0.16808015  0.33353493  0.06997286  1
  Ge  Ge19  1  0.83454522  0.66646507  0.43002714  1
  Ge  Ge20  1  0.83191985  0.66646507  0.56997286  1
  Ge  Ge21  1  0.16545478  0.33353493  0.93002714  1
  Ge  Ge22  1  0.66523706  0.33154307  0.14455056  1
  Ge  Ge23  1  0.33369399  0.66845693  0.35544944  1
  Ge  Ge24  1  0.33476294  0.66845693  0.64455056  1
  Ge  Ge25  1  0.66630601  0.33154307  0.85544944  1
  Ge  Ge26  1  0.28796628  0.70034692  0.07978421  1
  Ge  Ge27  1  0.58761936  0.29965308  0.42021579  1
  Ge  Ge28  1  0.71203372  0.29965308  0.57978421  1
  Ge  Ge29  1  0.41238064  0.70034692  0.92021579  1
  Ge  Ge30  1  0.91064831  0.69978127  0.13516679  1
  Ge  Ge31  1  0.21086704  0.30021873  0.36483321  1
  Ge  Ge32  1  0.08935169  0.30021873  0.63516679  1
  Ge  Ge33  1  0.78913296  0.69978127  0.86483321  1
  Ge  Ge34  1  0.31469496  0.62748238  0.21603594  1
  Ge  Ge35  1  0.68721258  0.37251762  0.28396406  1
  Ge  Ge36  1  0.68530504  0.37251762  0.71603594  1
  Ge  Ge37  1  0.31278742  0.62748238  0.78396406  1
  Ge  Ge38  1  0.66760440  0.83330194  0.03724418  1
  Ge  Ge39  1  0.83430246  0.16669806  0.46275582  1
  Ge  Ge40  1  0.33239560  0.16669806  0.53724418  1
  Ge  Ge41  1  0.16569754  0.83330194  0.96275582  1
  Ge  Ge42  1  0.66384958  0.83800476  0.17662985  1
  Ge  Ge43  1  0.82584482  0.16199524  0.32337015  1
  Ge  Ge44  1  0.33615042  0.16199524  0.67662985  1
  Ge  Ge45  1  0.17415518  0.83800476  0.82337015  1
  Ho  Ho46  1  0.72214171  0.00000000  0.25000000  1
  Ho  Ho47  1  0.27785829  0.00000000  0.75000000  1
  Ho  Ho48  1  0.25419748  0.50839497  0.00000000  1
  Ho  Ho49  1  0.74580252  0.49160503  0.50000000  1
  Ho  Ho50  1  0.23224962  0.99267000  0.03512571  1
  Ho  Ho51  1  0.23957962  0.00733000  0.46487429  1
  Ho  Ho52  1  0.76775038  0.00733000  0.53512571  1
  Ho  Ho53  1  0.76042038  0.99267000  0.96487429  1
  Ho  Ho54  1  0.75296950  0.00819400  0.10709400  1
  Ho  Ho55  1  0.74477550  0.99180600  0.39290600  1
  Ho  Ho56  1  0.24703050  0.99180600  0.60709400  1
  Ho  Ho57  1  0.25522450  0.00819400  0.89290600  1
  Ho  Ho58  1  0.25775798  0.99226948  0.18014139  1
  Ho  Ho59  1  0.26548851  0.00773052  0.31985861  1
  Ho  Ho60  1  0.74224202  0.00773052  0.68014139  1
  Ho  Ho61  1  0.73451149  0.99226948  0.81985861  1
  Ho  Ho62  1  0.73181786  0.49264318  0.07223389  1
  Ho  Ho63  1  0.23917468  0.50735682  0.42776611  1
  Ho  Ho64  1  0.26818214  0.50735682  0.57223389  1
  Ho  Ho65  1  0.76082532  0.49264318  0.92776611  1
  Ho  Ho66  1  0.26087716  0.49322838  0.14273075  1
  Ho  Ho67  1  0.76764877  0.50677162  0.35726925  1
  Ho  Ho68  1  0.73912284  0.50677162  0.64273075  1
  Ho  Ho69  1  0.23235123  0.49322838  0.85726925  1
  Ho  Ho70  1  0.74921717  0.50651616  0.21283600  1
  Ho  Ho71  1  0.24270100  0.49348384  0.28716400  1
  Ho  Ho72  1  0.25078283  0.49348384  0.71283600  1
  Ho  Ho73  1  0.75729900  0.50651616  0.78716400  1
