# generated using pymatgen
data_GdCBr
_symmetry_space_group_name_H-M   'P 1'
_cell_length_a   3.86918040
_cell_length_b   4.04827075
_cell_length_c   10.32282923
_cell_angle_alpha   98.87677554
_cell_angle_beta   90.00000000
_cell_angle_gamma   118.54707424
_symmetry_Int_Tables_number   1
_chemical_formula_structural   GdCBr
_chemical_formula_sum   'Gd2 C2 Br2'
_cell_volume   139.82518082
_cell_formula_units_Z   2
loop_
 _symmetry_equiv_pos_site_id
 _symmetry_equiv_pos_as_xyz
  1  'x, y, z'
loop_
 _atom_site_type_symbol
 _atom_site_label
 _atom_site_symmetry_multiplicity
 _atom_site_fract_x
 _atom_site_fract_y
 _atom_site_fract_z
 _atom_site_occupancy
  Gd  Gd0  1  0.41039631  0.82079262  0.14555918  1
  Gd  Gd1  1  0.58960369  0.17920738  0.85444082  1
  Br  Br2  1  0.80006366  0.60012732  0.33190481  1
  Br  Br3  1  0.19993634  0.39987268  0.66809519  1
  C  C4  1  0.08765114  0.17530229  0.03579398  1
  C  C5  1  0.91234886  0.82469771  0.96420602  1
