# generated using pymatgen
data_LiCo(PO3)3
_symmetry_space_group_name_H-M   'P 1'
_cell_length_a   8.46288159
_cell_length_b   8.64245640
_cell_length_c   8.76320658
_cell_angle_alpha   90.00000000
_cell_angle_beta   90.00000000
_cell_angle_gamma   90.00000000
_symmetry_Int_Tables_number   1
_chemical_formula_structural   LiCo(PO3)3
_chemical_formula_sum   'Li4 Co4 P12 O36'
_cell_volume   640.94167554
_cell_formula_units_Z   4
loop_
 _symmetry_equiv_pos_site_id
 _symmetry_equiv_pos_as_xyz
  1  'x, y, z'
loop_
 _atom_site_type_symbol
 _atom_site_label
 _atom_site_symmetry_multiplicity
 _atom_site_fract_x
 _atom_site_fract_y
 _atom_site_fract_z
 _atom_site_occupancy
  Li  Li0  1  0.15227260  0.13501995  0.38464339  1
  Li  Li1  1  0.84772740  0.63501995  0.11535661  1
  Li  Li2  1  0.65227260  0.36498005  0.61535661  1
  Li  Li3  1  0.34772740  0.86498005  0.88464339  1
  O  O4  1  0.60280516  0.62750780  0.08062444  1
  O  O5  1  0.89719484  0.37249220  0.58062444  1
  O  O6  1  0.90951715  0.11356357  0.36827801  1
  O  O7  1  0.95971627  0.27438732  0.84650145  1
  O  O8  1  0.04028373  0.77438732  0.65349855  1
  O  O9  1  0.09048285  0.61356357  0.13172199  1
  O  O10  1  0.10280516  0.87249220  0.91937556  1
  O  O11  1  0.11841888  0.38429824  0.31827181  1
  O  O12  1  0.13353396  0.19259441  0.62355084  1
  O  O13  1  0.13941841  0.46455063  0.73578551  1
  O  O14  1  0.15908740  0.86242270  0.40333157  1
  O  O15  1  0.18961086  0.09159363  0.15582629  1
  O  O16  1  0.22600730  0.36373958  0.04825114  1
  O  O17  1  0.27399270  0.63626042  0.54825114  1
  O  O18  1  0.31038914  0.90840637  0.65582629  1
  O  O19  1  0.34091260  0.13757730  0.90333157  1
  O  O20  1  0.36058159  0.53544937  0.23578551  1
  O  O21  1  0.36646604  0.80740559  0.12355084  1
  O  O22  1  0.38158112  0.61570176  0.81827181  1
  O  O23  1  0.39719484  0.12750780  0.41937556  1
  O  O24  1  0.40951715  0.38643643  0.63172199  1
  O  O25  1  0.86646604  0.69259441  0.87644916  1
  O  O26  1  0.54028373  0.72561268  0.34650145  1
  O  O27  1  0.59048285  0.88643643  0.86827801  1
  O  O28  1  0.45971627  0.22561268  0.15349855  1
  O  O29  1  0.61841888  0.11570176  0.68172819  1
  O  O30  1  0.63353396  0.30740559  0.37644916  1
  O  O31  1  0.63941841  0.03544937  0.26421449  1
  O  O32  1  0.65908740  0.63757730  0.59666843  1
  O  O33  1  0.68961086  0.40840637  0.84417371  1
  O  O34  1  0.72600730  0.13626042  0.95174886  1
  O  O35  1  0.77399270  0.86373958  0.45174886  1
  O  O36  1  0.81038914  0.59159363  0.34417371  1
  O  O37  1  0.84091260  0.36242270  0.09666843  1
  O  O38  1  0.86058159  0.96455063  0.76421449  1
  O  O39  1  0.88158112  0.88429824  0.18172819  1
  P  P40  1  0.68614764  0.02103110  0.81112361  1
  P  P41  1  0.70218070  0.69041922  0.43962190  1
  P  P42  1  0.79781930  0.30958078  0.93962190  1
  P  P43  1  0.81385236  0.97896890  0.31112361  1
  P  P44  1  0.02971844  0.32076411  0.68260722  1
  P  P45  1  0.18614764  0.47896890  0.18887639  1
  P  P46  1  0.20218070  0.80958078  0.56037810  1
  P  P47  1  0.29781930  0.19041922  0.06037810  1
  P  P48  1  0.97028156  0.82076411  0.81739278  1
  P  P49  1  0.47028156  0.67923589  0.18260722  1
  P  P50  1  0.52971844  0.17923589  0.31739278  1
  P  P51  1  0.31385236  0.52103110  0.68887639  1
  Co  Co52  1  0.87131947  0.35508049  0.34035660  1
  Co  Co53  1  0.62868053  0.64491951  0.84035660  1
  Co  Co54  1  0.37131947  0.14491951  0.65964340  1
  Co  Co55  1  0.12868053  0.85508049  0.15964340  1
