# generated using pymatgen
data_Li6V2O5F2
_symmetry_space_group_name_H-M   'P 1'
_cell_length_a   9.69515415
_cell_length_b   5.95996536
_cell_length_c   5.20524601
_cell_angle_alpha   90.00000000
_cell_angle_beta   79.32894607
_cell_angle_gamma   90.00000000
_symmetry_Int_Tables_number   1
_chemical_formula_structural   Li6V2O5F2
_chemical_formula_sum   'Li12 V4 O10 F4'
_cell_volume   295.57216326
_cell_formula_units_Z   2
loop_
 _symmetry_equiv_pos_site_id
 _symmetry_equiv_pos_as_xyz
  1  'x, y, z'
loop_
 _atom_site_type_symbol
 _atom_site_label
 _atom_site_symmetry_multiplicity
 _atom_site_fract_x
 _atom_site_fract_y
 _atom_site_fract_z
 _atom_site_occupancy
  Li  Li0  1  0.13513060  0.78672308  0.66523846  1
  Li  Li1  1  0.14768030  0.23671720  0.61616760  1
  Li  Li2  1  0.13071944  0.51118295  0.04400249  1
  Li  Li3  1  0.36847694  0.72744114  0.83972715  1
  Li  Li4  1  0.34746154  0.28600328  0.88378404  1
  Li  Li5  1  0.37120270  0.98564294  0.46239158  1
  Li  Li6  1  0.63071944  0.98881705  0.54400249  1
  Li  Li7  1  0.63513060  0.71327692  0.16523846  1
  Li  Li8  1  0.64768030  0.26328280  0.11616760  1
  Li  Li9  1  0.87120270  0.51435706  0.96239158  1
  Li  Li10  1  0.86847694  0.77255886  0.33972715  1
  Li  Li11  1  0.84746154  0.21399672  0.38378404  1
  V  V12  1  0.12885948  0.01736915  0.13667846  1
  V  V13  1  0.37058279  0.50202372  0.36226394  1
  V  V14  1  0.62885948  0.48263085  0.63667846  1
  V  V15  1  0.87058279  0.99797628  0.86226394  1
  O  O16  1  0.99980937  0.00434353  0.50037523  1
  O  O17  1  0.00378607  0.77760396  0.00449971  1
  O  O18  1  0.25425561  0.01014849  0.79725366  1
  O  O19  1  0.24668017  0.51063864  0.70274722  1
  O  O20  1  0.23393738  0.28452525  0.24275697  1
  O  O21  1  0.50378607  0.72239604  0.50449971  1
  O  O22  1  0.49980937  0.49565647  0.00037523  1
  O  O23  1  0.73393738  0.21547475  0.74275697  1
  O  O24  1  0.75425561  0.48985151  0.29725366  1
  O  O25  1  0.74668017  0.98936136  0.20274722  1
  F  F26  1  0.26565493  0.78493977  0.25576912  1
  F  F27  1  0.49576069  0.24053625  0.48634838  1
  F  F28  1  0.76565493  0.71506023  0.75576912  1
  F  F29  1  0.99576069  0.25946375  0.98634838  1
