# generated using pymatgen
data_Li2Fe2(MoO4)3
_symmetry_space_group_name_H-M   'P 1'
_cell_length_a   9.48097564
_cell_length_b   9.66914096
_cell_length_c   13.21034794
_cell_angle_alpha   90.00000000
_cell_angle_beta   90.00000000
_cell_angle_gamma   90.00000000
_symmetry_Int_Tables_number   1
_chemical_formula_structural   Li2Fe2(MoO4)3
_chemical_formula_sum   'Li8 Fe8 Mo12 O48'
_cell_volume   1211.03077226
_cell_formula_units_Z   4
loop_
 _symmetry_equiv_pos_site_id
 _symmetry_equiv_pos_as_xyz
  1  'x, y, z'
loop_
 _atom_site_type_symbol
 _atom_site_label
 _atom_site_symmetry_multiplicity
 _atom_site_fract_x
 _atom_site_fract_y
 _atom_site_fract_z
 _atom_site_occupancy
  Li  Li0  1  0.73371549  0.27728084  0.68986858  1
  Li  Li1  1  0.23371624  0.22271998  0.81013172  1
  Li  Li2  1  0.76628438  0.27728084  0.31013162  1
  Li  Li3  1  0.26628407  0.22271998  0.18986848  1
  Li  Li4  1  0.26628407  0.72271975  0.31013162  1
  Li  Li5  1  0.76628438  0.77728061  0.18986848  1
  Li  Li6  1  0.23371624  0.72271975  0.68986858  1
  Li  Li7  1  0.73371549  0.77728061  0.81013172  1
  O  O8  1  0.73089930  0.17096767  0.82015534  1
  O  O9  1  0.23090005  0.32903210  0.67984496  1
  O  O10  1  0.76910057  0.17096767  0.17984486  1
  O  O11  1  0.26910026  0.32903210  0.32015524  1
  O  O12  1  0.26910026  0.82903187  0.17984486  1
  O  O13  1  0.76910057  0.67096744  0.32015524  1
  O  O14  1  0.23090005  0.82903187  0.82015534  1
  O  O15  1  0.73089930  0.67096744  0.67984496  1
  O  O16  1  0.93208942  0.14107377  0.98459764  1
  O  O17  1  0.43208911  0.35892600  0.51540267  1
  O  O18  1  0.56791045  0.14107377  0.01540257  1
  O  O19  1  0.06791120  0.35892600  0.48459754  1
  O  O20  1  0.06791120  0.85892577  0.01540257  1
  O  O21  1  0.56791045  0.64107459  0.48459754  1
  O  O22  1  0.43208911  0.85892577  0.98459764  1
  O  O23  1  0.93208942  0.64107459  0.51540267  1
  O  O24  1  0.62454871  0.43111263  0.93624933  1
  O  O25  1  0.12454946  0.06888714  0.56375020  1
  O  O26  1  0.87545117  0.43111263  0.06375010  1
  O  O27  1  0.37545085  0.06888714  0.43624923  1
  O  O28  1  0.37545085  0.56888796  0.06375010  1
  O  O29  1  0.87545117  0.93111240  0.43624923  1
  O  O30  1  0.12454946  0.56888796  0.93624933  1
  O  O31  1  0.62454871  0.93111240  0.56375020  1
  O  O32  1  0.03554123  0.17134735  0.78004085  1
  O  O33  1  0.53554155  0.32865242  0.71995945  1
  O  O34  1  0.46445908  0.17134735  0.21995935  1
  O  O35  1  0.96445833  0.32865242  0.28004075  1
  O  O36  1  0.96445833  0.82865219  0.21995935  1
  O  O37  1  0.46445908  0.67134712  0.28004075  1
  O  O38  1  0.53554155  0.82865219  0.78004085  1
  O  O39  1  0.03554123  0.67134712  0.71995945  1
  O  O40  1  0.83281910  0.14770721  0.59317328  1
  O  O41  1  0.33281879  0.35229256  0.90682625  1
  O  O42  1  0.66718077  0.14770721  0.40682615  1
  O  O43  1  0.16718152  0.35229256  0.09317395  1
  O  O44  1  0.16718152  0.85229233  0.40682615  1
  O  O45  1  0.66718077  0.64770803  0.09317395  1
  O  O46  1  0.33281879  0.85229233  0.59317328  1
  O  O47  1  0.83281910  0.64770803  0.90682625  1
  O  O48  1  0.89258701  0.41093566  0.66159515  1
  O  O49  1  0.39258777  0.08906411  0.83840438  1
  O  O50  1  0.60741286  0.41093566  0.33840428  1
  O  O51  1  0.10741255  0.08906411  0.16159582  1
  O  O52  1  0.10741255  0.58906493  0.33840428  1
  O  O53  1  0.60741286  0.91093544  0.16159582  1
  O  O54  1  0.39258777  0.58906493  0.66159515  1
  O  O55  1  0.89258701  0.91093544  0.83840438  1
  Fe  Fe56  1  0.53483726  0.25383868  0.87804800  1
  Fe  Fe57  1  0.03483694  0.24616214  0.62195153  1
  Fe  Fe58  1  0.96516262  0.25383868  0.12195143  1
  Fe  Fe59  1  0.46516230  0.24616214  0.37804867  1
  Fe  Fe60  1  0.46516230  0.74616191  0.12195143  1
  Fe  Fe61  1  0.96516262  0.75383845  0.37804867  1
  Fe  Fe62  1  0.03483694  0.74616191  0.87804800  1
  Fe  Fe63  1  0.53483726  0.75383845  0.62195153  1
  Mo  Mo64  1  0.89759602  0.09719184  0.85698685  1
  Mo  Mo65  1  0.39759571  0.40280898  0.64301345  1
  Mo  Mo66  1  0.60240492  0.09719184  0.14301335  1
  Mo  Mo67  1  0.10240461  0.40280898  0.35698675  1
  Mo  Mo68  1  0.10240461  0.90280875  0.14301335  1
  Mo  Mo69  1  0.60240492  0.59719161  0.35698675  1
  Mo  Mo70  1  0.39759571  0.90280875  0.85698685  1
  Mo  Mo71  1  0.89759602  0.59719161  0.64301345  1
  Mo  Mo72  1  0.74999994  0.03700612  0.50000010  1
  Mo  Mo73  1  0.24999962  0.46299470  0.00000000  1
  Mo  Mo74  1  0.24999962  0.96299447  0.50000010  1
  Mo  Mo75  1  0.74999994  0.53700589  0.00000000  1
