# generated using pymatgen
data_LiCr(PO3)4
_symmetry_space_group_name_H-M   'P 1'
_cell_length_a   12.76210754
_cell_length_b   8.36864482
_cell_length_c   9.30664526
_cell_angle_alpha   90.00000000
_cell_angle_beta   90.00000000
_cell_angle_gamma   90.00000000
_symmetry_Int_Tables_number   1
_chemical_formula_structural   LiCr(PO3)4
_chemical_formula_sum   'Li4 Cr4 P16 O48'
_cell_volume   993.96409400
_cell_formula_units_Z   4
loop_
 _symmetry_equiv_pos_site_id
 _symmetry_equiv_pos_as_xyz
  1  'x, y, z'
loop_
 _atom_site_type_symbol
 _atom_site_label
 _atom_site_symmetry_multiplicity
 _atom_site_fract_x
 _atom_site_fract_y
 _atom_site_fract_z
 _atom_site_occupancy
  Li  Li0  1  0.00000000  0.00209882  0.75000009  1
  Li  Li1  1  0.50000036  0.50209826  0.75000009  1
  Li  Li2  1  0.50000036  0.49790182  0.25000039  1
  Li  Li3  1  0.00000000  0.99790126  0.25000039  1
  O  O4  1  0.37490475  0.86702834  0.87932097  1
  O  O5  1  0.93003214  0.46475518  0.37008442  1
  O  O6  1  0.93003214  0.53524489  0.87008521  1
  O  O7  1  0.93589922  0.80846859  0.36674956  1
  O  O8  1  0.06410072  0.19153149  0.63325092  1
  O  O9  1  0.06410072  0.80846859  0.13325122  1
  O  O10  1  0.06996780  0.46475518  0.12991528  1
  O  O11  1  0.06996780  0.53524489  0.62991498  1
  O  O12  1  0.10350405  0.09421506  0.37537946  1
  O  O13  1  0.10350405  0.90578502  0.87537916  1
  O  O14  1  0.12509483  0.36702771  0.87932097  1
  O  O15  1  0.12509483  0.63297237  0.37932127  1
  O  O16  1  0.17935860  0.35674667  0.46422831  1
  O  O17  1  0.17935860  0.64325341  0.96422802  1
  O  O18  1  0.24264187  0.10189338  0.57591329  1
  O  O19  1  0.24264187  0.89810670  0.07591251  1
  O  O20  1  0.25735849  0.39810606  0.07591251  1
  O  O21  1  0.25735849  0.60189282  0.57591329  1
  O  O22  1  0.32064098  0.14325277  0.96422802  1
  O  O23  1  0.32064098  0.85674730  0.46422831  1
  O  O24  1  0.37490475  0.13297173  0.37932127  1
  O  O25  1  0.93589922  0.19153149  0.86674927  1
  O  O26  1  0.39649631  0.40578439  0.87537916  1
  O  O27  1  0.39649631  0.59421450  0.37537946  1
  O  O28  1  0.43003256  0.03524426  0.62991498  1
  O  O29  1  0.43003256  0.96475582  0.12991528  1
  O  O30  1  0.43589964  0.30846795  0.13325122  1
  O  O31  1  0.43589964  0.69153212  0.63325092  1
  O  O32  1  0.56410029  0.30846795  0.36674956  1
  O  O33  1  0.56410029  0.69153212  0.86674927  1
  O  O34  1  0.56996737  0.03524426  0.87008521  1
  O  O35  1  0.56996737  0.96475582  0.37008442  1
  O  O36  1  0.60350363  0.40578439  0.62462103  1
  O  O37  1  0.60350363  0.59421450  0.12462025  1
  O  O38  1  0.62509519  0.13297173  0.12067951  1
  O  O39  1  0.62509519  0.86702834  0.62067921  1
  O  O40  1  0.67935896  0.14325277  0.53577217  1
  O  O41  1  0.67935896  0.85674730  0.03577247  1
  O  O42  1  0.74264223  0.39810606  0.42408719  1
  O  O43  1  0.74264223  0.60189282  0.92408689  1
  O  O44  1  0.75735807  0.10189338  0.92408689  1
  O  O45  1  0.75735807  0.89810670  0.42408719  1
  O  O46  1  0.82064134  0.35674667  0.03577247  1
  O  O47  1  0.82064134  0.64325341  0.53577217  1
  O  O48  1  0.87490511  0.36702771  0.62067921  1
  O  O49  1  0.89649667  0.90578502  0.62462103  1
  O  O50  1  0.89649667  0.09421506  0.12462025  1
  O  O51  1  0.87490511  0.63297237  0.12067951  1
  P  P52  1  0.84983485  0.46435579  0.48913458  1
  P  P53  1  0.84983485  0.53564428  0.98913428  1
  P  P54  1  0.65016466  0.96435643  0.48913458  1
  P  P55  1  0.86169703  0.18014076  0.99454046  1
  P  P56  1  0.13830290  0.18014076  0.50545972  1
  P  P57  1  0.13830290  0.81985932  0.00546002  1
  P  P58  1  0.15016508  0.46435579  0.01086513  1
  P  P59  1  0.15016508  0.53564428  0.51086591  1
  P  P60  1  0.34983528  0.03564365  0.51086591  1
  P  P61  1  0.34983528  0.96435643  0.01086513  1
  P  P62  1  0.36169746  0.31985987  0.00546002  1
  P  P63  1  0.36169746  0.68014021  0.50545972  1
  P  P64  1  0.63830248  0.31985987  0.49453968  1
  P  P65  1  0.63830248  0.68014021  0.99454046  1
  P  P66  1  0.65016466  0.03564365  0.98913428  1
  P  P67  1  0.86169703  0.81985932  0.49453968  1
  Cr  Cr68  1  0.50000036  0.86904742  0.75000009  1
  Cr  Cr69  1  0.50000036  0.13095266  0.25000039  1
  Cr  Cr70  1  0.00000000  0.63095210  0.25000039  1
  Cr  Cr71  1  0.00000000  0.36904797  0.75000009  1
