# generated using pymatgen
data_LaMnSi2
_symmetry_space_group_name_H-M   'P 1'
_cell_length_a   4.02895039
_cell_length_b   4.16291147
_cell_length_c   9.10287483
_cell_angle_alpha   103.21814384
_cell_angle_beta   90.00000000
_cell_angle_gamma   90.00000000
_symmetry_Int_Tables_number   1
_chemical_formula_structural   LaMnSi2
_chemical_formula_sum   'La2 Mn2 Si4'
_cell_volume   148.63002140
_cell_formula_units_Z   2
loop_
 _symmetry_equiv_pos_site_id
 _symmetry_equiv_pos_as_xyz
  1  'x, y, z'
loop_
 _atom_site_type_symbol
 _atom_site_label
 _atom_site_symmetry_multiplicity
 _atom_site_fract_x
 _atom_site_fract_y
 _atom_site_fract_z
 _atom_site_occupancy
  Si  Si0  1  0.25000000  0.67981775  0.35963550  1
  Si  Si1  1  0.75000000  0.32018225  0.64036450  1
  Si  Si2  1  0.75000000  0.46354318  0.92708636  1
  Si  Si3  1  0.25000000  0.53645682  0.07291364  1
  Mn  Mn4  1  0.75000000  0.75075167  0.50150333  1
  Mn  Mn5  1  0.25000000  0.24924833  0.49849667  1
  La  La6  1  0.25000000  0.89744157  0.79488313  1
  La  La7  1  0.75000000  0.10255843  0.20511687  1
