# generated using pymatgen
data_Zn12Pt7
_symmetry_space_group_name_H-M   'P 1'
_cell_length_a   2.80123434
_cell_length_b   7.02879061
_cell_length_c   29.33571624
_cell_angle_alpha   90.00000000
_cell_angle_beta   90.00000000
_cell_angle_gamma   90.00000000
_symmetry_Int_Tables_number   1
_chemical_formula_structural   Zn12Pt7
_chemical_formula_sum   'Zn24 Pt14'
_cell_volume   577.59941342
_cell_formula_units_Z   2
loop_
 _symmetry_equiv_pos_site_id
 _symmetry_equiv_pos_as_xyz
  1  'x, y, z'
loop_
 _atom_site_type_symbol
 _atom_site_label
 _atom_site_symmetry_multiplicity
 _atom_site_fract_x
 _atom_site_fract_y
 _atom_site_fract_z
 _atom_site_occupancy
  Zn  Zn0  1  0.50000000  0.87566177  0.07131982  1
  Zn  Zn1  1  0.50000000  0.12433823  0.92868018  1
  Zn  Zn2  1  0.50000000  0.37566177  0.42868018  1
  Zn  Zn3  1  0.50000000  0.62433823  0.57131982  1
  Zn  Zn4  1  0.50000000  0.86271757  0.21637440  1
  Zn  Zn5  1  0.50000000  0.13728243  0.78362560  1
  Zn  Zn6  1  0.50000000  0.36271757  0.28362560  1
  Zn  Zn7  1  0.50000000  0.63728243  0.71637440  1
  Zn  Zn8  1  0.50000000  0.81701796  0.49210136  1
  Zn  Zn9  1  0.50000000  0.18298204  0.50789864  1
  Zn  Zn10  1  0.50000000  0.31701796  0.00789864  1
  Zn  Zn11  1  0.50000000  0.68298204  0.99210136  1
  Zn  Zn12  1  0.50000000  0.62940165  0.14318814  1
  Zn  Zn13  1  0.50000000  0.37059835  0.85681186  1
  Zn  Zn14  1  0.50000000  0.74852059  0.89969891  1
  Zn  Zn15  1  0.50000000  0.25147941  0.10030109  1
  Zn  Zn16  1  0.50000000  0.24852059  0.60030109  1
  Zn  Zn17  1  0.50000000  0.75147941  0.39969891  1
  Zn  Zn18  1  0.50000000  0.76852950  0.80179488  1
  Zn  Zn19  1  0.50000000  0.23147050  0.19820512  1
  Zn  Zn20  1  0.50000000  0.26852950  0.69820512  1
  Zn  Zn21  1  0.50000000  0.73147050  0.30179488  1
  Zn  Zn22  1  0.50000000  0.87059835  0.64318814  1
  Zn  Zn23  1  0.50000000  0.12940165  0.35681186  1
  Pt  Pt24  1  0.00000000  0.53684087  0.06733482  1
  Pt  Pt25  1  0.00000000  0.46315913  0.93266518  1
  Pt  Pt26  1  0.00000000  0.03684087  0.43266518  1
  Pt  Pt27  1  0.00000000  0.96315913  0.56733482  1
  Pt  Pt28  1  0.00000000  0.54063650  0.21864926  1
  Pt  Pt29  1  0.00000000  0.45936350  0.78135074  1
  Pt  Pt30  1  0.00000000  0.04063650  0.28135074  1
  Pt  Pt31  1  0.00000000  0.95936350  0.71864926  1
  Pt  Pt32  1  0.00000000  0.49268708  0.35566263  1
  Pt  Pt33  1  0.00000000  0.50731292  0.64433737  1
  Pt  Pt34  1  0.00000000  0.99268708  0.14433737  1
  Pt  Pt35  1  0.00000000  0.00731292  0.85566263  1
  Pt  Pt36  1  0.00000000  0.50000000  0.50000000  1
  Pt  Pt37  1  0.00000000  0.00000000  0.00000000  1
