# generated using pymatgen
data_Na2Si2O5
_symmetry_space_group_name_H-M   'P 1'
_cell_length_a   4.92454843
_cell_length_b   8.22768053
_cell_length_c   12.47554685
_cell_angle_alpha   104.23484871
_cell_angle_beta   90.00000000
_cell_angle_gamma   90.00000000
_symmetry_Int_Tables_number   1
_chemical_formula_structural   Na2Si2O5
_chemical_formula_sum   'Na8 Si8 O20'
_cell_volume   489.95910274
_cell_formula_units_Z   4
loop_
 _symmetry_equiv_pos_site_id
 _symmetry_equiv_pos_as_xyz
  1  'x, y, z'
loop_
 _atom_site_type_symbol
 _atom_site_label
 _atom_site_symmetry_multiplicity
 _atom_site_fract_x
 _atom_site_fract_y
 _atom_site_fract_z
 _atom_site_occupancy
  O  O0  1  0.25152417  0.90667093  0.56398674  1
  O  O1  1  0.75152417  0.09332907  0.93601326  1
  O  O2  1  0.74847583  0.09332907  0.43601326  1
  O  O3  1  0.24847583  0.90667093  0.06398674  1
  O  O4  1  0.26993115  0.39144735  0.90119155  1
  O  O5  1  0.76993115  0.60855265  0.59880845  1
  O  O6  1  0.73006885  0.60855265  0.09880845  1
  O  O7  1  0.23006885  0.39144735  0.40119155  1
  O  O8  1  0.25319621  0.22566129  0.68092481  1
  O  O9  1  0.75319621  0.77433871  0.81907519  1
  O  O10  1  0.74680379  0.77433871  0.31907519  1
  O  O11  1  0.24680379  0.22566129  0.18092481  1
  O  O12  1  0.88431006  0.45519033  0.76779963  1
  O  O13  1  0.38431006  0.54480967  0.73220037  1
  O  O14  1  0.11568994  0.54480967  0.23220037  1
  O  O15  1  0.61568994  0.45519033  0.26779963  1
  O  O16  1  0.86329845  0.01452941  0.21446164  1
  O  O17  1  0.36329845  0.98547059  0.28553836  1
  O  O18  1  0.13670155  0.98547059  0.78553836  1
  O  O19  1  0.63670155  0.01452941  0.71446164  1
  Na  Na20  1  0.75385992  0.37934264  0.44253411  1
  Na  Na21  1  0.25385992  0.62065736  0.05746589  1
  Na  Na22  1  0.24614008  0.62065736  0.55746589  1
  Na  Na23  1  0.74614008  0.37934264  0.94253411  1
  Na  Na24  1  0.22641105  0.13534261  0.47170308  1
  Na  Na25  1  0.72641105  0.86465739  0.02829692  1
  Na  Na26  1  0.77358895  0.86465739  0.52829692  1
  Na  Na27  1  0.27358895  0.13534261  0.97170308  1
  Si  Si28  1  0.18842440  0.02752709  0.18255303  1
  Si  Si29  1  0.68842440  0.97247291  0.31744697  1
  Si  Si30  1  0.81157560  0.97247291  0.81744697  1
  Si  Si31  1  0.31157560  0.02752709  0.68255303  1
  Si  Si32  1  0.29186710  0.40321343  0.27721391  1
  Si  Si33  1  0.79186710  0.59678657  0.22278609  1
  Si  Si34  1  0.70813290  0.59678657  0.72278609  1
  Si  Si35  1  0.20813290  0.40321343  0.77721391  1
