# generated using pymatgen
data_CaCu
_symmetry_space_group_name_H-M   'P 1'
_cell_length_a   4.23316715
_cell_length_b   5.81806447
_cell_length_c   19.31077083
_cell_angle_alpha   94.34790896
_cell_angle_beta   90.00000000
_cell_angle_gamma   90.00000000
_symmetry_Int_Tables_number   1
_chemical_formula_structural   CaCu
_chemical_formula_sum   'Ca10 Cu10'
_cell_volume   474.23313421
_cell_formula_units_Z   10
loop_
 _symmetry_equiv_pos_site_id
 _symmetry_equiv_pos_as_xyz
  1  'x, y, z'
loop_
 _atom_site_type_symbol
 _atom_site_label
 _atom_site_symmetry_multiplicity
 _atom_site_fract_x
 _atom_site_fract_y
 _atom_site_fract_z
 _atom_site_occupancy
  Ca  Ca0  1  0.25000000  0.65629035  0.12844706  1
  Ca  Ca1  1  0.75000000  0.34370965  0.87155294  1
  Ca  Ca2  1  0.25000000  0.46024276  0.32836790  1
  Ca  Ca3  1  0.75000000  0.53975724  0.67163210  1
  Ca  Ca4  1  0.25000000  0.75819028  0.52817460  1
  Ca  Ca5  1  0.75000000  0.24180972  0.47182540  1
  Ca  Ca6  1  0.25000000  0.05396604  0.72835203  1
  Ca  Ca7  1  0.75000000  0.94603396  0.27164797  1
  Ca  Ca8  1  0.25000000  0.85530257  0.92818542  1
  Ca  Ca9  1  0.75000000  0.14469743  0.07181458  1
  Cu  Cu10  1  0.25000000  0.19097322  0.18774295  1
  Cu  Cu11  1  0.75000000  0.80902678  0.81225705  1
  Cu  Cu12  1  0.25000000  0.95566561  0.38772616  1
  Cu  Cu13  1  0.75000000  0.04433439  0.61227384  1
  Cu  Cu14  1  0.25000000  0.25341772  0.58779416  1
  Cu  Cu15  1  0.75000000  0.74658228  0.41220584  1
  Cu  Cu16  1  0.25000000  0.58754616  0.78775907  1
  Cu  Cu17  1  0.75000000  0.41245384  0.21224093  1
  Cu  Cu18  1  0.25000000  0.38967803  0.98771355  1
  Cu  Cu19  1  0.75000000  0.61032197  0.01228645  1
