# generated using pymatgen
data_LiSbO3
_symmetry_space_group_name_H-M   'P 1'
_cell_length_a   4.99198806
_cell_length_b   5.27028174
_cell_length_c   8.60878747
_cell_angle_alpha   90.00000000
_cell_angle_beta   90.00000000
_cell_angle_gamma   90.00000000
_symmetry_Int_Tables_number   1
_chemical_formula_structural   LiSbO3
_chemical_formula_sum   'Li4 Sb4 O12'
_cell_volume   226.49016942
_cell_formula_units_Z   4
loop_
 _symmetry_equiv_pos_site_id
 _symmetry_equiv_pos_as_xyz
  1  'x, y, z'
loop_
 _atom_site_type_symbol
 _atom_site_label
 _atom_site_symmetry_multiplicity
 _atom_site_fract_x
 _atom_site_fract_y
 _atom_site_fract_z
 _atom_site_occupancy
  Li  Li0  1  0.00000000  0.75000000  0.30578089  1
  Li  Li1  1  0.50000000  0.75000000  0.19421911  1
  Li  Li2  1  0.00000000  0.25000000  0.69421911  1
  Li  Li3  1  0.50000000  0.25000000  0.80578089  1
  O  O4  1  0.70496509  0.57559003  0.41827439  1
  O  O5  1  0.79503491  0.57559003  0.08172561  1
  O  O6  1  0.29503491  0.92440997  0.41827439  1
  O  O7  1  0.25000000  0.40915304  0.25000000  1
  O  O8  1  0.75000000  0.59084696  0.75000000  1
  O  O9  1  0.25000000  0.90915304  0.75000000  1
  O  O10  1  0.79503491  0.07559003  0.91827439  1
  O  O11  1  0.75000000  0.09084696  0.25000000  1
  O  O12  1  0.20496509  0.42440997  0.91827439  1
  O  O13  1  0.29503491  0.42440997  0.58172561  1
  O  O14  1  0.70496509  0.07559003  0.58172561  1
  O  O15  1  0.20496509  0.92440997  0.08172561  1
  Sb  Sb16  1  0.00000000  0.75000000  0.90533543  1
  Sb  Sb17  1  0.50000000  0.25000000  0.40533543  1
  Sb  Sb18  1  0.00000000  0.25000000  0.09466457  1
  Sb  Sb19  1  0.50000000  0.75000000  0.59466457  1
