# generated using pymatgen
data_Ga2Pd5
_symmetry_space_group_name_H-M   'P 1'
_cell_length_a   4.12309053
_cell_length_b   5.52259790
_cell_length_c   18.67581155
_cell_angle_alpha   90.00000000
_cell_angle_beta   90.00000000
_cell_angle_gamma   90.00000000
_symmetry_Int_Tables_number   1
_chemical_formula_structural   Ga2Pd5
_chemical_formula_sum   'Ga8 Pd20'
_cell_volume   425.25142447
_cell_formula_units_Z   4
loop_
 _symmetry_equiv_pos_site_id
 _symmetry_equiv_pos_as_xyz
  1  'x, y, z'
loop_
 _atom_site_type_symbol
 _atom_site_label
 _atom_site_symmetry_multiplicity
 _atom_site_fract_x
 _atom_site_fract_y
 _atom_site_fract_z
 _atom_site_occupancy
  Ga  Ga0  1  0.75000000  0.20333058  0.95604559  1
  Ga  Ga1  1  0.25000000  0.79666942  0.04395441  1
  Ga  Ga2  1  0.75000000  0.70333058  0.54395441  1
  Ga  Ga3  1  0.25000000  0.29666942  0.45604559  1
  Ga  Ga4  1  0.75000000  0.66801396  0.82387056  1
  Ga  Ga5  1  0.25000000  0.33198604  0.17612944  1
  Ga  Ga6  1  0.75000000  0.16801396  0.67612944  1
  Ga  Ga7  1  0.25000000  0.83198604  0.32387056  1
  Pd  Pd8  1  0.75000000  0.13807979  0.23357933  1
  Pd  Pd9  1  0.25000000  0.86192021  0.76642067  1
  Pd  Pd10  1  0.75000000  0.63807979  0.26642067  1
  Pd  Pd11  1  0.25000000  0.36192021  0.73357933  1
  Pd  Pd12  1  0.75000000  0.66958768  0.96937906  1
  Pd  Pd13  1  0.25000000  0.33041232  0.03062094  1
  Pd  Pd14  1  0.75000000  0.16958768  0.53062094  1
  Pd  Pd15  1  0.25000000  0.83041232  0.46937906  1
  Pd  Pd16  1  0.75000000  0.03359674  0.08784328  1
  Pd  Pd17  1  0.25000000  0.96640326  0.91215672  1
  Pd  Pd18  1  0.75000000  0.53359674  0.41215672  1
  Pd  Pd19  1  0.25000000  0.46640326  0.58784328  1
  Pd  Pd20  1  0.75000000  0.16515116  0.81999736  1
  Pd  Pd21  1  0.25000000  0.83484884  0.18000264  1
  Pd  Pd22  1  0.75000000  0.66515116  0.68000264  1
  Pd  Pd23  1  0.25000000  0.33484884  0.31999736  1
  Pd  Pd24  1  0.75000000  0.03548168  0.38177398  1
  Pd  Pd25  1  0.25000000  0.96451832  0.61822602  1
  Pd  Pd26  1  0.75000000  0.53548168  0.11822602  1
  Pd  Pd27  1  0.25000000  0.46451832  0.88177398  1
