# generated using pymatgen
data_Mn6P7O24
_symmetry_space_group_name_H-M   'P 1'
_cell_length_a   5.42038821
_cell_length_b   27.24306351
_cell_length_c   6.55200866
_cell_angle_alpha   90.00000000
_cell_angle_beta   107.49376397
_cell_angle_gamma   90.00000000
_symmetry_Int_Tables_number   1
_chemical_formula_structural   Mn6P7O24
_chemical_formula_sum   'Mn12 P14 O48'
_cell_volume   922.77368234
_cell_formula_units_Z   2
loop_
 _symmetry_equiv_pos_site_id
 _symmetry_equiv_pos_as_xyz
  1  'x, y, z'
loop_
 _atom_site_type_symbol
 _atom_site_label
 _atom_site_symmetry_multiplicity
 _atom_site_fract_x
 _atom_site_fract_y
 _atom_site_fract_z
 _atom_site_occupancy
  O  O0  1  0.85048128  0.87580237  0.23520046  1
  O  O1  1  0.91746662  0.33502580  0.04423172  1
  O  O2  1  0.91746662  0.16497420  0.04423172  1
  O  O3  1  0.86574786  0.45260089  0.00699311  1
  O  O4  1  0.86574786  0.04739911  0.00699311  1
  O  O5  1  0.85048128  0.62419763  0.23520046  1
  O  O6  1  0.84922044  0.75000000  0.20775318  1
  O  O7  1  0.86581474  0.30775114  0.40112351  1
  O  O8  1  0.86581474  0.19224886  0.40112351  1
  O  O9  1  0.86257648  0.90603430  0.60453774  1
  O  O10  1  0.86257648  0.59396570  0.60453774  1
  O  O11  1  0.83465372  0.47394491  0.62341603  1
  O  O12  1  0.08253438  0.66497420  0.95576828  1
  O  O13  1  0.08253438  0.83502480  0.95576828  1
  O  O14  1  0.13425214  0.54739911  0.99300689  1
  O  O15  1  0.13425214  0.95260089  0.99300689  1
  O  O16  1  0.14951672  0.12419763  0.76479954  1
  O  O17  1  0.14951672  0.37580237  0.76479954  1
  O  O18  1  0.15077856  0.25000000  0.79224682  1
  O  O19  1  0.13418526  0.69224886  0.59887549  1
  O  O20  1  0.13418526  0.80775114  0.59887549  1
  O  O21  1  0.13742352  0.09396570  0.39546326  1
  O  O22  1  0.13742352  0.40603430  0.39546326  1
  O  O23  1  0.16534628  0.52605509  0.37658397  1
  O  O24  1  0.16534628  0.97394491  0.37658397  1
  O  O25  1  0.40410340  0.62011515  0.80398004  1
  O  O26  1  0.40410340  0.87988385  0.80398004  1
  O  O27  1  0.50678914  0.70368507  0.94141969  1
  O  O28  1  0.50678914  0.79631493  0.94141969  1
  O  O29  1  0.43138258  0.05564511  0.72308764  1
  O  O30  1  0.43138258  0.44435489  0.72308764  1
  O  O31  1  0.37418293  0.75000000  0.22952931  1
  O  O32  1  0.59425466  0.52657113  0.82551542  1
  O  O33  1  0.59425466  0.97342887  0.82551542  1
  O  O34  1  0.52822841  0.14235265  0.61602443  1
  O  O35  1  0.52822841  0.35764735  0.61602443  1
  O  O36  1  0.47177259  0.64235265  0.38397357  1
  O  O37  1  0.47177259  0.85764835  0.38397357  1
  O  O38  1  0.40574534  0.02657113  0.17448458  1
  O  O39  1  0.40574534  0.47342887  0.17448458  1
  O  O40  1  0.62581707  0.25000000  0.77047069  1
  O  O41  1  0.56861842  0.55564511  0.27691336  1
  O  O42  1  0.56861842  0.94435489  0.27691336  1
  O  O43  1  0.49321086  0.20368507  0.05858031  1
  O  O44  1  0.49321086  0.29631493  0.05858031  1
  O  O45  1  0.83465372  0.02605509  0.62341603  1
  O  O46  1  0.59589660  0.37988385  0.19602096  1
  O  O47  1  0.59589660  0.12011615  0.19602096  1
  P  P48  1  0.31403275  0.10801181  0.62124450  1
  P  P49  1  0.31403275  0.39198819  0.62124450  1
  P  P50  1  0.43968252  0.25000000  0.90396027  1
  P  P51  1  0.30264733  0.52478773  0.20463291  1
  P  P52  1  0.30264733  0.97521227  0.20463291  1
  P  P53  1  0.69735267  0.02478773  0.79536709  1
  P  P54  1  0.69735267  0.47521227  0.79536709  1
  P  P55  1  0.26338914  0.83099049  0.81344624  1
  P  P56  1  0.56031748  0.75000000  0.09603973  1
  P  P57  1  0.68596525  0.60801181  0.37875350  1
  P  P58  1  0.68596525  0.89198719  0.37875350  1
  P  P59  1  0.73661186  0.16900951  0.18655476  1
  P  P60  1  0.26338914  0.66900951  0.81344624  1
  P  P61  1  0.73661186  0.33099049  0.18655476  1
  Mn  Mn62  1  0.79320726  0.44993214  0.31344804  1
  Mn  Mn63  1  0.79320726  0.05006786  0.31344804  1
  Mn  Mn64  1  0.86199291  0.31432609  0.71380215  1
  Mn  Mn65  1  0.86199291  0.18567391  0.71380215  1
  Mn  Mn66  1  0.80505278  0.89991960  0.91654525  1
  Mn  Mn67  1  0.80505278  0.60007940  0.91654525  1
  Mn  Mn68  1  0.19494822  0.39991960  0.08345475  1
  Mn  Mn69  1  0.19494822  0.10007940  0.08345475  1
  Mn  Mn70  1  0.13800509  0.81432609  0.28619785  1
  Mn  Mn71  1  0.13800509  0.68567391  0.28619785  1
  Mn  Mn72  1  0.20679274  0.94993214  0.68655196  1
  Mn  Mn73  1  0.20679274  0.55006786  0.68655196  1
