# generated using pymatgen
data_LiCr4(PO4)3
_symmetry_space_group_name_H-M   'P 1'
_cell_length_a   6.29616323
_cell_length_b   14.63832757
_cell_length_c   10.35941815
_cell_angle_alpha   90.00000000
_cell_angle_beta   90.00000000
_cell_angle_gamma   90.00000000
_symmetry_Int_Tables_number   1
_chemical_formula_structural   LiCr4(PO4)3
_chemical_formula_sum   'Li4 Cr16 P12 O48'
_cell_volume   954.77887950
_cell_formula_units_Z   4
loop_
 _symmetry_equiv_pos_site_id
 _symmetry_equiv_pos_as_xyz
  1  'x, y, z'
loop_
 _atom_site_type_symbol
 _atom_site_label
 _atom_site_symmetry_multiplicity
 _atom_site_fract_x
 _atom_site_fract_y
 _atom_site_fract_z
 _atom_site_occupancy
  Li  Li0  1  0.06606112  0.25000000  0.72857797  1
  Li  Li1  1  0.93393888  0.75000000  0.27142203  1
  Li  Li2  1  0.56606212  0.25000000  0.77142203  1
  Li  Li3  1  0.43393788  0.75000000  0.22857897  1
  O  O4  1  0.08815992  0.66211363  0.65318189  1
  O  O5  1  0.80475236  0.35383846  0.76278076  1
  O  O6  1  0.80475236  0.14616154  0.76278076  1
  O  O7  1  0.74367947  0.75000000  0.61306129  1
  O  O8  1  0.75631953  0.25000000  0.11306229  1
  O  O9  1  0.69524764  0.85383846  0.26278076  1
  O  O10  1  0.69524764  0.64616054  0.26278076  1
  O  O11  1  0.66485285  0.45261943  0.95258760  1
  O  O12  1  0.97087362  0.89004914  0.03717770  1
  O  O13  1  0.97087362  0.60995086  0.03717770  1
  O  O14  1  0.95314906  0.25000000  0.55228350  1
  O  O15  1  0.94290969  0.98828615  0.79284955  1
  O  O16  1  0.83514615  0.95261943  0.45258760  1
  O  O17  1  0.94290969  0.51171385  0.79284955  1
  O  O18  1  0.91184108  0.16211363  0.34681811  1
  O  O19  1  0.91184108  0.33788637  0.34681811  1
  O  O20  1  0.02912738  0.10995086  0.96282230  1
  O  O21  1  0.02912738  0.39004914  0.96282230  1
  O  O22  1  0.04685094  0.75000000  0.44771650  1
  O  O23  1  0.05709031  0.01171385  0.20715045  1
  O  O24  1  0.05709031  0.48828615  0.20715045  1
  O  O25  1  0.83514615  0.54738057  0.45258760  1
  O  O26  1  0.08815992  0.83788637  0.65318189  1
  O  O27  1  0.16485385  0.04738057  0.54741240  1
  O  O28  1  0.16485385  0.45261943  0.54741240  1
  O  O29  1  0.19524864  0.64616054  0.23721924  1
  O  O30  1  0.19524864  0.85383846  0.23721924  1
  O  O31  1  0.25632053  0.25000000  0.38693871  1
  O  O32  1  0.24368047  0.75000000  0.88693871  1
  O  O33  1  0.30475136  0.14616154  0.73721924  1
  O  O34  1  0.30475136  0.35383846  0.73721924  1
  O  O35  1  0.33514715  0.54738057  0.04741240  1
  O  O36  1  0.33514715  0.95261943  0.04741240  1
  O  O37  1  0.41184108  0.16211363  0.15318189  1
  O  O38  1  0.41184108  0.33788637  0.15318189  1
  O  O39  1  0.44290969  0.51171385  0.70715145  1
  O  O40  1  0.44290969  0.98828615  0.70715145  1
  O  O41  1  0.45314806  0.25000000  0.94771650  1
  O  O42  1  0.47087362  0.60995086  0.46282230  1
  O  O43  1  0.47087362  0.89004914  0.46282230  1
  O  O44  1  0.52912638  0.10995086  0.53717770  1
  O  O45  1  0.52912638  0.39004914  0.53717770  1
  O  O46  1  0.66485285  0.04738057  0.95258760  1
  O  O47  1  0.55708931  0.01171385  0.29284955  1
  O  O48  1  0.55708931  0.48828615  0.29284955  1
  O  O49  1  0.58815892  0.66211363  0.84681811  1
  O  O50  1  0.58815892  0.83788637  0.84681811  1
  O  O51  1  0.54685094  0.75000000  0.05228350  1
  P  P52  1  0.99331971  0.75000000  0.59187392  1
  P  P53  1  0.14186959  0.57266776  0.13584836  1
  P  P54  1  0.14186959  0.92733324  0.13584836  1
  P  P55  1  0.35813141  0.07266776  0.63584836  1
  P  P56  1  0.35813141  0.42733324  0.63584836  1
  P  P57  1  0.50667929  0.25000000  0.09187392  1
  P  P58  1  0.49331971  0.75000000  0.90812608  1
  P  P59  1  0.64186959  0.57266776  0.36415164  1
  P  P60  1  0.64186959  0.92733324  0.36415164  1
  P  P61  1  0.85813041  0.07266776  0.86415264  1
  P  P62  1  0.85813041  0.42733324  0.86415264  1
  P  P63  1  0.00668029  0.25000000  0.40812608  1
  Cr  Cr64  1  0.92850932  0.36850391  0.15338998  1
  Cr  Cr65  1  0.92850932  0.13149609  0.15338998  1
  Cr  Cr66  1  0.84911967  0.41548464  0.56203726  1
  Cr  Cr67  1  0.84911967  0.08451536  0.56203726  1
  Cr  Cr68  1  0.65088033  0.91548364  0.06203726  1
  Cr  Cr69  1  0.65088033  0.58451536  0.06203726  1
  Cr  Cr70  1  0.57149168  0.86850391  0.65338998  1
  Cr  Cr71  1  0.57149168  0.63149509  0.65338998  1
  Cr  Cr72  1  0.42850832  0.36850391  0.34661002  1
  Cr  Cr73  1  0.42850832  0.13149609  0.34661002  1
  Cr  Cr74  1  0.34912067  0.41548464  0.93796274  1
  Cr  Cr75  1  0.34912067  0.08451536  0.93796274  1
  Cr  Cr76  1  0.15088033  0.91548364  0.43796274  1
  Cr  Cr77  1  0.15088033  0.58451536  0.43796274  1
  Cr  Cr78  1  0.07149068  0.86850391  0.84661002  1
  Cr  Cr79  1  0.07149068  0.63149509  0.84661002  1
