# generated using pymatgen
data_KAsF6
_symmetry_space_group_name_H-M   'P 1'
_cell_length_a   5.02721531
_cell_length_b   5.02721531
_cell_length_c   5.02721531
_cell_angle_alpha   97.90116549
_cell_angle_beta   97.90116556
_cell_angle_gamma   97.90116554
_symmetry_Int_Tables_number   1
_chemical_formula_structural   KAsF6
_chemical_formula_sum   'K1 As1 F6'
_cell_volume   123.05819339
_cell_formula_units_Z   1
loop_
 _symmetry_equiv_pos_site_id
 _symmetry_equiv_pos_as_xyz
  1  'x, y, z'
loop_
 _atom_site_type_symbol
 _atom_site_label
 _atom_site_symmetry_multiplicity
 _atom_site_fract_x
 _atom_site_fract_y
 _atom_site_fract_z
 _atom_site_occupancy
  F  F0  1  0.77173371  0.07743860  0.72994045  1
  F  F1  1  0.07743860  0.72994045  0.77173371  1
  F  F2  1  0.27005955  0.22826629  0.92256140  1
  F  F3  1  0.92256140  0.27005955  0.22826629  1
  F  F4  1  0.22826629  0.92256140  0.27005955  1
  F  F5  1  0.72994045  0.77173371  0.07743860  1
  K  K6  1  0.50000000  0.50000000  0.50000000  1
  As  As7  1  0.00000000  0.00000000  0.00000000  1
