# generated using pymatgen
data_P(WO4)2
_symmetry_space_group_name_H-M   'P 1'
_cell_length_a   5.38998844
_cell_length_b   6.76247717
_cell_length_c   17.81470215
_cell_angle_alpha   90.00000000
_cell_angle_beta   90.00000000
_cell_angle_gamma   90.00000000
_symmetry_Int_Tables_number   1
_chemical_formula_structural   P(WO4)2
_chemical_formula_sum   'P4 W8 O32'
_cell_volume   649.34008171
_cell_formula_units_Z   4
loop_
 _symmetry_equiv_pos_site_id
 _symmetry_equiv_pos_as_xyz
  1  'x, y, z'
loop_
 _atom_site_type_symbol
 _atom_site_label
 _atom_site_symmetry_multiplicity
 _atom_site_fract_x
 _atom_site_fract_y
 _atom_site_fract_z
 _atom_site_occupancy
  O  O0  1  0.24604814  0.59308528  0.95686088  1
  O  O1  1  0.74604814  0.90691672  0.04313912  1
  O  O2  1  0.75395186  0.09308428  0.54313812  1
  O  O3  1  0.25395286  0.40691572  0.45686088  1
  O  O4  1  0.49105864  0.55823996  0.82183716  1
  O  O5  1  0.99105864  0.94176004  0.17816284  1
  O  O6  1  0.50894136  0.05823996  0.67816284  1
  O  O7  1  0.00894036  0.44176104  0.32183716  1
  O  O8  1  0.96058298  0.58333116  0.83010876  1
  O  O9  1  0.46058398  0.91666884  0.16989124  1
  O  O10  1  0.03941702  0.08333216  0.66989124  1
  O  O11  1  0.53941602  0.41666884  0.33010876  1
  O  O12  1  0.98880898  0.26422530  0.00399087  1
  O  O13  1  0.48880798  0.23577570  0.99600913  1
  O  O14  1  0.01119102  0.76422430  0.49600913  1
  O  O15  1  0.51119202  0.73577570  0.50398987  1
  O  O16  1  0.24448763  0.23974645  0.14050668  1
  O  O17  1  0.74448863  0.26025255  0.85949332  1
  O  O18  1  0.75551237  0.73974745  0.35949332  1
  O  O19  1  0.25551337  0.76025355  0.64050568  1
  O  O20  1  0.26265593  0.11363004  0.27154136  1
  O  O21  1  0.76265593  0.38637096  0.72845864  1
  O  O22  1  0.00916174  0.92985206  0.90893488  1
  O  O23  1  0.23734307  0.88636996  0.77154236  1
  O  O24  1  0.99598260  0.09570431  0.40146477  1
  O  O25  1  0.49598160  0.40429669  0.59853523  1
  O  O26  1  0.00401740  0.59570331  0.09853523  1
  O  O27  1  0.50401840  0.90429669  0.90146477  1
  O  O28  1  0.49083726  0.07014794  0.40893488  1
  O  O29  1  0.99083826  0.42985106  0.59106612  1
  O  O30  1  0.50916174  0.57014794  0.09106512  1
  O  O31  1  0.73734407  0.61363004  0.22845864  1
  P  P32  1  0.26060080  0.94708632  0.68869308  1
  P  P33  1  0.76060180  0.55291368  0.31130692  1
  P  P34  1  0.73939920  0.44708632  0.81130592  1
  P  P35  1  0.23939820  0.05291268  0.18869308  1
  W  W36  1  0.75464849  0.24719216  0.62858076  1
  W  W37  1  0.74535051  0.75280884  0.12858076  1
  W  W38  1  0.24535151  0.74719116  0.87141924  1
  W  W39  1  0.25464949  0.25280784  0.37141924  1
  W  W40  1  0.25773377  0.58875754  0.54645273  1
  W  W41  1  0.75773277  0.91124246  0.45354727  1
  W  W42  1  0.74226523  0.08875654  0.95354727  1
  W  W43  1  0.24226723  0.41124346  0.04645273  1
