# generated using pymatgen
data_Li4Fe3Cu2Sb3O16
_symmetry_space_group_name_H-M   'P 1'
_cell_length_a   6.12024685
_cell_length_b   6.14169656
_cell_length_c   9.94921887
_cell_angle_alpha   90.57009030
_cell_angle_beta   90.65731831
_cell_angle_gamma   120.27932354
_symmetry_Int_Tables_number   1
_chemical_formula_structural   Li4Fe3Cu2Sb3O16
_chemical_formula_sum   'Li4 Fe3 Cu2 Sb3 O16'
_cell_volume   322.88431168
_cell_formula_units_Z   1
loop_
 _symmetry_equiv_pos_site_id
 _symmetry_equiv_pos_as_xyz
  1  'x, y, z'
loop_
 _atom_site_type_symbol
 _atom_site_label
 _atom_site_symmetry_multiplicity
 _atom_site_fract_x
 _atom_site_fract_y
 _atom_site_fract_z
 _atom_site_occupancy
  Li  Li0  1  0.32655258  0.66472540  0.87681897  1
  Li  Li1  1  0.97435040  0.98043762  0.99154352  1
  Li  Li2  1  0.97896300  0.98742879  0.50280595  1
  Li  Li3  1  0.65832787  0.33322352  0.39651382  1
  Fe  Fe4  1  0.66620450  0.83401635  0.21753742  1
  Fe  Fe5  1  0.82939266  0.66181706  0.71568801  1
  Fe  Fe6  1  0.83122323  0.16871749  0.71566270  1
  Cu  Cu7  1  0.34026852  0.66794959  0.52962686  1
  Cu  Cu8  1  0.69679941  0.34926766  0.97863864  1
  Sb  Sb9  1  0.17458490  0.83380127  0.21445289  1
  Sb  Sb10  1  0.17387644  0.33975188  0.21381881  1
  Sb  Sb11  1  0.34007940  0.17104172  0.71678484  1
  O  O12  1  0.15946848  0.84663168  0.60350097  1
  O  O13  1  0.03134234  0.51658334  0.32764254  1
  O  O14  1  0.32774101  0.66264595  0.10013379  1
  O  O15  1  0.01285790  0.00637218  0.32008700  1
  O  O16  1  0.00707942  0.00424531  0.81342345  1
  O  O17  1  0.15722912  0.31020046  0.60412017  1
  O  O18  1  0.49067298  0.98115876  0.32094087  1
  O  O19  1  0.48740851  0.51435713  0.32298555  1
  O  O20  1  0.30918682  0.15310971  0.10092065  1
  O  O21  1  0.67820398  0.83990385  0.60740484  1
  O  O22  1  0.51178710  0.48441527  0.83233101  1
  O  O23  1  0.51496672  0.03637613  0.83539710  1
  O  O24  1  0.65758877  0.32810971  0.60345475  1
  O  O25  1  0.85136230  0.68614082  0.10540121  1
  O  O26  1  0.95888685  0.48126316  0.83501803  1
  O  O27  1  0.85359579  0.15660820  0.10518265  1
