# generated using pymatgen
data_Bi2B8O15
_symmetry_space_group_name_H-M   'P 1'
_cell_length_a   4.37567873
_cell_length_b   6.54707094
_cell_length_c   22.65578588
_cell_angle_alpha   90.00000000
_cell_angle_beta   90.00000000
_cell_angle_gamma   104.39436720
_symmetry_Int_Tables_number   1
_chemical_formula_structural   Bi2B8O15
_chemical_formula_sum   'Bi4 B16 O30'
_cell_volume   628.66528714
_cell_formula_units_Z   2
loop_
 _symmetry_equiv_pos_site_id
 _symmetry_equiv_pos_as_xyz
  1  'x, y, z'
loop_
 _atom_site_type_symbol
 _atom_site_label
 _atom_site_symmetry_multiplicity
 _atom_site_fract_x
 _atom_site_fract_y
 _atom_site_fract_z
 _atom_site_occupancy
  Bi  Bi0  1  0.18260762  0.33748608  0.35260478  1
  Bi  Bi1  1  0.81739238  0.66251392  0.85260478  1
  Bi  Bi2  1  0.38660965  0.09956485  0.21783169  1
  Bi  Bi3  1  0.61339035  0.90043515  0.71783169  1
  B  B4  1  0.55567087  0.42939150  0.01173189  1
  B  B5  1  0.44432913  0.57060850  0.51173189  1
  B  B6  1  0.52879237  0.77918050  0.03663234  1
  B  B7  1  0.47120763  0.22081950  0.53663234  1
  B  B8  1  0.31281872  0.49149915  0.10319402  1
  B  B9  1  0.68718128  0.50850085  0.60319402  1
  B  B10  1  0.14361056  0.51783528  0.21221583  1
  B  B11  1  0.85638944  0.48216472  0.71221583  1
  B  B12  1  0.71990907  0.73383360  0.21403141  1
  B  B13  1  0.28009093  0.26616640  0.71403141  1
  B  B14  1  0.57178942  0.08578057  0.85598861  1
  B  B15  1  0.42821058  0.91421943  0.35598861  1
  B  B16  1  0.14867995  0.30076382  0.85276207  1
  B  B17  1  0.85132005  0.69923618  0.35276207  1
  B  B18  1  0.60294410  0.08738389  0.96801191  1
  B  B19  1  0.39705590  0.91261611  0.46801191  1
  O  O20  1  0.64438405  0.64460832  1.00048490  1
  O  O21  1  0.35561595  0.35539168  0.50048490  1
  O  O22  1  0.38663791  0.35335698  0.06167056  1
  O  O23  1  0.61336209  0.64664302  0.56167056  1
  O  O24  1  0.37341708  0.70548563  0.08862783  1
  O  O25  1  0.62658292  0.29451437  0.58862783  1
  O  O26  1  0.18703033  0.41072068  0.15491644  1
  O  O27  1  0.81296967  0.58927932  0.65491644  1
  O  O28  1  0.82965810  0.55619902  0.21358208  1
  O  O29  1  0.17034190  0.44380098  0.71358208  1
  O  O30  1  0.16529044  0.35606369  0.25663294  1
  O  O31  1  0.83470956  0.64393631  0.75663294  1
  O  O32  1  0.88971830  0.93934882  0.20963026  1
  O  O33  1  0.11028170  0.06065118  0.70963026  1
  O  O34  1  0.39438470  0.71575078  0.21896656  1
  O  O35  1  0.60561530  0.28424922  0.71896656  1
  O  O36  1  0.82368159  0.28337143  0.84816499  1
  O  O37  1  0.17631841  0.71662857  0.34816499  1
  O  O38  1  0.31756243  0.50637967  0.85828968  1
  O  O39  1  0.68243757  0.49362033  0.35828968  1
  O  O40  1  0.60090508  0.92068807  0.81369963  1
  O  O41  1  0.39909492  0.07931193  0.31369963  1
  O  O42  1  0.25878021  0.12410707  0.85124050  1
  O  O43  1  0.74121979  0.87589293  0.35124050  1
  O  O44  1  0.60195489  0.98871382  0.91557417  1
  O  O45  1  0.39804511  0.01128618  0.41557417  1
  O  O46  1  0.64041278  0.30483582  0.96983269  1
  O  O47  1  0.35958722  0.69516418  0.46983269  1
  O  O48  1  0.56563764  0.98470378  0.02186122  1
  O  O49  1  0.43436236  0.01529622  0.52186122  1
