# generated using pymatgen
data_CaNb4O8
_symmetry_space_group_name_H-M   'P 1'
_cell_length_a   13.30091944
_cell_length_b   18.36836335
_cell_length_c   16.89993985
_cell_angle_alpha   23.06559501
_cell_angle_beta   38.17042174
_cell_angle_gamma   43.67017338
_symmetry_Int_Tables_number   1
_chemical_formula_structural   CaNb4O8
_chemical_formula_sum   'Ca6 Nb24 O48'
_cell_volume   999.71241874
_cell_formula_units_Z   6
loop_
 _symmetry_equiv_pos_site_id
 _symmetry_equiv_pos_as_xyz
  1  'x, y, z'
loop_
 _atom_site_type_symbol
 _atom_site_label
 _atom_site_symmetry_multiplicity
 _atom_site_fract_x
 _atom_site_fract_y
 _atom_site_fract_z
 _atom_site_occupancy
  Ca  Ca0  1  0.12844035  0.50000000  0.99976893  1
  Ca  Ca1  1  0.87283300  0.00000000  0.99977437  1
  Ca  Ca2  1  0.14084292  0.00000000  0.00011000  1
  Ca  Ca3  1  0.60915708  0.50000000  0.99989000  1
  Ca  Ca4  1  0.62155965  0.00000000  0.00023107  1
  Ca  Ca5  1  0.87716700  0.50000000  0.00022563  1
  Nb  Nb6  1  0.03256296  0.22927395  0.48974650  1
  Nb  Nb7  1  0.47061174  0.22938125  0.05167223  1
  Nb  Nb8  1  0.35184561  0.00000000  0.50005742  1
  Nb  Nb9  1  0.21864886  0.72463998  0.05549576  1
  Nb  Nb10  1  0.21864886  0.27536002  0.50477571  1
  Nb  Nb11  1  0.09883547  0.50000000  0.49989509  1
  Nb  Nb12  1  0.53135114  0.22463998  0.49522429  1
  Nb  Nb13  1  0.97093232  0.22474247  0.05553273  1
  Nb  Nb14  1  0.84742040  0.00000000  0.50006874  1
  Nb  Nb15  1  0.39815439  0.50000000  0.49994258  1
  Nb  Nb16  1  0.27938826  0.27061875  0.94832777  1
  Nb  Nb17  1  0.27938826  0.72938125  0.48956528  1
  Nb  Nb18  1  0.71743704  0.72927395  0.05170560  1
  Nb  Nb19  1  0.71743704  0.27072605  0.51025350  1
  Nb  Nb20  1  0.59588239  0.50000000  0.49993394  1
  Nb  Nb21  1  0.15411761  0.00000000  0.50006606  1
  Nb  Nb22  1  0.03256296  0.77072605  0.94829440  1
  Nb  Nb23  1  0.47061174  0.77061875  0.51043472  1
  Nb  Nb24  1  0.90257960  0.50000000  0.49993126  1
  Nb  Nb25  1  0.77906768  0.27525753  0.94446727  1
  Nb  Nb26  1  0.77906768  0.72474247  0.49498233  1
  Nb  Nb27  1  0.65116453  0.00000000  0.50010491  1
  Nb  Nb28  1  0.53135114  0.77536002  0.94450424  1
  Nb  Nb29  1  0.97093232  0.77525753  0.50501767  1
  O  O30  1  0.07739606  0.00000000  0.17013465  1
  O  O31  1  0.01958851  0.19866200  0.17018862  1
  O  O32  1  0.33604488  0.00000000  0.16789477  1
  O  O33  1  0.24639309  0.19905201  0.16910419  1
  O  O34  1  0.07763469  0.50000000  0.16801129  1
  O  O35  1  0.58368710  0.00000000  0.16578559  1
  O  O36  1  0.99302943  0.69866940  0.17001379  1
  O  O37  1  0.24820096  0.18858310  0.45080855  1
  O  O38  1  0.52708278  0.18866291  0.17213409  1
  O  O39  1  0.33222762  0.50000000  0.16999817  1
  O  O40  1  0.84495137  0.00000000  0.15686262  1
  O  O41  1  0.47931192  0.19676046  0.43701333  1
  O  O42  1  0.74717611  0.19675909  0.16940016  1
  O  O43  1  0.27068808  0.30323954  0.56298667  1
  O  O44  1  0.27068808  0.69676046  0.16946576  1
  O  O45  1  0.59105636  0.50000000  0.15689436  1
  O  O46  1  0.22291722  0.31133709  0.82786591  1
  O  O47  1  0.22291722  0.68866291  0.45054010  1
  O  O48  1  0.50179904  0.31141690  0.54919145  1
  O  O49  1  0.50179904  0.68858310  0.17202524  1
  O  O50  1  0.01958851  0.80133800  0.56751262  1
  O  O51  1  0.75697057  0.19866940  0.43264741  1
  O  O52  1  0.16631290  0.50000000  0.83421441  1
  O  O53  1  0.83493195  0.50000000  0.16566738  1
  O  O54  1  0.24639309  0.80094799  0.56720820  1
  O  O55  1  0.98246477  0.19899400  0.43277842  1
  O  O56  1  0.50360691  0.30094799  0.83089581  1
  O  O57  1  0.50360691  0.69905201  0.43279180  1
  O  O58  1  0.76753523  0.30100600  0.56722158  1
  O  O59  1  0.76753523  0.69899400  0.16923358  1
  O  O60  1  0.41395512  0.50000000  0.83210523  1
  O  O61  1  0.73041149  0.30133800  0.82981138  1
  O  O62  1  0.73041149  0.69866200  0.43248738  1
  O  O63  1  0.24820096  0.81141690  0.82797476  1
  O  O64  1  0.99302943  0.30133060  0.56735259  1
  O  O65  1  0.52708278  0.81133709  0.54945990  1
  O  O66  1  0.15894364  0.00000000  0.84310564  1
  O  O67  1  0.67260394  0.50000000  0.82986535  1
  O  O68  1  0.47931192  0.80323954  0.83053424  1
  O  O69  1  0.74717611  0.80324091  0.56291834  1
  O  O70  1  0.00282389  0.30324091  0.83059984  1
  O  O71  1  0.00282389  0.69675909  0.43708166  1
  O  O72  1  0.41777238  0.00000000  0.83000183  1
  O  O73  1  0.90504863  0.50000000  0.84313738  1
  O  O74  1  0.75697057  0.80133060  0.82998621  1
  O  O75  1  0.67236531  0.00000000  0.83198871  1
  O  O76  1  0.98246477  0.80100600  0.83076642  1
  O  O77  1  0.91506805  0.00000000  0.83433262  1
