# generated using pymatgen
data_Nb3As
_symmetry_space_group_name_H-M   'P 1'
_cell_length_a   5.24186009
_cell_length_b   10.37562723
_cell_length_c   10.37562723
_cell_angle_alpha   90.00000000
_cell_angle_beta   90.00000000
_cell_angle_gamma   90.00000000
_symmetry_Int_Tables_number   1
_chemical_formula_structural   Nb3As
_chemical_formula_sum   'Nb24 As8'
_cell_volume   564.30532124
_cell_formula_units_Z   8
loop_
 _symmetry_equiv_pos_site_id
 _symmetry_equiv_pos_as_xyz
  1  'x, y, z'
loop_
 _atom_site_type_symbol
 _atom_site_label
 _atom_site_symmetry_multiplicity
 _atom_site_fract_x
 _atom_site_fract_y
 _atom_site_fract_z
 _atom_site_occupancy
  Nb  Nb0  1  0.72749372  0.16550950  0.65591815  1
  Nb  Nb1  1  0.22749372  0.34408185  0.66550950  1
  Nb  Nb2  1  0.22749372  0.15591815  0.83449050  1
  Nb  Nb3  1  0.72749372  0.33449050  0.84408185  1
  Nb  Nb4  1  0.27250628  0.83449050  0.34408185  1
  Nb  Nb5  1  0.77250628  0.65591815  0.33449050  1
  Nb  Nb6  1  0.77250628  0.84408185  0.16550950  1
  Nb  Nb7  1  0.27250628  0.66550950  0.15591815  1
  Nb  Nb8  1  0.51806537  0.10119306  0.26149320  1
  Nb  Nb9  1  0.01806537  0.73850680  0.60119306  1
  Nb  Nb10  1  0.01806537  0.76149320  0.89880694  1
  Nb  Nb11  1  0.51806537  0.39880694  0.23850680  1
  Nb  Nb12  1  0.48193463  0.89880694  0.73850680  1
  Nb  Nb13  1  0.98193463  0.26149320  0.39880694  1
  Nb  Nb14  1  0.98193463  0.23850680  0.10119306  1
  Nb  Nb15  1  0.48193463  0.60119306  0.76149320  1
  Nb  Nb16  1  0.24098653  0.05605036  0.53655449  1
  Nb  Nb17  1  0.74098653  0.46344551  0.55605036  1
  Nb  Nb18  1  0.74098653  0.03655449  0.94394964  1
  Nb  Nb19  1  0.24098653  0.44394964  0.96344551  1
  Nb  Nb20  1  0.75901347  0.94394964  0.46344551  1
  Nb  Nb21  1  0.25901347  0.53655449  0.44394964  1
  Nb  Nb22  1  0.25901347  0.96344551  0.05605036  1
  Nb  Nb23  1  0.75901347  0.55605036  0.03655449  1
  As  As24  1  0.01989237  0.04335653  0.27123680  1
  As  As25  1  0.51989237  0.72876320  0.54335653  1
  As  As26  1  0.51989237  0.77123680  0.95664347  1
  As  As27  1  0.01989237  0.45664347  0.22876320  1
  As  As28  1  0.98010763  0.95664347  0.72876320  1
  As  As29  1  0.48010763  0.27123680  0.45664347  1
  As  As30  1  0.48010763  0.22876320  0.04335653  1
  As  As31  1  0.98010763  0.54335653  0.77123680  1
