# generated using pymatgen
data_Pb2CCl2O3
_symmetry_space_group_name_H-M   'P 1'
_cell_length_a   8.26758051
_cell_length_b   8.26758051
_cell_length_c   9.02824226
_cell_angle_alpha   90.00000000
_cell_angle_beta   90.00000000
_cell_angle_gamma   90.00000000
_symmetry_Int_Tables_number   1
_chemical_formula_structural   Pb2CCl2O3
_chemical_formula_sum   'Pb8 C4 Cl8 O12'
_cell_volume   617.10642742
_cell_formula_units_Z   4
loop_
 _symmetry_equiv_pos_site_id
 _symmetry_equiv_pos_as_xyz
  1  'x, y, z'
loop_
 _atom_site_type_symbol
 _atom_site_label
 _atom_site_symmetry_multiplicity
 _atom_site_fract_x
 _atom_site_fract_y
 _atom_site_fract_z
 _atom_site_occupancy
  Pb  Pb0  1  0.16726278  0.66726278  0.25888456  1
  Pb  Pb1  1  0.33273722  0.16726278  0.25888456  1
  Pb  Pb2  1  0.66726278  0.83273722  0.25888456  1
  Pb  Pb3  1  0.66726278  0.83273722  0.74111544  1
  Pb  Pb4  1  0.33273722  0.16726278  0.74111544  1
  Pb  Pb5  1  0.83273722  0.33273722  0.25888456  1
  Pb  Pb6  1  0.16726278  0.66726278  0.74111544  1
  Pb  Pb7  1  0.83273722  0.33273722  0.74111544  1
  Cl  Cl8  1  0.00000000  0.00000000  0.24489404  1
  Cl  Cl9  1  0.50000000  0.50000000  0.75510596  1
  Cl  Cl10  1  0.00000000  0.00000000  0.75510596  1
  Cl  Cl11  1  0.50000000  0.50000000  0.24489404  1
  Cl  Cl12  1  0.35231520  0.85231520  0.50000000  1
  Cl  Cl13  1  0.14768480  0.35231520  0.50000000  1
  Cl  Cl14  1  0.85231520  0.64768480  0.50000000  1
  Cl  Cl15  1  0.64768480  0.14768480  0.50000000  1
  O  O16  1  0.21072108  0.71072108  0.00000000  1
  O  O17  1  0.28927892  0.21072108  0.00000000  1
  O  O18  1  0.71072108  0.78927892  0.00000000  1
  O  O19  1  0.78927892  0.28927892  0.00000000  1
  O  O20  1  0.37297719  0.87297719  0.12781278  1
  O  O21  1  0.12702281  0.37297719  0.12781278  1
  O  O22  1  0.87297719  0.62702281  0.12781278  1
  O  O23  1  0.87297719  0.62702281  0.87218722  1
  O  O24  1  0.12702281  0.37297719  0.87218722  1
  O  O25  1  0.62702281  0.12702281  0.12781278  1
  O  O26  1  0.37297719  0.87297719  0.87218722  1
  O  O27  1  0.62702281  0.12702281  0.87218722  1
  C  C28  1  0.32323896  0.82323896  0.00000000  1
  C  C29  1  0.17676104  0.32323896  0.00000000  1
  C  C30  1  0.82323896  0.67676104  0.00000000  1
  C  C31  1  0.67676104  0.17676104  0.00000000  1
