# generated using pymatgen
data_NaVBP2H3O10
_symmetry_space_group_name_H-M   'P 1'
_cell_length_a   6.73043868
_cell_length_b   6.73043789
_cell_length_c   9.28061235
_cell_angle_alpha   69.99879458
_cell_angle_beta   69.99879714
_cell_angle_gamma   77.19427121
_symmetry_Int_Tables_number   1
_chemical_formula_structural   NaVBP2H3O10
_chemical_formula_sum   'Na2 V2 B2 P4 H6 O20'
_cell_volume   368.60090044
_cell_formula_units_Z   2
loop_
 _symmetry_equiv_pos_site_id
 _symmetry_equiv_pos_as_xyz
  1  'x, y, z'
loop_
 _atom_site_type_symbol
 _atom_site_label
 _atom_site_symmetry_multiplicity
 _atom_site_fract_x
 _atom_site_fract_y
 _atom_site_fract_z
 _atom_site_occupancy
  V  V0  1  0.50000000  0.00000000  0.00000000  1
  V  V1  1  0.00000000  0.50000000  0.50000000  1
  P  P2  1  0.34537295  0.20829192  0.67681791  1
  P  P3  1  0.79170808  0.65462705  0.82318209  1
  P  P4  1  0.65462705  0.79170808  0.32318209  1
  P  P5  1  0.20829192  0.34537295  0.17681791  1
  O  O6  1  0.81501954  0.06662782  0.89830826  1
  O  O7  1  0.93337218  0.18498046  0.60169174  1
  O  O8  1  0.18498046  0.93337218  0.10169174  1
  O  O9  1  0.06662782  0.81501954  0.39830826  1
  O  O10  1  0.42946567  0.22084603  0.80746616  1
  O  O11  1  0.77915397  0.57053433  0.69253384  1
  O  O12  1  0.57053433  0.77915397  0.19253384  1
  O  O13  1  0.22084603  0.42946567  0.30746616  1
  O  O14  1  0.19001040  0.03185901  0.75016594  1
  O  O15  1  0.96814099  0.80998960  0.74983406  1
  O  O16  1  0.80998960  0.96814099  0.24983406  1
  O  O17  1  0.03185901  0.19001040  0.25016594  1
  O  O18  1  0.57147969  0.77014884  0.88812831  1
  O  O19  1  0.22985116  0.42852031  0.61187169  1
  O  O20  1  0.42852031  0.22985116  0.11187169  1
  O  O21  1  0.77014884  0.57147969  0.38812831  1
  O  O22  1  0.53326690  0.13809410  0.54247287  1
  O  O23  1  0.86190590  0.46673310  0.95752713  1
  O  O24  1  0.46673310  0.86190590  0.45752713  1
  O  O25  1  0.13809410  0.53326690  0.04247287  1
  B  B26  1  0.97238264  0.02761736  0.75000000  1
  B  B27  1  0.02761736  0.97238264  0.25000000  1
  Na  Na28  1  0.63019918  0.36980082  0.25000000  1
  Na  Na29  1  0.36980082  0.63019918  0.75000000  1
  H  H30  1  0.84048905  0.18734306  0.92407369  1
  H  H31  1  0.81265694  0.15951095  0.57592631  1
  H  H32  1  0.15951095  0.81265694  0.07592631  1
  H  H33  1  0.18734306  0.84048905  0.42407369  1
  H  H34  1  0.50000000  0.00000000  0.50000000  1
  H  H35  1  0.00000000  0.50000000  0.00000000  1
