# generated using pymatgen
data_K2SeO4
_symmetry_space_group_name_H-M   'P 1'
_cell_length_a   6.16892963
_cell_length_b   7.82292500
_cell_length_c   10.62672740
_cell_angle_alpha   90.00000000
_cell_angle_beta   90.00000000
_cell_angle_gamma   90.00000000
_symmetry_Int_Tables_number   1
_chemical_formula_structural   K2SeO4
_chemical_formula_sum   'K8 Se4 O16'
_cell_volume   512.83602212
_cell_formula_units_Z   4
loop_
 _symmetry_equiv_pos_site_id
 _symmetry_equiv_pos_as_xyz
  1  'x, y, z'
loop_
 _atom_site_type_symbol
 _atom_site_label
 _atom_site_symmetry_multiplicity
 _atom_site_fract_x
 _atom_site_fract_y
 _atom_site_fract_z
 _atom_site_occupancy
  O  O0  1  0.25000000  0.49066500  0.06068710  1
  O  O1  1  0.75000000  0.50933500  0.93931290  1
  O  O2  1  0.25000000  0.99066500  0.43931290  1
  O  O3  1  0.75000000  0.00933500  0.56068710  1
  O  O4  1  0.25000000  0.17306199  0.94953127  1
  O  O5  1  0.75000000  0.82693801  0.05046873  1
  O  O6  1  0.25000000  0.67306199  0.55046873  1
  O  O7  1  0.75000000  0.32693801  0.44953127  1
  O  O8  1  0.97218016  0.77469267  0.83140255  1
  O  O9  1  0.47218016  0.22530733  0.16859745  1
  O  O10  1  0.52781984  0.27469267  0.66859745  1
  O  O11  1  0.02781984  0.72530733  0.33140255  1
  O  O12  1  0.97218016  0.27469267  0.66859745  1
  O  O13  1  0.47218016  0.72530733  0.33140255  1
  O  O14  1  0.52781984  0.77469267  0.83140255  1
  O  O15  1  0.02781984  0.22530733  0.16859745  1
  K  K16  1  0.25000000  0.49214340  0.79313601  1
  K  K17  1  0.75000000  0.50785660  0.20686399  1
  K  K18  1  0.25000000  0.99214340  0.70686399  1
  K  K19  1  0.75000000  0.00785660  0.29313601  1
  K  K20  1  0.25000000  0.32768106  0.42643064  1
  K  K21  1  0.75000000  0.67231894  0.57356936  1
  K  K22  1  0.25000000  0.82768106  0.07356936  1
  K  K23  1  0.75000000  0.17231894  0.92643064  1
  Se  Se24  1  0.25000000  0.28082091  0.08698479  1
  Se  Se25  1  0.75000000  0.71917909  0.91301521  1
  Se  Se26  1  0.25000000  0.78082091  0.41301521  1
  Se  Se27  1  0.75000000  0.21917909  0.58698479  1
