# generated using pymatgen
data_TiSO5
_symmetry_space_group_name_H-M   'P 1'
_cell_length_a   5.30859671
_cell_length_b   6.65382223
_cell_length_c   11.20260296
_cell_angle_alpha   90.00000000
_cell_angle_beta   90.00000000
_cell_angle_gamma   90.00000000
_symmetry_Int_Tables_number   1
_chemical_formula_structural   TiSO5
_chemical_formula_sum   'Ti4 S4 O20'
_cell_volume   395.70348150
_cell_formula_units_Z   4
loop_
 _symmetry_equiv_pos_site_id
 _symmetry_equiv_pos_as_xyz
  1  'x, y, z'
loop_
 _atom_site_type_symbol
 _atom_site_label
 _atom_site_symmetry_multiplicity
 _atom_site_fract_x
 _atom_site_fract_y
 _atom_site_fract_z
 _atom_site_occupancy
  Ti  Ti0  1  0.25000000  0.84291716  0.05604422  1
  Ti  Ti1  1  0.75000000  0.34291716  0.44395578  1
  Ti  Ti2  1  0.25000000  0.65708284  0.55604422  1
  Ti  Ti3  1  0.75000000  0.15708284  0.94395578  1
  S  S4  1  0.25000000  0.47558350  0.84409317  1
  S  S5  1  0.75000000  0.52441650  0.15590683  1
  S  S6  1  0.75000000  0.97558350  0.65590683  1
  S  S7  1  0.25000000  0.02441650  0.34409317  1
  O  O8  1  0.25000000  0.67006895  0.90997856  1
  O  O9  1  0.50000000  0.50000000  0.50000000  1
  O  O10  1  0.25000000  0.97561564  0.21460462  1
  O  O11  1  0.25000000  0.82993105  0.40997856  1
  O  O12  1  0.01973896  0.36295512  0.87154858  1
  O  O13  1  0.48026104  0.13704488  0.37154858  1
  O  O14  1  0.98026104  0.63704488  0.12845142  1
  O  O15  1  0.75000000  0.32993105  0.09002144  1
  O  O16  1  0.51973896  0.63704488  0.12845142  1
  O  O17  1  0.75000000  0.02438436  0.78539538  1
  O  O18  1  0.00000000  0.00000000  0.00000000  1
  O  O19  1  0.75000000  0.47561564  0.28539538  1
  O  O20  1  0.75000000  0.17006895  0.59002144  1
  O  O21  1  0.51973896  0.86295512  0.62845142  1
  O  O22  1  0.01973896  0.13704488  0.37154858  1
  O  O23  1  0.98026104  0.86295512  0.62845142  1
  O  O24  1  0.48026104  0.36295512  0.87154858  1
  O  O25  1  0.50000000  0.00000000  0.00000000  1
  O  O26  1  0.00000000  0.50000000  0.50000000  1
  O  O27  1  0.25000000  0.52438436  0.71460462  1
