# generated using pymatgen
data_K2FeH12(SO7)2
_symmetry_space_group_name_H-M   'P 1'
_cell_length_a   6.25149690
_cell_length_b   9.09783174
_cell_length_c   12.44811410
_cell_angle_alpha   90.00000000
_cell_angle_beta   90.00000000
_cell_angle_gamma   103.98523319
_symmetry_Int_Tables_number   1
_chemical_formula_structural   K2FeH12(SO7)2
_chemical_formula_sum   'K4 Fe2 H24 S4 O28'
_cell_volume   687.00119440
_cell_formula_units_Z   2
loop_
 _symmetry_equiv_pos_site_id
 _symmetry_equiv_pos_as_xyz
  1  'x, y, z'
loop_
 _atom_site_type_symbol
 _atom_site_label
 _atom_site_symmetry_multiplicity
 _atom_site_fract_x
 _atom_site_fract_y
 _atom_site_fract_z
 _atom_site_occupancy
  K  K0  1  0.34534718  0.63512562  0.15408914  1
  K  K1  1  0.65465282  0.36487438  0.84591086  1
  K  K2  1  0.34534718  0.13512562  0.34591086  1
  K  K3  1  0.65465282  0.86487438  0.65408914  1
  Fe  Fe4  1  0.00000000  0.00000000  0.00000000  1
  Fe  Fe5  1  0.00000000  0.50000000  0.50000000  1
  H  H6  1  0.32837880  0.22288635  0.09041629  1
  H  H7  1  1.00183484  0.14590779  0.80722724  1
  H  H8  1  0.07287343  0.77456394  0.60480755  1
  H  H9  1  0.90356438  0.24624455  0.62532099  1
  H  H10  1  0.09643562  0.25375545  0.12532099  1
  H  H11  1  0.67162120  0.27711365  0.59041629  1
  H  H12  1  0.34091522  0.39558293  0.56338196  1
  H  H13  1  0.65908478  0.10441707  0.06338196  1
  H  H14  1  0.32837880  0.72288635  0.40958371  1
  H  H15  1  -0.00183484  0.35409221  0.30722724  1
  H  H16  1  0.65908478  0.60441707  0.43661804  1
  H  H17  1  0.34091522  0.89558293  0.93661804  1
  H  H18  1  0.33259970  0.52809783  0.64617261  1
  H  H19  1  0.92712657  0.72543606  0.10480755  1
  H  H20  1  0.33259970  0.02809783  0.85382739  1
  H  H21  1  0.09643562  0.75375545  0.37467901  1
  H  H22  1  0.92712657  0.22543606  0.39519245  1
  H  H23  1  0.07287343  0.27456394  0.89519245  1
  H  H24  1  1.00183484  0.64590779  0.69277276  1
  H  H25  1  0.67162120  0.77711365  0.90958371  1
  H  H26  1  0.90356438  0.74624455  0.87467901  1
  H  H27  1  -0.00183484  0.85409221  0.19277276  1
  H  H28  1  0.66740030  0.97190217  0.14617261  1
  H  H29  1  0.66740030  0.47190217  0.35382739  1
  S  S30  1  0.72712719  0.91038779  0.36236199  1
  S  S31  1  0.27287281  0.58961221  0.86236199  1
  S  S32  1  0.27287281  0.08961221  0.63763801  1
  S  S33  1  0.72712719  0.41038779  0.13763801  1
  O  O34  1  0.38182047  0.71528327  0.93667951  1
  O  O35  1  0.94854826  0.89027769  0.32812834  1
  O  O36  1  0.03182405  0.82559254  0.11865554  1
  O  O37  1  0.30137310  0.49464455  0.57011158  1
  O  O38  1  0.75162912  0.55696022  0.08054894  1
  O  O39  1  0.94854826  0.39027769  0.17187166  1
  O  O40  1  0.41822884  0.59468186  0.76614788  1
  O  O41  1  0.96817595  0.17440746  0.88134446  1
  O  O42  1  0.82425682  0.82691769  0.88660195  1
  O  O43  1  0.61817953  0.78471673  0.43667951  1
  O  O44  1  0.61817953  0.28471673  0.06332049  1
  O  O45  1  0.58177116  0.90531814  0.26614788  1
  O  O46  1  0.05145174  0.60972231  0.82812834  1
  O  O47  1  0.58177116  0.40531814  0.23385212  1
  O  O48  1  0.24837088  0.44303978  0.91945106  1
  O  O49  1  0.82425682  0.32691769  0.61339805  1
  O  O50  1  0.41822884  0.09468186  0.73385212  1
  O  O51  1  0.03182405  0.32559254  0.38134446  1
  O  O52  1  0.17574318  0.67308231  0.38660195  1
  O  O53  1  0.96817595  0.67440746  0.61865554  1
  O  O54  1  0.69862690  0.50535545  0.42988842  1
  O  O55  1  0.17574318  0.17308231  0.11339805  1
  O  O56  1  0.24837088  0.94303978  0.58054894  1
  O  O57  1  0.75162912  0.05696022  0.41945106  1
  O  O58  1  0.30137310  0.99464455  0.92988842  1
  O  O59  1  0.69862690  0.00535545  0.07011158  1
  O  O60  1  0.05145174  0.10972231  0.67187166  1
  O  O61  1  0.38182047  0.21528327  0.56332049  1
