# generated using pymatgen
data_ZnS
_symmetry_space_group_name_H-M   'P 1'
_cell_length_a   3.85390216
_cell_length_b   3.85390206
_cell_length_c   75.56053901
_cell_angle_alpha   90.00000000
_cell_angle_beta   90.00000000
_cell_angle_gamma   120.00000085
_symmetry_Int_Tables_number   1
_chemical_formula_structural   ZnS
_chemical_formula_sum   'Zn24 S24'
_cell_volume   971.91220062
_cell_formula_units_Z   24
loop_
 _symmetry_equiv_pos_site_id
 _symmetry_equiv_pos_as_xyz
  1  'x, y, z'
loop_
 _atom_site_type_symbol
 _atom_site_label
 _atom_site_symmetry_multiplicity
 _atom_site_fract_x
 _atom_site_fract_y
 _atom_site_fract_z
 _atom_site_occupancy
  Zn  Zn0  1  0.66666700  0.33333300  0.70833354  1
  Zn  Zn1  1  0.33333300  0.66666700  0.66667185  1
  Zn  Zn2  1  0.66666700  0.33333300  0.33333346  1
  Zn  Zn3  1  0.33333300  0.66666700  0.29167191  1
  Zn  Zn4  1  0.00000000  0.00000000  0.37500156  1
  Zn  Zn5  1  0.66666700  0.33333300  0.08333328  1
  Zn  Zn6  1  0.66666700  0.33333300  0.58333347  1
  Zn  Zn7  1  0.66666700  0.33333300  0.20833350  1
  Zn  Zn8  1  0.33333300  0.66666700  0.54167186  1
  Zn  Zn9  1  0.00000000  0.00000000  0.75000148  1
  Zn  Zn10  1  0.33333300  0.66666700  0.04168079  1
  Zn  Zn11  1  0.66666700  0.33333300  0.45833352  1
  Zn  Zn12  1  0.00000000  0.00000000  0.12500169  1
  Zn  Zn13  1  0.33333300  0.66666700  0.16667187  1
  Zn  Zn14  1  0.33333300  0.66666700  0.41667195  1
  Zn  Zn15  1  0.00000000  0.00000000  0.50000153  1
  Zn  Zn16  1  0.00000000  0.00000000  0.62500150  1
  Zn  Zn17  1  0.66666700  0.33333300  0.83333016  1
  Zn  Zn18  1  0.33333300  0.66666700  0.79167188  1
  Zn  Zn19  1  0.33333300  0.66666700  0.95832994  1
  Zn  Zn20  1  0.00000000  0.00000000  0.87499838  1
  Zn  Zn21  1  0.66666700  0.33333300  0.91668084  1
  Zn  Zn22  1  0.00000000  0.00000000  0.99999856  1
  Zn  Zn23  1  0.00000000  0.00000000  0.25000160  1
  S  S24  1  0.33333300  0.66666700  0.19791595  1
  S  S25  1  0.66666700  0.33333300  0.86455601  1
  S  S26  1  0.00000000  0.00000000  0.40624811  1
  S  S27  1  0.66666700  0.33333300  0.61457886  1
  S  S28  1  0.00000000  0.00000000  0.53124813  1
  S  S29  1  0.33333300  0.66666700  0.44791587  1
  S  S30  1  0.33333300  0.66666700  0.98955583  1
  S  S31  1  0.66666700  0.33333300  0.73957879  1
  S  S32  1  0.00000000  0.00000000  0.03127108  1
  S  S33  1  0.33333300  0.66666700  0.82291556  1
  S  S34  1  0.00000000  0.00000000  0.78124839  1
  S  S35  1  0.66666700  0.33333300  0.94791453  1
  S  S36  1  0.00000000  0.00000000  0.15624818  1
  S  S37  1  0.33333300  0.66666700  0.69791572  1
  S  S38  1  0.66666700  0.33333300  0.48957888  1
  S  S39  1  0.00000000  0.00000000  0.65624822  1
  S  S40  1  0.00000000  0.00000000  0.28124810  1
  S  S41  1  0.66666700  0.33333300  0.36457887  1
  S  S42  1  0.33333300  0.66666700  0.57291576  1
  S  S43  1  0.33333300  0.66666700  0.07291475  1
  S  S44  1  0.66666700  0.33333300  0.11457848  1
  S  S45  1  0.66666700  0.33333300  0.23957878  1
  S  S46  1  0.33333300  0.66666700  0.32291590  1
  S  S47  1  0.00000000  0.00000000  0.90627115  1
