# generated using pymatgen
data_ZnS
_symmetry_space_group_name_H-M   'P 1'
_cell_length_a   3.85312196
_cell_length_b   3.85312186
_cell_length_c   88.12965815
_cell_angle_alpha   90.00000000
_cell_angle_beta   90.00000000
_cell_angle_gamma   120.00000090
_symmetry_Int_Tables_number   1
_chemical_formula_structural   ZnS
_chemical_formula_sum   'Zn28 S28'
_cell_volume   1133.12602084
_cell_formula_units_Z   28
loop_
 _symmetry_equiv_pos_site_id
 _symmetry_equiv_pos_as_xyz
  1  'x, y, z'
loop_
 _atom_site_type_symbol
 _atom_site_label
 _atom_site_symmetry_multiplicity
 _atom_site_fract_x
 _atom_site_fract_y
 _atom_site_fract_z
 _atom_site_occupancy
  Zn  Zn0  1  0.66666700  0.33333300  0.07143071  1
  Zn  Zn1  1  0.00000000  0.00000000  0.32143063  1
  Zn  Zn2  1  0.00000000  0.00000000  0.21429087  1
  Zn  Zn3  1  0.33333300  0.66666700  0.14286090  1
  Zn  Zn4  1  0.33333300  0.66666700  0.35714332  1
  Zn  Zn5  1  0.66666700  0.33333300  0.39286074  1
  Zn  Zn6  1  0.33333300  0.66666700  0.46429094  1
  Zn  Zn7  1  0.66666700  0.33333300  0.82142787  1
  Zn  Zn8  1  0.00000000  0.00000000  0.64286046  1
  Zn  Zn9  1  0.33333300  0.66666700  0.57143100  1
  Zn  Zn10  1  0.33333300  0.66666700  0.78571459  1
  Zn  Zn11  1  0.00000000  0.00000000  0.53571388  1
  Zn  Zn12  1  0.33333300  0.66666700  0.85714744  1
  Zn  Zn13  1  0.00000000  0.00000000  0.89286044  1
  Zn  Zn14  1  0.66666700  0.33333300  0.28571438  1
  Zn  Zn15  1  0.66666700  0.33333300  0.60714302  1
  Zn  Zn16  1  0.33333300  0.66666700  0.67857334  1
  Zn  Zn17  1  0.66666700  0.33333300  0.71429077  1
  Zn  Zn18  1  0.00000000  0.00000000  0.10714286  1
  Zn  Zn19  1  0.66666700  0.33333300  0.92857325  1
  Zn  Zn20  1  0.33333300  0.66666700  0.03571893  1
  Zn  Zn21  1  0.66666700  0.33333300  0.17857309  1
  Zn  Zn22  1  0.00000000  0.00000000  0.99999993  1
  Zn  Zn23  1  0.66666700  0.33333300  0.50000296  1
  Zn  Zn24  1  0.33333300  0.66666700  0.96429079  1
  Zn  Zn25  1  0.00000000  0.00000000  0.42857285  1
  Zn  Zn26  1  0.33333300  0.66666700  0.25000322  1
  Zn  Zn27  1  0.00000000  0.00000000  0.75000276  1
  S  S28  1  0.66666700  0.33333300  0.20535654  1
  S  S29  1  0.00000000  0.00000000  0.34820957  1
  S  S30  1  0.33333300  0.66666700  0.81248277  1
  S  S31  1  0.33333300  0.66666700  0.99105520  1
  S  S32  1  0.00000000  0.00000000  0.45535654  1
  S  S33  1  0.00000000  0.00000000  0.02680016  1
  S  S34  1  0.66666700  0.33333300  0.63392670  1
  S  S35  1  0.66666700  0.33333300  0.84822318  1
  S  S36  1  0.00000000  0.00000000  0.91963953  1
  S  S37  1  0.66666700  0.33333300  0.41963965  1
  S  S38  1  0.66666700  0.33333300  0.09820828  1
  S  S39  1  0.00000000  0.00000000  0.13392676  1
  S  S40  1  0.66666700  0.33333300  0.31249708  1
  S  S41  1  0.33333300  0.66666700  0.88392494  1
  S  S42  1  0.66666700  0.33333300  0.52678662  1
  S  S43  1  0.33333300  0.66666700  0.38392672  1
  S  S44  1  0.00000000  0.00000000  0.66963947  1
  S  S45  1  0.00000000  0.00000000  0.77678521  1
  S  S46  1  0.33333300  0.66666700  0.59820833  1
  S  S47  1  0.00000000  0.00000000  0.24106950  1
  S  S48  1  0.66666700  0.33333300  0.74106948  1
  S  S49  1  0.66666700  0.33333300  0.95535688  1
  S  S50  1  0.33333300  0.66666700  0.70535636  1
  S  S51  1  0.33333300  0.66666700  0.27678664  1
  S  S52  1  0.33333300  0.66666700  0.06249567  1
  S  S53  1  0.33333300  0.66666700  0.49106961  1
  S  S54  1  0.00000000  0.00000000  0.56249693  1
  S  S55  1  0.33333300  0.66666700  0.16963976  1
