# generated using pymatgen
data_Ba2LaRuO6
_symmetry_space_group_name_H-M   'P 1'
_cell_length_a   6.10096128
_cell_length_b   6.11083762
_cell_length_c   6.15128764
_cell_angle_alpha   120.52812708
_cell_angle_beta   119.89381673
_cell_angle_gamma   89.85842751
_symmetry_Int_Tables_number   1
_chemical_formula_structural   Ba2LaRuO6
_chemical_formula_sum   'Ba2 La1 Ru1 O6'
_cell_volume   161.32074989
_cell_formula_units_Z   1
loop_
 _symmetry_equiv_pos_site_id
 _symmetry_equiv_pos_as_xyz
  1  'x, y, z'
loop_
 _atom_site_type_symbol
 _atom_site_label
 _atom_site_symmetry_multiplicity
 _atom_site_fract_x
 _atom_site_fract_y
 _atom_site_fract_z
 _atom_site_occupancy
  Ba  Ba0  1  0.25042514  0.24811042  0.00245994  1
  Ba  Ba1  1  0.74957486  0.75188958  0.99754006  1
  La  La2  1  0.50000000  0.00000000  0.50000000  1
  Ru  Ru3  1  0.00000000  0.50000000  0.50000000  1
  O  O4  1  0.78033006  0.73499092  0.45669126  1
  O  O5  1  0.21966994  0.26500908  0.54330874  1
  O  O6  1  0.20182370  0.75234870  0.95764165  1
  O  O7  1  0.79817630  0.24765130  0.04235835  1
  O  O8  1  0.73584074  0.29398112  0.48626935  1
  O  O9  1  0.26415926  0.70601888  0.51373065  1
