# generated using pymatgen
data_CaCr2O4
_symmetry_space_group_name_H-M   'P 1'
_cell_length_a   5.18773842
_cell_length_b   5.98023048
_cell_length_c   11.11284006
_cell_angle_alpha   90.00000000
_cell_angle_beta   90.00000000
_cell_angle_gamma   90.00000000
_symmetry_Int_Tables_number   1
_chemical_formula_structural   CaCr2O4
_chemical_formula_sum   'Ca4 Cr8 O16'
_cell_volume   344.76332115
_cell_formula_units_Z   4
loop_
 _symmetry_equiv_pos_site_id
 _symmetry_equiv_pos_as_xyz
  1  'x, y, z'
loop_
 _atom_site_type_symbol
 _atom_site_label
 _atom_site_symmetry_multiplicity
 _atom_site_fract_x
 _atom_site_fract_y
 _atom_site_fract_z
 _atom_site_occupancy
  Ca  Ca0  1  0.85626277  0.25000000  0.75000000  1
  Ca  Ca1  1  0.14373823  0.75000000  0.25000000  1
  Ca  Ca2  1  0.53520620  0.25000000  0.25000000  1
  Ca  Ca3  1  0.46479380  0.75000000  0.75000000  1
  Cr  Cr4  1  0.50598467  0.75000000  0.49055944  1
  Cr  Cr5  1  0.50598467  0.75000000  0.00944056  1
  Cr  Cr6  1  0.49401533  0.25000000  0.50944056  1
  Cr  Cr7  1  0.49401533  0.25000000  0.99055944  1
  Cr  Cr8  1  0.00000000  0.50000000  0.50000000  1
  Cr  Cr9  1  0.00000000  0.00000000  0.00000000  1
  Cr  Cr10  1  0.00000000  0.00000000  0.50000000  1
  Cr  Cr11  1  0.00000000  0.50000000  0.00000000  1
  O  O12  1  0.84289840  0.75000000  0.40267246  1
  O  O13  1  0.84289840  0.75000000  0.09732754  1
  O  O14  1  0.15710160  0.25000000  0.59732754  1
  O  O15  1  0.15710160  0.25000000  0.90267246  1
  O  O16  1  0.18019137  0.75000000  0.58955130  1
  O  O17  1  0.18019137  0.75000000  0.91044870  1
  O  O18  1  0.81980863  0.25000000  0.41044870  1
  O  O19  1  0.81980863  0.25000000  0.08955130  1
  O  O20  1  0.66514226  0.50328040  0.60082455  1
  O  O21  1  0.66514226  0.99671960  0.89917545  1
  O  O22  1  0.33485774  0.00328040  0.39917545  1
  O  O23  1  0.33485774  0.49671960  0.10082455  1
  O  O24  1  0.33485774  0.49671960  0.39917545  1
  O  O25  1  0.33485774  0.00328040  0.10082455  1
  O  O26  1  0.66514226  0.99671960  0.60082455  1
  O  O27  1  0.66514226  0.50328040  0.89917545  1
