# generated using pymatgen
data_La2CO5
_symmetry_space_group_name_H-M   'P 1'
_cell_length_a   7.09683537
_cell_length_b   7.09683591
_cell_length_c   16.53432051
_cell_angle_alpha   77.68009343
_cell_angle_beta   77.68009248
_cell_angle_gamma   60.12613573
_symmetry_Int_Tables_number   1
_chemical_formula_structural   La2CO5
_chemical_formula_sum   'La12 C6 O30'
_cell_volume   699.81113003
_cell_formula_units_Z   6
loop_
 _symmetry_equiv_pos_site_id
 _symmetry_equiv_pos_as_xyz
  1  'x, y, z'
loop_
 _atom_site_type_symbol
 _atom_site_label
 _atom_site_symmetry_multiplicity
 _atom_site_fract_x
 _atom_site_fract_y
 _atom_site_fract_z
 _atom_site_occupancy
  La  La0  1  0.96337800  0.14106010  0.59406599  1
  La  La1  1  0.79897989  0.63426755  0.09438424  1
  La  La2  1  0.85893990  0.03662200  0.90593401  1
  La  La3  1  0.03662200  0.85893990  0.40593401  1
  La  La4  1  0.20102011  0.36573245  0.90561576  1
  La  La5  1  0.30480561  0.46880327  0.59635484  1
  La  La6  1  0.46880327  0.30480561  0.09635484  1
  La  La7  1  0.36573245  0.20102011  0.40561576  1
  La  La8  1  0.69519439  0.53119673  0.40364516  1
  La  La9  1  0.53119673  0.69519439  0.90364516  1
  La  La10  1  0.63426755  0.79897989  0.59438424  1
  La  La11  1  0.14106010  0.96337800  0.09406599  1
  C  C12  1  0.19055669  0.80944331  0.75000000  1
  C  C13  1  0.96965488  0.41518491  0.75031579  1
  C  C14  1  0.80944331  0.19055669  0.25000000  1
  C  C15  1  0.41518491  0.96965488  0.25031579  1
  C  C16  1  0.58481509  0.03034512  0.74968421  1
  C  C17  1  0.03034512  0.58481509  0.24968421  1
  O  O18  1  0.02120736  0.18447091  0.44145185  1
  O  O19  1  0.59092213  0.84566011  0.74917223  1
  O  O20  1  0.85621856  0.39437789  0.82128035  1
  O  O21  1  0.97879264  0.81552909  0.55854815  1
  O  O22  1  0.18447090  0.02120736  0.94145185  1
  O  O23  1  0.30231985  0.74545221  0.67889529  1
  O  O24  1  0.31335101  0.14632854  0.55851537  1
  O  O25  1  0.99091524  0.00908476  0.25000000  1
  O  O26  1  0.81552910  0.97879264  0.05854815  1
  O  O27  1  0.44191958  0.90491094  0.17899395  1
  O  O28  1  0.14378144  0.60562211  0.17871965  1
  O  O29  1  0.90491094  0.44191958  0.67899395  1
  O  O30  1  0.48397108  0.64958569  0.05247134  1
  O  O31  1  0.35041431  0.51602892  0.44752866  1
  O  O32  1  0.69768015  0.25454779  0.32110471  1
  O  O33  1  0.14632854  0.31335101  0.05851537  1
  O  O34  1  0.64958569  0.48397108  0.55247134  1
  O  O35  1  0.68664899  0.85367146  0.44148463  1
  O  O36  1  0.85367146  0.68664899  0.94148463  1
  O  O37  1  0.15433989  0.40907787  0.75082777  1
  O  O38  1  0.00908476  0.99091524  0.75000000  1
  O  O39  1  0.25454779  0.69768015  0.82110471  1
  O  O40  1  0.84566011  0.59092213  0.24917223  1
  O  O41  1  0.51602892  0.35041431  0.94752866  1
  O  O42  1  0.40907787  0.15433989  0.25082777  1
  O  O43  1  0.09508906  0.55808042  0.32100605  1
  O  O44  1  0.39437789  0.85621856  0.32128035  1
  O  O45  1  0.74545221  0.30231985  0.17889529  1
  O  O46  1  0.60562211  0.14378144  0.67871965  1
  O  O47  1  0.55808042  0.09508906  0.82100605  1
