# generated using pymatgen
data_LiV2O3F
_symmetry_space_group_name_H-M   'P 1'
_cell_length_a   10.22748300
_cell_length_b   5.92856241
_cell_length_c   4.95049076
_cell_angle_alpha   89.99067598
_cell_angle_beta   89.99985444
_cell_angle_gamma   90.00093071
_symmetry_Int_Tables_number   1
_chemical_formula_structural   LiV2O3F
_chemical_formula_sum   'Li4 V8 O12 F4'
_cell_volume   300.16939541
_cell_formula_units_Z   4
loop_
 _symmetry_equiv_pos_site_id
 _symmetry_equiv_pos_as_xyz
  1  'x, y, z'
loop_
 _atom_site_type_symbol
 _atom_site_label
 _atom_site_symmetry_multiplicity
 _atom_site_fract_x
 _atom_site_fract_y
 _atom_site_fract_z
 _atom_site_occupancy
  Li  Li0  1  0.09048399  0.24595794  0.45751834  1
  Li  Li1  1  0.40955082  0.74593312  0.95746722  1
  Li  Li2  1  0.59039936  0.24613680  0.04247803  1
  Li  Li3  1  0.90960485  0.74617955  0.54250731  1
  V  V4  1  0.01480997  0.98990846  0.01564553  1
  V  V5  1  0.98486145  0.48992080  0.98375396  1
  V  V6  1  0.22736881  0.76214553  0.51255901  1
  V  V7  1  0.27258563  0.26179280  0.01289115  1
  V  V8  1  0.51488932  0.98988617  0.48418179  1
  V  V9  1  0.48493479  0.48985099  0.51601000  1
  V  V10  1  0.72732413  0.76213350  0.98744762  1
  V  V11  1  0.77263808  0.26181656  0.48710228  1
  O  O12  1  0.07358145  0.74775841  0.75344481  1
  O  O13  1  0.09613487  0.24916523  0.82688414  1
  O  O14  1  0.17303083  0.00484403  0.25438126  1
  O  O15  1  0.32714147  0.50469646  0.75417522  1
  O  O16  1  0.40397167  0.74932037  0.32669626  1
  O  O17  1  0.42648144  0.24745312  0.25337051  1
  O  O18  1  0.57360412  0.74748663  0.74656722  1
  O  O19  1  0.59617500  0.24926205  0.67316646  1
  O  O20  1  0.67293792  0.00490379  0.24578173  1
  O  O21  1  0.82726057  0.50477566  0.74598995  1
  O  O22  1  0.90391546  0.74946962  0.17334740  1
  O  O23  1  0.92646949  0.24730164  0.24664139  1
  F  F24  1  0.16158145  0.50049746  0.25745389  1
  F  F25  1  0.33834185  0.00040555  0.75751372  1
  F  F26  1  0.66166867  0.50051411  0.24253979  1
  F  F27  1  0.83825255  0.00048364  0.74248401  1
