# generated using pymatgen
data_LaSeO3F
_symmetry_space_group_name_H-M   'P 1'
_cell_length_a   7.21812225
_cell_length_b   8.54238556
_cell_length_c   18.36095175
_cell_angle_alpha   96.76514007
_cell_angle_beta   90.00000000
_cell_angle_gamma   90.00000000
_symmetry_Int_Tables_number   1
_chemical_formula_structural   LaSeO3F
_chemical_formula_sum   'La12 Se12 O36 F12'
_cell_volume   1124.25332737
_cell_formula_units_Z   12
loop_
 _symmetry_equiv_pos_site_id
 _symmetry_equiv_pos_as_xyz
  1  'x, y, z'
loop_
 _atom_site_type_symbol
 _atom_site_label
 _atom_site_symmetry_multiplicity
 _atom_site_fract_x
 _atom_site_fract_y
 _atom_site_fract_z
 _atom_site_occupancy
  La  La0  1  0.33370081  0.61728342  0.15420014  1
  La  La1  1  0.33051206  0.79739759  0.95421384  1
  La  La2  1  0.16948794  0.29739759  0.95421384  1
  La  La3  1  0.83370081  0.88271658  0.84579986  1
  La  La4  1  0.16629919  0.11728342  0.15420014  1
  La  La5  1  0.82341918  0.81356611  0.54934839  1
  La  La6  1  0.32341918  0.68643389  0.45065161  1
  La  La7  1  0.67658082  0.31356611  0.54934839  1
  La  La8  1  0.83051206  0.70260241  0.04578616  1
  La  La9  1  0.66629919  0.38271658  0.84579986  1
  La  La10  1  0.66948794  0.20260241  0.04578616  1
  La  La11  1  0.17658082  0.18643389  0.45065161  1
  Se  Se12  1  0.09607543  0.90446556  0.30293943  1
  Se  Se13  1  0.32129879  0.97822557  0.59993281  1
  Se  Se14  1  0.17242772  0.52346176  0.80340536  1
  Se  Se15  1  0.82129879  0.52177443  0.40006719  1
  Se  Se16  1  0.59607543  0.59553444  0.69706057  1
  Se  Se17  1  0.32757228  0.02346176  0.80340536  1
  Se  Se18  1  0.67870121  0.02177443  0.40006719  1
  Se  Se19  1  0.90392457  0.09553444  0.69706057  1
  Se  Se20  1  0.82757228  0.47653824  0.19659464  1
  Se  Se21  1  0.40392457  0.40446556  0.30293943  1
  Se  Se22  1  0.17870121  0.47822557  0.59993281  1
  Se  Se23  1  0.67242772  0.97653824  0.19659464  1
  O  O24  1  0.01570189  0.41153400  0.84794330  1
  O  O25  1  0.88932405  0.28489847  0.17167034  1
  O  O26  1  0.98429811  0.58846600  0.15205670  1
  O  O27  1  0.90619363  0.35993108  0.43561200  1
  O  O28  1  0.11067595  0.71510153  0.82832966  1
  O  O29  1  0.61067595  0.78489847  0.17167034  1
  O  O30  1  0.48429811  0.91153400  0.84794330  1
  O  O31  1  0.25411299  0.37308104  0.22931932  1
  O  O32  1  0.36010989  0.52903220  0.86313977  1
  O  O33  1  0.06713494  0.10402287  0.30240656  1
  O  O34  1  0.65107756  0.56380699  0.46774332  1
  O  O35  1  0.26493188  0.41143283  0.38037436  1
  O  O36  1  0.97281448  0.67573606  0.42490804  1
  O  O37  1  0.24588701  0.87308104  0.22931932  1
  O  O38  1  0.34892244  0.43619301  0.53225668  1
  O  O39  1  0.52718552  0.17573606  0.42490804  1
  O  O40  1  0.75411299  0.12691896  0.77068068  1
  O  O41  1  0.84892244  0.06380699  0.46774332  1
  O  O42  1  0.76493188  0.08856717  0.61962564  1
  O  O43  1  0.40619363  0.14006892  0.56438800  1
  O  O44  1  0.47281448  0.82426394  0.57509196  1
  O  O45  1  0.59380637  0.85993108  0.43561200  1
  O  O46  1  0.63989011  0.47096780  0.13686023  1
  O  O47  1  0.73506812  0.58856717  0.61962564  1
  O  O48  1  0.74588701  0.62691896  0.77068068  1
  O  O49  1  0.15107756  0.93619301  0.53225668  1
  O  O50  1  0.56713494  0.39597713  0.69759344  1
  O  O51  1  0.38932405  0.21510153  0.82832966  1
  O  O52  1  0.86010989  0.97096780  0.13686023  1
  O  O53  1  0.09380637  0.64006892  0.56438800  1
  O  O54  1  0.13989011  0.02903220  0.86313977  1
  O  O55  1  0.23506812  0.91143283  0.38037436  1
  O  O56  1  0.02718552  0.32426394  0.57509196  1
  O  O57  1  0.51570189  0.08846600  0.15205670  1
  O  O58  1  0.93286506  0.89597713  0.69759344  1
  O  O59  1  0.43286506  0.60402287  0.30240656  1
  F  F60  1  0.70705006  0.65638239  0.91541205  1
  F  F61  1  0.49914849  0.65499325  0.03782142  1
  F  F62  1  0.79294994  0.15638239  0.91541205  1
  F  F63  1  0.29294994  0.34361761  0.08458795  1
  F  F64  1  0.99914849  0.84500675  0.96217858  1
  F  F65  1  0.00085151  0.15499325  0.03782142  1
  F  F66  1  0.15243426  0.57763789  0.00122238  1
  F  F67  1  0.34756574  0.07763789  0.00122238  1
  F  F68  1  0.20705006  0.84361761  0.08458795  1
  F  F69  1  0.84756574  0.42236211  0.99877762  1
  F  F70  1  0.50085151  0.34500675  0.96217858  1
  F  F71  1  0.65243426  0.92236211  0.99877762  1
