# generated using pymatgen
data_ZnS
_symmetry_space_group_name_H-M   'P 1'
_cell_length_a   3.85382522
_cell_length_b   3.85382511
_cell_length_c   75.55896300
_cell_angle_alpha   90.00000000
_cell_angle_beta   90.00000000
_cell_angle_gamma   120.00000091
_symmetry_Int_Tables_number   1
_chemical_formula_structural   ZnS
_chemical_formula_sum   'Zn24 S24'
_cell_volume   971.85312089
_cell_formula_units_Z   24
loop_
 _symmetry_equiv_pos_site_id
 _symmetry_equiv_pos_as_xyz
  1  'x, y, z'
loop_
 _atom_site_type_symbol
 _atom_site_label
 _atom_site_symmetry_multiplicity
 _atom_site_fract_x
 _atom_site_fract_y
 _atom_site_fract_z
 _atom_site_occupancy
  Zn  Zn0  1  0.66666700  0.33333300  0.58333004  1
  Zn  Zn1  1  0.33333300  0.66666700  0.54167181  1
  Zn  Zn2  1  0.66666700  0.33333300  0.33333348  1
  Zn  Zn3  1  0.33333300  0.66666700  0.29167189  1
  Zn  Zn4  1  0.00000000  0.00000000  0.25000156  1
  Zn  Zn5  1  0.33333300  0.66666700  0.83333353  1
  Zn  Zn6  1  0.66666700  0.33333300  0.08333328  1
  Zn  Zn7  1  0.66666700  0.33333300  0.66668094  1
  Zn  Zn8  1  0.66666700  0.33333300  0.20833353  1
  Zn  Zn9  1  0.00000000  0.00000000  0.37500153  1
  Zn  Zn10  1  0.33333300  0.66666700  0.04168093  1
  Zn  Zn11  1  0.66666700  0.33333300  0.45833348  1
  Zn  Zn12  1  0.00000000  0.00000000  0.75000161  1
  Zn  Zn13  1  0.33333300  0.66666700  0.16667195  1
  Zn  Zn14  1  0.33333300  0.66666700  0.41667181  1
  Zn  Zn15  1  0.00000000  0.00000000  0.50000150  1
  Zn  Zn16  1  0.00000000  0.00000000  0.62499843  1
  Zn  Zn17  1  0.33333300  0.66666700  0.95833004  1
  Zn  Zn18  1  0.66666700  0.33333300  0.91667184  1
  Zn  Zn19  1  0.33333300  0.66666700  0.70833332  1
  Zn  Zn20  1  0.00000000  0.00000000  0.12500164  1
  Zn  Zn21  1  0.66666700  0.33333300  0.79167184  1
  Zn  Zn22  1  0.00000000  0.00000000  0.99999844  1
  Zn  Zn23  1  0.00000000  0.00000000  0.87500155  1
  S  S24  1  0.66666700  0.33333300  0.82291584  1
  S  S25  1  0.33333300  0.66666700  0.19791589  1
  S  S26  1  0.33333300  0.66666700  0.98955619  1
  S  S27  1  0.00000000  0.00000000  0.40624820  1
  S  S28  1  0.00000000  0.00000000  0.28124813  1
  S  S29  1  0.00000000  0.00000000  0.53124833  1
  S  S30  1  0.66666700  0.33333300  0.69791469  1
  S  S31  1  0.33333300  0.66666700  0.44791578  1
  S  S32  1  0.33333300  0.66666700  0.86457875  1
  S  S33  1  0.00000000  0.00000000  0.03127090  1
  S  S34  1  0.00000000  0.00000000  0.90624831  1
  S  S35  1  0.66666700  0.33333300  0.61455619  1
  S  S36  1  0.00000000  0.00000000  0.78124826  1
  S  S37  1  0.33333300  0.66666700  0.73957857  1
  S  S38  1  0.00000000  0.00000000  0.15624819  1
  S  S39  1  0.66666700  0.33333300  0.48957878  1
  S  S40  1  0.00000000  0.00000000  0.65627095  1
  S  S41  1  0.33333300  0.66666700  0.57291560  1
  S  S42  1  0.66666700  0.33333300  0.36457885  1
  S  S43  1  0.33333300  0.66666700  0.07291470  1
  S  S44  1  0.66666700  0.33333300  0.11457858  1
  S  S45  1  0.66666700  0.33333300  0.94791569  1
  S  S46  1  0.66666700  0.33333300  0.23957883  1
  S  S47  1  0.33333300  0.66666700  0.32291584  1
