# generated using pymatgen
data_Na2Th(PO4)2
_symmetry_space_group_name_H-M   'P 1'
_cell_length_a   7.12058223
_cell_length_b   9.26760732
_cell_length_c   11.53147206
_cell_angle_alpha   83.59478878
_cell_angle_beta   72.01635017
_cell_angle_gamma   68.81805594
_symmetry_Int_Tables_number   1
_chemical_formula_structural   Na2Th(PO4)2
_chemical_formula_sum   'Na8 Th4 P8 O32'
_cell_volume   674.89201057
_cell_formula_units_Z   4
loop_
 _symmetry_equiv_pos_site_id
 _symmetry_equiv_pos_as_xyz
  1  'x, y, z'
loop_
 _atom_site_type_symbol
 _atom_site_label
 _atom_site_symmetry_multiplicity
 _atom_site_fract_x
 _atom_site_fract_y
 _atom_site_fract_z
 _atom_site_occupancy
  Na  Na0  1  0.70851921  0.45488815  0.37977725  1
  Na  Na1  1  0.31217469  0.99296806  0.12609066  1
  Na  Na2  1  0.91170353  0.04511185  0.37977725  1
  Na  Na3  1  0.56173465  0.50703194  0.12609066  1
  Na  Na4  1  0.68782531  0.00703194  0.87390934  1
  Na  Na5  1  0.08829647  0.95488815  0.62022275  1
  Na  Na6  1  0.29148079  0.54511185  0.62022275  1
  Na  Na7  1  0.43826535  0.49296806  0.87390934  1
  Th  Th8  1  0.92820054  0.75000000  0.14359893  1
  Th  Th9  1  0.07179946  0.25000000  0.85640107  1
  Th  Th10  1  0.29623389  0.25000000  0.40753221  1
  Th  Th11  1  0.70376611  0.75000000  0.59246779  1
  P  P12  1  0.11743865  0.38033650  0.13224013  1
  P  P13  1  0.75032123  0.11966350  0.13224013  1
  P  P14  1  0.88256135  0.61966350  0.86775987  1
  P  P15  1  0.12854626  0.64762751  0.37846118  1
  P  P16  1  0.87145374  0.35237249  0.62153882  1
  P  P17  1  0.50700744  0.14762751  0.62153882  1
  P  P18  1  0.24967877  0.88033650  0.86775987  1
  P  P19  1  0.49299256  0.85237249  0.37846118  1
  O  O20  1  0.75951196  0.50509420  0.89909647  1
  O  O21  1  0.20721901  0.77151773  0.97666417  1
  O  O22  1  0.11810579  0.51418470  0.83511839  1
  O  O23  1  0.45027110  0.75025216  0.49404649  1
  O  O24  1  0.42173041  0.24380332  0.73907586  1
  O  O25  1  0.04677582  0.98581530  0.83511839  1
  O  O26  1  0.33042379  0.50614711  0.37743501  1
  O  O27  1  0.40159028  0.77655158  0.75572386  1
  O  O28  1  0.16080627  0.74380332  0.26092414  1
  O  O29  1  0.05811631  0.41027109  0.60895080  1
  O  O30  1  0.34139158  0.99490580  0.89909647  1
  O  O31  1  0.24048804  0.49490580  0.10090353  1
  O  O32  1  0.59840972  0.22344842  0.24427614  1
  O  O33  1  0.54972890  0.24974784  0.50595351  1
  O  O34  1  0.88189421  0.48581530  0.16488161  1
  O  O35  1  0.33293289  0.08972891  0.60895080  1
  O  O36  1  0.66957621  0.49385289  0.62256499  1
  O  O37  1  0.66706711  0.91027109  0.39104920  1
  O  O38  1  0.83919373  0.25619668  0.73907586  1
  O  O39  1  0.57826959  0.75619668  0.26092414  1
  O  O40  1  0.29214120  0.99385289  0.37743501  1
  O  O41  1  0.94431759  0.25025216  0.50595351  1
  O  O42  1  0.94188369  0.58972891  0.39104920  1
  O  O43  1  0.15731414  0.27655158  0.24427614  1
  O  O44  1  0.70785880  0.00614711  0.62256499  1
  O  O45  1  0.95322418  0.01418470  0.16488161  1
  O  O46  1  0.18388318  0.27151773  0.02333583  1
  O  O47  1  0.05568241  0.74974784  0.49404649  1
  O  O48  1  0.81611682  0.72848227  0.97666417  1
  O  O49  1  0.65860842  0.00509420  0.10090353  1
  O  O50  1  0.84268586  0.72344842  0.75572386  1
  O  O51  1  0.79278099  0.22848227  0.02333583  1
