# generated using pymatgen
data_Fe2CoO6
_symmetry_space_group_name_H-M   'P 1'
_cell_length_a   4.48355071
_cell_length_b   4.48355568
_cell_length_c   8.94743190
_cell_angle_alpha   90.00003734
_cell_angle_beta   89.99951841
_cell_angle_gamma   89.99021044
_symmetry_Int_Tables_number   1
_chemical_formula_structural   Fe2CoO6
_chemical_formula_sum   'Fe4 Co2 O12'
_cell_volume   179.86350330
_cell_formula_units_Z   2
loop_
 _symmetry_equiv_pos_site_id
 _symmetry_equiv_pos_as_xyz
  1  'x, y, z'
loop_
 _atom_site_type_symbol
 _atom_site_label
 _atom_site_symmetry_multiplicity
 _atom_site_fract_x
 _atom_site_fract_y
 _atom_site_fract_z
 _atom_site_occupancy
  Fe  Fe0  1  0.00000247  0.00000004  0.33359488  1
  Fe  Fe1  1  -0.00000030  0.99999966  0.66637793  1
  Fe  Fe2  1  0.49999778  0.49999931  0.16643396  1
  Fe  Fe3  1  0.49999792  0.49999840  0.83359415  1
  Co  Co4  1  0.00000053  0.00000061  0.00001535  1
  Co  Co5  1  0.50000015  0.49999894  0.49998445  1
  O  O6  1  0.18954487  0.81045432  0.16311135  1
  O  O7  1  0.18958593  0.81041455  0.83689556  1
  O  O8  1  0.20293114  0.79706830  0.49998089  1
  O  O9  1  0.29706263  0.29706317  0.00001757  1
  O  O10  1  0.31046215  0.31046447  0.33690509  1
  O  O11  1  0.31041868  0.31041841  0.66308840  1
  O  O12  1  0.68953684  0.68953632  0.33690600  1
  O  O13  1  0.68958236  0.68958156  0.66308912  1
  O  O14  1  0.70293961  0.70293872  0.00001827  1
  O  O15  1  0.79706673  0.20293354  0.49998165  1
  O  O16  1  0.81045807  0.18954259  0.16311115  1
  O  O17  1  0.81041243  0.18958710  0.83689425  1
