# generated using pymatgen
data_Na5Ca4P4O16F
_symmetry_space_group_name_H-M   'P 1'
_cell_length_a   5.47224728
_cell_length_b   8.74763816
_cell_length_c   8.74769629
_cell_angle_alpha   84.38539313
_cell_angle_beta   71.77168767
_cell_angle_gamma   71.77134489
_symmetry_Int_Tables_number   1
_chemical_formula_structural   Na5Ca4P4O16F
_chemical_formula_sum   'Na5 Ca4 P4 O16 F1'
_cell_volume   377.77201981
_cell_formula_units_Z   1
loop_
 _symmetry_equiv_pos_site_id
 _symmetry_equiv_pos_as_xyz
  1  'x, y, z'
loop_
 _atom_site_type_symbol
 _atom_site_label
 _atom_site_symmetry_multiplicity
 _atom_site_fract_x
 _atom_site_fract_y
 _atom_site_fract_z
 _atom_site_occupancy
  Na  Na0  1  0.62119007  0.48218694  0.29446982  1
  Na  Na1  1  0.89662609  0.70553735  0.48218261  1
  Na  Na2  1  0.08439962  0.29449463  0.51778604  1
  Na  Na3  1  0.50000375  0.99999736  -0.00000275  1
  Na  Na4  1  0.39786591  0.51780704  0.70549568  1
  Ca  Ca5  1  0.19787878  0.93303561  0.70992011  1
  Ca  Ca6  1  0.09221318  0.70991816  0.06696550  1
  Ca  Ca7  1  0.86907397  0.29007901  0.93303113  1
  Ca  Ca8  1  0.84084081  0.06696354  0.29007926  1
  P  P9  1  0.38501517  0.85480358  0.35449458  1
  P  P10  1  0.59427764  0.14519612  0.64551683  1
  P  P11  1  0.76018432  0.64551070  0.85480800  1
  P  P12  1  0.26051117  0.35448895  0.14520233  1
  O  O13  1  0.86028355  0.51449641  0.72076822  1
  O  O14  1  0.52855768  0.25470769  0.17942656  1
  O  O15  1  0.68311026  0.97952889  0.56303391  1
  O  O16  1  0.29200377  0.17942749  0.74529533  1
  O  O17  1  0.33733806  0.43696078  0.97953089  1
  O  O18  1  0.09067383  0.24220858  0.14277740  1
  O  O19  1  0.21672924  0.82058415  0.25472539  1
  O  O20  1  0.75379759  0.56302997  0.02048150  1
  O  O21  1  0.41894180  0.72075559  0.48550288  1
  O  O22  1  0.96270941  0.74527585  0.82058982  1
  O  O23  1  0.62518301  0.27924458  0.51449472  1
  O  O24  1  0.76654120  0.14276970  0.75778144  1
  O  O25  1  0.47564913  0.75780115  0.85722918  1
  O  O26  1  0.22571230  0.02047518  0.43696541  1
  O  O27  1  0.66713717  0.85721467  0.24220757  1
  O  O28  1  0.09555001  0.48550368  0.27924554  1
  F  F29  1  0.00000152  0.99999669  0.99999514  1
