# generated using pymatgen
data_Re2(HgO2)5
_symmetry_space_group_name_H-M   'P 1'
_cell_length_a   6.61356370
_cell_length_b   8.49718069
_cell_length_c   11.84975744
_cell_angle_alpha   90.00000000
_cell_angle_beta   90.00000000
_cell_angle_gamma   99.83911901
_symmetry_Int_Tables_number   1
_chemical_formula_structural   Re2(HgO2)5
_chemical_formula_sum   'Re4 Hg10 O20'
_cell_volume   656.12195791
_cell_formula_units_Z   2
loop_
 _symmetry_equiv_pos_site_id
 _symmetry_equiv_pos_as_xyz
  1  'x, y, z'
loop_
 _atom_site_type_symbol
 _atom_site_label
 _atom_site_symmetry_multiplicity
 _atom_site_fract_x
 _atom_site_fract_y
 _atom_site_fract_z
 _atom_site_occupancy
  Re  Re0  1  0.38397283  0.48349049  0.34251040  1
  Re  Re1  1  0.61602717  0.01650951  0.84251040  1
  Re  Re2  1  0.61602717  0.51650951  0.65748960  1
  Re  Re3  1  0.38397283  0.98349049  0.15748960  1
  Hg  Hg4  1  0.00187944  0.31285078  0.08906836  1
  Hg  Hg5  1  0.12556298  0.82061051  0.71709974  1
  Hg  Hg6  1  0.99812056  0.18714922  0.58906836  1
  Hg  Hg7  1  0.12556298  0.32061051  0.78290026  1
  Hg  Hg8  1  0.87443702  0.17938949  0.28290026  1
  Hg  Hg9  1  0.50000000  0.00000000  0.50000000  1
  Hg  Hg10  1  0.99812056  0.68714922  0.91093164  1
  Hg  Hg11  1  0.87443702  0.67938949  0.21709974  1
  Hg  Hg12  1  0.00187944  0.81285078  0.41093164  1
  Hg  Hg13  1  0.50000000  0.50000000  0.00000000  1
  O  O14  1  0.59989919  0.89200284  0.17608356  1
  O  O15  1  0.19474863  0.93747755  0.55153403  1
  O  O16  1  0.70107476  0.46742105  0.79177597  1
  O  O17  1  0.59989919  0.39200284  0.32391644  1
  O  O18  1  0.54885420  0.34026931  0.57949732  1
  O  O19  1  0.19474863  0.43747755  0.94846597  1
  O  O20  1  0.40010081  0.60799716  0.67608356  1
  O  O21  1  0.81791152  0.64519736  0.59070500  1
  O  O22  1  0.80525137  0.56252245  0.05153403  1
  O  O23  1  0.54885420  0.84026931  0.92050268  1
  O  O24  1  0.70107476  0.96742105  0.70822403  1
  O  O25  1  0.80525137  0.06252245  0.44846597  1
  O  O26  1  0.18208848  0.35480264  0.40929500  1
  O  O27  1  0.45114580  0.15973069  0.07949732  1
  O  O28  1  0.29892524  0.03257895  0.29177597  1
  O  O29  1  0.45114580  0.65973069  0.42050268  1
  O  O30  1  0.40010081  0.10799716  0.82391644  1
  O  O31  1  0.18208848  0.85480264  0.09070500  1
  O  O32  1  0.29892524  0.53257895  0.20822403  1
  O  O33  1  0.81791152  0.14519736  0.90929500  1
