# generated using pymatgen
data_ZnS
_symmetry_space_group_name_H-M   'P 1'
_cell_length_a   3.85322653
_cell_length_b   3.85322642
_cell_length_c   69.24838077
_cell_angle_alpha   90.00000000
_cell_angle_beta   90.00000000
_cell_angle_gamma   120.00000084
_symmetry_Int_Tables_number   1
_chemical_formula_structural   ZnS
_chemical_formula_sum   'Zn22 S22'
_cell_volume   890.40855139
_cell_formula_units_Z   22
loop_
 _symmetry_equiv_pos_site_id
 _symmetry_equiv_pos_as_xyz
  1  'x, y, z'
loop_
 _atom_site_type_symbol
 _atom_site_label
 _atom_site_symmetry_multiplicity
 _atom_site_fract_x
 _atom_site_fract_y
 _atom_site_fract_z
 _atom_site_occupancy
  Zn  Zn0  1  0.66666700  0.33333300  0.36360109  1
  Zn  Zn1  1  0.66666700  0.33333300  0.63639577  1
  Zn  Zn2  1  0.00000000  0.00000000  0.81819523  1
  Zn  Zn3  1  0.33333300  0.66666700  0.31816915  1
  Zn  Zn4  1  0.33333300  0.66666700  0.95452601  1
  Zn  Zn5  1  0.33333300  0.66666700  0.04547912  1
  Zn  Zn6  1  0.00000000  0.00000000  0.54546840  1
  Zn  Zn7  1  0.00000000  0.00000000  0.27271932  1
  Zn  Zn8  1  0.00000000  0.00000000  0.13639652  1
  Zn  Zn9  1  0.66666700  0.33333300  0.90909265  1
  Zn  Zn10  1  0.33333300  0.66666700  0.72729641  1
  Zn  Zn11  1  0.33333300  0.66666700  0.59090436  1
  Zn  Zn12  1  0.33333300  0.66666700  0.18182070  1
  Zn  Zn13  1  0.00000000  0.00000000  0.68182075  1
  Zn  Zn14  1  0.66666700  0.33333300  0.09090445  1
  Zn  Zn15  1  0.00000000  0.00000000  0.40909512  1
  Zn  Zn16  1  0.66666700  0.33333300  0.77272030  1
  Zn  Zn17  1  0.33333300  0.66666700  0.45452037  1
  Zn  Zn18  1  0.00000000  0.00000000  0.99999546  1
  Zn  Zn19  1  0.66666700  0.33333300  0.22729633  1
  Zn  Zn20  1  0.33333300  0.66666700  0.86361455  1
  Zn  Zn21  1  0.66666700  0.33333300  0.49999924  1
  S  S22  1  0.33333300  0.66666700  0.76137845  1
  S  S23  1  0.33333300  0.66666700  0.07953629  1
  S  S24  1  0.66666700  0.33333300  0.53409342  1
  S  S25  1  0.00000000  0.00000000  0.30679850  1
  S  S26  1  0.33333300  0.66666700  0.98857984  1
  S  S27  1  0.33333300  0.66666700  0.48860597  1
  S  S28  1  0.66666700  0.33333300  0.94320173  1
  S  S29  1  0.66666700  0.33333300  0.26137825  1
  S  S30  1  0.66666700  0.33333300  0.12500058  1
  S  S31  1  0.00000000  0.00000000  0.17047523  1
  S  S32  1  0.66666700  0.33333300  0.67047296  1
  S  S33  1  0.66666700  0.33333300  0.39769873  1
  S  S34  1  0.33333300  0.66666700  0.89768120  1
  S  S35  1  0.33333300  0.66666700  0.35223835  1
  S  S36  1  0.00000000  0.00000000  0.57953636  1
  S  S37  1  0.33333300  0.66666700  0.21590726  1
  S  S38  1  0.00000000  0.00000000  0.44317802  1
  S  S39  1  0.00000000  0.00000000  0.71590752  1
  S  S40  1  0.00000000  0.00000000  0.85227656  1
  S  S41  1  0.00000000  0.00000000  0.03411698  1
  S  S42  1  0.66666700  0.33333300  0.80680572  1
  S  S43  1  0.33333300  0.66666700  0.62500074  1
