# generated using pymatgen
data_Na2CaMg(PO4)2
_symmetry_space_group_name_H-M   'P 1'
_cell_length_a   5.23708110
_cell_length_b   9.23461356
_cell_length_c   13.53139765
_cell_angle_alpha   90.99733896
_cell_angle_beta   90.00000000
_cell_angle_gamma   90.00000000
_symmetry_Int_Tables_number   1
_chemical_formula_structural   Na2CaMg(PO4)2
_chemical_formula_sum   'Na8 Ca4 Mg4 P8 O32'
_cell_volume   654.31199826
_cell_formula_units_Z   4
loop_
 _symmetry_equiv_pos_site_id
 _symmetry_equiv_pos_as_xyz
  1  'x, y, z'
loop_
 _atom_site_type_symbol
 _atom_site_label
 _atom_site_symmetry_multiplicity
 _atom_site_fract_x
 _atom_site_fract_y
 _atom_site_fract_z
 _atom_site_occupancy
  Na  Na0  1  0.72163091  0.41836622  0.60246262  1
  Na  Na1  1  0.27836909  0.58163378  0.39753738  1
  Na  Na2  1  0.22163091  0.58163378  0.89753738  1
  Na  Na3  1  0.72250304  0.08433671  0.90976491  1
  Na  Na4  1  0.77836909  0.41836622  0.10246262  1
  Na  Na5  1  0.77749696  0.08433671  0.40976491  1
  Na  Na6  1  0.27749696  0.91566329  0.09023509  1
  Na  Na7  1  0.22250304  0.91566329  0.59023509  1
  Ca  Ca8  1  0.31876900  0.23562570  0.24912595  1
  Ca  Ca9  1  0.81876900  0.76437430  0.25087405  1
  Ca  Ca10  1  0.68123100  0.76437430  0.75087405  1
  Ca  Ca11  1  0.18123100  0.23562570  0.74912595  1
  Mg  Mg12  1  0.25455474  0.25324280  0.50179078  1
  Mg  Mg13  1  0.75455474  0.74675720  0.99820922  1
  Mg  Mg14  1  0.74544526  0.74675720  0.49820922  1
  Mg  Mg15  1  0.24544526  0.25324280  0.00179078  1
  P  P16  1  0.22733179  0.58662081  0.62995485  1
  P  P17  1  0.72952141  0.08114407  0.63439519  1
  P  P18  1  0.22952141  0.91885593  0.86560481  1
  P  P19  1  0.72733179  0.41337919  0.87004515  1
  P  P20  1  0.77047859  0.08114407  0.13439519  1
  P  P21  1  0.77266821  0.41337919  0.37004515  1
  P  P22  1  0.27266821  0.58662081  0.12995485  1
  P  P23  1  0.27047859  0.91885593  0.36560481  1
  O  O24  1  0.83278901  0.39957438  0.76452362  1
  O  O25  1  0.57906911  0.34173752  0.44147988  1
  O  O26  1  0.07906911  0.65826248  0.05852012  1
  O  O27  1  0.16721099  0.60042562  0.23547638  1
  O  O28  1  0.69129440  0.07785940  0.24352347  1
  O  O29  1  0.69224234  0.92310696  0.59425387  1
  O  O30  1  0.92093089  0.34173752  0.94147988  1
  O  O31  1  0.80775766  0.92310696  0.09425387  1
  O  O32  1  0.19224234  0.07689304  0.90574613  1
  O  O33  1  0.52232791  0.83194568  0.38053236  1
  O  O34  1  0.46264369  0.33501935  0.88051110  1
  O  O35  1  0.33278901  0.60042562  0.73547638  1
  O  O36  1  0.97767209  0.83194568  0.88053236  1
  O  O37  1  0.80870560  0.07785940  0.74352347  1
  O  O38  1  0.19569810  0.42392032  0.59985432  1
  O  O39  1  0.03735631  0.33501935  0.38051110  1
  O  O40  1  0.30430190  0.42392032  0.09985432  1
  O  O41  1  0.02232791  0.16805432  0.11946764  1
  O  O42  1  0.30870560  0.92214060  0.75647653  1
  O  O43  1  0.66721099  0.39957438  0.26452362  1
  O  O44  1  0.94904268  0.15313427  0.57470736  1
  O  O45  1  0.69569810  0.57607968  0.90014568  1
  O  O46  1  0.80430190  0.57607968  0.40014568  1
  O  O47  1  0.96264369  0.66498065  0.61948890  1
  O  O48  1  0.53735631  0.66498065  0.11948890  1
  O  O49  1  0.47767209  0.16805432  0.61946764  1
  O  O50  1  0.05095732  0.84686573  0.42529264  1
  O  O51  1  0.19129440  0.92214060  0.25647653  1
  O  O52  1  0.30775766  0.07689304  0.40574613  1
  O  O53  1  0.42093089  0.65826248  0.55852012  1
  O  O54  1  0.55095732  0.15313427  0.07470736  1
  O  O55  1  0.44904268  0.84686573  0.92529264  1
