# generated using pymatgen
data_K4U5Te2O21
_symmetry_space_group_name_H-M   'P 1'
_cell_length_a   7.11554967
_cell_length_b   7.18735206
_cell_length_c   11.55583457
_cell_angle_alpha   99.99402033
_cell_angle_beta   95.40133813
_cell_angle_gamma   99.77263531
_symmetry_Int_Tables_number   1
_chemical_formula_structural   K4U5Te2O21
_chemical_formula_sum   'K4 U5 Te2 O21'
_cell_volume   568.90518008
_cell_formula_units_Z   1
loop_
 _symmetry_equiv_pos_site_id
 _symmetry_equiv_pos_as_xyz
  1  'x, y, z'
loop_
 _atom_site_type_symbol
 _atom_site_label
 _atom_site_symmetry_multiplicity
 _atom_site_fract_x
 _atom_site_fract_y
 _atom_site_fract_z
 _atom_site_occupancy
  K  K0  1  0.56248128  0.29150161  0.08469519  1
  K  K1  1  0.30223554  0.16029271  0.73273855  1
  K  K2  1  0.43751872  0.70849839  0.91530481  1
  K  K3  1  0.69776446  0.83970729  0.26726145  1
  U  U4  1  0.77710798  0.87512468  0.68474406  1
  U  U5  1  0.22289202  0.12487532  0.31525594  1
  U  U6  1  0.12500024  0.56951047  0.18004800  1
  U  U7  1  0.87499976  0.43048953  0.81995200  1
  U  U8  1  0.00000000  0.00000000  0.00000000  1
  Te  Te9  1  0.67852934  0.31468778  0.51451736  1
  Te  Te10  1  0.32147066  0.68531222  0.48548264  1
  O  O11  1  0.08605564  0.87644486  0.16162179  1
  O  O12  1  0.75448465  0.98969756  0.04731033  1
  O  O13  1  0.41146306  0.23192616  0.50972778  1
  O  O14  1  0.00710816  0.87085811  0.62343311  1
  O  O15  1  0.91394436  0.12355514  0.83837821  1
  O  O16  1  0.11505349  0.47104306  0.76652939  1
  O  O17  1  0.37268741  0.61293169  0.13392450  1
  O  O18  1  0.12679794  0.24602016  0.15200240  1
  O  O19  1  0.24551535  0.01030244  0.95268967  1
  O  O20  1  0.88494651  0.52895694  0.23347061  1
  O  O21  1  0.23755452  0.82739741  0.37330561  1
  O  O22  1  0.76244548  0.17260259  0.62669439  1
  O  O23  1  0.71432130  0.52926152  0.64240077  1
  O  O24  1  0.53438448  0.87434006  0.73243098  1
  O  O25  1  0.58853694  0.76807384  0.49027222  1
  O  O26  1  0.00000000  0.50000000  0.00000000  1
  O  O27  1  0.99289184  0.12914189  0.37656689  1
  O  O28  1  0.87320206  0.75397984  0.84799760  1
  O  O29  1  0.46561552  0.12565994  0.26756902  1
  O  O30  1  0.62731259  0.38706831  0.86607550  1
  O  O31  1  0.28567870  0.47073848  0.35759923  1
