# generated using pymatgen
data_Rb4Nb2S10O
_symmetry_space_group_name_H-M   'P 1'
_cell_length_a   7.96500413
_cell_length_b   13.23490532
_cell_length_c   18.47804931
_cell_angle_alpha   90.00000000
_cell_angle_beta   90.00000000
_cell_angle_gamma   90.00000000
_symmetry_Int_Tables_number   1
_chemical_formula_structural   Rb4Nb2S10O
_chemical_formula_sum   'Rb16 Nb8 S40 O4'
_cell_volume   1947.88344178
_cell_formula_units_Z   4
loop_
 _symmetry_equiv_pos_site_id
 _symmetry_equiv_pos_as_xyz
  1  'x, y, z'
loop_
 _atom_site_type_symbol
 _atom_site_label
 _atom_site_symmetry_multiplicity
 _atom_site_fract_x
 _atom_site_fract_y
 _atom_site_fract_z
 _atom_site_occupancy
  Rb  Rb0  1  0.29081130  0.06285796  0.48307185  1
  Rb  Rb1  1  0.70918870  0.56285796  0.48307185  1
  Rb  Rb2  1  0.83368213  0.26607018  0.61537277  1
  Rb  Rb3  1  0.35287664  0.09374802  0.18753819  1
  Rb  Rb4  1  0.31580333  0.73901383  0.34881199  1
  Rb  Rb5  1  0.31580333  0.76098617  0.84881199  1
  Rb  Rb6  1  0.83368213  0.23392982  0.11537277  1
  Rb  Rb7  1  0.68419667  0.23901383  0.34881199  1
  Rb  Rb8  1  0.16631787  0.73392982  0.11537277  1
  Rb  Rb9  1  0.64712336  0.90625198  0.68753819  1
  Rb  Rb10  1  0.35287664  0.40625198  0.68753819  1
  Rb  Rb11  1  0.29081130  0.43714204  0.98307185  1
  Rb  Rb12  1  0.70918870  0.93714204  0.98307185  1
  Rb  Rb13  1  0.68419667  0.26098617  0.84881199  1
  Rb  Rb14  1  0.64712336  0.59374802  0.18753819  1
  Rb  Rb15  1  0.16631787  0.76607018  0.61537277  1
  Nb  Nb16  1  0.24205415  0.45911414  0.25565004  1
  Nb  Nb17  1  0.71890621  0.89716885  0.44339176  1
  Nb  Nb18  1  0.75794585  0.95911414  0.25565004  1
  Nb  Nb19  1  0.28109379  0.10283115  0.94339176  1
  Nb  Nb20  1  0.75794585  0.54088586  0.75565004  1
  Nb  Nb21  1  0.24205415  0.04088586  0.75565004  1
  Nb  Nb22  1  0.28109379  0.39716885  0.44339176  1
  Nb  Nb23  1  0.71890621  0.60283115  0.94339176  1
  S  S24  1  0.46140033  0.34789755  0.19977318  1
  S  S25  1  0.07097945  0.26313340  0.42692039  1
  S  S26  1  0.74718408  0.43331743  -0.00187930  1
  S  S27  1  0.09440394  0.45968465  0.54434740  1
  S  S28  1  0.09440394  0.04031535  0.04434740  1
  S  S29  1  0.75647685  0.72805379  0.84285283  1
  S  S30  1  0.53666833  0.98651705  0.35157263  1
  S  S31  1  0.22791642  0.33979265  0.14962132  1
  S  S32  1  0.46333167  0.48651705  0.35157263  1
  S  S33  1  0.24352315  0.22805379  0.84285283  1
  S  S34  1  0.93420606  0.06416804  0.76833507  1
  S  S35  1  0.49111101  0.32539637  0.50892474  1
  S  S36  1  0.53859967  0.84789755  0.19977318  1
  S  S37  1  0.06579394  0.56416804  0.76833507  1
  S  S38  1  0.75647685  0.77194621  0.34285283  1
  S  S39  1  0.25281592  0.56668257  0.49812070  1
  S  S40  1  0.77208358  0.66020735  0.64962132  1
  S  S41  1  0.06579394  0.93583196  0.26833507  1
  S  S42  1  0.49111101  0.17460363  0.00892474  1
  S  S43  1  0.92902055  0.76313340  0.42692039  1
  S  S44  1  0.77208358  0.83979265  0.14962132  1
  S  S45  1  0.95353568  0.00932041  0.35563051  1
  S  S46  1  0.50888899  0.82539637  0.50892474  1
  S  S47  1  0.46140033  0.15210245  0.69977318  1
  S  S48  1  0.25281592  0.93331743  -0.00187930  1
  S  S49  1  0.07097945  0.23686660  0.92692039  1
  S  S50  1  0.04646432  0.99067959  0.85563051  1
  S  S51  1  0.24352315  0.27194621  0.34285283  1
  S  S52  1  0.53666833  0.51348295  0.85157263  1
  S  S53  1  0.92902055  0.73686660  0.92692039  1
  S  S54  1  0.90559606  0.54031535  0.04434740  1
  S  S55  1  0.53859967  0.65210245  0.69977318  1
  S  S56  1  0.50888899  0.67460363  0.00892474  1
  S  S57  1  0.74718408  0.06668257  0.49812070  1
  S  S58  1  0.46333167  0.01348295  0.85157263  1
  S  S59  1  0.04646432  0.50932041  0.35563051  1
  S  S60  1  0.93420606  0.43583196  0.26833507  1
  S  S61  1  0.95353568  0.49067959  0.85563051  1
  S  S62  1  0.90559606  0.95968465  0.54434740  1
  S  S63  1  0.22791642  0.16020735  0.64962132  1
  O  O64  1  0.72861407  0.07697822  0.20924465  1
  O  O65  1  0.27138593  0.57697822  0.20924465  1
  O  O66  1  0.27138593  0.92302178  0.70924465  1
  O  O67  1  0.72861407  0.42302178  0.70924465  1
