# generated using pymatgen
data_Ba2PrIrO6
_symmetry_space_group_name_H-M   'P 1'
_cell_length_a   6.08855768
_cell_length_b   6.08855768
_cell_length_c   8.65586507
_cell_angle_alpha   90.00000000
_cell_angle_beta   90.00000000
_cell_angle_gamma   90.00000000
_symmetry_Int_Tables_number   1
_chemical_formula_structural   Ba2PrIrO6
_chemical_formula_sum   'Ba4 Pr2 Ir2 O12'
_cell_volume   320.87754577
_cell_formula_units_Z   2
loop_
 _symmetry_equiv_pos_site_id
 _symmetry_equiv_pos_as_xyz
  1  'x, y, z'
loop_
 _atom_site_type_symbol
 _atom_site_label
 _atom_site_symmetry_multiplicity
 _atom_site_fract_x
 _atom_site_fract_y
 _atom_site_fract_z
 _atom_site_occupancy
  Ba  Ba0  1  0.50000000  0.00000000  0.25000000  1
  Ba  Ba1  1  0.50000000  0.00000000  0.75000000  1
  Ba  Ba2  1  0.00000000  0.50000000  0.75000000  1
  Ba  Ba3  1  0.00000000  0.50000000  0.25000000  1
  Pr  Pr4  1  0.50000000  0.50000000  0.00000000  1
  Pr  Pr5  1  0.00000000  0.00000000  0.50000000  1
  Ir  Ir6  1  0.50000000  0.50000000  0.50000000  1
  Ir  Ir7  1  0.00000000  0.00000000  0.00000000  1
  O  O8  1  0.79131122  0.25059774  0.00000000  1
  O  O9  1  0.50000000  0.50000000  0.26982942  1
  O  O10  1  0.00000000  0.00000000  0.76982942  1
  O  O11  1  0.20868878  0.74940226  0.00000000  1
  O  O12  1  0.70868878  0.75059774  0.50000000  1
  O  O13  1  0.29131122  0.24940226  0.50000000  1
  O  O14  1  0.00000000  0.00000000  0.23017058  1
  O  O15  1  0.50000000  0.50000000  0.73017058  1
  O  O16  1  0.24940226  0.70868878  0.50000000  1
  O  O17  1  0.75059774  0.29131122  0.50000000  1
  O  O18  1  0.74940226  0.79131122  0.00000000  1
  O  O19  1  0.25059774  0.20868878  0.00000000  1
