# generated using pymatgen
data_NaLiCO3
_symmetry_space_group_name_H-M   'P 1'
_cell_length_a   3.35889900
_cell_length_b   14.47471372
_cell_length_c   14.48366307
_cell_angle_alpha   60.07048586
_cell_angle_beta   88.22806212
_cell_angle_gamma   88.33308578
_symmetry_Int_Tables_number   1
_chemical_formula_structural   NaLiCO3
_chemical_formula_sum   'Na9 Li9 C9 O27'
_cell_volume   609.90509504
_cell_formula_units_Z   9
loop_
 _symmetry_equiv_pos_site_id
 _symmetry_equiv_pos_as_xyz
  1  'x, y, z'
loop_
 _atom_site_type_symbol
 _atom_site_label
 _atom_site_symmetry_multiplicity
 _atom_site_fract_x
 _atom_site_fract_y
 _atom_site_fract_z
 _atom_site_occupancy
  Na  Na0  1  0.52646964  0.22491477  0.86850349  1
  Na  Na1  1  0.56694166  0.87761159  0.54423680  1
  Na  Na2  1  0.47927663  0.55116057  0.19303543  1
  Na  Na3  1  0.53016782  0.86753791  0.90698970  1
  Na  Na4  1  0.51573126  0.19171244  0.25701265  1
  Na  Na5  1  0.48127745  0.57594552  0.87910624  1
  Na  Na6  1  0.46930139  0.90771277  0.22566953  1
  Na  Na7  1  0.44186743  0.54564882  0.57743421  1
  Na  Na8  1  0.49313662  0.25599844  0.55180987  1
  Li  Li9  1  0.00381566  0.43139163  0.82212832  1
  Li  Li10  1  0.01123884  0.12453916  0.10121019  1
  Li  Li11  1  0.98666621  0.41911918  0.10616999  1
  Li  Li12  1  0.01114364  0.10082216  0.77452350  1
  Li  Li13  1  0.05508755  0.82057121  0.74690546  1
  Li  Li14  1  0.97073689  0.47516878  0.42001909  1
  Li  Li15  1  0.02856023  0.10503697  0.47551350  1
  Li  Li16  1  0.98334586  0.77438729  0.12518058  1
  Li  Li17  1  0.95061389  0.74758056  0.43257436  1
  C  C18  1  0.99008732  0.34611987  0.66413659  1
  C  C19  1  0.99842451  0.66709984  0.66713246  1
  C  C20  1  0.52937234  0.01282272  0.66843366  1
  C  C21  1  0.00056159  0.66307542  0.99102397  1
  C  C22  1  0.00713232  0.99971501  0.00032265  1
  C  C23  1  0.46762243  0.66849947  0.31921294  1
  C  C24  1  0.01183397  0.99054525  0.34646657  1
  C  C25  1  0.50319061  0.31815918  0.01406393  1
  C  C26  1  0.99664437  0.33308588  0.33395368  1
  O  O27  1  0.07294172  0.74696950  0.89880857  1
  O  O28  1  0.55135647  0.91153754  0.69906158  1
  O  O29  1  0.46794659  0.56727886  0.34965296  1
  O  O30  1  0.51791613  0.08331255  0.56734781  1
  O  O31  1  0.51891947  0.04280566  0.73976587  1
  O  O32  1  0.91937193  0.89958787  0.35539914  1
  O  O33  1  0.46198145  0.69919366  0.38997119  1
  O  O34  1  0.47276376  0.73988878  0.21818056  1
  O  O35  1  0.49841028  0.38878008  0.91287612  1
  O  O36  1  0.91697357  0.65931998  0.58419333  1
  O  O37  1  0.00336391  0.58250513  0.76080032  1
  O  O38  1  0.00650544  0.91325836  0.99377213  1
  O  O39  1  0.05578931  0.35350558  0.74834183  1
  O  O40  1  0.04654547  0.07445947  0.25278024  1
  O  O41  1  0.02998251  0.09241049  0.91404854  1
  O  O42  1  0.98826843  0.41889423  0.24082722  1
  O  O43  1  0.06810554  0.99709752  0.43146593  1
  O  O44  1  0.95350492  0.43223483  0.57182530  1
  O  O45  1  0.51247082  0.21704987  0.04358189  1
  O  O46  1  0.96122401  0.57068250  0.99779936  1
  O  O47  1  0.99943957  0.23974890  0.34137184  1
  O  O48  1  0.00204537  0.34063263  0.41970920  1
  O  O49  1  0.49880442  0.34871626  0.08480562  1
  O  O50  1  0.96846639  0.67171143  0.07593289  1
  O  O51  1  0.07454198  0.75936859  0.65640417  1
  O  O52  1  0.96230703  0.25298868  0.67246911  1
  O  O53  1  0.98480540  0.99347861  0.09313789  1
