# generated using pymatgen
data_Nd4Ga2S5O4
_symmetry_space_group_name_H-M   'P 1'
_cell_length_a   5.82966213
_cell_length_b   18.59544958
_cell_length_c   22.90048376
_cell_angle_alpha   90.00000000
_cell_angle_beta   90.00000000
_cell_angle_gamma   90.00000000
_symmetry_Int_Tables_number   1
_chemical_formula_structural   Nd4Ga2S5O4
_chemical_formula_sum   'Nd32 Ga16 S40 O32'
_cell_volume   2482.53125203
_cell_formula_units_Z   8
loop_
 _symmetry_equiv_pos_site_id
 _symmetry_equiv_pos_as_xyz
  1  'x, y, z'
loop_
 _atom_site_type_symbol
 _atom_site_label
 _atom_site_symmetry_multiplicity
 _atom_site_fract_x
 _atom_site_fract_y
 _atom_site_fract_z
 _atom_site_occupancy
  Nd  Nd0  1  0.48372517  0.44787930  0.92983063  1
  Nd  Nd1  1  0.51627483  0.55212070  0.07016937  1
  Nd  Nd2  1  0.97483653  0.46359552  0.81071042  1
  Nd  Nd3  1  0.53086135  0.41167147  0.18380375  1
  Nd  Nd4  1  0.02516347  0.96359552  0.68928958  1
  Nd  Nd5  1  0.98596808  0.92792691  0.44760310  1
  Nd  Nd6  1  0.98596808  0.57207309  0.94760310  1
  Nd  Nd7  1  0.48372517  0.05212070  0.42983063  1
  Nd  Nd8  1  0.47483653  0.46359552  0.68928958  1
  Nd  Nd9  1  0.46913865  0.91167147  0.31619625  1
  Nd  Nd10  1  0.51403192  0.42792691  0.44760310  1
  Nd  Nd11  1  0.01627483  0.55212070  0.42983063  1
  Nd  Nd12  1  0.98372517  0.44787930  0.57016937  1
  Nd  Nd13  1  0.51403192  0.07207309  0.94760310  1
  Nd  Nd14  1  0.96913865  0.58832853  0.68380375  1
  Nd  Nd15  1  0.51627483  0.94787930  0.57016937  1
  Nd  Nd16  1  0.02516347  0.53640448  0.18928958  1
  Nd  Nd17  1  0.03086135  0.08832853  0.81619625  1
  Nd  Nd18  1  0.03086135  0.41167147  0.31619625  1
  Nd  Nd19  1  0.52516347  0.96359552  0.81071042  1
  Nd  Nd20  1  0.47483653  0.03640448  0.18928958  1
  Nd  Nd21  1  0.52516347  0.53640448  0.31071042  1
  Nd  Nd22  1  0.53086135  0.08832853  0.68380375  1
  Nd  Nd23  1  0.01403192  0.07207309  0.55239690  1
  Nd  Nd24  1  0.01627483  0.94787930  0.92983063  1
  Nd  Nd25  1  0.48596808  0.92792691  0.05239690  1
  Nd  Nd26  1  0.01403192  0.42792691  0.05239690  1
  Nd  Nd27  1  0.48596808  0.57207309  0.55239690  1
  Nd  Nd28  1  0.97483653  0.03640448  0.31071042  1
  Nd  Nd29  1  0.46913865  0.58832853  0.81619625  1
  Nd  Nd30  1  0.96913865  0.91167147  0.18380375  1
  Nd  Nd31  1  0.98372517  0.05212070  0.07016937  1
  Ga  Ga32  1  0.53019597  0.73118329  0.20088067  1
  Ga  Ga33  1  0.96980403  0.26881671  0.70088067  1
  Ga  Ga34  1  0.03019597  0.73118329  0.29911933  1
  Ga  Ga35  1  0.03019597  0.76881671  0.79911933  1
  Ga  Ga36  1  0.36411172  0.76761050  0.94603892  1
  Ga  Ga37  1  0.46980403  0.26881671  0.79911933  1
  Ga  Ga38  1  0.86411172  0.76761050  0.55396108  1
  Ga  Ga39  1  0.13588828  0.26761050  0.94603892  1
  Ga  Ga40  1  0.63588828  0.23238950  0.05396108  1
  Ga  Ga41  1  0.36411172  0.73238950  0.44603892  1
  Ga  Ga42  1  0.63588828  0.26761050  0.55396108  1
  Ga  Ga43  1  0.53019597  0.76881671  0.70088067  1
  Ga  Ga44  1  0.96980403  0.23118329  0.20088067  1
  Ga  Ga45  1  0.46980403  0.23118329  0.29911933  1
  Ga  Ga46  1  0.13588828  0.23238950  0.44603892  1
  Ga  Ga47  1  0.86411172  0.73238950  0.05396108  1
  S  S48  1  0.04423807  0.88891489  0.80785344  1
  S  S49  1  0.45576193  0.38891489  0.80785344  1
  S  S50  1  0.39628862  0.18197056  0.51317336  1
  S  S51  1  0.89628862  0.31802944  0.48682664  1
  S  S52  1  0.52741822  0.62697916  0.42346920  1
  S  S53  1  0.97258178  0.37302084  0.92346920  1
  S  S54  1  0.83735704  0.27001316  0.28962602  1
  S  S55  1  0.16247841  0.70113410  0.87826923  1
  S  S56  1  0.60371138  0.68197056  0.98682664  1
  S  S57  1  0.83735704  0.22998684  0.78962602  1
  S  S58  1  0.83752159  0.29886590  0.12173077  1
  S  S59  1  0.33752159  0.20113410  0.87826923  1
  S  S60  1  0.47258178  0.37302084  0.57653080  1
  S  S61  1  0.33735704  0.22998684  0.71037398  1
  S  S62  1  0.52741822  0.87302084  0.92346920  1
  S  S63  1  0.16264296  0.72998684  0.71037398  1
  S  S64  1  0.45576193  0.11108511  0.30785344  1
  S  S65  1  0.04423807  0.61108511  0.30785344  1
  S  S66  1  0.02741822  0.87302084  0.57653080  1
  S  S67  1  0.16247841  0.79886590  0.37826923  1
  S  S68  1  0.10371138  0.81802944  0.01317336  1
  S  S69  1  0.54423807  0.88891489  0.69214656  1
  S  S70  1  0.33752159  0.29886590  0.37826923  1
  S  S71  1  0.95576193  0.11108511  0.19214656  1
  S  S72  1  0.66264296  0.77001316  0.28962602  1
  S  S73  1  0.89628862  0.18197056  0.98682664  1
  S  S74  1  0.60371138  0.81802944  0.48682664  1
  S  S75  1  0.16264296  0.77001316  0.21037398  1
  S  S76  1  0.66247841  0.70113410  0.62173077  1
  S  S77  1  0.54423807  0.61108511  0.19214656  1
  S  S78  1  0.33735704  0.27001316  0.21037398  1
  S  S79  1  0.47258178  0.12697916  0.07653080  1
  S  S80  1  0.83752159  0.20113410  0.62173077  1
  S  S81  1  0.95576193  0.38891489  0.69214656  1
  S  S82  1  0.66247841  0.79886590  0.12173077  1
  S  S83  1  0.02741822  0.62697916  0.07653080  1
  S  S84  1  0.66264296  0.72998684  0.78962602  1
  S  S85  1  0.97258178  0.12697916  0.42346920  1
  S  S86  1  0.39628862  0.31802944  0.01317336  1
  S  S87  1  0.10371138  0.68197056  0.51317336  1
  O  O88  1  0.72690503  0.52350274  0.62335451  1
  O  O89  1  0.72833151  0.52820253  0.87631438  1
  O  O90  1  0.22106776  0.96557896  0.25064751  1
  O  O91  1  0.77893224  0.03442104  0.74935249  1
  O  O92  1  0.77309497  0.02350274  0.62335451  1
  O  O93  1  0.75635789  0.50385402  0.49995645  1
  O  O94  1  0.27166849  0.47179747  0.12368562  1
  O  O95  1  0.72690503  0.97649726  0.12335451  1
  O  O96  1  0.74364211  0.00385402  0.49995645  1
  O  O97  1  0.74364211  0.49614598  0.99995645  1
  O  O98  1  0.27309497  0.02350274  0.87664549  1
  O  O99  1  0.22833151  0.97179747  0.12368562  1
  O  O100  1  0.24364211  0.49614598  0.50004355  1
  O  O101  1  0.72106776  0.53442104  0.74935249  1
  O  O102  1  0.22690503  0.97649726  0.37664549  1
  O  O103  1  0.77309497  0.47649726  0.12335451  1
  O  O104  1  0.25635789  0.50385402  0.00004355  1
  O  O105  1  0.75635789  0.99614598  0.99995645  1
  O  O106  1  0.27166849  0.02820253  0.62368562  1
  O  O107  1  0.25635789  0.99614598  0.50004355  1
  O  O108  1  0.77893224  0.46557896  0.24935249  1
  O  O109  1  0.77166849  0.02820253  0.87631438  1
  O  O110  1  0.22833151  0.52820253  0.62368562  1
  O  O111  1  0.72106776  0.96557896  0.24935249  1
  O  O112  1  0.27309497  0.47649726  0.37664549  1
  O  O113  1  0.72833151  0.97179747  0.37631438  1
  O  O114  1  0.27893224  0.03442104  0.75064751  1
  O  O115  1  0.22106776  0.53442104  0.75064751  1
  O  O116  1  0.27893224  0.46557896  0.25064751  1
  O  O117  1  0.22690503  0.52350274  0.87664549  1
  O  O118  1  0.24364211  0.00385402  0.00004355  1
  O  O119  1  0.77166849  0.47179747  0.37631438  1
