# generated using pymatgen
data_Li5Fe2Co5O12
_symmetry_space_group_name_H-M   'P 1'
_cell_length_a   5.11441580
_cell_length_b   5.11441577
_cell_length_c   9.84056998
_cell_angle_alpha   95.49049462
_cell_angle_beta   84.50949900
_cell_angle_gamma   59.17437188
_symmetry_Int_Tables_number   1
_chemical_formula_structural   Li5Fe2Co5O12
_chemical_formula_sum   'Li5 Fe2 Co5 O12'
_cell_volume   216.84922361
_cell_formula_units_Z   1
loop_
 _symmetry_equiv_pos_site_id
 _symmetry_equiv_pos_as_xyz
  1  'x, y, z'
loop_
 _atom_site_type_symbol
 _atom_site_label
 _atom_site_symmetry_multiplicity
 _atom_site_fract_x
 _atom_site_fract_y
 _atom_site_fract_z
 _atom_site_occupancy
  Li  Li0  1  0.82436802  0.33359422  0.50906766  1
  Li  Li1  1  0.67039635  0.17237505  0.98925061  1
  Li  Li2  1  0.33359422  0.82436802  0.99093234  1
  Li  Li3  1  0.17237505  0.67039635  0.51074939  1
  Li  Li4  1  0.08393776  0.08393776  0.75000100  1
  Fe  Fe5  1  0.24892534  0.24892534  0.25000000  1
  Fe  Fe6  1  0.74887508  0.74887508  0.75000000  1
  Co  Co7  1  0.91059995  0.91059995  0.25000000  1
  Co  Co8  1  0.00226856  0.48987816  0.99133238  1
  Co  Co9  1  0.48987816  0.00226856  0.50866762  1
  Co  Co10  1  0.58435201  0.58435201  0.25000000  1
  Co  Co11  1  0.41925382  0.41925382  0.75000000  1
  O  O12  1  0.85133693  0.62864268  0.37555054  1
  O  O13  1  0.69573583  0.46879317  0.86456447  1
  O  O14  1  0.62864268  0.85133693  0.12444946  1
  O  O15  1  0.95232162  0.22989216  0.13748259  1
  O  O16  1  0.46879317  0.69573583  0.63543553  1
  O  O17  1  0.76445451  0.05077650  0.63113691  1
  O  O18  1  0.22989216  0.95232162  0.36251741  1
  O  O19  1  0.52538686  0.29081120  0.36286740  1
  O  O20  1  0.38417248  0.14283377  0.86695356  1
  O  O21  1  0.05077650  0.76445451  0.86886309  1
  O  O22  1  0.29081120  0.52538686  0.13713360  1
  O  O23  1  0.14283377  0.38417248  0.63304644  1
