# generated using pymatgen
data_ZnS
_symmetry_space_group_name_H-M   'P 1'
_cell_length_a   3.85328702
_cell_length_b   3.85328691
_cell_length_c   69.24930228
_cell_angle_alpha   90.00000000
_cell_angle_beta   90.00000000
_cell_angle_gamma   120.00000095
_symmetry_Int_Tables_number   1
_chemical_formula_structural   ZnS
_chemical_formula_sum   'Zn22 S22'
_cell_volume   890.44835557
_cell_formula_units_Z   22
loop_
 _symmetry_equiv_pos_site_id
 _symmetry_equiv_pos_as_xyz
  1  'x, y, z'
loop_
 _atom_site_type_symbol
 _atom_site_label
 _atom_site_symmetry_multiplicity
 _atom_site_fract_x
 _atom_site_fract_y
 _atom_site_fract_z
 _atom_site_occupancy
  Zn  Zn0  1  0.66666700  0.33333300  0.36360103  1
  Zn  Zn1  1  0.66666700  0.33333300  0.63639568  1
  Zn  Zn2  1  0.00000000  0.00000000  0.86361890  1
  Zn  Zn3  1  0.33333300  0.66666700  0.31816907  1
  Zn  Zn4  1  0.33333300  0.66666700  0.95451620  1
  Zn  Zn5  1  0.33333300  0.66666700  0.04547904  1
  Zn  Zn6  1  0.00000000  0.00000000  0.54546830  1
  Zn  Zn7  1  0.00000000  0.00000000  0.27271931  1
  Zn  Zn8  1  0.00000000  0.00000000  0.13639646  1
  Zn  Zn9  1  0.66666700  0.33333300  0.90909611  1
  Zn  Zn10  1  0.33333300  0.66666700  0.72729232  1
  Zn  Zn11  1  0.33333300  0.66666700  0.59090436  1
  Zn  Zn12  1  0.33333300  0.66666700  0.18182065  1
  Zn  Zn13  1  0.00000000  0.00000000  0.68182078  1
  Zn  Zn14  1  0.66666700  0.33333300  0.09090441  1
  Zn  Zn15  1  0.00000000  0.00000000  0.40909505  1
  Zn  Zn16  1  0.66666700  0.33333300  0.77271695  1
  Zn  Zn17  1  0.33333300  0.66666700  0.45452036  1
  Zn  Zn18  1  0.00000000  0.00000000  0.99999566  1
  Zn  Zn19  1  0.66666700  0.33333300  0.22729626  1
  Zn  Zn20  1  0.33333300  0.66666700  0.81820588  1
  Zn  Zn21  1  0.66666700  0.33333300  0.49999914  1
  S  S22  1  0.33333300  0.66666700  0.76135059  1
  S  S23  1  0.00000000  0.00000000  0.89770610  1
  S  S24  1  0.00000000  0.00000000  0.30679852  1
  S  S25  1  0.33333300  0.66666700  0.07953620  1
  S  S26  1  0.66666700  0.33333300  0.53409342  1
  S  S27  1  0.33333300  0.66666700  0.85227691  1
  S  S28  1  0.33333300  0.66666700  0.48860597  1
  S  S29  1  0.66666700  0.33333300  0.94317744  1
  S  S30  1  0.66666700  0.33333300  0.26137816  1
  S  S31  1  0.66666700  0.33333300  0.12500051  1
  S  S32  1  0.00000000  0.00000000  0.17047509  1
  S  S33  1  0.66666700  0.33333300  0.67047298  1
  S  S34  1  0.66666700  0.33333300  0.39769874  1
  S  S35  1  0.33333300  0.66666700  0.35223837  1
  S  S36  1  0.00000000  0.00000000  0.57953632  1
  S  S37  1  0.33333300  0.66666700  0.21590727  1
  S  S38  1  0.33333300  0.66666700  0.98858096  1
  S  S39  1  0.00000000  0.00000000  0.44317795  1
  S  S40  1  0.00000000  0.00000000  0.71590731  1
  S  S41  1  0.00000000  0.00000000  0.03411741  1
  S  S42  1  0.66666700  0.33333300  0.80683122  1
  S  S43  1  0.33333300  0.66666700  0.62500062  1
