# generated using pymatgen
data_Ba2LaTaO6
_symmetry_space_group_name_H-M   'P 1'
_cell_length_a   6.14933210
_cell_length_b   6.20640256
_cell_length_c   8.69010151
_cell_angle_alpha   90.51944502
_cell_angle_beta   90.00000000
_cell_angle_gamma   90.00000000
_symmetry_Int_Tables_number   1
_chemical_formula_structural   Ba2LaTaO6
_chemical_formula_sum   'Ba4 La2 Ta2 O12'
_cell_volume   331.64609726
_cell_formula_units_Z   2
loop_
 _symmetry_equiv_pos_site_id
 _symmetry_equiv_pos_as_xyz
  1  'x, y, z'
loop_
 _atom_site_type_symbol
 _atom_site_label
 _atom_site_symmetry_multiplicity
 _atom_site_fract_x
 _atom_site_fract_y
 _atom_site_fract_z
 _atom_site_occupancy
  Ba  Ba0  1  0.50943380  0.00599713  0.74799444  1
  Ba  Ba1  1  0.99056620  0.50599713  0.24799444  1
  Ba  Ba2  1  0.00943380  0.49400287  0.75200556  1
  Ba  Ba3  1  0.49056620  0.99400287  0.25200556  1
  La  La4  1  0.00000000  0.00000000  0.00000000  1
  La  La5  1  0.50000000  0.50000000  0.50000000  1
  Ta  Ta6  1  0.50000000  0.50000000  0.00000000  1
  Ta  Ta7  1  0.00000000  0.00000000  0.50000000  1
  O  O8  1  0.99435205  0.93103638  0.72713904  1
  O  O9  1  0.74392354  0.28680646  0.96225386  1
  O  O10  1  0.28173979  0.26145956  0.96320383  1
  O  O11  1  0.24392354  0.21319354  0.53774614  1
  O  O12  1  0.78173979  0.23854044  0.53679617  1
  O  O13  1  0.21826021  0.76145956  0.46320383  1
  O  O14  1  0.00564795  0.06896362  0.27286096  1
  O  O15  1  0.25607646  0.71319354  0.03774614  1
  O  O16  1  0.75607646  0.78680646  0.46225386  1
  O  O17  1  0.50564795  0.43103638  0.22713904  1
  O  O18  1  0.71826021  0.73854044  0.03679617  1
  O  O19  1  0.49435205  0.56896362  0.77286096  1
