# generated using pymatgen
data_NaLiCO3
_symmetry_space_group_name_H-M   'P 1'
_cell_length_a   8.39745302
_cell_length_b   8.39745276
_cell_length_c   3.33979502
_cell_angle_alpha   90.00000000
_cell_angle_beta   90.00000000
_cell_angle_gamma   120.00000105
_symmetry_Int_Tables_number   1
_chemical_formula_structural   NaLiCO3
_chemical_formula_sum   'Na3 Li3 C3 O9'
_cell_volume   203.96027653
_cell_formula_units_Z   3
loop_
 _symmetry_equiv_pos_site_id
 _symmetry_equiv_pos_as_xyz
  1  'x, y, z'
loop_
 _atom_site_type_symbol
 _atom_site_label
 _atom_site_symmetry_multiplicity
 _atom_site_fract_x
 _atom_site_fract_y
 _atom_site_fract_z
 _atom_site_occupancy
  Na  Na0  1  0.32069969  0.29212808  0.50000000  1
  Na  Na1  1  0.70787192  0.02857161  0.50000000  1
  Na  Na2  1  0.97142839  0.67930031  0.50000000  1
  Li  Li3  1  0.34217023  0.96692446  0.00000000  1
  Li  Li4  1  0.62475423  0.65782977  0.00000000  1
  Li  Li5  1  0.03307554  0.37524577  0.00000000  1
  C  C6  1  0.00000000  0.00000000  0.00000000  1
  C  C7  1  0.66666700  0.33333300  0.00000000  1
  C  C8  1  0.33333300  0.66666700  0.50000000  1
  O  O9  1  0.48817264  0.23548682  0.00000000  1
  O  O10  1  0.76451318  0.25268582  0.00000000  1
  O  O11  1  0.74731418  0.51182736  0.00000000  1
  O  O12  1  0.82121270  0.90985518  0.00000000  1
  O  O13  1  0.09014482  0.91135752  0.00000000  1
  O  O14  1  0.46275516  0.62361294  0.50000000  1
  O  O15  1  0.16085777  0.53724484  0.50000000  1
  O  O16  1  0.37638706  0.83914223  0.50000000  1
  O  O17  1  0.08864248  0.17878730  0.00000000  1
