# generated using pymatgen
data_CePO4
_symmetry_space_group_name_H-M   'P 1'
_cell_length_a   7.18737111
_cell_length_b   7.18737150
_cell_length_c   6.48813558
_cell_angle_alpha   90.00000000
_cell_angle_beta   90.00000000
_cell_angle_gamma   119.99999827
_symmetry_Int_Tables_number   1
_chemical_formula_structural   CePO4
_chemical_formula_sum   'Ce3 P3 O12'
_cell_volume   290.26235759
_cell_formula_units_Z   3
loop_
 _symmetry_equiv_pos_site_id
 _symmetry_equiv_pos_as_xyz
  1  'x, y, z'
loop_
 _atom_site_type_symbol
 _atom_site_label
 _atom_site_symmetry_multiplicity
 _atom_site_fract_x
 _atom_site_fract_y
 _atom_site_fract_z
 _atom_site_occupancy
  Ce  Ce0  1  0.50000000  0.00000000  0.83333300  1
  Ce  Ce1  1  0.50000000  0.50000000  0.50000000  1
  Ce  Ce2  1  0.00000000  0.50000000  0.16666700  1
  P  P3  1  0.00000000  0.50000000  0.66666700  1
  P  P4  1  0.50000000  0.00000000  0.33333300  1
  P  P5  1  0.50000000  0.50000000  0.00000000  1
  O  O6  1  0.13693331  0.69110535  0.81332498  1
  O  O7  1  0.44582795  0.30889465  0.85334102  1
  O  O8  1  0.30889465  0.86306669  0.18667502  1
  O  O9  1  0.30889465  0.44582795  0.14665898  1
  O  O10  1  0.44582795  0.13693331  0.47999198  1
  O  O11  1  0.55417205  0.69110535  0.85334102  1
  O  O12  1  0.86306669  0.55417205  0.52000802  1
  O  O13  1  0.86306669  0.30889465  0.81332498  1
  O  O14  1  0.55417205  0.86306669  0.47999198  1
  O  O15  1  0.69110535  0.55417205  0.14665898  1
  O  O16  1  0.69110535  0.13693331  0.18667502  1
  O  O17  1  0.13693331  0.44582795  0.52000802  1
