# generated using pymatgen
data_BaLi(B3O5)3
_symmetry_space_group_name_H-M   'P 1'
_cell_length_a   8.63070754
_cell_length_b   8.63070805
_cell_length_c   8.63070734
_cell_angle_alpha   80.72285594
_cell_angle_beta   80.72285535
_cell_angle_gamma   80.72285447
_symmetry_Int_Tables_number   1
_chemical_formula_structural   BaLi(B3O5)3
_chemical_formula_sum   'Ba2 Li2 B18 O30'
_cell_volume   620.12199621
_cell_formula_units_Z   2
loop_
 _symmetry_equiv_pos_site_id
 _symmetry_equiv_pos_as_xyz
  1  'x, y, z'
loop_
 _atom_site_type_symbol
 _atom_site_label
 _atom_site_symmetry_multiplicity
 _atom_site_fract_x
 _atom_site_fract_y
 _atom_site_fract_z
 _atom_site_occupancy
  Ba  Ba0  1  0.50000000  0.50000000  0.50000000  1
  Ba  Ba1  1  0.00000000  0.00000000  0.00000000  1
  Li  Li2  1  0.25000000  0.25000000  0.25000000  1
  Li  Li3  1  0.75000000  0.75000000  0.75000000  1
  B  B4  1  0.81963701  0.25000000  0.68036299  1
  B  B5  1  0.60676410  0.08074637  0.74439307  1
  B  B6  1  0.18036299  0.75000000  0.31963701  1
  B  B7  1  0.08074637  0.74439307  0.60676410  1
  B  B8  1  0.25560693  0.39323590  0.91925363  1
  B  B9  1  0.24439307  0.58074637  0.10676410  1
  B  B10  1  0.31963701  0.18036299  0.75000000  1
  B  B11  1  0.89323590  0.75560693  0.41925363  1
  B  B12  1  0.75560693  0.41925363  0.89323590  1
  B  B13  1  0.41925363  0.89323590  0.75560693  1
  B  B14  1  0.25000000  0.68036299  0.81963701  1
  B  B15  1  0.74439307  0.60676410  0.08074637  1
  B  B16  1  0.75000000  0.31963701  0.18036299  1
  B  B17  1  0.10676410  0.24439307  0.58074637  1
  B  B18  1  0.91925363  0.25560693  0.39323590  1
  B  B19  1  0.39323590  0.91925363  0.25560693  1
  B  B20  1  0.68036299  0.81963701  0.25000000  1
  B  B21  1  0.58074637  0.10676410  0.24439307  1
  O  O22  1  0.51209718  0.79651614  0.27652755  1
  O  O23  1  0.74214645  0.39820789  0.74338706  1
  O  O24  1  0.75661294  0.10179211  0.75785355  1
  O  O25  1  0.39820789  0.74338706  0.74214645  1
  O  O26  1  0.29651614  0.01209718  0.77652755  1
  O  O27  1  0.25000000  0.42360845  0.07639155  1
  O  O28  1  0.75000000  0.57639155  0.92360845  1
  O  O29  1  0.74338706  0.74214645  0.39820789  1
  O  O30  1  0.01209718  0.77652755  0.29651614  1
  O  O31  1  0.24214645  0.24338706  0.89820789  1
  O  O32  1  0.89820789  0.24214645  0.24338706  1
  O  O33  1  0.25661294  0.25785355  0.60179211  1
  O  O34  1  0.42360845  0.07639155  0.25000000  1
  O  O35  1  0.07639155  0.25000000  0.42360845  1
  O  O36  1  0.72347245  0.48790282  0.20348386  1
  O  O37  1  0.75785355  0.75661294  0.10179211  1
  O  O38  1  0.98790282  0.22347245  0.70348386  1
  O  O39  1  0.27652755  0.51209718  0.79651614  1
  O  O40  1  0.60179211  0.25661294  0.25785355  1
  O  O41  1  0.79651614  0.27652755  0.51209718  1
  O  O42  1  0.92360845  0.75000000  0.57639155  1
  O  O43  1  0.77652755  0.29651614  0.01209718  1
  O  O44  1  0.22347245  0.70348386  0.98790282  1
  O  O45  1  0.48790282  0.20348386  0.72347245  1
  O  O46  1  0.57639155  0.92360845  0.75000000  1
  O  O47  1  0.25785355  0.60179211  0.25661294  1
  O  O48  1  0.10179211  0.75785355  0.75661294  1
  O  O49  1  0.20348386  0.72347245  0.48790282  1
  O  O50  1  0.24338706  0.89820789  0.24214645  1
  O  O51  1  0.70348386  0.98790282  0.22347245  1
