# generated using pymatgen
data_CaTeCO5
_symmetry_space_group_name_H-M   'P 1'
_cell_length_a   7.12891092
_cell_length_b   10.70511258
_cell_length_c   11.25697372
_cell_angle_alpha   90.00000000
_cell_angle_beta   90.00000000
_cell_angle_gamma   90.00000000
_symmetry_Int_Tables_number   1
_chemical_formula_structural   CaTeCO5
_chemical_formula_sum   'Ca8 Te8 C8 O40'
_cell_volume   859.08488716
_cell_formula_units_Z   8
loop_
 _symmetry_equiv_pos_site_id
 _symmetry_equiv_pos_as_xyz
  1  'x, y, z'
loop_
 _atom_site_type_symbol
 _atom_site_label
 _atom_site_symmetry_multiplicity
 _atom_site_fract_x
 _atom_site_fract_y
 _atom_site_fract_z
 _atom_site_occupancy
  Ca  Ca0  1  0.01543975  0.49003727  0.82792440  1
  Ca  Ca1  1  0.01543975  0.99003727  0.67207560  1
  Ca  Ca2  1  0.51543975  0.00996273  0.82792440  1
  Ca  Ca3  1  0.51543975  0.50996273  0.67207560  1
  Ca  Ca4  1  0.48456025  0.99003727  0.17207560  1
  Ca  Ca5  1  0.48456025  0.49003727  0.32792440  1
  Ca  Ca6  1  0.98456025  0.50996273  0.17207560  1
  Ca  Ca7  1  0.98456025  0.00996273  0.32792440  1
  Te  Te8  1  0.40349234  0.63188044  0.98367211  1
  Te  Te9  1  0.09650766  0.13188044  0.01632789  1
  Te  Te10  1  0.40349234  0.13188044  0.51632789  1
  Te  Te11  1  0.59650766  0.36811956  0.01632789  1
  Te  Te12  1  0.90349234  0.36811956  0.51632789  1
  Te  Te13  1  0.90349234  0.86811956  0.98367211  1
  Te  Te14  1  0.09650766  0.63188044  0.48367211  1
  Te  Te15  1  0.59650766  0.86811956  0.48367211  1
  C  C16  1  0.26345943  0.25642196  0.26046535  1
  C  C17  1  0.73654057  0.24357804  0.76046535  1
  C  C18  1  0.23654057  0.25642196  0.76046535  1
  C  C19  1  0.76345943  0.24357804  0.26046535  1
  C  C20  1  0.73654057  0.74357804  0.73953465  1
  C  C21  1  0.76345943  0.74357804  0.23953465  1
  C  C22  1  0.23654057  0.75642196  0.73953465  1
  C  C23  1  0.26345943  0.75642196  0.23953465  1
  O  O24  1  0.01886385  0.47419886  0.39075219  1
  O  O25  1  0.35559364  0.27516072  0.35948534  1
  O  O26  1  0.51886385  0.52580114  0.10924781  1
  O  O27  1  0.64440636  0.22483928  0.85948534  1
  O  O28  1  0.72556012  0.64970903  0.30563689  1
  O  O29  1  0.15647350  0.57836210  0.00219957  1
  O  O30  1  0.22556012  0.85029097  0.30563689  1
  O  O31  1  0.98113615  0.02580114  0.89075219  1
  O  O32  1  0.72556012  0.14970903  0.19436311  1
  O  O33  1  0.35559364  0.77516072  0.14051466  1
  O  O34  1  0.78129601  0.85744012  0.77070282  1
  O  O35  1  0.85559364  0.72483928  0.14051466  1
  O  O36  1  0.34352650  0.57836210  0.50219957  1
  O  O37  1  0.22556012  0.35029097  0.19436311  1
  O  O38  1  0.85559364  0.22483928  0.35948534  1
  O  O39  1  0.14440636  0.27516072  0.85948534  1
  O  O40  1  0.64440636  0.72483928  0.64051466  1
  O  O41  1  0.77443988  0.14970903  0.69436311  1
  O  O42  1  0.01886385  0.97419886  0.10924781  1
  O  O43  1  0.78129601  0.35744012  0.72929718  1
  O  O44  1  0.28129601  0.14255988  0.72929718  1
  O  O45  1  0.84352650  0.42163790  0.99780043  1
  O  O46  1  0.21870399  0.64255988  0.27070282  1
  O  O47  1  0.71870399  0.35744012  0.22929718  1
  O  O48  1  0.65647350  0.92163790  0.00219957  1
  O  O49  1  0.27443988  0.35029097  0.69436311  1
  O  O50  1  0.77443988  0.64970903  0.80563689  1
  O  O51  1  0.48113615  0.47419886  0.89075219  1
  O  O52  1  0.27443988  0.85029097  0.80563689  1
  O  O53  1  0.65647350  0.42163790  0.49780043  1
  O  O54  1  0.21870399  0.14255988  0.22929718  1
  O  O55  1  0.15647350  0.07836210  0.49780043  1
  O  O56  1  0.98113615  0.52580114  0.60924781  1
  O  O57  1  0.34352650  0.07836210  0.99780043  1
  O  O58  1  0.28129601  0.64255988  0.77070282  1
  O  O59  1  0.84352650  0.92163790  0.50219957  1
  O  O60  1  0.71870399  0.85744012  0.27070282  1
  O  O61  1  0.48113615  0.97419886  0.60924781  1
  O  O62  1  0.51886385  0.02580114  0.39075219  1
  O  O63  1  0.14440636  0.77516072  0.64051466  1
