# generated using pymatgen
data_Ca2Nb2O7
_symmetry_space_group_name_H-M   'P 1'
_cell_length_a   5.55154016
_cell_length_b   7.77549713
_cell_length_c   27.00026492
_cell_angle_alpha   90.00000000
_cell_angle_beta   90.00000000
_cell_angle_gamma   90.00000000
_symmetry_Int_Tables_number   1
_chemical_formula_structural   Ca2Nb2O7
_chemical_formula_sum   'Ca16 Nb16 O56'
_cell_volume   1165.49301922
_cell_formula_units_Z   8
loop_
 _symmetry_equiv_pos_site_id
 _symmetry_equiv_pos_as_xyz
  1  'x, y, z'
loop_
 _atom_site_type_symbol
 _atom_site_label
 _atom_site_symmetry_multiplicity
 _atom_site_fract_x
 _atom_site_fract_y
 _atom_site_fract_z
 _atom_site_occupancy
  Ca  Ca0  1  0.24592514  0.12467063  0.20730562  1
  Ca  Ca1  1  0.26266649  0.62390404  0.18795332  1
  Ca  Ca2  1  0.26266649  0.87609596  0.68795332  1
  Ca  Ca3  1  0.24592514  0.37532937  0.70730562  1
  Ca  Ca4  1  0.23979148  0.38335464  0.95028341  1
  Ca  Ca5  1  0.76266649  0.37609596  0.81204668  1
  Ca  Ca6  1  0.76266649  0.12390404  0.31204668  1
  Ca  Ca7  1  0.66781064  0.37617331  0.53273552  1
  Ca  Ca8  1  0.66781064  0.12382669  0.03273552  1
  Ca  Ca9  1  0.74592514  0.87532937  0.79269438  1
  Ca  Ca10  1  0.74592514  0.62467063  0.29269438  1
  Ca  Ca11  1  0.23979148  0.11664536  0.45028341  1
  Ca  Ca12  1  0.73979148  0.61664536  0.04971659  1
  Ca  Ca13  1  0.73979148  0.88335464  0.54971659  1
  Ca  Ca14  1  0.16781064  0.62382669  0.46726448  1
  Ca  Ca15  1  0.16781064  0.87617331  0.96726448  1
  Nb  Nb16  1  0.22993940  0.87857158  0.08861673  1
  Nb  Nb17  1  0.24936376  0.62121057  0.80906964  1
  Nb  Nb18  1  0.72588396  0.86947224  0.41289466  1
  Nb  Nb19  1  0.24936376  0.87878943  0.30906964  1
  Nb  Nb20  1  0.74936376  0.37878943  0.19093036  1
  Nb  Nb21  1  0.74936376  0.12121057  0.69093036  1
  Nb  Nb22  1  0.22993940  0.62142842  0.58861673  1
  Nb  Nb23  1  0.24781514  0.12859063  0.80767177  1
  Nb  Nb24  1  0.74781514  0.62859063  0.69232823  1
  Nb  Nb25  1  0.72993940  0.12142842  0.91138327  1
  Nb  Nb26  1  0.74781514  0.87140937  0.19232823  1
  Nb  Nb27  1  0.24781514  0.37140937  0.30767177  1
  Nb  Nb28  1  0.72993940  0.37857158  0.41138327  1
  Nb  Nb29  1  0.22588396  0.13052776  0.58710534  1
  Nb  Nb30  1  0.72588396  0.63052776  0.91289466  1
  Nb  Nb31  1  0.22588396  0.36947224  0.08710534  1
  O  O32  1  0.83453391  0.62507258  0.40344213  1
  O  O33  1  0.85506306  0.87508279  0.70691231  1
  O  O34  1  0.57338350  0.65329645  0.83936489  1
  O  O35  1  0.98073889  0.57827376  0.76076983  1
  O  O36  1  0.35506306  0.37508279  0.79308769  1
  O  O37  1  0.07097365  0.90391170  0.15976091  1
  O  O38  1  0.98031818  0.17194471  0.76029889  1
  O  O39  1  0.35506306  0.12491721  0.29308769  1
  O  O40  1  0.85506306  0.62491721  0.20691231  1
  O  O41  1  0.05712126  0.31434402  0.36219831  1
  O  O42  1  0.06031056  0.93642673  0.36392050  1
  O  O43  1  0.45306594  0.65401413  0.53673459  1
  O  O44  1  0.43171812  0.10211758  0.53079519  1
  O  O45  1  0.06031056  0.56357327  0.86392050  1
  O  O46  1  0.95306594  0.34598587  0.46326541  1
  O  O47  1  0.33453391  0.12507258  0.09655787  1
  O  O48  1  0.48031818  0.67194471  0.73970111  1
  O  O49  1  0.48031818  0.82805529  0.23970111  1
  O  O50  1  0.57097365  0.40391170  0.34023909  1
  O  O51  1  0.07338350  0.34670355  0.16063511  1
  O  O52  1  0.83453391  0.87492742  0.90344213  1
  O  O53  1  0.98073889  0.92172624  0.26076983  1
  O  O54  1  0.95306594  0.15401413  0.96326541  1
  O  O55  1  0.57097365  0.09608830  0.84023909  1
  O  O56  1  0.68148403  0.12530843  0.19461787  1
  O  O57  1  0.56031056  0.06357327  0.63607950  1
  O  O58  1  0.46124432  0.40390648  0.45279466  1
  O  O59  1  0.18148403  0.87469157  0.80538213  1
  O  O60  1  0.45306594  0.84598587  0.03673459  1
  O  O61  1  0.48073889  0.42172624  0.23923017  1
  O  O62  1  0.43461227  0.83850627  0.44335114  1
  O  O63  1  0.07097365  0.59608830  0.65976091  1
  O  O64  1  0.48073889  0.07827376  0.73923017  1
  O  O65  1  0.46124432  0.09609352  0.95279466  1
  O  O66  1  0.66113628  0.12400777  0.40125793  1
  O  O67  1  0.96124432  0.90390648  0.04720534  1
  O  O68  1  0.93461227  0.16149373  0.55664886  1
  O  O69  1  0.43461227  0.66149373  0.94335114  1
  O  O70  1  0.93461227  0.33850627  0.05664886  1
  O  O71  1  0.68148403  0.37469157  0.69461787  1
  O  O72  1  0.18148403  0.62530843  0.30538213  1
  O  O73  1  0.07338350  0.15329645  0.66063511  1
  O  O74  1  0.55712126  0.68565598  0.63780169  1
  O  O75  1  0.57338350  0.84670355  0.33936489  1
  O  O76  1  0.66113628  0.37599223  0.90125793  1
  O  O77  1  0.98031818  0.32805529  0.26029889  1
  O  O78  1  0.93171812  0.60211758  0.96920481  1
  O  O79  1  0.55712126  0.81434402  0.13780169  1
  O  O80  1  0.56031056  0.43642673  0.13607950  1
  O  O81  1  0.96124432  0.59609352  0.54720534  1
  O  O82  1  0.16113628  0.62400777  0.09874207  1
  O  O83  1  0.16113628  0.87599223  0.59874207  1
  O  O84  1  0.33453391  0.37492742  0.59655787  1
  O  O85  1  0.05712126  0.18565598  0.86219831  1
  O  O86  1  0.93171812  0.89788242  0.46920481  1
  O  O87  1  0.43171812  0.39788242  0.03079519  1
