# generated using pymatgen
data_LiFePO5
_symmetry_space_group_name_H-M   'P 1'
_cell_length_a   7.59764893
_cell_length_b   6.14759078
_cell_length_c   7.85272011
_cell_angle_alpha   90.00000000
_cell_angle_beta   90.00000000
_cell_angle_gamma   90.00000000
_symmetry_Int_Tables_number   1
_chemical_formula_structural   LiFePO5
_chemical_formula_sum   'Li4 Fe4 P4 O20'
_cell_volume   366.77885544
_cell_formula_units_Z   4
loop_
 _symmetry_equiv_pos_site_id
 _symmetry_equiv_pos_as_xyz
  1  'x, y, z'
loop_
 _atom_site_type_symbol
 _atom_site_label
 _atom_site_symmetry_multiplicity
 _atom_site_fract_x
 _atom_site_fract_y
 _atom_site_fract_z
 _atom_site_occupancy
  Li  Li0  1  0.14305164  0.25000000  0.66945055  1
  Li  Li1  1  0.35694836  0.75000000  0.16945055  1
  Li  Li2  1  0.64305164  0.25000000  0.83054945  1
  Li  Li3  1  0.85694836  0.75000000  0.33054945  1
  Fe  Fe4  1  0.00000000  0.00000000  0.00000000  1
  Fe  Fe5  1  0.00000000  0.50000000  0.00000000  1
  Fe  Fe6  1  0.50000000  0.00000000  0.50000000  1
  Fe  Fe7  1  0.50000000  0.50000000  0.50000000  1
  P  P8  1  0.13104286  0.75000000  0.66385819  1
  P  P9  1  0.36895714  0.25000000  0.16385819  1
  P  P10  1  0.63104286  0.75000000  0.83614181  1
  P  P11  1  0.86895714  0.25000000  0.33614181  1
  O  O12  1  0.01748535  0.25000000  0.46187397  1
  O  O13  1  0.10535485  0.75000000  0.09421703  1
  O  O14  1  0.12400663  0.54188899  0.77819547  1
  O  O15  1  0.12400663  0.95811101  0.77819547  1
  O  O16  1  0.18362662  0.25000000  0.07280773  1
  O  O17  1  0.31637338  0.75000000  0.57280773  1
  O  O18  1  0.37599337  0.04188899  0.27819547  1
  O  O19  1  0.37599337  0.45811101  0.27819547  1
  O  O20  1  0.39464515  0.25000000  0.59421703  1
  O  O21  1  0.48251465  0.75000000  0.96187397  1
  O  O22  1  0.51748535  0.25000000  0.03812603  1
  O  O23  1  0.60535485  0.75000000  0.40578297  1
  O  O24  1  0.62400663  0.54188899  0.72180453  1
  O  O25  1  0.62400663  0.95811101  0.72180453  1
  O  O26  1  0.68362662  0.25000000  0.42719227  1
  O  O27  1  0.81637338  0.75000000  0.92719227  1
  O  O28  1  0.87599337  0.04188899  0.22180453  1
  O  O29  1  0.87599337  0.45811101  0.22180453  1
  O  O30  1  0.89464515  0.25000000  0.90578297  1
  O  O31  1  0.98251465  0.75000000  0.53812603  1
