# generated using pymatgen
data_K3Nb3(BO6)2
_symmetry_space_group_name_H-M   'P 1'
_cell_length_a   8.91678398
_cell_length_b   8.91678365
_cell_length_c   4.03286456
_cell_angle_alpha   90.00000000
_cell_angle_beta   90.00000000
_cell_angle_gamma   120.00000121
_symmetry_Int_Tables_number   1
_chemical_formula_structural   K3Nb3(BO6)2
_chemical_formula_sum   'K3 Nb3 B2 O12'
_cell_volume   277.69031830
_cell_formula_units_Z   1
loop_
 _symmetry_equiv_pos_site_id
 _symmetry_equiv_pos_as_xyz
  1  'x, y, z'
loop_
 _atom_site_type_symbol
 _atom_site_label
 _atom_site_symmetry_multiplicity
 _atom_site_fract_x
 _atom_site_fract_y
 _atom_site_fract_z
 _atom_site_occupancy
  K  K0  1  1.00000000  0.59660774  0.49833925  1
  K  K1  1  0.59660774  0.00000000  0.49833925  1
  K  K2  1  0.40339226  0.40339226  0.49833925  1
  Nb  Nb3  1  0.24714864  0.00000000  0.02011081  1
  Nb  Nb4  1  0.75285136  0.75285136  0.02011081  1
  Nb  Nb5  1  1.00000000  0.24714864  0.02011081  1
  B  B6  1  0.33333300  0.66666700  0.98223893  1
  B  B7  1  0.66666700  0.33333300  0.98223893  1
  O  O8  1  0.26230064  0.00000000  0.48144525  1
  O  O9  1  0.31637001  0.81194311  0.98178359  1
  O  O10  1  0.18805689  0.50442690  0.98178359  1
  O  O11  1  0.82090750  0.00000000  0.98634490  1
  O  O12  1  0.81194311  0.31637001  0.98178359  1
  O  O13  1  0.49557310  0.68362999  0.98178359  1
  O  O14  1  0.00000000  0.82090750  0.98634490  1
  O  O15  1  0.17909250  0.17909250  0.98634490  1
  O  O16  1  0.68362999  0.49557310  0.98178359  1
  O  O17  1  0.73769936  0.73769936  0.48144525  1
  O  O18  1  0.50442690  0.18805689  0.98178359  1
  O  O19  1  1.00000000  0.26230064  0.48144525  1
