# generated using pymatgen
data_KGa(Te3O7)2
_symmetry_space_group_name_H-M   'P 1'
_cell_length_a   11.07269220
_cell_length_b   11.07269220
_cell_length_c   11.07269220
_cell_angle_alpha   90.00000000
_cell_angle_beta   90.00000000
_cell_angle_gamma   90.00000000
_symmetry_Int_Tables_number   1
_chemical_formula_structural   KGa(Te3O7)2
_chemical_formula_sum   'K4 Ga4 Te24 O56'
_cell_volume   1357.56202986
_cell_formula_units_Z   4
loop_
 _symmetry_equiv_pos_site_id
 _symmetry_equiv_pos_as_xyz
  1  'x, y, z'
loop_
 _atom_site_type_symbol
 _atom_site_label
 _atom_site_symmetry_multiplicity
 _atom_site_fract_x
 _atom_site_fract_y
 _atom_site_fract_z
 _atom_site_occupancy
  K  K0  1  0.50000000  0.50000000  0.00000000  1
  K  K1  1  0.00000000  0.50000000  0.50000000  1
  K  K2  1  0.00000000  0.00000000  0.00000000  1
  K  K3  1  0.50000000  0.00000000  0.50000000  1
  Ga  Ga4  1  0.00000000  0.00000000  0.50000000  1
  Ga  Ga5  1  0.50000000  0.50000000  0.50000000  1
  Ga  Ga6  1  0.50000000  0.00000000  0.00000000  1
  Ga  Ga7  1  0.00000000  0.50000000  0.00000000  1
  Te  Te8  1  0.99119293  0.73501841  0.77245688  1
  Te  Te9  1  0.49119293  0.73501841  0.72754312  1
  Te  Te10  1  0.76498159  0.27245688  0.99119293  1
  Te  Te11  1  0.26498159  0.22754312  0.00880707  1
  Te  Te12  1  0.73501841  0.77245688  0.99119293  1
  Te  Te13  1  0.73501841  0.72754312  0.49119293  1
  Te  Te14  1  0.27245688  0.99119293  0.76498159  1
  Te  Te15  1  0.77245688  0.99119293  0.73501841  1
  Te  Te16  1  0.22754312  0.00880707  0.26498159  1
  Te  Te17  1  0.99119293  0.76498159  0.27245688  1
  Te  Te18  1  0.77245688  0.50880707  0.23501841  1
  Te  Te19  1  0.00880707  0.23501841  0.72754312  1
  Te  Te20  1  0.72754312  0.49119293  0.73501841  1
  Te  Te21  1  0.26498159  0.27245688  0.50880707  1
  Te  Te22  1  0.23501841  0.72754312  0.00880707  1
  Te  Te23  1  0.27245688  0.50880707  0.26498159  1
  Te  Te24  1  0.49119293  0.76498159  0.22754312  1
  Te  Te25  1  0.72754312  0.00880707  0.23501841  1
  Te  Te26  1  0.22754312  0.49119293  0.76498159  1
  Te  Te27  1  0.50880707  0.26498159  0.27245688  1
  Te  Te28  1  0.76498159  0.22754312  0.49119293  1
  Te  Te29  1  0.50880707  0.23501841  0.77245688  1
  Te  Te30  1  0.00880707  0.26498159  0.22754312  1
  Te  Te31  1  0.23501841  0.77245688  0.50880707  1
  O  O32  1  0.87747045  0.38940715  0.30717584  1
  O  O33  1  0.62252955  0.61059285  0.80717584  1
  O  O34  1  0.12450672  0.43150624  0.88674274  1
  O  O35  1  0.11059285  0.80717584  0.87747045  1
  O  O36  1  0.62252955  0.88940715  0.30717584  1
  O  O37  1  0.12252955  0.88940715  0.19282416  1
  O  O38  1  0.43150624  0.61325726  0.62450672  1
  O  O39  1  0.37747045  0.11059285  0.69282416  1
  O  O40  1  0.62450672  0.43150624  0.61325726  1
  O  O41  1  0.06849376  0.11325726  0.62450672  1
  O  O42  1  0.30717584  0.87747045  0.38940715  1
  O  O43  1  0.88674274  0.12450672  0.43150624  1
  O  O44  1  0.14751926  0.14751926  0.14751926  1
  O  O45  1  0.38940715  0.30717584  0.87747045  1
  O  O46  1  0.87549328  0.56849376  0.11325726  1
  O  O47  1  0.87549328  0.93150624  0.61325726  1
  O  O48  1  0.88940715  0.30717584  0.62252955  1
  O  O49  1  0.56849376  0.38674274  0.37549328  1
  O  O50  1  0.06849376  0.38674274  0.12450672  1
  O  O51  1  0.85248074  0.64751926  0.35248074  1
  O  O52  1  0.37549328  0.93150624  0.88674274  1
  O  O53  1  0.93150624  0.88674274  0.37549328  1
  O  O54  1  0.14751926  0.35248074  0.64751926  1
  O  O55  1  0.43150624  0.88674274  0.12450672  1
  O  O56  1  0.37747045  0.38940715  0.19282416  1
  O  O57  1  0.12252955  0.61059285  0.69282416  1
  O  O58  1  0.56849376  0.11325726  0.87549328  1
  O  O59  1  0.38940715  0.19282416  0.37747045  1
  O  O60  1  0.80717584  0.87747045  0.11059285  1
  O  O61  1  0.19282416  0.37747045  0.38940715  1
  O  O62  1  0.37549328  0.56849376  0.38674274  1
  O  O63  1  0.11059285  0.69282416  0.37747045  1
  O  O64  1  0.85248074  0.85248074  0.85248074  1
  O  O65  1  0.88940715  0.19282416  0.12252955  1
  O  O66  1  0.12450672  0.06849376  0.38674274  1
  O  O67  1  0.69282416  0.37747045  0.11059285  1
  O  O68  1  0.64751926  0.35248074  0.85248074  1
  O  O69  1  0.11325726  0.87549328  0.56849376  1
  O  O70  1  0.19282416  0.12252955  0.88940715  1
  O  O71  1  0.61059285  0.80717584  0.62252955  1
  O  O72  1  0.30717584  0.62252955  0.88940715  1
  O  O73  1  0.93150624  0.61325726  0.87549328  1
  O  O74  1  0.61059285  0.69282416  0.12252955  1
  O  O75  1  0.11325726  0.62450672  0.06849376  1
  O  O76  1  0.61325726  0.62450672  0.43150624  1
  O  O77  1  0.69282416  0.12252955  0.61059285  1
  O  O78  1  0.80717584  0.62252955  0.61059285  1
  O  O79  1  0.35248074  0.85248074  0.64751926  1
  O  O80  1  0.87747045  0.11059285  0.80717584  1
  O  O81  1  0.61325726  0.87549328  0.93150624  1
  O  O82  1  0.88674274  0.37549328  0.93150624  1
  O  O83  1  0.64751926  0.14751926  0.35248074  1
  O  O84  1  0.35248074  0.64751926  0.14751926  1
  O  O85  1  0.62450672  0.06849376  0.11325726  1
  O  O86  1  0.38674274  0.12450672  0.06849376  1
  O  O87  1  0.38674274  0.37549328  0.56849376  1
