# generated using pymatgen
data_Na3Zn(BO2)5
_symmetry_space_group_name_H-M   'P 1'
_cell_length_a   6.75610947
_cell_length_b   7.95952371
_cell_length_c   18.36470964
_cell_angle_alpha   90.00000000
_cell_angle_beta   90.00000000
_cell_angle_gamma   114.44344159
_symmetry_Int_Tables_number   1
_chemical_formula_structural   Na3Zn(BO2)5
_chemical_formula_sum   'Na12 Zn4 B20 O40'
_cell_volume   899.05415005
_cell_formula_units_Z   4
loop_
 _symmetry_equiv_pos_site_id
 _symmetry_equiv_pos_as_xyz
  1  'x, y, z'
loop_
 _atom_site_type_symbol
 _atom_site_label
 _atom_site_symmetry_multiplicity
 _atom_site_fract_x
 _atom_site_fract_y
 _atom_site_fract_z
 _atom_site_occupancy
  Na  Na0  1  0.21528644  0.88610823  0.57991870  1
  Na  Na1  1  0.70085628  0.33929713  0.57046721  1
  Na  Na2  1  0.29914372  0.66070287  0.42953279  1
  Na  Na3  1  0.87505777  0.08058977  0.74285819  1
  Na  Na4  1  0.20085628  0.83929713  0.92953279  1
  Na  Na5  1  0.79914372  0.16070287  0.07046721  1
  Na  Na6  1  0.62494223  0.41941023  0.24285819  1
  Na  Na7  1  0.78471356  0.11389177  0.42008130  1
  Na  Na8  1  0.12494223  0.91941023  0.25714181  1
  Na  Na9  1  0.37505777  0.58058977  0.75714181  1
  Na  Na10  1  0.28471356  0.61389177  0.07991870  1
  Na  Na11  1  0.71528644  0.38610823  0.92008130  1
  Zn  Zn12  1  0.15493180  0.30647247  0.59627236  1
  Zn  Zn13  1  0.34506820  0.19352753  0.09627236  1
  Zn  Zn14  1  0.65493180  0.80647247  0.90372764  1
  Zn  Zn15  1  0.84506820  0.69352753  0.40372764  1
  B  B16  1  0.01858892  0.83757504  0.07727357  1
  B  B17  1  0.98141108  0.16242496  0.92272643  1
  B  B18  1  0.63519012  0.83145171  0.29675626  1
  B  B19  1  0.28922733  0.22748550  0.83439872  1
  B  B20  1  0.55132865  0.99733611  0.19652731  1
  B  B21  1  0.36480988  0.16854829  0.70324374  1
  B  B22  1  0.20690780  0.03457433  0.42780794  1
  B  B23  1  0.05132865  0.49733611  0.30347269  1
  B  B24  1  0.71077267  0.77251450  0.16560128  1
  B  B25  1  0.44867135  0.00266389  0.80347269  1
  B  B26  1  0.70690780  0.53457433  0.07219206  1
  B  B27  1  0.29309220  0.46542567  0.92780794  1
  B  B28  1  0.86480988  0.66854829  0.79675626  1
  B  B29  1  0.48141108  0.66242496  0.57727357  1
  B  B30  1  0.94867135  0.50266389  0.69652731  1
  B  B31  1  0.51858892  0.33757504  0.42272643  1
  B  B32  1  0.79309220  0.96542567  0.57219206  1
  B  B33  1  0.21077267  0.27251450  0.33439872  1
  B  B34  1  0.78922733  0.72748550  0.66560128  1
  B  B35  1  0.13519012  0.33145171  0.20324374  1
  O  O36  1  0.56164901  0.62432596  0.64160633  1
  O  O37  1  0.38672347  0.41056013  0.87017998  1
  O  O38  1  0.10866569  0.86581261  0.45838123  1
  O  O39  1  0.43835099  0.37567404  0.35839367  1
  O  O40  1  0.64606087  0.80615728  0.36922520  1
  O  O41  1  0.44616436  0.04101350  0.72806332  1
  O  O42  1  0.98324520  0.35552192  0.67646470  1
  O  O43  1  0.89133431  0.13418739  0.54161877  1
  O  O44  1  0.20114819  0.95707833  0.04496616  1
  O  O45  1  0.79885181  0.04292167  0.95503384  1
  O  O46  1  0.08384932  0.37991900  0.35396716  1
  O  O47  1  0.41615068  0.12008100  0.85396716  1
  O  O48  1  0.11327653  0.08943987  0.37017998  1
  O  O49  1  0.94616436  0.54101350  0.77193668  1
  O  O50  1  0.61327653  0.58943987  0.12982002  1
  O  O51  1  0.58833933  0.84053465  0.54583367  1
  O  O52  1  0.55383564  0.95898650  0.27193668  1
  O  O53  1  0.51675480  0.14447808  0.17646470  1
  O  O54  1  0.39133431  0.63418739  0.95838123  1
  O  O55  1  0.88672347  0.91056013  0.62982002  1
  O  O56  1  0.58384932  0.87991900  0.14603284  1
  O  O57  1  0.06164901  0.12432596  0.85839367  1
  O  O58  1  0.01675480  0.64447808  0.32353530  1
  O  O59  1  0.29885181  0.54292167  0.54496616  1
  O  O60  1  0.70114819  0.45707833  0.45503384  1
  O  O61  1  0.05383564  0.45898650  0.22806332  1
  O  O62  1  0.91166067  0.65946535  0.04583367  1
  O  O63  1  0.93835099  0.87567404  0.14160633  1
  O  O64  1  0.08833933  0.34053465  0.95416633  1
  O  O65  1  0.41166067  0.15946535  0.45416633  1
  O  O66  1  0.20780392  0.24322126  0.25500320  1
  O  O67  1  0.14606087  0.30615728  0.13077480  1
  O  O68  1  0.48324520  0.85552192  0.82353530  1
  O  O69  1  0.85393913  0.69384272  0.86922520  1
  O  O70  1  0.70780392  0.74322126  0.24499680  1
  O  O71  1  0.35393913  0.19384272  0.63077480  1
  O  O72  1  0.91615068  0.62008100  0.64603284  1
  O  O73  1  0.79219608  0.75677874  0.74499680  1
  O  O74  1  0.29219608  0.25677874  0.75500320  1
  O  O75  1  0.60866569  0.36581261  0.04161877  1
