# generated using pymatgen
data_La3Si2ClO8
_symmetry_space_group_name_H-M   'P 1'
_cell_length_a   6.55675751
_cell_length_b   8.01852692
_cell_length_c   8.89675553
_cell_angle_alpha   97.45765057
_cell_angle_beta   90.00000000
_cell_angle_gamma   114.13264551
_symmetry_Int_Tables_number   1
_chemical_formula_structural   La3Si2ClO8
_chemical_formula_sum   'La6 Si4 Cl2 O16'
_cell_volume   422.53151625
_cell_formula_units_Z   2
loop_
 _symmetry_equiv_pos_site_id
 _symmetry_equiv_pos_as_xyz
  1  'x, y, z'
loop_
 _atom_site_type_symbol
 _atom_site_label
 _atom_site_symmetry_multiplicity
 _atom_site_fract_x
 _atom_site_fract_y
 _atom_site_fract_z
 _atom_site_occupancy
  La  La0  1  0.93098757  0.00000000  0.75000000  1
  La  La1  1  0.78835656  0.36885399  0.17035190  1
  La  La2  1  0.41950258  0.63114601  0.32964810  1
  La  La3  1  0.21164344  0.63114601  0.82964810  1
  La  La4  1  0.58049742  0.36885399  0.67035190  1
  La  La5  1  0.06901243  0.00000000  0.25000000  1
  Si  Si6  1  0.78544046  0.68343723  0.97352697  1
  Si  Si7  1  0.21455954  0.31656277  0.02647303  1
  Si  Si8  1  0.10200323  0.31656277  0.52647303  1
  Si  Si9  1  0.89799677  0.68343723  0.47352697  1
  Cl  Cl10  1  0.47504023  0.00000000  0.75000000  1
  Cl  Cl11  1  0.52495977  0.00000000  0.25000000  1
  O  O12  1  0.09286784  0.71130798  0.35295013  1
  O  O13  1  0.79963693  0.84270344  0.46742129  1
  O  O14  1  0.31512734  0.51867001  0.58106267  1
  O  O15  1  0.20354267  0.51867001  0.08106267  1
  O  O16  1  0.95693349  0.15729656  0.03257871  1
  O  O17  1  0.61844014  0.71130798  0.85295013  1
  O  O18  1  0.90713216  0.28869202  0.64704987  1
  O  O19  1  0.03591873  0.30821632  0.34750694  1
  O  O20  1  0.96408127  0.69178368  0.65249306  1
  O  O21  1  0.27229760  0.30821632  0.84750694  1
  O  O22  1  0.79645733  0.48132999  0.91893733  1
  O  O23  1  0.20036307  0.15729656  0.53257871  1
  O  O24  1  0.68487266  0.48132999  0.41893733  1
  O  O25  1  0.04306651  0.84270344  0.96742129  1
  O  O26  1  0.38155986  0.28869202  0.14704987  1
  O  O27  1  0.72770240  0.69178368  0.15249306  1
