# generated using pymatgen
data_NdP5O14
_symmetry_space_group_name_H-M   'P 1'
_cell_length_a   8.91563651
_cell_length_b   9.17380631
_cell_length_c   13.18435931
_cell_angle_alpha   90.00000000
_cell_angle_beta   90.00000000
_cell_angle_gamma   90.00000000
_symmetry_Int_Tables_number   1
_chemical_formula_structural   NdP5O14
_chemical_formula_sum   'Nd4 P20 O56'
_cell_volume   1078.35299957
_cell_formula_units_Z   4
loop_
 _symmetry_equiv_pos_site_id
 _symmetry_equiv_pos_as_xyz
  1  'x, y, z'
loop_
 _atom_site_type_symbol
 _atom_site_label
 _atom_site_symmetry_multiplicity
 _atom_site_fract_x
 _atom_site_fract_y
 _atom_site_fract_z
 _atom_site_occupancy
  Nd  Nd0  1  0.27665944  0.68845587  0.00000000  1
  Nd  Nd1  1  0.27665944  0.81154413  0.50000000  1
  Nd  Nd2  1  0.72334056  0.31154413  0.00000000  1
  Nd  Nd3  1  0.72334056  0.18845587  0.50000000  1
  P  P4  1  0.76357022  0.95136541  0.83617571  1
  P  P5  1  0.00000000  0.00000000  0.67456495  1
  P  P6  1  0.23642978  0.04863459  0.83617571  1
  P  P7  1  0.23642978  0.45136541  0.33617571  1
  P  P8  1  0.23642978  0.45136541  0.66382429  1
  P  P9  1  0.68493707  0.74625749  0.00000000  1
  P  P10  1  0.50000000  0.00000000  0.29659025  1
  P  P11  1  0.76357022  0.95136541  0.16382429  1
  P  P12  1  0.50000000  0.50000000  0.79659025  1
  P  P13  1  0.31506293  0.24625749  0.50000000  1
  P  P14  1  0.00000000  0.50000000  0.17456495  1
  P  P15  1  0.76357022  0.54863459  0.66382429  1
  P  P16  1  0.76357022  0.54863459  0.33617571  1
  P  P17  1  0.68493707  0.75374251  0.50000000  1
  P  P18  1  0.00000000  0.00000000  0.32543505  1
  P  P19  1  0.50000000  0.50000000  0.20340975  1
  P  P20  1  0.50000000  0.00000000  0.70340975  1
  P  P21  1  0.31506293  0.25374251  0.00000000  1
  P  P22  1  0.00000000  0.50000000  0.82543505  1
  P  P23  1  0.23642978  0.04863459  0.16382429  1
  O  O24  1  0.08147985  0.61756758  0.11986067  1
  O  O25  1  0.58643450  0.38492690  0.14966296  1
  O  O26  1  0.46876641  0.18934188  0.00000000  1
  O  O27  1  0.53123359  0.68934188  0.50000000  1
  O  O28  1  0.71231124  0.91347465  0.50000000  1
  O  O29  1  0.28768876  0.08652535  0.50000000  1
  O  O30  1  0.88775068  0.91806101  0.24556562  1
  O  O31  1  0.22660715  0.90602240  0.88762086  1
  O  O32  1  0.60949404  0.58483693  0.71760336  1
  O  O33  1  0.91852015  0.38243242  0.88013933  1
  O  O34  1  0.22660715  0.59397760  0.38762086  1
  O  O35  1  0.28768876  0.41347465  0.00000000  1
  O  O36  1  0.88775068  0.91806101  0.75443438  1
  O  O37  1  0.58643450  0.38492690  0.85033704  1
  O  O38  1  0.60949404  0.91516307  0.21760336  1
  O  O39  1  0.58643450  0.11507310  0.64966296  1
  O  O40  1  0.91852015  0.11756758  0.61986067  1
  O  O41  1  0.41356550  0.88492690  0.64966296  1
  O  O42  1  0.11224932  0.41806101  0.74556562  1
  O  O43  1  0.41356550  0.61507310  0.14966296  1
  O  O44  1  0.39050596  0.41516307  0.71760336  1
  O  O45  1  0.60949404  0.91516307  0.78239664  1
  O  O46  1  0.78428213  0.81319350  0.09384636  1
  O  O47  1  0.60949404  0.58483693  0.28239664  1
  O  O48  1  0.22660715  0.90602240  0.11237914  1
  O  O49  1  0.21571787  0.18680650  0.09384636  1
  O  O50  1  0.39050596  0.08483693  0.21760336  1
  O  O51  1  0.77339285  0.40602240  0.38762086  1
  O  O52  1  0.78428213  0.81319350  0.90615364  1
  O  O53  1  0.91852015  0.38243242  0.11986067  1
  O  O54  1  0.77339285  0.09397760  0.11237914  1
  O  O55  1  0.91852015  0.11756758  0.38013933  1
  O  O56  1  0.11224932  0.08193899  0.75443438  1
  O  O57  1  0.88775068  0.58193899  0.25443438  1
  O  O58  1  0.21571787  0.31319350  0.40615364  1
  O  O59  1  0.11224932  0.41806101  0.25443438  1
  O  O60  1  0.08147985  0.88243242  0.61986067  1
  O  O61  1  0.21571787  0.31319350  0.59384636  1
  O  O62  1  0.77339285  0.40602240  0.61237914  1
  O  O63  1  0.78428213  0.68680650  0.40615364  1
  O  O64  1  0.39050596  0.41516307  0.28239664  1
  O  O65  1  0.11224932  0.08193899  0.24556562  1
  O  O66  1  0.21571787  0.18680650  0.90615364  1
  O  O67  1  0.39050596  0.08483693  0.78239664  1
  O  O68  1  0.41356550  0.61507310  0.85033704  1
  O  O69  1  0.53123359  0.81065812  0.00000000  1
  O  O70  1  0.78428213  0.68680650  0.59384636  1
  O  O71  1  0.88775068  0.58193899  0.74556562  1
  O  O72  1  0.46876641  0.31065812  0.50000000  1
  O  O73  1  0.08147985  0.88243242  0.38013933  1
  O  O74  1  0.41356550  0.88492690  0.35033704  1
  O  O75  1  0.58643450  0.11507310  0.35033704  1
  O  O76  1  0.22660715  0.59397760  0.61237914  1
  O  O77  1  0.71231124  0.58652535  0.00000000  1
  O  O78  1  0.77339285  0.09397760  0.88762086  1
  O  O79  1  0.08147985  0.61756758  0.88013933  1
