# generated using pymatgen
data_Na2FeNiF7
_symmetry_space_group_name_H-M   'P 1'
_cell_length_a   7.29562858
_cell_length_b   7.39887640
_cell_length_c   7.39887641
_cell_angle_alpha   61.41006264
_cell_angle_beta   60.46054833
_cell_angle_gamma   60.46054838
_symmetry_Int_Tables_number   1
_chemical_formula_structural   Na2FeNiF7
_chemical_formula_sum   'Na4 Fe2 Ni2 F14'
_cell_volume   287.30817397
_cell_formula_units_Z   2
loop_
 _symmetry_equiv_pos_site_id
 _symmetry_equiv_pos_as_xyz
  1  'x, y, z'
loop_
 _atom_site_type_symbol
 _atom_site_label
 _atom_site_symmetry_multiplicity
 _atom_site_fract_x
 _atom_site_fract_y
 _atom_site_fract_z
 _atom_site_occupancy
  F  F0  1  0.31558404  0.32079235  0.44735757  1
  F  F1  1  0.08373396  0.67920765  0.55264243  1
  F  F2  1  0.18441596  0.05264243  0.17920765  1
  F  F3  1  0.41626604  0.94735757  0.82079235  1
  F  F4  1  0.68441596  0.67920765  0.55264243  1
  F  F5  1  0.91626604  0.32079235  0.44735757  1
  F  F6  1  0.81558404  0.94735757  0.82079235  1
  F  F7  1  0.58373396  0.05264243  0.17920765  1
  F  F8  1  0.25000000  0.89782398  0.60217602  1
  F  F9  1  0.75000000  0.10217602  0.39782398  1
  F  F10  1  0.40896300  0.32112920  0.86094481  1
  F  F11  1  0.59103700  0.67887080  0.13905519  1
  F  F12  1  0.09103700  0.63905519  0.17887080  1
  F  F13  1  0.90896300  0.36094481  0.82112920  1
  Na  Na14  1  0.00000000  0.00000000  0.00000000  1
  Na  Na15  1  0.50000000  0.50000000  0.50000000  1
  Na  Na16  1  0.00000000  0.50000000  0.00000000  1
  Na  Na17  1  0.50000000  0.50000000  0.00000000  1
  Fe  Fe18  1  0.00000000  0.50000000  0.50000000  1
  Fe  Fe19  1  0.50000000  0.00000000  0.00000000  1
  Ni  Ni20  1  0.00000000  0.00000000  0.50000000  1
  Ni  Ni21  1  0.50000000  0.00000000  0.50000000  1
