# generated using pymatgen
data_KBa2(PO3)5
_symmetry_space_group_name_H-M   'P 1'
_cell_length_a   7.44069985
_cell_length_b   8.79104893
_cell_length_c   10.96215491
_cell_angle_alpha   90.62786468
_cell_angle_beta   90.00000000
_cell_angle_gamma   90.00000000
_symmetry_Int_Tables_number   1
_chemical_formula_structural   KBa2(PO3)5
_chemical_formula_sum   'K2 Ba4 P10 O30'
_cell_volume   717.00856138
_cell_formula_units_Z   2
loop_
 _symmetry_equiv_pos_site_id
 _symmetry_equiv_pos_as_xyz
  1  'x, y, z'
loop_
 _atom_site_type_symbol
 _atom_site_label
 _atom_site_symmetry_multiplicity
 _atom_site_fract_x
 _atom_site_fract_y
 _atom_site_fract_z
 _atom_site_occupancy
  K  K0  1  0.35599219  0.94290734  0.87957748  1
  K  K1  1  0.64400781  0.44290734  0.37957748  1
  Ba  Ba2  1  0.16393789  0.74711794  0.50145850  1
  Ba  Ba3  1  0.87143035  0.74729048  0.08923883  1
  Ba  Ba4  1  0.83606211  0.24711794  0.00145850  1
  Ba  Ba5  1  0.12856965  0.24729048  0.58923883  1
  P  P6  1  0.65860106  0.84582821  0.39721043  1
  P  P7  1  0.84386946  0.58674783  0.75896165  1
  P  P8  1  0.34789618  0.57827172  0.09783810  1
  P  P9  1  0.89852827  0.92987299  0.77137017  1
  P  P10  1  0.54977472  0.06305927  0.19475056  1
  P  P11  1  0.45022528  0.56305927  0.69475056  1
  P  P12  1  0.34139894  0.34582821  0.89721043  1
  P  P13  1  0.65210382  0.07827172  0.59783810  1
  P  P14  1  0.15613054  0.08674783  0.25896165  1
  P  P15  1  0.10147173  0.42987299  0.27137017  1
  O  O16  1  0.05715556  0.46356494  0.40298546  1
  O  O17  1  0.80131143  0.76744896  0.76443713  1
  O  O18  1  0.17356679  0.27105669  0.84715488  1
  O  O19  1  0.61275617  0.99990362  0.32526085  1
  O  O20  1  0.71087193  0.92043399  0.52796117  1
  O  O21  1  0.38724383  0.49990362  0.82526085  1
  O  O22  1  0.95155605  0.44433049  0.17985798  1
  O  O23  1  0.26829184  0.53747921  0.23508989  1
  O  O24  1  0.33628573  0.02703974  0.19258958  1
  O  O25  1  0.66371427  0.52703974  0.69258958  1
  O  O26  1  0.73170816  0.03747921  0.73508989  1
  O  O27  1  0.37524377  0.47012577  0.59023844  1
  O  O28  1  0.82643321  0.77105669  0.34715488  1
  O  O29  1  0.41039472  0.72975141  0.69762565  1
  O  O30  1  0.54735765  0.59057054  0.10926969  1
  O  O31  1  0.76302096  0.20697550  0.54962685  1
  O  O32  1  0.04844395  0.94433049  0.67985798  1
  O  O33  1  0.50516653  0.24775870  0.90750909  1
  O  O34  1  0.85144643  0.53234209  0.88854028  1
  O  O35  1  0.19868857  0.26744896  0.26443713  1
  O  O36  1  0.49483347  0.74775870  0.40750909  1
  O  O37  1  0.62475623  0.97012577  0.09023844  1
  O  O38  1  0.23697904  0.70697550  0.04962685  1
  O  O39  1  0.00497394  0.05383256  0.17233734  1
  O  O40  1  0.94284444  0.96356494  0.90298546  1
  O  O41  1  0.45264235  0.09057054  0.60926969  1
  O  O42  1  0.28912807  0.42043399  0.02796117  1
  O  O43  1  0.58960528  0.22975141  0.19762565  1
  O  O44  1  0.99502606  0.55383256  0.67233734  1
  O  O45  1  0.14855357  0.03234209  0.38854028  1
