# generated using pymatgen
data_Ga2PbO4
_symmetry_space_group_name_H-M   'P 1'
_cell_length_a   5.33816100
_cell_length_b   5.45174435
_cell_length_c   8.72008104
_cell_angle_alpha   89.70759927
_cell_angle_beta   89.97108482
_cell_angle_gamma   119.29484346
_symmetry_Int_Tables_number   1
_chemical_formula_structural   Ga2PbO4
_chemical_formula_sum   'Ga4 Pb2 O8'
_cell_volume   221.31576887
_cell_formula_units_Z   2
loop_
 _symmetry_equiv_pos_site_id
 _symmetry_equiv_pos_as_xyz
  1  'x, y, z'
loop_
 _atom_site_type_symbol
 _atom_site_label
 _atom_site_symmetry_multiplicity
 _atom_site_fract_x
 _atom_site_fract_y
 _atom_site_fract_z
 _atom_site_occupancy
  Ga  Ga0  1  0.70934893  0.34825275  0.05851145  1
  Ga  Ga1  1  0.70425092  0.33602113  0.45395871  1
  Ga  Ga2  1  0.36437749  0.65806074  0.95439701  1
  Ga  Ga3  1  0.35823444  0.64423264  0.55982634  1
  Pb  Pb4  1  0.02753699  0.05816533  0.25650636  1
  Pb  Pb5  1  0.96429190  0.93568217  0.75229602  1
  O  O6  1  0.67563001  0.00608046  0.00095325  1
  O  O7  1  0.00776690  0.63773509  0.94745065  1
  O  O8  1  0.36554449  0.35252327  0.45165979  1
  O  O9  1  0.67009460  0.98875489  0.50436803  1
  O  O10  1  0.00154736  0.62383367  0.56466412  1
  O  O11  1  0.86322692  0.37901694  0.25652664  1
  O  O12  1  0.47887933  0.60937669  0.75761985  1
  O  O13  1  0.37776973  0.37646424  0.07126180  1
