# generated using pymatgen
data_K2MoSeO6
_symmetry_space_group_name_H-M   'P 1'
_cell_length_a   6.29360705
_cell_length_b   7.77543268
_cell_length_c   15.55646478
_cell_angle_alpha   90.00000000
_cell_angle_beta   90.00000000
_cell_angle_gamma   112.68490529
_symmetry_Int_Tables_number   1
_chemical_formula_structural   K2MoSeO6
_chemical_formula_sum   'K8 Mo4 Se4 O24'
_cell_volume   702.37209521
_cell_formula_units_Z   4
loop_
 _symmetry_equiv_pos_site_id
 _symmetry_equiv_pos_as_xyz
  1  'x, y, z'
loop_
 _atom_site_type_symbol
 _atom_site_label
 _atom_site_symmetry_multiplicity
 _atom_site_fract_x
 _atom_site_fract_y
 _atom_site_fract_z
 _atom_site_occupancy
  K  K0  1  0.10576079  0.31335748  0.05432353  1
  K  K1  1  0.64178587  0.38918656  0.19828118  1
  K  K2  1  0.89423921  0.68664252  0.94567647  1
  K  K3  1  0.10576079  0.81335748  0.44567647  1
  K  K4  1  0.35821413  0.61081344  0.80171882  1
  K  K5  1  0.35821413  0.11081344  0.69828118  1
  K  K6  1  0.89423921  0.18664252  0.55432353  1
  K  K7  1  0.64178587  0.88918656  0.30171882  1
  Mo  Mo8  1  0.53939179  0.18318293  0.93693968  1
  Mo  Mo9  1  0.46060821  0.31681707  0.43693968  1
  Mo  Mo10  1  0.46060821  0.81681707  0.06306032  1
  Mo  Mo11  1  0.53939179  0.68318293  0.56306032  1
  Se  Se12  1  0.89842463  0.12184202  0.82615791  1
  Se  Se13  1  0.89842463  0.62184202  0.67384209  1
  Se  Se14  1  0.10157537  0.87815798  0.17384209  1
  Se  Se15  1  0.10157537  0.37815798  0.32615791  1
  O  O16  1  0.04907931  0.27701233  0.22863053  1
  O  O17  1  0.62902707  0.34796171  0.02221999  1
  O  O18  1  0.58516388  0.70927243  0.13677100  1
  O  O19  1  0.40413005  0.49141586  0.33539344  1
  O  O20  1  0.40413005  0.99141586  0.16460656  1
  O  O21  1  0.29134769  0.49193086  0.51962751  1
  O  O22  1  0.04907931  0.77701233  0.27136947  1
  O  O23  1  0.70865231  0.00806914  0.01962751  1
  O  O24  1  0.37097293  0.15203829  0.52221999  1
  O  O25  1  0.89456801  0.80167742  0.60418804  1
  O  O26  1  0.10543199  0.19832258  0.39581196  1
  O  O27  1  0.29134769  0.99193086  0.98037249  1
  O  O28  1  0.70865231  0.50806914  0.48037249  1
  O  O29  1  0.62902707  0.84796171  0.47778001  1
  O  O30  1  0.95092069  0.72298767  0.77136947  1
  O  O31  1  0.89456801  0.30167742  0.89581196  1
  O  O32  1  0.41483612  0.79072757  0.63677100  1
  O  O33  1  0.58516388  0.20927243  0.36322900  1
  O  O34  1  0.37097293  0.65203829  0.97778001  1
  O  O35  1  0.95092069  0.22298767  0.72863053  1
  O  O36  1  0.41483612  0.29072757  0.86322900  1
  O  O37  1  0.59586995  0.00858414  0.83539344  1
  O  O38  1  0.10543199  0.69832258  0.10418804  1
  O  O39  1  0.59586995  0.50858414  0.66460656  1
