# generated using pymatgen
data_FeBi3(MoO6)2
_symmetry_space_group_name_H-M   'P 1'
_cell_length_a   5.34780069
_cell_length_b   10.41314600
_cell_length_c   10.41314587
_cell_angle_alpha   69.25210337
_cell_angle_beta   75.58855891
_cell_angle_gamma   75.58855633
_symmetry_Int_Tables_number   1
_chemical_formula_structural   FeBi3(MoO6)2
_chemical_formula_sum   'Fe2 Bi6 Mo4 O24'
_cell_volume   516.87687164
_cell_formula_units_Z   2
loop_
 _symmetry_equiv_pos_site_id
 _symmetry_equiv_pos_as_xyz
  1  'x, y, z'
loop_
 _atom_site_type_symbol
 _atom_site_label
 _atom_site_symmetry_multiplicity
 _atom_site_fract_x
 _atom_site_fract_y
 _atom_site_fract_z
 _atom_site_occupancy
  Fe  Fe0  1  0.75000000  0.11809216  0.88190784  1
  Fe  Fe1  1  0.25000000  0.88190784  0.11809216  1
  Bi  Bi2  1  0.41003374  0.96044251  0.73568826  1
  Bi  Bi3  1  0.75000000  0.65585836  0.34414164  1
  Bi  Bi4  1  0.25000000  0.34414164  0.65585836  1
  Bi  Bi5  1  0.58996626  0.03955749  0.26431174  1
  Bi  Bi6  1  0.91003374  0.73568826  0.96044251  1
  Bi  Bi7  1  0.08996626  0.26431174  0.03955749  1
  Mo  Mo8  1  0.57562115  0.53979420  0.79649842  1
  Mo  Mo9  1  0.07562115  0.79649842  0.53979420  1
  Mo  Mo10  1  0.42437885  0.46020580  0.20350158  1
  Mo  Mo11  1  0.92437885  0.20350158  0.46020580  1
  O  O12  1  0.26295775  0.92913658  0.50434632  1
  O  O13  1  0.37690979  0.40627749  0.82524550  1
  O  O14  1  0.49236065  0.12939715  0.04633761  1
  O  O15  1  0.30305415  0.63792962  0.54284516  1
  O  O16  1  0.47065082  0.84651959  0.25308099  1
  O  O17  1  0.12309021  0.17475450  0.59372251  1
  O  O18  1  0.97065082  0.25308099  0.84651959  1
  O  O19  1  0.69694585  0.36207038  0.45715484  1
  O  O20  1  0.73704225  0.07086342  0.49565368  1
  O  O21  1  0.14173463  0.21145520  0.29457203  1
  O  O22  1  0.87690979  0.82524550  0.40627749  1
  O  O23  1  0.23704225  0.49565368  0.07086342  1
  O  O24  1  0.52934918  0.15348041  0.74691901  1
  O  O25  1  0.50763935  0.87060285  0.95366239  1
  O  O26  1  0.85826537  0.78854480  0.70542797  1
  O  O27  1  0.19694585  0.45715484  0.36207038  1
  O  O28  1  0.35826537  0.70542797  0.78854480  1
  O  O29  1  0.62309021  0.59372251  0.17475450  1
  O  O30  1  0.02934918  0.74691901  0.15348041  1
  O  O31  1  0.80305415  0.54284516  0.63792962  1
  O  O32  1  0.76295775  0.50434632  0.92913658  1
  O  O33  1  0.00763935  0.95366239  0.87060285  1
  O  O34  1  0.99236065  0.04633761  0.12939715  1
  O  O35  1  0.64173463  0.29457203  0.21145520  1
