# generated using pymatgen
data_LiCaBO3
_symmetry_space_group_name_H-M   'P 1'
_cell_length_a   6.12726625
_cell_length_b   6.23753383
_cell_length_c   13.34483730
_cell_angle_alpha   90.00000000
_cell_angle_beta   90.00000000
_cell_angle_gamma   90.00000000
_symmetry_Int_Tables_number   1
_chemical_formula_structural   LiCaBO3
_chemical_formula_sum   'Li8 Ca8 B8 O24'
_cell_volume   510.02674405
_cell_formula_units_Z   8
loop_
 _symmetry_equiv_pos_site_id
 _symmetry_equiv_pos_as_xyz
  1  'x, y, z'
loop_
 _atom_site_type_symbol
 _atom_site_label
 _atom_site_symmetry_multiplicity
 _atom_site_fract_x
 _atom_site_fract_y
 _atom_site_fract_z
 _atom_site_occupancy
  Li  Li0  1  0.51559365  0.20908881  0.24801472  1
  Li  Li1  1  0.48440635  0.29091119  0.74801472  1
  Li  Li2  1  0.98440635  0.70908881  0.75198528  1
  Li  Li3  1  0.01559365  0.79091119  0.25198528  1
  Li  Li4  1  0.01559365  0.29091119  0.24801472  1
  Li  Li5  1  0.48440635  0.79091119  0.75198528  1
  Li  Li6  1  0.51559365  0.70908881  0.25198528  1
  Li  Li7  1  0.98440635  0.20908881  0.74801472  1
  Ca  Ca8  1  0.24890227  0.50962685  0.92973233  1
  Ca  Ca9  1  0.75109773  0.99037315  0.42973233  1
  Ca  Ca10  1  0.25109773  0.00962685  0.07026767  1
  Ca  Ca11  1  0.74890227  0.99037315  0.92973233  1
  Ca  Ca12  1  0.25109773  0.50962685  0.42973233  1
  Ca  Ca13  1  0.74890227  0.49037315  0.57026767  1
  Ca  Ca14  1  0.24890227  0.00962685  0.57026767  1
  Ca  Ca15  1  0.75109773  0.49037315  0.07026767  1
  B  B16  1  0.75007163  0.48250590  0.35217670  1
  B  B17  1  0.75007163  0.98250590  0.14782330  1
  B  B18  1  0.25007163  0.01749410  0.35217670  1
  B  B19  1  0.74992837  0.48250590  0.85217670  1
  B  B20  1  0.24992837  0.01749410  0.85217670  1
  B  B21  1  0.25007163  0.51749410  0.14782330  1
  B  B22  1  0.74992837  0.98250590  0.64782330  1
  B  B23  1  0.24992837  0.51749410  0.64782330  1
  O  O24  1  0.39828615  0.14425218  0.40483921  1
  O  O25  1  0.10171385  0.64425218  0.59516079  1
  O  O26  1  0.11806586  0.37383686  0.09522745  1
  O  O27  1  0.61806586  0.62616314  0.40477255  1
  O  O28  1  0.89828615  0.85574782  0.09516079  1
  O  O29  1  0.89828615  0.35574782  0.40483921  1
  O  O30  1  0.26627029  0.53479121  0.75085111  1
  O  O31  1  0.76627029  0.96520879  0.75085111  1
  O  O32  1  0.23372971  0.03479121  0.24914889  1
  O  O33  1  0.73372971  0.46520879  0.24914889  1
  O  O34  1  0.76627029  0.46520879  0.74914889  1
  O  O35  1  0.10171385  0.14425218  0.90483921  1
  O  O36  1  0.11806586  0.87383686  0.40477255  1
  O  O37  1  0.23372971  0.53479121  0.25085111  1
  O  O38  1  0.60171385  0.85574782  0.59516079  1
  O  O39  1  0.26627029  0.03479121  0.74914889  1
  O  O40  1  0.60171385  0.35574782  0.90483921  1
  O  O41  1  0.38193414  0.37383686  0.59522745  1
  O  O42  1  0.38193414  0.87383686  0.90477255  1
  O  O43  1  0.61806586  0.12616314  0.09522745  1
  O  O44  1  0.39828615  0.64425218  0.09516079  1
  O  O45  1  0.88193414  0.12616314  0.59522745  1
  O  O46  1  0.88193414  0.62616314  0.90477255  1
  O  O47  1  0.73372971  0.96520879  0.25085111  1
