# generated using pymatgen
data_Li5Co5(NiO6)2
_symmetry_space_group_name_H-M   'P 1'
_cell_length_a   5.00431278
_cell_length_b   5.00858265
_cell_length_c   9.61534703
_cell_angle_alpha   94.72580350
_cell_angle_beta   85.13845392
_cell_angle_gamma   60.69365298
_symmetry_Int_Tables_number   1
_chemical_formula_structural   Li5Co5(NiO6)2
_chemical_formula_sum   'Li5 Co5 Ni2 O12'
_cell_volume   207.26415066
_cell_formula_units_Z   1
loop_
 _symmetry_equiv_pos_site_id
 _symmetry_equiv_pos_as_xyz
  1  'x, y, z'
loop_
 _atom_site_type_symbol
 _atom_site_label
 _atom_site_symmetry_multiplicity
 _atom_site_fract_x
 _atom_site_fract_y
 _atom_site_fract_z
 _atom_site_occupancy
  Li  Li0  1  0.82795229  0.33152538  0.50358180  1
  Li  Li1  1  0.67602839  0.15570478  0.99717357  1
  Li  Li2  1  0.33143945  0.82916855  0.99780615  1
  Li  Li3  1  0.15521970  0.67684903  0.50378894  1
  Li  Li4  1  0.08703010  0.08526916  0.74759636  1
  Co  Co5  1  0.91282372  0.91124765  0.24845141  1
  Co  Co6  1  0.57822089  0.57665963  0.24823288  1
  Co  Co7  1  0.48318462  0.00567901  0.50486736  1
  Co  Co8  1  0.00217451  0.48417190  0.99166711  1
  Co  Co9  1  0.42138551  0.41944380  0.75144787  1
  Ni  Ni10  1  0.75867675  0.74905382  0.74879494  1
  Ni  Ni11  1  0.24480245  0.24525207  0.25073227  1
  O  O12  1  0.84825905  0.64028617  0.36254028  1
  O  O13  1  0.70674039  0.48127833  0.87192087  1
  O  O14  1  0.93190352  0.21751156  0.13322548  1
  O  O15  1  0.64272397  0.84662163  0.13264619  1
  O  O16  1  0.48377914  0.69883157  0.63737316  1
  O  O17  1  0.76652371  0.05535776  0.64155178  1
  O  O18  1  0.21445635  0.92639235  0.36070451  1
  O  O19  1  0.56348218  0.27357376  0.36056232  1
  O  O20  1  0.36947571  0.16229933  0.87793362  1
  O  O21  1  0.04992835  0.76673090  0.86435226  1
  O  O22  1  0.26791842  0.56046499  0.13431685  1
  O  O23  1  0.15604484  0.38079086  0.62873102  1
