# generated using pymatgen
data_ZrF4
_symmetry_space_group_name_H-M   'P 1'
_cell_length_a   7.85192985
_cell_length_b   8.04283797
_cell_length_c   8.04283797
_cell_angle_alpha   90.00000000
_cell_angle_beta   90.00000000
_cell_angle_gamma   90.00000000
_symmetry_Int_Tables_number   1
_chemical_formula_structural   ZrF4
_chemical_formula_sum   'Zr8 F32'
_cell_volume   507.91969118
_cell_formula_units_Z   8
loop_
 _symmetry_equiv_pos_site_id
 _symmetry_equiv_pos_as_xyz
  1  'x, y, z'
loop_
 _atom_site_type_symbol
 _atom_site_label
 _atom_site_symmetry_multiplicity
 _atom_site_fract_x
 _atom_site_fract_y
 _atom_site_fract_z
 _atom_site_occupancy
  Zr  Zr0  1  0.76985571  0.18281140  0.31967530  1
  Zr  Zr1  1  0.23014429  0.81718860  0.68032470  1
  Zr  Zr2  1  0.23014429  0.18281140  0.31967530  1
  Zr  Zr3  1  0.73014429  0.31967530  0.81718860  1
  Zr  Zr4  1  0.76985571  0.81718860  0.68032470  1
  Zr  Zr5  1  0.73014429  0.68032470  0.18281140  1
  Zr  Zr6  1  0.26985571  0.68032470  0.18281140  1
  Zr  Zr7  1  0.26985571  0.31967530  0.81718860  1
  F  F8  1  0.50000000  0.29277142  0.67274253  1
  F  F9  1  0.80540972  0.71134440  0.44048948  1
  F  F10  1  0.21385503  0.20318613  0.06435628  1
  F  F11  1  0.19459028  0.28865560  0.55951052  1
  F  F12  1  0.28614497  0.06435628  0.79681387  1
  F  F13  1  0.69459028  0.44048948  0.28865560  1
  F  F14  1  0.70338443  0.00000000  0.50000000  1
  F  F15  1  0.71385503  0.93564372  0.20318613  1
  F  F16  1  0.00000000  0.96034434  0.66530349  1
  F  F17  1  0.78614497  0.20318613  0.06435628  1
  F  F18  1  0.79661557  0.50000000  0.00000000  1
  F  F19  1  0.78614497  0.79681387  0.93564372  1
  F  F20  1  0.28614497  0.93564372  0.20318613  1
  F  F21  1  0.20338443  0.50000000  0.00000000  1
  F  F22  1  0.00000000  0.03965566  0.33469651  1
  F  F23  1  0.69459028  0.55951052  0.71134440  1
  F  F24  1  0.71385503  0.06435628  0.79681387  1
  F  F25  1  0.80540972  0.28865560  0.55951052  1
  F  F26  1  0.00000000  0.69407360  0.18187496  1
  F  F27  1  0.50000000  0.33469651  0.96034434  1
  F  F28  1  0.00000000  0.67274253  0.70722858  1
  F  F29  1  0.50000000  0.66530349  0.03965566  1
  F  F30  1  0.50000000  0.18187496  0.30592640  1
  F  F31  1  0.21385503  0.79681387  0.93564372  1
  F  F32  1  0.00000000  0.30592640  0.81812504  1
  F  F33  1  0.30540972  0.44048948  0.28865560  1
  F  F34  1  0.00000000  0.32725747  0.29277142  1
  F  F35  1  0.29661557  0.00000000  0.50000000  1
  F  F36  1  0.30540972  0.55951052  0.71134440  1
  F  F37  1  0.50000000  0.81812504  0.69407360  1
  F  F38  1  0.19459028  0.71134440  0.44048948  1
  F  F39  1  0.50000000  0.70722858  0.32725747  1
