# generated using pymatgen
data_Zn2SeCl2O3
_symmetry_space_group_name_H-M   'P 1'
_cell_length_a   7.81274013
_cell_length_b   7.90368677
_cell_length_c   10.44493786
_cell_angle_alpha   90.00000000
_cell_angle_beta   90.00000000
_cell_angle_gamma   99.45114728
_symmetry_Int_Tables_number   1
_chemical_formula_structural   Zn2SeCl2O3
_chemical_formula_sum   'Zn8 Se4 Cl8 O12'
_cell_volume   636.21434526
_cell_formula_units_Z   4
loop_
 _symmetry_equiv_pos_site_id
 _symmetry_equiv_pos_as_xyz
  1  'x, y, z'
loop_
 _atom_site_type_symbol
 _atom_site_label
 _atom_site_symmetry_multiplicity
 _atom_site_fract_x
 _atom_site_fract_y
 _atom_site_fract_z
 _atom_site_occupancy
  Zn  Zn0  1  0.89382767  0.22689482  0.98927665  1
  Zn  Zn1  1  0.87465566  0.91662235  0.72143263  1
  Zn  Zn2  1  0.60617233  0.77310518  0.48927665  1
  Zn  Zn3  1  0.62534434  0.08337765  0.22143263  1
  Zn  Zn4  1  0.10617233  0.77310518  0.01072335  1
  Zn  Zn5  1  0.12534434  0.08337765  0.27856737  1
  Zn  Zn6  1  0.37465566  0.91662235  0.77856737  1
  Zn  Zn7  1  0.39382767  0.22689482  0.51072335  1
  Se  Se8  1  0.31258666  0.18353590  0.03253781  1
  Se  Se9  1  0.81258666  0.18353590  0.46746219  1
  Se  Se10  1  0.18741334  0.81646410  0.53253781  1
  Se  Se11  1  0.68741334  0.81646410  0.96746219  1
  Cl  Cl12  1  0.46205875  0.21954082  0.71883483  1
  Cl  Cl13  1  0.96205875  0.21954082  0.78116517  1
  Cl  Cl14  1  0.75816572  0.60452540  0.59697217  1
  Cl  Cl15  1  0.74183428  0.39547460  0.09697217  1
  Cl  Cl16  1  0.53794125  0.78045918  0.28116517  1
  Cl  Cl17  1  0.24183428  0.39547460  0.40302783  1
  Cl  Cl18  1  0.03794125  0.78045918  0.21883483  1
  Cl  Cl19  1  0.25816572  0.60452540  0.90302783  1
  O  O20  1  0.27857481  0.98544227  0.95310334  1
  O  O21  1  0.87860372  0.12246235  0.31797867  1
  O  O22  1  0.89444232  0.80789082  0.90882474  1
  O  O23  1  0.72142519  0.01455773  0.04689666  1
  O  O24  1  0.39444232  0.80789082  0.59117526  1
  O  O25  1  0.22142519  0.01455773  0.45310334  1
  O  O26  1  0.77857481  0.98544227  0.54689666  1
  O  O27  1  0.12139628  0.87753765  0.68202133  1
  O  O28  1  0.60555768  0.19210918  0.40882474  1
  O  O29  1  0.62139628  0.87753765  0.81797867  1
  O  O30  1  0.10555768  0.19210918  0.09117526  1
  O  O31  1  0.37860372  0.12246235  0.18202133  1
