# generated using pymatgen
data_Ba3LaIr2O9
_symmetry_space_group_name_H-M   'P 1'
_cell_length_a   6.02148936
_cell_length_b   6.02148897
_cell_length_c   15.16986286
_cell_angle_alpha   90.36587607
_cell_angle_beta   90.36587609
_cell_angle_gamma   119.96230515
_symmetry_Int_Tables_number   1
_chemical_formula_structural   Ba3LaIr2O9
_chemical_formula_sum   'Ba6 La2 Ir4 O18'
_cell_volume   476.48535876
_cell_formula_units_Z   2
loop_
 _symmetry_equiv_pos_site_id
 _symmetry_equiv_pos_as_xyz
  1  'x, y, z'
loop_
 _atom_site_type_symbol
 _atom_site_label
 _atom_site_symmetry_multiplicity
 _atom_site_fract_x
 _atom_site_fract_y
 _atom_site_fract_z
 _atom_site_occupancy
  Ba  Ba0  1  0.66389341  0.33031733  0.89777274  1
  Ba  Ba1  1  0.66968267  0.33610659  0.60222726  1
  Ba  Ba2  1  0.33031733  0.66389341  0.39777274  1
  Ba  Ba3  1  0.00087763  0.99912237  0.75000000  1
  Ba  Ba4  1  0.99912237  0.00087763  0.25000000  1
  Ba  Ba5  1  0.33610659  0.66968267  0.10222726  1
  La  La6  1  0.00000000  0.00000000  0.50000000  1
  La  La7  1  0.00000000  0.00000000  0.00000000  1
  Ir  Ir8  1  0.33961724  0.67363969  0.66703572  1
  Ir  Ir9  1  0.32636031  0.66038276  0.83296428  1
  Ir  Ir10  1  0.66038276  0.32636031  0.33296428  1
  Ir  Ir11  1  0.67363969  0.33961724  0.16703572  1
  O  O12  1  0.19149675  0.83732373  0.59387133  1
  O  O13  1  0.16267627  0.80850325  0.90612867  1
  O  O14  1  0.49290861  0.98196195  0.75424516  1
  O  O15  1  0.98196195  0.49290861  0.25424516  1
  O  O16  1  0.80850325  0.16267627  0.40612867  1
  O  O17  1  0.37384009  0.19010692  0.08700080  1
  O  O18  1  0.19010692  0.37384009  0.58700080  1
  O  O19  1  0.65508954  0.83544237  0.59682219  1
  O  O20  1  0.80989308  0.62615991  0.41299920  1
  O  O21  1  0.16455763  0.34491046  0.90317781  1
  O  O22  1  0.01803805  0.50709139  0.74575484  1
  O  O23  1  0.50897497  0.49102503  0.25000000  1
  O  O24  1  0.34491046  0.16455763  0.40317781  1
  O  O25  1  0.83544237  0.65508954  0.09682219  1
  O  O26  1  0.83732373  0.19149675  0.09387133  1
  O  O27  1  0.49102503  0.50897497  0.75000000  1
  O  O28  1  0.50709139  0.01803805  0.24575484  1
  O  O29  1  0.62615991  0.80989308  0.91299920  1
