# generated using pymatgen
data_SbP2O7
_symmetry_space_group_name_H-M   'P 1'
_cell_length_a   8.16391540
_cell_length_b   8.18399674
_cell_length_c   16.47388226
_cell_angle_alpha   90.00000000
_cell_angle_beta   90.00000000
_cell_angle_gamma   90.00000000
_symmetry_Int_Tables_number   1
_chemical_formula_structural   SbP2O7
_chemical_formula_sum   'Sb8 P16 O56'
_cell_volume   1100.67702432
_cell_formula_units_Z   8
loop_
 _symmetry_equiv_pos_site_id
 _symmetry_equiv_pos_as_xyz
  1  'x, y, z'
loop_
 _atom_site_type_symbol
 _atom_site_label
 _atom_site_symmetry_multiplicity
 _atom_site_fract_x
 _atom_site_fract_y
 _atom_site_fract_z
 _atom_site_occupancy
  Sb  Sb0  1  0.48287480  0.74809952  0.62178866  1
  Sb  Sb1  1  0.48344649  0.22566593  0.86805527  1
  Sb  Sb2  1  0.01712520  0.24809952  0.12178866  1
  Sb  Sb3  1  0.51712520  0.24809952  0.37821134  1
  Sb  Sb4  1  0.51655351  0.72566593  0.13194473  1
  Sb  Sb5  1  0.98287480  0.74809952  0.87821134  1
  Sb  Sb6  1  0.01655351  0.72566593  0.36805527  1
  Sb  Sb7  1  0.98344649  0.22566593  0.63194473  1
  P  P8  1  0.57416873  0.36583646  0.57019018  1
  P  P9  1  0.12337146  0.34435812  0.40819136  1
  P  P10  1  0.60786973  0.62349599  0.81277515  1
  P  P11  1  0.88862152  0.12915477  0.82798650  1
  P  P12  1  0.07416873  0.36583646  0.92980982  1
  P  P13  1  0.39213027  0.12349599  0.18722485  1
  P  P14  1  0.10786973  0.62349599  0.68722485  1
  P  P15  1  0.89213027  0.12349599  0.31277515  1
  P  P16  1  0.87662854  0.84435812  0.59180864  1
  P  P17  1  0.11137848  0.62915477  0.17201350  1
  P  P18  1  0.61137848  0.62915477  0.32798650  1
  P  P19  1  0.42583127  0.86583646  0.42980982  1
  P  P20  1  0.92583127  0.86583646  0.07019018  1
  P  P21  1  0.62337146  0.34435812  0.09180864  1
  P  P22  1  0.37662854  0.84435812  0.90819136  1
  P  P23  1  0.38862152  0.12915477  0.67201350  1
  O  O24  1  0.22089306  0.36189911  0.87578085  1
  O  O25  1  0.00794718  0.46865261  0.17288761  1
  O  O26  1  0.94536629  0.22346513  0.90928593  1
  O  O27  1  0.44536629  0.22346513  0.59071407  1
  O  O28  1  0.55463371  0.72346513  0.40928593  1
  O  O29  1  0.29226089  0.59521719  0.16204071  1
  O  O30  1  0.96785459  0.52456052  0.92621203  1
  O  O31  1  0.07685357  0.64821755  0.77912816  1
  O  O32  1  0.72089306  0.36189911  0.62421915  1
  O  O33  1  0.70773911  0.09521719  0.83795929  1
  O  O34  1  0.74460108  0.23310070  0.33600833  1
  O  O35  1  0.20014296  0.77587439  0.92851039  1
  O  O36  1  0.27910694  0.86189911  0.37578085  1
  O  O37  1  0.96917012  0.87508140  0.51550307  1
  O  O38  1  0.88017409  0.83464637  0.97959303  1
  O  O39  1  0.11982591  0.33464637  0.02040697  1
  O  O40  1  0.53082988  0.37508140  0.01550307  1
  O  O41  1  0.03082988  0.37508140  0.48449693  1
  O  O42  1  0.77910694  0.86189911  0.12421915  1
  O  O43  1  0.25539892  0.73310070  0.66399167  1
  O  O44  1  0.99205282  0.96865261  0.82711239  1
  O  O45  1  0.75539892  0.73310070  0.83600833  1
  O  O46  1  0.04859353  0.18736722  0.35915904  1
  O  O47  1  0.05463371  0.72346513  0.09071407  1
  O  O48  1  0.13260473  0.44621494  0.66712091  1
  O  O49  1  0.93897853  0.23768199  0.75709899  1
  O  O50  1  0.92314643  0.14821755  0.22087184  1
  O  O51  1  0.42314643  0.14821755  0.27912816  1
  O  O52  1  0.53214541  0.02456052  0.42621203  1
  O  O53  1  0.95140647  0.68736722  0.64084096  1
  O  O54  1  0.61982591  0.33464637  0.47959303  1
  O  O55  1  0.86739527  0.94621494  0.33287909  1
  O  O56  1  0.46785459  0.52456052  0.57378797  1
  O  O57  1  0.79985704  0.27587439  0.07148961  1
  O  O58  1  0.45140647  0.68736722  0.85915904  1
  O  O59  1  0.49205282  0.96865261  0.67288761  1
  O  O60  1  0.70014296  0.77587439  0.57148961  1
  O  O61  1  0.29985704  0.27587439  0.42851039  1
  O  O62  1  0.43897853  0.23768199  0.74290101  1
  O  O63  1  0.38017409  0.83464637  0.52040697  1
  O  O64  1  0.56102147  0.73768199  0.25709899  1
  O  O65  1  0.20773911  0.09521719  0.66204071  1
  O  O66  1  0.13467014  0.48441010  0.34711913  1
  O  O67  1  0.63467014  0.48441010  0.15288087  1
  O  O68  1  0.36739527  0.94621494  0.16712091  1
  O  O69  1  0.06102147  0.73768199  0.24290101  1
  O  O70  1  0.24460108  0.23310070  0.16399167  1
  O  O71  1  0.50794718  0.46865261  0.32711239  1
  O  O72  1  0.03214541  0.02456052  0.07378797  1
  O  O73  1  0.36532986  0.98441010  0.84711913  1
  O  O74  1  0.79226089  0.59521719  0.33795929  1
  O  O75  1  0.54859353  0.18736722  0.14084096  1
  O  O76  1  0.46917012  0.87508140  0.98449693  1
  O  O77  1  0.63260473  0.44621494  0.83287909  1
  O  O78  1  0.57685357  0.64821755  0.72087184  1
  O  O79  1  0.86532986  0.98441010  0.65288087  1
