# generated using pymatgen
data_ZrSn
_symmetry_space_group_name_H-M   'P 1'
_cell_length_a   5.80348577
_cell_length_b   5.26328136
_cell_length_c   5.97224486
_cell_angle_alpha   90.00000000
_cell_angle_beta   90.00000000
_cell_angle_gamma   90.00000000
_symmetry_Int_Tables_number   1
_chemical_formula_structural   ZrSn
_chemical_formula_sum   'Zr4 Sn4'
_cell_volume   182.42447960
_cell_formula_units_Z   4
loop_
 _symmetry_equiv_pos_site_id
 _symmetry_equiv_pos_as_xyz
  1  'x, y, z'
loop_
 _atom_site_type_symbol
 _atom_site_label
 _atom_site_symmetry_multiplicity
 _atom_site_fract_x
 _atom_site_fract_y
 _atom_site_fract_z
 _atom_site_occupancy
  Zr  Zr0  1  0.10493212  0.25000000  0.87513738  1
  Zr  Zr1  1  0.60493212  0.25000000  0.62486262  1
  Zr  Zr2  1  0.39506788  0.75000000  0.37513738  1
  Zr  Zr3  1  0.89506788  0.75000000  0.12486262  1
  Sn  Sn4  1  0.10624847  0.25000000  0.37501299  1
  Sn  Sn5  1  0.60624847  0.25000000  0.12498701  1
  Sn  Sn6  1  0.39375153  0.75000000  0.87501299  1
  Sn  Sn7  1  0.89375153  0.75000000  0.62498701  1
