# generated using pymatgen
data_K3GaTe2O11
_symmetry_space_group_name_H-M   'P 1'
_cell_length_a   7.39602538
_cell_length_b   7.49824292
_cell_length_c   11.48164210
_cell_angle_alpha   85.77650704
_cell_angle_beta   77.34724678
_cell_angle_gamma   59.12687826
_symmetry_Int_Tables_number   1
_chemical_formula_structural   K3GaTe2O11
_chemical_formula_sum   'K6 Ga2 Te4 O22'
_cell_volume   532.67420834
_cell_formula_units_Z   2
loop_
 _symmetry_equiv_pos_site_id
 _symmetry_equiv_pos_as_xyz
  1  'x, y, z'
loop_
 _atom_site_type_symbol
 _atom_site_label
 _atom_site_symmetry_multiplicity
 _atom_site_fract_x
 _atom_site_fract_y
 _atom_site_fract_z
 _atom_site_occupancy
  K  K0  1  0.43596843  0.13117828  0.83377895  1
  K  K1  1  0.56403157  0.86882172  0.16622105  1
  K  K2  1  0.92159730  0.58048101  0.83475642  1
  K  K3  1  0.07840270  0.41951899  0.16524358  1
  K  K4  1  0.41726954  0.41639158  0.38232670  1
  K  K5  1  0.58273046  0.58360842  0.61767330  1
  Ga  Ga6  1  0.00555406  0.04639041  0.74912377  1
  Ga  Ga7  1  0.99444594  0.95360959  0.25087623  1
  Te  Te8  1  0.87111172  0.88581926  0.53740763  1
  Te  Te9  1  0.12888828  0.11418074  0.46259237  1
  Te  Te10  1  0.77737542  0.21406866  0.02668137  1
  Te  Te11  1  0.22262458  0.78593134  0.97331863  1
  O  O12  1  0.82218638  0.17139945  0.49691536  1
  O  O13  1  0.17781362  0.82860055  0.50308464  1
  O  O14  1  0.56509954  0.98497065  0.58258415  1
  O  O15  1  0.43490046  0.01502935  0.41741585  1
  O  O16  1  0.09406326  0.17978725  0.62779844  1
  O  O17  1  0.90593674  0.82021275  0.37220156  1
  O  O18  1  0.84857580  0.93833402  0.70730151  1
  O  O19  1  0.15142420  0.06166598  0.29269849  1
  O  O20  1  0.96075597  0.60175026  0.58150715  1
  O  O21  1  0.03924403  0.39824974  0.41849285  1
  O  O22  1  0.09785318  0.09356475  0.01758832  1
  O  O23  1  0.90214682  0.90643525  0.98241168  1
  O  O24  1  0.25197967  0.84994036  0.80348903  1
  O  O25  1  0.74802033  0.15005964  0.19651097  1
  O  O26  1  0.49284275  0.25893339  0.04133560  1
  O  O27  1  0.50715725  0.74106661  0.95866440  1
  O  O28  1  0.81464551  0.26946091  0.85809526  1
  O  O29  1  0.18535449  0.73053909  0.14190474  1
  O  O30  1  0.72131382  0.48418387  0.06910134  1
  O  O31  1  0.27868618  0.51581613  0.93089866  1
  O  O32  1  0.67960630  0.62458981  0.36974918  1
  O  O33  1  0.32039370  0.37541019  0.63025082  1
