# generated using pymatgen
data_K2Sr3Mn2(P2O7)3
_symmetry_space_group_name_H-M   'P 1'
_cell_length_a   5.41353255
_cell_length_b   13.43990151
_cell_length_c   14.01814240
_cell_angle_alpha   99.67137013
_cell_angle_beta   90.00000000
_cell_angle_gamma   90.00000000
_symmetry_Int_Tables_number   1
_chemical_formula_structural   K2Sr3Mn2(P2O7)3
_chemical_formula_sum   'K4 Sr6 Mn4 P12 O42'
_cell_volume   1005.42719823
_cell_formula_units_Z   2
loop_
 _symmetry_equiv_pos_site_id
 _symmetry_equiv_pos_as_xyz
  1  'x, y, z'
loop_
 _atom_site_type_symbol
 _atom_site_label
 _atom_site_symmetry_multiplicity
 _atom_site_fract_x
 _atom_site_fract_y
 _atom_site_fract_z
 _atom_site_occupancy
  K  K0  1  0.12696534  0.56632461  0.39850019  1
  K  K1  1  0.62696534  0.43367539  0.60149981  1
  K  K2  1  0.16803917  0.44078732  0.08542129  1
  K  K3  1  0.66803917  0.55921268  0.91457871  1
  Sr  Sr4  1  0.17314850  0.24591609  0.35311653  1
  Sr  Sr5  1  0.61788571  0.22258506  0.83627202  1
  Sr  Sr6  1  0.63910811  0.00897066  0.25118911  1
  Sr  Sr7  1  0.13910811  0.99102934  0.74881089  1
  Sr  Sr8  1  0.67314850  0.75408391  0.64688347  1
  Sr  Sr9  1  0.11788571  0.77741494  0.16372798  1
  Mn  Mn10  1  0.62299864  0.22658330  0.11739904  1
  Mn  Mn11  1  0.65959936  0.78761338  0.37489440  1
  Mn  Mn12  1  0.15959936  0.21238662  0.62510560  1
  Mn  Mn13  1  0.12299864  0.77341670  0.88260096  1
  P  P14  1  0.12337703  0.59251221  0.69151401  1
  P  P15  1  0.66095162  0.05891162  0.62424240  1
  P  P16  1  0.66547772  0.18957263  0.48016471  1
  P  P17  1  0.16095162  0.94108838  0.37575760  1
  P  P18  1  0.61840990  0.81135034  0.02777446  1
  P  P19  1  0.12035842  0.07605975  0.13104978  1
  P  P20  1  0.62035842  0.92394025  0.86895022  1
  P  P21  1  0.11840990  0.18864966  0.97222554  1
  P  P22  1  0.62337703  0.40748779  0.30848599  1
  P  P23  1  0.61471185  0.59434684  0.20753930  1
  P  P24  1  0.11471185  0.40565316  0.79246070  1
  P  P25  1  0.16547772  0.81042737  0.51983529  1
  O  O26  1  0.86271027  0.75673678  0.99655017  1
  O  O27  1  0.19096536  0.05209239  0.37284943  1
  O  O28  1  0.22416497  0.46594818  0.88368893  1
  O  O29  1  0.37196858  0.87672208  0.32155668  1
  O  O30  1  0.28116065  0.31627535  0.74515357  1
  O  O31  1  0.16838482  0.82993886  0.62973654  1
  O  O32  1  0.90394040  0.14102231  0.17917468  1
  O  O33  1  0.41312495  0.10303541  0.66694820  1
  O  O34  1  0.86652694  0.87629513  0.82839543  1
  O  O35  1  0.10592442  0.47356510  0.70425969  1
  O  O36  1  0.96880398  0.59648478  0.60100812  1
  O  O37  1  0.39817936  0.61553965  0.68385919  1
  O  O38  1  0.59346230  0.03369645  0.85891247  1
  O  O39  1  0.99651241  0.65529571  0.78124112  1
  O  O40  1  0.39820039  0.75228800  0.47882597  1
  O  O41  1  0.89820039  0.24771200  0.52117403  1
  O  O42  1  0.42600732  0.24070438  0.52124440  1
  O  O43  1  0.10478268  0.15648443  0.86334458  1
  O  O44  1  0.11460843  0.08317645  0.01652805  1
  O  O45  1  0.17415151  0.92273657  0.48729546  1
  O  O46  1  0.89029660  0.25073913  0.01135760  1
  O  O47  1  0.91312495  0.89696459  0.33305180  1
  O  O48  1  0.60478268  0.84351557  0.13665542  1
  O  O49  1  0.34549128  0.62683068  0.19834542  1
  O  O50  1  0.40394040  0.85897769  0.82082532  1
  O  O51  1  0.36271027  0.24326322  0.00344983  1
  O  O52  1  0.69096536  0.94790761  0.62715057  1
  O  O53  1  0.78116065  0.68372465  0.25484643  1
  O  O54  1  0.49651241  0.34470429  0.21875888  1
  O  O55  1  0.67415151  0.07726343  0.51270454  1
  O  O56  1  0.39029660  0.74926087  0.98864240  1
  O  O57  1  0.87196858  0.12327792  0.67844332  1
  O  O58  1  0.66838482  0.17006114  0.37026346  1
  O  O59  1  0.46880398  0.40351522  0.39899188  1
  O  O60  1  0.09346230  0.96630355  0.14108753  1
  O  O61  1  0.36652694  0.12370487  0.17160457  1
  O  O62  1  0.72416497  0.53405182  0.11631107  1
  O  O63  1  0.61460843  0.91682355  0.98347195  1
  O  O64  1  0.89817936  0.38446035  0.31614081  1
  O  O65  1  0.60592442  0.52643490  0.29574031  1
  O  O66  1  0.92600732  0.75929562  0.47875560  1
  O  O67  1  0.84549128  0.37316932  0.80165458  1
