# generated using pymatgen
data_VPbClO3
_symmetry_space_group_name_H-M   'P 1'
_cell_length_a   5.35928857
_cell_length_b   7.31246111
_cell_length_c   10.57038782
_cell_angle_alpha   90.00000000
_cell_angle_beta   90.00000000
_cell_angle_gamma   90.00000000
_symmetry_Int_Tables_number   1
_chemical_formula_structural   VPbClO3
_chemical_formula_sum   'V4 Pb4 Cl4 O12'
_cell_volume   414.24915683
_cell_formula_units_Z   4
loop_
 _symmetry_equiv_pos_site_id
 _symmetry_equiv_pos_as_xyz
  1  'x, y, z'
loop_
 _atom_site_type_symbol
 _atom_site_label
 _atom_site_symmetry_multiplicity
 _atom_site_fract_x
 _atom_site_fract_y
 _atom_site_fract_z
 _atom_site_occupancy
  V  V0  1  0.75000000  0.93300706  0.52804677  1
  V  V1  1  0.25000000  0.43300706  0.97195323  1
  V  V2  1  0.75000000  0.56699294  0.02804677  1
  V  V3  1  0.25000000  0.06699294  0.47195323  1
  Pb  Pb4  1  0.75000000  0.38935224  0.65764460  1
  Pb  Pb5  1  0.75000000  0.11064776  0.15764460  1
  Pb  Pb6  1  0.25000000  0.88935224  0.84235540  1
  Pb  Pb7  1  0.25000000  0.61064776  0.34235540  1
  Cl  Cl8  1  0.25000000  0.55053990  0.60521805  1
  Cl  Cl9  1  0.25000000  0.94946010  0.10521805  1
  Cl  Cl10  1  0.75000000  0.44946010  0.39478195  1
  Cl  Cl11  1  0.75000000  0.05053990  0.89478195  1
  O  O12  1  0.00798280  0.61284222  0.91502162  1
  O  O13  1  0.25000000  0.23032318  0.36505298  1
  O  O14  1  0.75000000  0.76967682  0.63494702  1
  O  O15  1  0.50798280  0.11284222  0.58497838  1
  O  O16  1  0.99201720  0.11284222  0.58497838  1
  O  O17  1  0.99201720  0.38715778  0.08497838  1
  O  O18  1  0.49201720  0.61284222  0.91502162  1
  O  O19  1  0.00798280  0.88715778  0.41502162  1
  O  O20  1  0.50798280  0.38715778  0.08497838  1
  O  O21  1  0.75000000  0.73032318  0.13494702  1
  O  O22  1  0.49201720  0.88715778  0.41502162  1
  O  O23  1  0.25000000  0.26967682  0.86505298  1
