# generated using pymatgen
data_HoMoO4F
_symmetry_space_group_name_H-M   'P 1'
_cell_length_a   5.25188521
_cell_length_b   6.70742259
_cell_length_c   12.40467054
_cell_angle_alpha   90.00000000
_cell_angle_beta   90.00000000
_cell_angle_gamma   113.23505498
_symmetry_Int_Tables_number   1
_chemical_formula_structural   HoMoO4F
_chemical_formula_sum   'Ho4 Mo4 O16 F4'
_cell_volume   401.53334086
_cell_formula_units_Z   4
loop_
 _symmetry_equiv_pos_site_id
 _symmetry_equiv_pos_as_xyz
  1  'x, y, z'
loop_
 _atom_site_type_symbol
 _atom_site_label
 _atom_site_symmetry_multiplicity
 _atom_site_fract_x
 _atom_site_fract_y
 _atom_site_fract_z
 _atom_site_occupancy
  Ho  Ho0  1  0.63924299  0.80028647  0.05100704  1
  Ho  Ho1  1  0.63924299  0.30028647  0.44899296  1
  Ho  Ho2  1  0.36075701  0.19971353  0.94899296  1
  Ho  Ho3  1  0.36075701  0.69971353  0.55100704  1
  Mo  Mo4  1  0.07920428  0.63047687  0.85661392  1
  Mo  Mo5  1  0.07920428  0.13047687  0.64338608  1
  Mo  Mo6  1  0.92079572  0.86952313  0.35661392  1
  Mo  Mo7  1  0.92079572  0.36952313  0.14338608  1
  O  O8  1  0.99711271  0.16181547  0.06867066  1
  O  O9  1  0.80724782  0.29529539  0.27808350  1
  O  O10  1  0.19275218  0.70470461  0.72191650  1
  O  O11  1  0.80724782  0.79529539  0.22191650  1
  O  O12  1  0.69000987  0.46206175  0.06512278  1
  O  O13  1  0.00288729  0.83818453  0.93132934  1
  O  O14  1  0.23923381  0.09385369  0.34735139  1
  O  O15  1  0.00288729  0.33818453  0.56867066  1
  O  O16  1  0.19275218  0.20470461  0.77808350  1
  O  O17  1  0.76076619  0.40614631  0.84735139  1
  O  O18  1  0.30999013  0.03793825  0.56512278  1
  O  O19  1  0.99711271  0.66181547  0.43132934  1
  O  O20  1  0.30999013  0.53793825  0.93487722  1
  O  O21  1  0.69000987  0.96206175  0.43487722  1
  O  O22  1  0.23923381  0.59385369  0.15264861  1
  O  O23  1  0.76076619  0.90614631  0.65264861  1
  F  F24  1  0.45625644  0.53628344  0.40238285  1
  F  F25  1  0.54374356  0.46371656  0.59761715  1
  F  F26  1  0.54374356  0.96371656  0.90238285  1
  F  F27  1  0.45625644  0.03628344  0.09761715  1
