# generated using pymatgen
data_LiMnFeF6
_symmetry_space_group_name_H-M   'P 1'
_cell_length_a   8.84190750
_cell_length_b   8.84190703
_cell_length_c   4.72755038
_cell_angle_alpha   90.00000000
_cell_angle_beta   90.00000000
_cell_angle_gamma   119.99999792
_symmetry_Int_Tables_number   1
_chemical_formula_structural   LiMnFeF6
_chemical_formula_sum   'Li3 Mn3 Fe3 F18'
_cell_volume   320.08013239
_cell_formula_units_Z   3
loop_
 _symmetry_equiv_pos_site_id
 _symmetry_equiv_pos_as_xyz
  1  'x, y, z'
loop_
 _atom_site_type_symbol
 _atom_site_label
 _atom_site_symmetry_multiplicity
 _atom_site_fract_x
 _atom_site_fract_y
 _atom_site_fract_z
 _atom_site_occupancy
  Li  Li0  1  0.66666700  0.33333300  0.49544970  1
  Li  Li1  1  0.00000000  0.00000000  0.00000000  1
  Li  Li2  1  0.33333300  0.66666700  0.50455030  1
  Mn  Mn3  1  0.00000000  0.35411735  0.00000000  1
  Mn  Mn4  1  0.35411735  1.00000000  0.00000000  1
  Mn  Mn5  1  0.64588265  0.64588265  0.00000000  1
  Fe  Fe6  1  0.31311135  0.31311135  0.50000000  1
  Fe  Fe7  1  0.68688865  0.00000000  0.50000000  1
  Fe  Fe8  1  0.00000000  0.68688865  0.50000000  1
  F  F9  1  0.89170909  0.46846182  0.27151417  1
  F  F10  1  0.78408956  0.56252315  0.72165166  1
  F  F11  1  0.43747685  0.22156641  0.72165166  1
  F  F12  1  0.88621025  0.10814424  0.24306016  1
  F  F13  1  0.21591044  0.77843359  0.27834834  1
  F  F14  1  0.46846182  0.89170909  0.72848583  1
  F  F15  1  0.57675173  0.10829091  0.27151417  1
  F  F16  1  0.89185576  0.77806600  0.24306016  1
  F  F17  1  0.53153818  0.42324827  0.27151417  1
  F  F18  1  0.77843359  0.21591044  0.72165166  1
  F  F19  1  0.11378975  0.22193400  0.75693984  1
  F  F20  1  0.10829091  0.57675173  0.72848583  1
  F  F21  1  0.10814424  0.88621025  0.75693984  1
  F  F22  1  0.22156641  0.43747685  0.27834834  1
  F  F23  1  0.22193400  0.11378975  0.24306016  1
  F  F24  1  0.42324827  0.53153818  0.72848583  1
  F  F25  1  0.56252315  0.78408956  0.27834834  1
  F  F26  1  0.77806600  0.89185576  0.75693984  1
