# generated using pymatgen
data_KV4P7O24
_symmetry_space_group_name_H-M   'P 1'
_cell_length_a   10.26458818
_cell_length_b   10.37746195
_cell_length_c   10.84352641
_cell_angle_alpha   108.80334467
_cell_angle_beta   111.68264036
_cell_angle_gamma   104.42620790
_symmetry_Int_Tables_number   1
_chemical_formula_structural   KV4P7O24
_chemical_formula_sum   'K2 V8 P14 O48'
_cell_volume   922.74538592
_cell_formula_units_Z   2
loop_
 _symmetry_equiv_pos_site_id
 _symmetry_equiv_pos_as_xyz
  1  'x, y, z'
loop_
 _atom_site_type_symbol
 _atom_site_label
 _atom_site_symmetry_multiplicity
 _atom_site_fract_x
 _atom_site_fract_y
 _atom_site_fract_z
 _atom_site_occupancy
  K  K0  1  0.54071413  0.24910277  0.67468217  1
  K  K1  1  0.45928587  0.75089723  0.32531783  1
  V  V2  1  0.98636768  0.83025232  0.41179629  1
  V  V3  1  0.49940222  0.89519164  0.74511683  1
  V  V4  1  -0.00003216  0.38552632  0.07508837  1
  V  V5  1  0.48927203  0.33845094  0.11395896  1
  V  V6  1  0.50059778  0.10480836  0.25488317  1
  V  V7  1  0.51072797  0.66154906  0.88604104  1
  V  V8  1  1.00003216  0.61447368  0.92491163  1
  V  V9  1  0.01363232  0.16974768  0.58820371  1
  P  P10  1  0.80737619  0.37698914  0.56530235  1
  P  P11  1  0.74999670  0.54129054  0.05246661  1
  P  P12  1  0.26050203  0.03550774  0.75944385  1
  P  P13  1  0.80270583  0.05902033  0.73900543  1
  P  P14  1  0.77259714  0.78084095  0.77316267  1
  P  P15  1  0.25000330  0.45870946  0.94753339  1
  P  P16  1  0.24931404  0.39094492  0.52190446  1
  P  P17  1  0.26731619  0.82339325  0.88380973  1
  P  P18  1  0.73268381  0.17660675  0.11619027  1
  P  P19  1  0.19262381  0.62301086  0.43469765  1
  P  P20  1  0.19729417  0.94097967  0.26099457  1
  P  P21  1  0.73949797  0.96449226  0.24055615  1
  P  P22  1  0.75068596  0.60905508  0.47809554  1
  P  P23  1  0.22740286  0.21915905  0.22683733  1
  O  O24  1  0.83875852  0.44050156  0.72691995  1
  O  O25  1  0.87120997  0.49718081  0.00955082  1
  O  O26  1  0.88039925  0.97284202  0.36956696  1
  O  O27  1  0.30733273  0.33655635  0.40144743  1
  O  O28  1  0.36339253  0.59131271  0.95125243  1
  O  O29  1  0.39416069  0.49094442  0.66921816  1
  O  O30  1  0.63660747  0.40868729  0.04874757  1
  O  O31  1  0.91043553  0.30273138  0.53907153  1
  O  O32  1  0.08956347  0.69726862  0.46092847  1
  O  O33  1  0.86529285  0.31420788  0.15665913  1
  O  O34  1  0.85456143  0.74990398  0.49233811  1
  O  O35  1  0.83753735  0.67821795  0.20321141  1
  O  O36  1  0.37908930  0.78277206  0.82651576  1
  O  O37  1  0.13917188  0.05800386  0.20611016  1
  O  O38  1  0.62709979  0.99247995  0.29693927  1
  O  O39  1  0.69266727  0.66344365  0.59855257  1
  O  O40  1  0.88541248  0.74248330  0.86965642  1
  O  O41  1  0.37290021  0.00752005  0.70306073  1
  O  O42  1  0.16246265  0.32178205  0.79678859  1
  O  O43  1  0.11458752  0.25751670  0.13034358  1
  O  O44  1  0.65287340  0.56527033  0.92044917  1
  O  O45  1  0.64373771  0.05989584  0.95369830  1
  O  O46  1  0.12639135  0.79208393  0.12450381  1
  O  O47  1  0.11960075  0.02715798  0.63043304  1
  O  O48  1  0.36637060  0.72200621  0.53846771  1
  O  O49  1  0.35626229  0.94010416  0.04630170  1
  O  O50  1  0.15253190  0.47983857  0.47004705  1
  O  O51  1  0.84746810  0.52016143  0.52995295  1
  O  O52  1  0.62091070  0.21722794  0.17348424  1
  O  O53  1  0.63362940  0.27799379  0.46153229  1
  O  O54  1  0.18607375  0.89540266  0.78278937  1
  O  O55  1  0.81392625  0.10459734  0.21721063  1
  O  O56  1  0.60583931  0.50905558  0.33078184  1
  O  O57  1  0.14543857  0.25009602  0.50766189  1
  O  O58  1  0.34712660  0.43472967  0.07955083  1
  O  O59  1  0.14534864  0.93399659  0.37323917  1
  O  O60  1  0.16124148  0.55949844  0.27308005  1
  O  O61  1  0.87360865  0.20791607  0.87549619  1
  O  O62  1  0.36533457  0.22074390  0.20078538  1
  O  O63  1  0.13470715  0.68579212  0.84334087  1
  O  O64  1  0.62585207  0.98550005  0.66191138  1
  O  O65  1  0.33831006  0.17484828  0.90513836  1
  O  O66  1  0.37414793  0.01449995  0.33808862  1
  O  O67  1  0.12879003  0.50281919  0.99044918  1
  O  O68  1  0.86082812  0.94199614  0.79388984  1
  O  O69  1  0.85465136  0.06600341  0.62676083  1
  O  O70  1  0.63466543  0.77925610  0.79921462  1
  O  O71  1  0.66168994  0.82515172  0.09486164  1
