# generated using pymatgen
data_Bi2Te2WO10
_symmetry_space_group_name_H-M   'P 1'
_cell_length_a   5.70772260
_cell_length_b   6.95563618
_cell_length_c   12.48141837
_cell_angle_alpha   91.12957143
_cell_angle_beta   90.00000000
_cell_angle_gamma   114.22335902
_symmetry_Int_Tables_number   1
_chemical_formula_structural   Bi2Te2WO10
_chemical_formula_sum   'Bi4 Te4 W2 O20'
_cell_volume   451.78788484
_cell_formula_units_Z   2
loop_
 _symmetry_equiv_pos_site_id
 _symmetry_equiv_pos_as_xyz
  1  'x, y, z'
loop_
 _atom_site_type_symbol
 _atom_site_label
 _atom_site_symmetry_multiplicity
 _atom_site_fract_x
 _atom_site_fract_y
 _atom_site_fract_z
 _atom_site_occupancy
  Bi  Bi0  1  0.15090420  0.81793596  0.45672931  1
  Bi  Bi1  1  0.66703276  0.81793596  0.95672931  1
  Bi  Bi2  1  0.33296724  0.18206404  0.04326969  1
  Bi  Bi3  1  0.84909580  0.18206404  0.54327069  1
  Te  Te4  1  0.45769020  0.38148880  0.35910890  1
  Te  Te5  1  0.54230980  0.61851120  0.64089110  1
  Te  Te6  1  0.92379860  0.38148880  0.85910890  1
  Te  Te7  1  0.07620140  0.61851120  0.14089110  1
  W  W8  1  0.17654736  0.00000000  0.75000000  1
  W  W9  1  0.82345264  1.00000000  0.25000000  1
  O  O10  1  0.32057060  0.84958453  0.06136449  1
  O  O11  1  0.52901393  0.84958453  0.56136449  1
  O  O12  1  0.90674340  0.99848146  0.09896954  1
  O  O13  1  0.22758024  0.22951013  0.24475659  1
  O  O14  1  0.21738938  0.43425164  0.45124284  1
  O  O15  1  0.77241976  0.77048987  0.75524341  1
  O  O16  1  0.09325660  0.00151854  0.90103046  1
  O  O17  1  0.09173806  0.99848146  0.59896954  1
  O  O18  1  0.78261062  0.56574836  0.54875716  1
  O  O19  1  0.00192990  0.22951013  0.74475659  1
  O  O20  1  0.48740071  0.22175239  0.74396329  1
  O  O21  1  0.51259929  0.77824761  0.25603671  1
  O  O22  1  0.67942940  0.15041547  0.93863551  1
  O  O23  1  0.21686126  0.43425164  0.95124284  1
  O  O24  1  0.99807010  0.77048987  0.25524341  1
  O  O25  1  0.26564732  0.77824761  0.75603671  1
  O  O26  1  0.78313874  0.56574836  0.04875716  1
  O  O27  1  0.90826194  0.00151854  0.40103046  1
  O  O28  1  0.47098607  0.15041547  0.43863551  1
  O  O29  1  0.73435268  0.22175239  0.24396329  1
