# generated using pymatgen
data_Ba2CrO4
_symmetry_space_group_name_H-M   'P 1'
_cell_length_a   6.01695562
_cell_length_b   7.73225087
_cell_length_c   10.72422629
_cell_angle_alpha   90.00000000
_cell_angle_beta   90.00000000
_cell_angle_gamma   90.00000000
_symmetry_Int_Tables_number   1
_chemical_formula_structural   Ba2CrO4
_chemical_formula_sum   'Ba8 Cr4 O16'
_cell_volume   498.94044921
_cell_formula_units_Z   4
loop_
 _symmetry_equiv_pos_site_id
 _symmetry_equiv_pos_as_xyz
  1  'x, y, z'
loop_
 _atom_site_type_symbol
 _atom_site_label
 _atom_site_symmetry_multiplicity
 _atom_site_fract_x
 _atom_site_fract_y
 _atom_site_fract_z
 _atom_site_occupancy
  Ba  Ba0  1  0.24328040  0.99734700  0.19596915  1
  Ba  Ba1  1  0.23869260  0.65107574  0.93062971  1
  Ba  Ba2  1  0.73869260  0.34892426  0.06937029  1
  Ba  Ba3  1  0.23869260  0.15107574  0.56937029  1
  Ba  Ba4  1  0.74328040  0.00265300  0.80403085  1
  Ba  Ba5  1  0.74328040  0.50265300  0.69596915  1
  Ba  Ba6  1  0.73869260  0.84892426  0.43062971  1
  Ba  Ba7  1  0.24328040  0.49734700  0.30403085  1
  Cr  Cr8  1  0.23775943  0.71782143  0.57939022  1
  Cr  Cr9  1  0.23775943  0.21782143  0.92060978  1
  Cr  Cr10  1  0.73775943  0.28217857  0.42060978  1
  Cr  Cr11  1  0.73775943  0.78217857  0.07939022  1
  O  O12  1  0.48397579  0.80154169  0.65215563  1
  O  O13  1  0.49159593  0.18914434  0.35310700  1
  O  O14  1  0.72193622  0.51199505  0.42323544  1
  O  O15  1  0.98397579  0.69845831  0.15215563  1
  O  O16  1  0.99159593  0.81085566  0.64689300  1
  O  O17  1  0.49159593  0.68914434  0.14689300  1
  O  O18  1  0.99159593  0.31085566  0.85310700  1
  O  O19  1  0.74095962  0.68574914  0.92347100  1
  O  O20  1  0.24095962  0.31425086  0.07652900  1
  O  O21  1  0.48397579  0.30154169  0.84784437  1
  O  O22  1  0.98397579  0.19845831  0.34784437  1
  O  O23  1  0.24095962  0.81425086  0.42347100  1
  O  O24  1  0.22193622  0.98800495  0.92323544  1
  O  O25  1  0.22193622  0.48800495  0.57676456  1
  O  O26  1  0.74095962  0.18574914  0.57652900  1
  O  O27  1  0.72193622  0.01199505  0.07676456  1
