# generated using pymatgen
data_SrAg
_symmetry_space_group_name_H-M   'P 1'
_cell_length_a   4.84330253
_cell_length_b   6.42338372
_cell_length_c   41.56685435
_cell_angle_alpha   90.00000000
_cell_angle_beta   90.00000000
_cell_angle_gamma   90.00000000
_symmetry_Int_Tables_number   1
_chemical_formula_structural   SrAg
_chemical_formula_sum   'Sr20 Ag20'
_cell_volume   1293.16107577
_cell_formula_units_Z   20
loop_
 _symmetry_equiv_pos_site_id
 _symmetry_equiv_pos_as_xyz
  1  'x, y, z'
loop_
 _atom_site_type_symbol
 _atom_site_label
 _atom_site_symmetry_multiplicity
 _atom_site_fract_x
 _atom_site_fract_y
 _atom_site_fract_z
 _atom_site_occupancy
  Sr  Sr0  1  0.75000000  0.86656444  0.63607782  1
  Sr  Sr1  1  0.75000000  0.62663866  0.33607522  1
  Sr  Sr2  1  0.75000000  0.63269484  0.93600350  1
  Sr  Sr3  1  0.75000000  0.87336134  0.83607522  1
  Sr  Sr4  1  0.25000000  0.13343556  0.36392218  1
  Sr  Sr5  1  0.25000000  0.89257614  0.26411299  1
  Sr  Sr6  1  0.25000000  0.13255270  0.96406968  1
  Sr  Sr7  1  0.25000000  0.36656444  0.86392218  1
  Sr  Sr8  1  0.75000000  0.39257614  0.23588701  1
  Sr  Sr9  1  0.25000000  0.13269484  0.56399650  1
  Sr  Sr10  1  0.75000000  0.86730516  0.43600350  1
  Sr  Sr11  1  0.25000000  0.12663866  0.16392478  1
  Sr  Sr12  1  0.75000000  0.63343556  0.13607782  1
  Sr  Sr13  1  0.25000000  0.36730516  0.06399650  1
  Sr  Sr14  1  0.75000000  0.63255270  0.53593032  1
  Sr  Sr15  1  0.75000000  0.10742386  0.73588701  1
  Sr  Sr16  1  0.25000000  0.37336134  0.66392478  1
  Sr  Sr17  1  0.25000000  0.36744730  0.46406968  1
  Sr  Sr18  1  0.75000000  0.86744730  0.03593032  1
  Sr  Sr19  1  0.25000000  0.60742386  0.76411299  1
  Ag  Ag20  1  0.75000000  0.37684965  0.60692575  1
  Ag  Ag21  1  0.25000000  0.87670521  0.49301545  1
  Ag  Ag22  1  0.75000000  0.13685232  0.30697528  1
  Ag  Ag23  1  0.75000000  0.12329479  0.50698455  1
  Ag  Ag24  1  0.75000000  0.61643215  0.70716264  1
  Ag  Ag25  1  0.25000000  0.62390893  0.59284125  1
  Ag  Ag26  1  0.75000000  0.36314768  0.80697528  1
  Ag  Ag27  1  0.25000000  0.62329479  0.99301545  1
  Ag  Ag28  1  0.25000000  0.38356785  0.29283736  1
  Ag  Ag29  1  0.75000000  0.37609107  0.40715875  1
  Ag  Ag30  1  0.25000000  0.87684965  0.89307425  1
  Ag  Ag31  1  0.75000000  0.88356785  0.20716264  1
  Ag  Ag32  1  0.25000000  0.11643215  0.79283736  1
  Ag  Ag33  1  0.75000000  0.12390893  0.90715875  1
  Ag  Ag34  1  0.75000000  0.37670521  0.00698455  1
  Ag  Ag35  1  0.75000000  0.12315035  0.10692575  1
  Ag  Ag36  1  0.25000000  0.86314768  0.69302472  1
  Ag  Ag37  1  0.25000000  0.87609107  0.09284125  1
  Ag  Ag38  1  0.25000000  0.62315035  0.39307425  1
  Ag  Ag39  1  0.25000000  0.63685232  0.19302472  1
