# generated using pymatgen
data_Ba(CuP2)2
_symmetry_space_group_name_H-M   'P 1'
_cell_length_a   5.46584602
_cell_length_b   5.81284040
_cell_length_c   9.91990118
_cell_angle_alpha   82.55776116
_cell_angle_beta   74.00824530
_cell_angle_gamma   61.95579181
_symmetry_Int_Tables_number   1
_chemical_formula_structural   Ba(CuP2)2
_chemical_formula_sum   'Ba2 Cu4 P8'
_cell_volume   267.40485033
_cell_formula_units_Z   2
loop_
 _symmetry_equiv_pos_site_id
 _symmetry_equiv_pos_as_xyz
  1  'x, y, z'
loop_
 _atom_site_type_symbol
 _atom_site_label
 _atom_site_symmetry_multiplicity
 _atom_site_fract_x
 _atom_site_fract_y
 _atom_site_fract_z
 _atom_site_occupancy
  Ba  Ba0  1  0.12500000  0.75000000  0.75000000  1
  Ba  Ba1  1  0.87500000  0.25000000  0.25000000  1
  Cu  Cu2  1  0.25341948  0.25000000  0.49316104  1
  Cu  Cu3  1  0.74658052  0.75000000  0.50683896  1
  Cu  Cu4  1  0.49658052  0.25000000  0.00683896  1
  Cu  Cu5  1  0.50341948  0.75000000  0.99316104  1
  P  P6  1  0.82899223  0.36888573  0.85818051  1
  P  P7  1  0.31282726  0.13111427  0.85818051  1
  P  P8  1  0.44394153  0.86888573  0.35818051  1
  P  P9  1  0.55605847  0.13111427  0.64181949  1
  P  P10  1  0.19787795  0.63111427  0.35818051  1
  P  P11  1  0.68717274  0.86888573  0.14181949  1
  P  P12  1  0.80212205  0.36888573  0.64181949  1
  P  P13  1  0.17100777  0.63111427  0.14181949  1
