# generated using pymatgen
data_RbVBr3
_symmetry_space_group_name_H-M   'P 1'
_cell_length_a   13.08459333
_cell_length_b   13.08459352
_cell_length_c   6.55272758
_cell_angle_alpha   90.00000000
_cell_angle_beta   90.00000000
_cell_angle_gamma   119.99999950
_symmetry_Int_Tables_number   1
_chemical_formula_structural   RbVBr3
_chemical_formula_sum   'Rb6 V6 Br18'
_cell_volume   971.56802136
_cell_formula_units_Z   6
loop_
 _symmetry_equiv_pos_site_id
 _symmetry_equiv_pos_as_xyz
  1  'x, y, z'
loop_
 _atom_site_type_symbol
 _atom_site_label
 _atom_site_symmetry_multiplicity
 _atom_site_fract_x
 _atom_site_fract_y
 _atom_site_fract_z
 _atom_site_occupancy
  Rb  Rb0  1  1.00000000  0.33112278  0.75000000  1
  Rb  Rb1  1  0.33112278  0.33112278  0.25000000  1
  Rb  Rb2  1  0.66887722  0.66887722  0.75000000  1
  Rb  Rb3  1  0.00000000  0.66887722  0.25000000  1
  Rb  Rb4  1  0.33112278  0.00000000  0.75000000  1
  Rb  Rb5  1  0.66887722  0.00000000  0.25000000  1
  V  V6  1  0.33333300  0.66666700  0.52685781  1
  V  V7  1  0.66666700  0.33333300  0.47314219  1
  V  V8  1  0.00000000  0.00000000  0.00000000  1
  V  V9  1  0.00000000  0.00000000  0.50000000  1
  V  V10  1  0.66666700  0.33333300  0.97314219  1
  V  V11  1  0.33333300  0.66666700  0.02685781  1
  Br  Br12  1  0.82616608  0.49171040  0.72310468  1
  Br  Br13  1  0.33445568  0.50828960  0.77689532  1
  Br  Br14  1  0.17383392  0.66554432  0.77689532  1
  Br  Br15  1  0.82616608  0.33445568  0.22310468  1
  Br  Br16  1  0.17383392  0.50828960  0.27689532  1
  Br  Br17  1  0.15891896  0.00000000  0.25000000  1
  Br  Br18  1  0.33445568  0.82616608  0.27689532  1
  Br  Br19  1  0.49171040  0.82616608  0.77689532  1
  Br  Br20  1  0.66554432  0.17383392  0.72310468  1
  Br  Br21  1  0.66554432  0.49171040  0.22310468  1
  Br  Br22  1  0.00000000  0.15891896  0.25000000  1
  Br  Br23  1  0.15891896  0.15891896  0.75000000  1
  Br  Br24  1  0.84108104  0.00000000  0.75000000  1
  Br  Br25  1  1.00000000  0.84108104  0.75000000  1
  Br  Br26  1  0.84108104  0.84108104  0.25000000  1
  Br  Br27  1  0.50828960  0.17383392  0.22310468  1
  Br  Br28  1  0.49171040  0.66554432  0.27689532  1
  Br  Br29  1  0.50828960  0.33445568  0.72310468  1
