# generated using pymatgen
data_Er2CoSi2
_symmetry_space_group_name_H-M   'P 1'
_cell_length_a   4.11376220
_cell_length_b   5.53542129
_cell_length_c   8.92108802
_cell_angle_alpha   82.93715373
_cell_angle_beta   76.66972047
_cell_angle_gamma   68.18657918
_symmetry_Int_Tables_number   1
_chemical_formula_structural   Er2CoSi2
_chemical_formula_sum   'Er4 Co2 Si4'
_cell_volume   183.36246258
_cell_formula_units_Z   2
loop_
 _symmetry_equiv_pos_site_id
 _symmetry_equiv_pos_as_xyz
  1  'x, y, z'
loop_
 _atom_site_type_symbol
 _atom_site_label
 _atom_site_symmetry_multiplicity
 _atom_site_fract_x
 _atom_site_fract_y
 _atom_site_fract_z
 _atom_site_occupancy
  Er  Er0  1  0.99840506  0.67410147  0.32908841  1
  Er  Er1  1  0.18690233  0.73478703  0.89140832  1
  Er  Er2  1  0.00159494  0.32589853  0.67091159  1
  Er  Er3  1  0.81309767  0.26521297  0.10859168  1
  Co  Co4  1  0.27372981  0.07990873  0.37263166  1
  Co  Co5  1  0.72627019  0.92009127  0.62736834  1
  Si  Si6  1  0.50773667  0.86008790  0.12443877  1
  Si  Si7  1  0.49226333  0.13991210  0.87556123  1
  Si  Si8  1  0.35060994  0.73324374  0.56553638  1
  Si  Si9  1  0.64939006  0.26675626  0.43446362  1
