# generated using pymatgen
data_SiC
_symmetry_space_group_name_H-M   'P 1'
_cell_length_a   3.09465484
_cell_length_b   3.09465464
_cell_length_c   25.30910003
_cell_angle_alpha   90.00000000
_cell_angle_beta   90.00000000
_cell_angle_gamma   120.00000210
_symmetry_Int_Tables_number   1
_chemical_formula_structural   SiC
_chemical_formula_sum   'Si10 C10'
_cell_volume   209.90932488
_cell_formula_units_Z   10
loop_
 _symmetry_equiv_pos_site_id
 _symmetry_equiv_pos_as_xyz
  1  'x, y, z'
loop_
 _atom_site_type_symbol
 _atom_site_label
 _atom_site_symmetry_multiplicity
 _atom_site_fract_x
 _atom_site_fract_y
 _atom_site_fract_z
 _atom_site_occupancy
  Si  Si0  1  0.66666700  0.33333300  0.19991834  1
  Si  Si1  1  0.66666700  0.33333300  0.39995352  1
  Si  Si2  1  0.00000000  0.00000000  0.29998136  1
  Si  Si3  1  0.66666700  0.33333300  0.59995860  1
  Si  Si4  1  0.00000000  0.00000000  0.99996895  1
  Si  Si5  1  0.00000000  0.00000000  0.69998018  1
  Si  Si6  1  0.33333300  0.66666700  0.89990546  1
  Si  Si7  1  0.66666700  0.33333300  0.80002335  1
  Si  Si8  1  0.33333300  0.66666700  0.10001584  1
  Si  Si9  1  0.33333300  0.66666700  0.49996991  1
  C  C10  1  0.00000000  0.00000000  0.77518053  1
  C  C11  1  0.00000000  0.00000000  0.07517808  1
  C  C12  1  0.66666700  0.33333300  0.67488962  1
  C  C13  1  0.66666700  0.33333300  0.27492771  1
  C  C14  1  0.33333300  0.66666700  0.17498942  1
  C  C15  1  0.33333300  0.66666700  0.57517825  1
  C  C16  1  0.66666700  0.33333300  0.47488881  1
  C  C17  1  0.33333300  0.66666700  0.97491186  1
  C  C18  1  0.00000000  0.00000000  0.37517610  1
  C  C19  1  0.66666700  0.33333300  0.87500413  1
