# generated using pymatgen
data_MnH8C2S2(NO2)2
_symmetry_space_group_name_H-M   'P 1'
_cell_length_a   8.06828519
_cell_length_b   9.20956682
_cell_length_c   7.65600599
_cell_angle_alpha   90.00000000
_cell_angle_beta   114.10966264
_cell_angle_gamma   90.00000000
_symmetry_Int_Tables_number   1
_chemical_formula_structural   MnH8C2S2(NO2)2
_chemical_formula_sum   'Mn2 H16 C4 S4 N4 O8'
_cell_volume   519.25636784
_cell_formula_units_Z   2
loop_
 _symmetry_equiv_pos_site_id
 _symmetry_equiv_pos_as_xyz
  1  'x, y, z'
loop_
 _atom_site_type_symbol
 _atom_site_label
 _atom_site_symmetry_multiplicity
 _atom_site_fract_x
 _atom_site_fract_y
 _atom_site_fract_z
 _atom_site_occupancy
  Mn  Mn0  1  0.50000000  0.50000000  0.50000000  1
  Mn  Mn1  1  0.50000000  0.00000000  0.00000000  1
  H  H2  1  0.17126199  0.12149381  0.95540831  1
  H  H3  1  0.17126199  0.37850619  0.45540831  1
  H  H4  1  0.25079542  0.44298397  0.66116252  1
  H  H5  1  0.29827091  0.03890253  0.60656147  1
  H  H6  1  0.37326311  0.19649869  0.67346385  1
  H  H7  1  0.25079542  0.05701603  0.16116252  1
  H  H8  1  0.29827091  0.46109747  0.10656147  1
  H  H9  1  0.37326311  0.30350131  0.17346385  1
  H  H10  1  0.62673689  0.69649869  0.82653615  1
  H  H11  1  0.70172909  0.53890253  0.89343853  1
  H  H12  1  0.74920458  0.94298397  0.83883748  1
  H  H13  1  0.62673689  0.80350131  0.32653615  1
  H  H14  1  0.70172909  0.96109747  0.39343853  1
  H  H15  1  0.74920458  0.55701603  0.33883748  1
  H  H16  1  0.82873801  0.62149381  0.54459169  1
  H  H17  1  0.82873801  0.87850619  0.04459169  1
  C  C18  1  0.22446364  0.71511274  0.86074122  1
  C  C19  1  0.22446364  0.78488726  0.36074122  1
  C  C20  1  0.77553636  0.21511274  0.63925878  1
  C  C21  1  0.77553636  0.28488726  0.13925878  1
  S  S22  1  0.09584830  0.57088075  0.81775884  1
  S  S23  1  0.09584830  0.92911925  0.31775884  1
  S  S24  1  0.90415170  0.07088075  0.68224116  1
  S  S25  1  0.90415170  0.42911925  0.18224116  1
  N  N26  1  0.31887807  0.81861609  0.89454737  1
  N  N27  1  0.31887807  0.68138391  0.39454737  1
  N  N28  1  0.68112193  0.31861609  0.60545263  1
  N  N29  1  0.68112193  0.18138391  0.10545263  1
  O  O30  1  0.28476490  0.38261510  0.57354285  1
  O  O31  1  0.39383822  0.09308021  0.70962780  1
  O  O32  1  0.28476490  0.11738490  0.07354285  1
  O  O33  1  0.39383822  0.40691979  0.20962780  1
  O  O34  1  0.60616178  0.59308021  0.79037220  1
  O  O35  1  0.71523510  0.88261510  0.92645715  1
  O  O36  1  0.60616178  0.90691979  0.29037220  1
  O  O37  1  0.71523510  0.61738490  0.42645715  1
