# generated using pymatgen
data_Ni21(SnP3)2
_symmetry_space_group_name_H-M   'P 1'
_cell_length_a   7.85102894
_cell_length_b   7.85102946
_cell_length_c   7.85102942
_cell_angle_alpha   60.00000015
_cell_angle_beta   59.99999798
_cell_angle_gamma   59.99999841
_symmetry_Int_Tables_number   1
_chemical_formula_structural   Ni21(SnP3)2
_chemical_formula_sum   'Ni21 Sn2 P6'
_cell_volume   342.18800407
_cell_formula_units_Z   1
loop_
 _symmetry_equiv_pos_site_id
 _symmetry_equiv_pos_as_xyz
  1  'x, y, z'
loop_
 _atom_site_type_symbol
 _atom_site_label
 _atom_site_symmetry_multiplicity
 _atom_site_fract_x
 _atom_site_fract_y
 _atom_site_fract_z
 _atom_site_occupancy
  Ni  Ni0  1  0.00000000  0.65193675  0.00000000  1
  Ni  Ni1  1  0.84848888  0.38383704  0.38383704  1
  Ni  Ni2  1  0.00000000  0.65193675  0.34806325  1
  Ni  Ni3  1  0.00000000  0.34806325  0.65193675  1
  Ni  Ni4  1  0.34806325  0.00000000  0.65193675  1
  Ni  Ni5  1  0.65193675  0.34806325  0.00000000  1
  Ni  Ni6  1  0.15151112  0.61616296  0.61616296  1
  Ni  Ni7  1  0.00000000  0.00000000  0.65193675  1
  Ni  Ni8  1  0.38383704  0.84848888  0.38383704  1
  Ni  Ni9  1  0.61616296  0.61616296  0.61616296  1
  Ni  Ni10  1  0.34806325  0.00000000  0.00000000  1
  Ni  Ni11  1  0.00000000  0.00000000  0.34806325  1
  Ni  Ni12  1  0.65193675  0.00000000  0.00000000  1
  Ni  Ni13  1  0.65193675  0.00000000  0.34806325  1
  Ni  Ni14  1  0.61616296  0.15151112  0.61616296  1
  Ni  Ni15  1  0.34806325  0.65193675  0.00000000  1
  Ni  Ni16  1  0.00000000  0.34806325  0.00000000  1
  Ni  Ni17  1  0.38383704  0.38383704  0.84848888  1
  Ni  Ni18  1  0.61616296  0.61616296  0.15151112  1
  Ni  Ni19  1  0.38383704  0.38383704  0.38383704  1
  Ni  Ni20  1  0.00000000  0.00000000  0.00000000  1
  Sn  Sn21  1  0.25000000  0.25000000  0.25000000  1
  Sn  Sn22  1  0.75000000  0.75000000  0.75000000  1
  P  P23  1  0.73810472  0.26189528  0.73810472  1
  P  P24  1  0.26189528  0.73810472  0.73810472  1
  P  P25  1  0.26189528  0.26189528  0.73810472  1
  P  P26  1  0.73810472  0.73810472  0.26189528  1
  P  P27  1  0.73810472  0.26189528  0.26189528  1
  P  P28  1  0.26189528  0.73810472  0.26189528  1
