# generated using pymatgen
data_CdI2
_symmetry_space_group_name_H-M   'P 1'
_cell_length_a   4.33502337
_cell_length_b   4.33502363
_cell_length_c   129.43161636
_cell_angle_alpha   90.00000000
_cell_angle_beta   90.00000000
_cell_angle_gamma   119.99999792
_symmetry_Int_Tables_number   1
_chemical_formula_structural   CdI2
_chemical_formula_sum   'Cd17 I34'
_cell_volume   2106.46345015
_cell_formula_units_Z   17
loop_
 _symmetry_equiv_pos_site_id
 _symmetry_equiv_pos_as_xyz
  1  'x, y, z'
loop_
 _atom_site_type_symbol
 _atom_site_label
 _atom_site_symmetry_multiplicity
 _atom_site_fract_x
 _atom_site_fract_y
 _atom_site_fract_z
 _atom_site_occupancy
  Cd  Cd0  1  0.66666700  0.33333300  0.13239459  1
  Cd  Cd1  1  0.66666700  0.33333300  0.83823206  1
  Cd  Cd2  1  0.33333300  0.66666700  0.07352201  1
  Cd  Cd3  1  0.33333300  0.66666700  0.48526279  1
  Cd  Cd4  1  0.66666700  0.33333300  0.89704816  1
  Cd  Cd5  1  0.66666700  0.33333300  0.72061597  1
  Cd  Cd6  1  0.33333300  0.66666700  0.36767538  1
  Cd  Cd7  1  0.33333300  0.66666700  0.19113221  1
  Cd  Cd8  1  0.66666700  0.33333300  0.01472841  1
  Cd  Cd9  1  0.66666700  0.33333300  0.42649790  1
  Cd  Cd10  1  0.00000000  0.00000000  0.30883255  1
  Cd  Cd11  1  0.33333300  0.66666700  0.66177533  1
  Cd  Cd12  1  0.66666700  0.33333300  0.54407900  1
  Cd  Cd13  1  0.33333300  0.66666700  0.95585742  1
  Cd  Cd14  1  0.33333300  0.66666700  0.24997436  1
  Cd  Cd15  1  0.66666700  0.33333300  0.60293493  1
  Cd  Cd16  1  0.33333300  0.66666700  0.77943715  1
  I  I17  1  0.00000000  0.00000000  0.41319272  1
  I  I18  1  0.66666700  0.33333300  0.67507582  1
  I  I19  1  0.33333300  0.66666700  0.91035215  1
  I  I20  1  0.00000000  0.00000000  0.06022503  1
  I  I21  1  0.33333300  0.66666700  0.43980301  1
  I  I22  1  0.33333300  0.66666700  0.55737773  1
  I  I23  1  0.00000000  0.00000000  0.17782713  1
  I  I24  1  0.00000000  0.00000000  0.94256733  1
  I  I25  1  0.33333300  0.66666700  0.29552543  1
  I  I26  1  0.33333300  0.66666700  0.14569449  1
  I  I27  1  0.66666700  0.33333300  0.32213911  1
  I  I28  1  0.00000000  0.00000000  0.23666479  1
  I  I29  1  0.66666700  0.33333300  0.38097917  1
  I  I30  1  0.00000000  0.00000000  0.88373854  1
  I  I31  1  0.00000000  0.00000000  0.64848464  1
  I  I32  1  0.00000000  0.00000000  0.70731174  1
  I  I33  1  0.00000000  0.00000000  0.47195879  1
  I  I34  1  0.00000000  0.00000000  0.11908969  1
  I  I35  1  0.00000000  0.00000000  0.82493209  1
  I  I36  1  0.66666700  0.33333300  0.20444130  1
  I  I37  1  0.33333300  0.66666700  0.02802971  1
  I  I38  1  0.66666700  0.33333300  0.08682548  1
  I  I39  1  0.00000000  0.00000000  0.76613160  1
  I  I40  1  0.00000000  0.00000000  0.00142211  1
  I  I41  1  0.00000000  0.00000000  0.35436710  1
  I  I42  1  0.33333300  0.66666700  0.61624309  1
  I  I43  1  0.66666700  0.33333300  0.79274528  1
  I  I44  1  0.66666700  0.33333300  0.96915797  1
  I  I45  1  0.00000000  0.00000000  0.58962339  1
  I  I46  1  0.33333300  0.66666700  0.73391455  1
  I  I47  1  0.66666700  0.33333300  0.49856100  1
  I  I48  1  0.33333300  0.66666700  0.85153464  1
  I  I49  1  0.00000000  0.00000000  0.53078548  1
  I  I50  1  0.66666700  0.33333300  0.26327768  1
