# generated using pymatgen
data_CdI2
_symmetry_space_group_name_H-M   'P 1'
_cell_length_a   4.33540406
_cell_length_b   4.33540433
_cell_length_c   130.45353745
_cell_angle_alpha   90.00000000
_cell_angle_beta   90.00000000
_cell_angle_gamma   119.99999796
_symmetry_Int_Tables_number   1
_chemical_formula_structural   CdI2
_chemical_formula_sum   'Cd17 I34'
_cell_volume   2123.46783763
_cell_formula_units_Z   17
loop_
 _symmetry_equiv_pos_site_id
 _symmetry_equiv_pos_as_xyz
  1  'x, y, z'
loop_
 _atom_site_type_symbol
 _atom_site_label
 _atom_site_symmetry_multiplicity
 _atom_site_fract_x
 _atom_site_fract_y
 _atom_site_fract_z
 _atom_site_occupancy
  Cd  Cd0  1  0.66666700  0.33333300  0.48539148  1
  Cd  Cd1  1  0.00000000  0.00000000  0.72055440  1
  Cd  Cd2  1  0.66666700  0.33333300  0.36765057  1
  Cd  Cd3  1  0.00000000  0.00000000  0.66177246  1
  Cd  Cd4  1  0.00000000  0.00000000  0.95582291  1
  Cd  Cd5  1  0.33333300  0.66666700  0.83822079  1
  Cd  Cd6  1  0.00000000  0.00000000  0.54413645  1
  Cd  Cd7  1  0.00000000  0.00000000  0.89707856  1
  Cd  Cd8  1  0.00000000  0.00000000  0.30883509  1
  Cd  Cd9  1  0.66666700  0.33333300  0.24995882  1
  Cd  Cd10  1  0.66666700  0.33333300  0.13236534  1
  Cd  Cd11  1  0.66666700  0.33333300  0.01473100  1
  Cd  Cd12  1  0.66666700  0.33333300  0.60292257  1
  Cd  Cd13  1  0.00000000  0.00000000  0.07353275  1
  Cd  Cd14  1  0.00000000  0.00000000  0.42645463  1
  Cd  Cd15  1  0.00000000  0.00000000  0.77938917  1
  Cd  Cd16  1  0.00000000  0.00000000  0.19118530  1
  I  I17  1  0.33333300  0.66666700  0.32204187  1
  I  I18  1  0.33333300  0.66666700  0.43966570  1
  I  I19  1  0.33333300  0.66666700  0.55734086  1
  I  I20  1  0.66666700  0.33333300  0.94261552  1
  I  I21  1  0.66666700  0.33333300  0.29563033  1
  I  I22  1  0.66666700  0.33333300  0.88387447  1
  I  I23  1  0.33333300  0.66666700  0.14556283  1
  I  I24  1  0.66666700  0.33333300  0.17797550  1
  I  I25  1  0.66666700  0.33333300  0.64856136  1
  I  I26  1  0.00000000  0.00000000  0.23675177  1
  I  I27  1  0.33333300  0.66666700  0.96903106  1
  I  I28  1  0.33333300  0.66666700  0.20439694  1
  I  I29  1  0.00000000  0.00000000  0.47219501  1
  I  I30  1  0.33333300  0.66666700  0.67498459  1
  I  I31  1  0.00000000  0.00000000  0.11915843  1
  I  I32  1  0.33333300  0.66666700  0.38085590  1
  I  I33  1  0.66666700  0.33333300  0.41324639  1
  I  I34  1  0.66666700  0.33333300  0.06032802  1
  I  I35  1  0.00000000  0.00000000  0.85141743  1
  I  I36  1  0.33333300  0.66666700  0.02792885  1
  I  I37  1  0.00000000  0.00000000  0.00152920  1
  I  I38  1  0.66666700  0.33333300  0.53093555  1
  I  I39  1  0.00000000  0.00000000  0.35444692  1
  I  I40  1  0.33333300  0.66666700  0.61612958  1
  I  I41  1  0.66666700  0.33333300  0.70734560  1
  I  I42  1  0.33333300  0.66666700  0.91028555  1
  I  I43  1  0.33333300  0.66666700  0.08673532  1
  I  I44  1  0.33333300  0.66666700  0.79259631  1
  I  I45  1  0.66666700  0.33333300  0.82501585  1
  I  I46  1  0.00000000  0.00000000  0.58971291  1
  I  I47  1  0.66666700  0.33333300  0.76618394  1
  I  I48  1  0.33333300  0.66666700  0.73376702  1
  I  I49  1  0.33333300  0.66666700  0.26316317  1
  I  I50  1  0.33333300  0.66666700  0.49858796  1
