# generated using pymatgen
data_CdI2
_symmetry_space_group_name_H-M   'P 1'
_cell_length_a   4.33749743
_cell_length_b   4.33749769
_cell_length_c   125.80690075
_cell_angle_alpha   90.00000000
_cell_angle_beta   90.00000000
_cell_angle_gamma   119.99999792
_symmetry_Int_Tables_number   1
_chemical_formula_structural   CdI2
_chemical_formula_sum   'Cd16 I32'
_cell_volume   2049.80992570
_cell_formula_units_Z   16
loop_
 _symmetry_equiv_pos_site_id
 _symmetry_equiv_pos_as_xyz
  1  'x, y, z'
loop_
 _atom_site_type_symbol
 _atom_site_label
 _atom_site_symmetry_multiplicity
 _atom_site_fract_x
 _atom_site_fract_y
 _atom_site_fract_z
 _atom_site_occupancy
  Cd  Cd0  1  0.66666700  0.33333300  0.76564292  1
  Cd  Cd1  1  0.66666700  0.33333300  0.14059643  1
  Cd  Cd2  1  0.66666700  0.33333300  0.01563003  1
  Cd  Cd3  1  0.00000000  0.00000000  0.32811706  1
  Cd  Cd4  1  0.00000000  0.00000000  0.70316178  1
  Cd  Cd5  1  0.00000000  0.00000000  0.57812362  1
  Cd  Cd6  1  0.66666700  0.33333300  0.26563838  1
  Cd  Cd7  1  0.00000000  0.00000000  0.45305193  1
  Cd  Cd8  1  0.66666700  0.33333300  0.64059314  1
  Cd  Cd9  1  0.66666700  0.33333300  0.82813589  1
  Cd  Cd10  1  0.66666700  0.33333300  0.39069083  1
  Cd  Cd11  1  0.66666700  0.33333300  0.51563338  1
  Cd  Cd12  1  0.00000000  0.00000000  0.20317207  1
  Cd  Cd13  1  0.00000000  0.00000000  0.07811330  1
  Cd  Cd14  1  0.00000000  0.00000000  0.89063426  1
  Cd  Cd15  1  0.66666700  0.33333300  0.95310949  1
  I  I16  1  0.66666700  0.33333300  0.87698310  1
  I  I17  1  0.33333300  0.66666700  0.02928732  1
  I  I18  1  0.33333300  0.66666700  0.27929866  1
  I  I19  1  0.33333300  0.66666700  0.52929221  1
  I  I20  1  0.66666700  0.33333300  0.18947557  1
  I  I21  1  0.00000000  0.00000000  0.37703589  1
  I  I22  1  0.00000000  0.00000000  0.93946317  1
  I  I23  1  0.33333300  0.66666700  0.15429428  1
  I  I24  1  0.33333300  0.66666700  0.65427775  1
  I  I25  1  0.33333300  0.66666700  0.09175428  1
  I  I26  1  0.33333300  0.66666700  0.71680792  1
  I  I27  1  0.66666700  0.33333300  0.31436477  1
  I  I28  1  0.33333300  0.66666700  0.46672543  1
  I  I29  1  0.66666700  0.33333300  0.68948654  1
  I  I30  1  0.66666700  0.33333300  0.06446355  1
  I  I31  1  0.33333300  0.66666700  0.90429381  1
  I  I32  1  0.00000000  0.00000000  0.25198453  1
  I  I33  1  0.00000000  0.00000000  0.50198303  1
  I  I34  1  0.66666700  0.33333300  0.56447694  1
  I  I35  1  0.33333300  0.66666700  0.77930056  1
  I  I36  1  0.00000000  0.00000000  0.75199106  1
  I  I37  1  0.00000000  0.00000000  0.12690405  1
  I  I38  1  0.00000000  0.00000000  0.81446367  1
  I  I39  1  0.33333300  0.66666700  0.40434166  1
  I  I40  1  0.33333300  0.66666700  0.21684661  1
  I  I41  1  0.00000000  0.00000000  0.00198465  1
  I  I42  1  0.33333300  0.66666700  0.96675011  1
  I  I43  1  0.66666700  0.33333300  0.43937226  1
  I  I44  1  0.33333300  0.66666700  0.84180599  1
  I  I45  1  0.00000000  0.00000000  0.62692504  1
  I  I46  1  0.33333300  0.66666700  0.59176384  1
  I  I47  1  0.33333300  0.66666700  0.34183724  1
