# generated using pymatgen
data_Li3Co2CuO6
_symmetry_space_group_name_H-M   'P 1'
_cell_length_a   6.59267475
_cell_length_b   2.93448770
_cell_length_c   5.91997916
_cell_angle_alpha   90.59533814
_cell_angle_beta   103.40207878
_cell_angle_gamma   77.32469872
_symmetry_Int_Tables_number   1
_chemical_formula_structural   Li3Co2CuO6
_chemical_formula_sum   'Li3 Co2 Cu1 O6'
_cell_volume   108.59573651
_cell_formula_units_Z   1
loop_
 _symmetry_equiv_pos_site_id
 _symmetry_equiv_pos_as_xyz
  1  'x, y, z'
loop_
 _atom_site_type_symbol
 _atom_site_label
 _atom_site_symmetry_multiplicity
 _atom_site_fract_x
 _atom_site_fract_y
 _atom_site_fract_z
 _atom_site_occupancy
  Li  Li0  1  0.00876436  0.98862323  0.49857122  1
  Li  Li1  1  0.33414131  0.32606571  0.83091582  1
  Li  Li2  1  0.66891284  0.65747805  0.16771170  1
  Co  Co3  1  0.00506028  0.99312021  0.99904583  1
  Co  Co4  1  0.67130772  0.65861374  0.66364732  1
  Cu  Cu5  1  0.33369050  0.32940099  0.33368972  1
  O  O6  1  0.00968212  0.49270883  0.23769106  1
  O  O7  1  0.34608523  0.82707459  0.57155757  1
  O  O8  1  0.68083293  0.14376904  0.90360835  1
  O  O9  1  0.32346309  0.83254357  0.09279468  1
  O  O10  1  0.66050317  0.17438829  0.42727571  1
  O  O11  1  0.99598446  0.49241776  0.76005702  1
