# generated using pymatgen
data_SbAsPCl13
_symmetry_space_group_name_H-M   'P 1'
_cell_length_a   9.84059132
_cell_length_b   9.84059108
_cell_length_c   12.17955602
_cell_angle_alpha   90.00000000
_cell_angle_beta   90.00000000
_cell_angle_gamma   115.28545308
_symmetry_Int_Tables_number   1
_chemical_formula_structural   SbAsPCl13
_chemical_formula_sum   'Sb2 As2 P2 Cl26'
_cell_volume   1066.43411499
_cell_formula_units_Z   2
loop_
 _symmetry_equiv_pos_site_id
 _symmetry_equiv_pos_as_xyz
  1  'x, y, z'
loop_
 _atom_site_type_symbol
 _atom_site_label
 _atom_site_symmetry_multiplicity
 _atom_site_fract_x
 _atom_site_fract_y
 _atom_site_fract_z
 _atom_site_occupancy
  Sb  Sb0  1  0.79335634  0.20664366  0.49797235  1
  Sb  Sb1  1  0.20664366  0.79335634  0.99797235  1
  As  As2  1  0.45083167  0.54916833  0.84712325  1
  As  As3  1  0.54916833  0.45083167  0.34712325  1
  P  P4  1  0.14024505  0.85975495  0.53625488  1
  P  P5  1  0.85975495  0.14024505  0.03625488  1
  Cl  Cl6  1  0.30992460  0.01402851  0.11250647  1
  Cl  Cl7  1  0.86409934  0.13590066  0.87550235  1
  Cl  Cl8  1  0.62444567  0.69531681  0.36990055  1
  Cl  Cl9  1  0.13590066  0.86409934  0.37550235  1
  Cl  Cl10  1  0.93500168  0.76190625  0.59301039  1
  Cl  Cl11  1  0.69531681  0.62444567  0.86990055  1
  Cl  Cl12  1  0.74728994  0.25271006  0.08298060  1
  Cl  Cl13  1  0.23809375  0.06499832  0.59301039  1
  Cl  Cl14  1  0.69007540  0.98597149  0.61250647  1
  Cl  Cl15  1  0.25271006  0.74728994  0.58298060  1
  Cl  Cl16  1  0.06499832  0.23809375  0.09301039  1
  Cl  Cl17  1  0.10184030  0.57255371  0.88115229  1
  Cl  Cl18  1  0.98597149  0.69007540  0.11250647  1
  Cl  Cl19  1  0.01402851  0.30992460  0.61250647  1
  Cl  Cl20  1  0.08802341  0.91197659  0.88335931  1
  Cl  Cl21  1  0.89815970  0.42744629  0.38115229  1
  Cl  Cl22  1  0.57255371  0.10184030  0.38115229  1
  Cl  Cl23  1  0.42744629  0.89815970  0.88115229  1
  Cl  Cl24  1  0.30468319  0.37555433  0.36990055  1
  Cl  Cl25  1  0.37555433  0.30468319  0.86990055  1
  Cl  Cl26  1  0.91197659  0.08802341  0.38335931  1
  Cl  Cl27  1  0.55315389  0.44684611  0.16418764  1
  Cl  Cl28  1  0.32654604  0.67345396  0.10878020  1
  Cl  Cl29  1  0.67345396  0.32654604  0.60878020  1
  Cl  Cl30  1  0.76190625  0.93500168  0.09301039  1
  Cl  Cl31  1  0.44684611  0.55315389  0.66418764  1
