# generated using pymatgen
data_KAuCl4
_symmetry_space_group_name_H-M   'P 1'
_cell_length_a   6.55330906
_cell_length_b   9.10497591
_cell_length_c   12.50628887
_cell_angle_alpha   96.65571434
_cell_angle_beta   90.00000000
_cell_angle_gamma   90.00000000
_symmetry_Int_Tables_number   1
_chemical_formula_structural   KAuCl4
_chemical_formula_sum   'K4 Au4 Cl16'
_cell_volume   741.19261833
_cell_formula_units_Z   4
loop_
 _symmetry_equiv_pos_site_id
 _symmetry_equiv_pos_as_xyz
  1  'x, y, z'
loop_
 _atom_site_type_symbol
 _atom_site_label
 _atom_site_symmetry_multiplicity
 _atom_site_fract_x
 _atom_site_fract_y
 _atom_site_fract_z
 _atom_site_occupancy
  K  K0  1  0.04922115  0.78656553  0.81613272  1
  K  K1  1  0.45077885  0.78656553  0.31613272  1
  K  K2  1  0.95077885  0.21343447  0.18386728  1
  K  K3  1  0.54922115  0.21343447  0.68386728  1
  Au  Au4  1  0.00000000  0.00000000  0.50000000  1
  Au  Au5  1  0.50000000  0.00000000  0.00000000  1
  Au  Au6  1  0.50000000  0.50000000  0.00000000  1
  Au  Au7  1  0.00000000  0.50000000  0.50000000  1
  Cl  Cl8  1  0.25030642  0.66520923  0.56945071  1
  Cl  Cl9  1  0.54770980  0.90656603  0.82066506  1
  Cl  Cl10  1  0.95229020  0.90656603  0.32066506  1
  Cl  Cl11  1  0.84930883  0.50668934  0.66857188  1
  Cl  Cl12  1  0.20877720  0.12304871  0.95279741  1
  Cl  Cl13  1  0.74969358  0.33479077  0.43054929  1
  Cl  Cl14  1  0.34930883  0.49331066  0.83142812  1
  Cl  Cl15  1  0.65069117  0.50668934  0.16857188  1
  Cl  Cl16  1  0.15069117  0.49331066  0.33142812  1
  Cl  Cl17  1  0.29122280  0.12304871  0.45279741  1
  Cl  Cl18  1  0.04770980  0.09343397  0.67933494  1
  Cl  Cl19  1  0.24969358  0.66520923  0.06945071  1
  Cl  Cl20  1  0.79122280  0.87695129  0.04720259  1
  Cl  Cl21  1  0.75030642  0.33479077  0.93054929  1
  Cl  Cl22  1  0.70877720  0.87695129  0.54720259  1
  Cl  Cl23  1  0.45229020  0.09343397  0.17933494  1
