# generated using pymatgen
data_Ga3Bi5Cl12
_symmetry_space_group_name_H-M   'P 1'
_cell_length_a   12.45635561
_cell_length_b   12.45635577
_cell_length_c   12.45635600
_cell_angle_alpha   57.96540878
_cell_angle_beta   57.96540836
_cell_angle_gamma   57.96540998
_symmetry_Int_Tables_number   1
_chemical_formula_structural   Ga3Bi5Cl12
_chemical_formula_sum   'Ga6 Bi10 Cl24'
_cell_volume   1302.85707506
_cell_formula_units_Z   2
loop_
 _symmetry_equiv_pos_site_id
 _symmetry_equiv_pos_as_xyz
  1  'x, y, z'
loop_
 _atom_site_type_symbol
 _atom_site_label
 _atom_site_symmetry_multiplicity
 _atom_site_fract_x
 _atom_site_fract_y
 _atom_site_fract_z
 _atom_site_occupancy
  Ga  Ga0  1  0.74811138  0.22977717  0.27313329  1
  Ga  Ga1  1  0.27313329  0.74811138  0.22977717  1
  Ga  Ga2  1  0.77313329  0.72977717  0.24811138  1
  Ga  Ga3  1  0.22977717  0.27313329  0.74811138  1
  Ga  Ga4  1  0.72977717  0.24811138  0.77313329  1
  Ga  Ga5  1  0.24811138  0.77313329  0.72977717  1
  Bi  Bi6  1  0.25252292  0.40563714  0.09066923  1
  Bi  Bi7  1  0.59066923  0.90563714  0.75252292  1
  Bi  Bi8  1  0.17195460  0.17195460  0.17195460  1
  Bi  Bi9  1  0.67195460  0.67195460  0.67195460  1
  Bi  Bi10  1  0.75252292  0.59066923  0.90563714  1
  Bi  Bi11  1  0.82721570  0.82721570  0.82721570  1
  Bi  Bi12  1  0.32721570  0.32721570  0.32721570  1
  Bi  Bi13  1  0.40563714  0.09066923  0.25252292  1
  Bi  Bi14  1  0.90563714  0.75252292  0.59066923  1
  Bi  Bi15  1  0.09066923  0.25252292  0.40563714  1
  Cl  Cl16  1  0.69636205  0.07195855  0.95864470  1
  Cl  Cl17  1  0.19636205  0.45864470  0.57195855  1
  Cl  Cl18  1  0.57195855  0.19636205  0.45864470  1
  Cl  Cl19  1  0.89764086  0.29897172  0.72606365  1
  Cl  Cl20  1  0.19720642  0.60773035  0.77108873  1
  Cl  Cl21  1  0.95864470  0.69636205  0.07195855  1
  Cl  Cl22  1  0.29897172  0.72606365  0.89764086  1
  Cl  Cl23  1  0.77108873  0.19720642  0.60773035  1
  Cl  Cl24  1  0.42565878  0.80885239  0.54545036  1
  Cl  Cl25  1  0.10773035  0.69720642  0.27108873  1
  Cl  Cl26  1  0.07195855  0.95864470  0.69636205  1
  Cl  Cl27  1  0.80885239  0.54545036  0.42565878  1
  Cl  Cl28  1  0.30885239  0.92565878  0.04545036  1
  Cl  Cl29  1  0.04545036  0.30885239  0.92565878  1
  Cl  Cl30  1  0.69720642  0.27108873  0.10773035  1
  Cl  Cl31  1  0.22606365  0.79897172  0.39764086  1
  Cl  Cl32  1  0.39764086  0.22606365  0.79897172  1
  Cl  Cl33  1  0.60773035  0.77108873  0.19720642  1
  Cl  Cl34  1  0.27108873  0.10773035  0.69720642  1
  Cl  Cl35  1  0.92565878  0.04545036  0.30885239  1
  Cl  Cl36  1  0.45864470  0.57195855  0.19636205  1
  Cl  Cl37  1  0.54545036  0.42565878  0.80885239  1
  Cl  Cl38  1  0.72606365  0.89764086  0.29897172  1
  Cl  Cl39  1  0.79897172  0.39764086  0.22606365  1
