# generated using pymatgen
data_MoCl5
_symmetry_space_group_name_H-M   'P 1'
_cell_length_a   6.46835397
_cell_length_b   6.95229197
_cell_length_c   9.49701302
_cell_angle_alpha   109.69222571
_cell_angle_beta   91.33193522
_cell_angle_gamma   116.76275949
_symmetry_Int_Tables_number   1
_chemical_formula_structural   MoCl5
_chemical_formula_sum   'Mo2 Cl10'
_cell_volume   351.16510525
_cell_formula_units_Z   2
loop_
 _symmetry_equiv_pos_site_id
 _symmetry_equiv_pos_as_xyz
  1  'x, y, z'
loop_
 _atom_site_type_symbol
 _atom_site_label
 _atom_site_symmetry_multiplicity
 _atom_site_fract_x
 _atom_site_fract_y
 _atom_site_fract_z
 _atom_site_occupancy
  Mo  Mo0  1  0.10528215  0.71492304  0.71426486  1
  Mo  Mo1  1  0.89471785  0.28507696  0.28573514  1
  Cl  Cl2  1  0.23390212  0.68309257  0.46150923  1
  Cl  Cl3  1  0.11335883  0.13625599  0.35425099  1
  Cl  Cl4  1  0.76609788  0.31690743  0.53849077  1
  Cl  Cl5  1  0.43073909  0.06948783  0.83505696  1
  Cl  Cl6  1  0.88664117  0.86374401  0.64574901  1
  Cl  Cl7  1  0.56926091  0.93051217  0.16494304  1
  Cl  Cl8  1  0.05485767  0.30677186  0.07745641  1
  Cl  Cl9  1  0.29280827  0.51239815  0.73795541  1
  Cl  Cl10  1  0.70719173  0.48760185  0.26204459  1
  Cl  Cl11  1  0.94514233  0.69322814  0.92254359  1
