# generated using pymatgen
data_MoCl5
_symmetry_space_group_name_H-M   'P 1'
_cell_length_a   6.48817808
_cell_length_b   12.35762500
_cell_length_c   18.26761393
_cell_angle_alpha   90.00000000
_cell_angle_beta   90.00000000
_cell_angle_gamma   90.00000000
_symmetry_Int_Tables_number   1
_chemical_formula_structural   MoCl5
_chemical_formula_sum   'Mo8 Cl40'
_cell_volume   1464.66936552
_cell_formula_units_Z   8
loop_
 _symmetry_equiv_pos_site_id
 _symmetry_equiv_pos_as_xyz
  1  'x, y, z'
loop_
 _atom_site_type_symbol
 _atom_site_label
 _atom_site_symmetry_multiplicity
 _atom_site_fract_x
 _atom_site_fract_y
 _atom_site_fract_z
 _atom_site_occupancy
  Mo  Mo0  1  0.90989443  0.87548050  0.85654488  1
  Mo  Mo1  1  0.59010557  0.37548050  0.85654488  1
  Mo  Mo2  1  0.40989443  0.62451950  0.14345512  1
  Mo  Mo3  1  0.09010557  0.12451950  0.14345512  1
  Mo  Mo4  1  0.09010557  0.12451950  0.35654488  1
  Mo  Mo5  1  0.59010557  0.37548050  0.64345512  1
  Mo  Mo6  1  0.90989443  0.87548050  0.64345512  1
  Mo  Mo7  1  0.40989443  0.62451950  0.35654488  1
  Cl  Cl8  1  0.63411621  0.76212946  0.65552197  1
  Cl  Cl9  1  0.92559544  0.23275810  0.06172868  1
  Cl  Cl10  1  0.13411621  0.73787054  0.15552197  1
  Cl  Cl11  1  0.36588379  0.23787054  0.15552197  1
  Cl  Cl12  1  0.18400745  0.99014465  0.84401430  1
  Cl  Cl13  1  0.25249289  0.01640594  0.06096349  1
  Cl  Cl14  1  0.07440456  0.76724190  0.93827132  1
  Cl  Cl15  1  0.81599255  0.00985535  0.34401430  1
  Cl  Cl16  1  0.31599255  0.49014465  0.84401430  1
  Cl  Cl17  1  0.07440456  0.76724190  0.56172868  1
  Cl  Cl18  1  0.93465568  0.22882181  0.25000000  1
  Cl  Cl19  1  0.42559544  0.26724190  0.93827132  1
  Cl  Cl20  1  0.75365592  0.97922435  0.75000000  1
  Cl  Cl21  1  0.75249289  0.48359406  0.56096349  1
  Cl  Cl22  1  0.36588379  0.23787054  0.34447803  1
  Cl  Cl23  1  0.24634408  0.02077565  0.25000000  1
  Cl  Cl24  1  0.74634408  0.47922435  0.75000000  1
  Cl  Cl25  1  0.74750711  0.98359406  0.56096349  1
  Cl  Cl26  1  0.24750711  0.51640594  0.06096349  1
  Cl  Cl27  1  0.43465568  0.27117819  0.75000000  1
  Cl  Cl28  1  0.25365592  0.52077565  0.25000000  1
  Cl  Cl29  1  0.56534432  0.72882181  0.25000000  1
  Cl  Cl30  1  0.86588379  0.26212946  0.84447803  1
  Cl  Cl31  1  0.86588379  0.26212946  0.65552197  1
  Cl  Cl32  1  0.74750711  0.98359406  0.93903651  1
  Cl  Cl33  1  0.25249289  0.01640594  0.43903651  1
  Cl  Cl34  1  0.92559544  0.23275810  0.43827132  1
  Cl  Cl35  1  0.75249289  0.48359406  0.93903651  1
  Cl  Cl36  1  0.81599255  0.00985535  0.15598570  1
  Cl  Cl37  1  0.06534432  0.77117819  0.75000000  1
  Cl  Cl38  1  0.42559544  0.26724190  0.56172868  1
  Cl  Cl39  1  0.13411621  0.73787054  0.34447803  1
  Cl  Cl40  1  0.24750711  0.51640594  0.43903651  1
  Cl  Cl41  1  0.57440456  0.73275810  0.06172868  1
  Cl  Cl42  1  0.57440456  0.73275810  0.43827132  1
  Cl  Cl43  1  0.63411621  0.76212946  0.84447803  1
  Cl  Cl44  1  0.18400745  0.99014465  0.65598570  1
  Cl  Cl45  1  0.68400745  0.50985535  0.34401430  1
  Cl  Cl46  1  0.31599255  0.49014465  0.65598570  1
  Cl  Cl47  1  0.68400745  0.50985535  0.15598570  1
