# generated using pymatgen
data_CdI2
_symmetry_space_group_name_H-M   'P 1'
_cell_length_a   4.33587222
_cell_length_b   4.33587248
_cell_length_c   101.76493312
_cell_angle_alpha   90.00000000
_cell_angle_beta   90.00000000
_cell_angle_gamma   119.99999802
_symmetry_Int_Tables_number   1
_chemical_formula_structural   CdI2
_chemical_formula_sum   'Cd13 I26'
_cell_volume   1656.84456564
_cell_formula_units_Z   13
loop_
 _symmetry_equiv_pos_site_id
 _symmetry_equiv_pos_as_xyz
  1  'x, y, z'
loop_
 _atom_site_type_symbol
 _atom_site_label
 _atom_site_symmetry_multiplicity
 _atom_site_fract_x
 _atom_site_fract_y
 _atom_site_fract_z
 _atom_site_occupancy
  Cd  Cd0  1  0.00000000  0.00000000  0.40379252  1
  Cd  Cd1  1  0.00000000  0.00000000  0.63461681  1
  Cd  Cd2  1  0.00000000  0.00000000  0.78849291  1
  Cd  Cd3  1  0.66666700  0.33333300  0.48072869  1
  Cd  Cd4  1  0.00000000  0.00000000  0.55763907  1
  Cd  Cd5  1  0.66666700  0.33333300  0.17317458  1
  Cd  Cd6  1  0.00000000  0.00000000  0.94236036  1
  Cd  Cd7  1  0.66666700  0.33333300  0.32689937  1
  Cd  Cd8  1  0.33333300  0.66666700  0.86542903  1
  Cd  Cd9  1  0.00000000  0.00000000  0.71155080  1
  Cd  Cd10  1  0.00000000  0.00000000  0.09615525  1
  Cd  Cd11  1  0.66666700  0.33333300  0.01914987  1
  Cd  Cd12  1  0.00000000  0.00000000  0.24995424  1
  I  I13  1  0.66666700  0.33333300  0.69464353  1
  I  I14  1  0.33333300  0.66666700  0.80541749  1
  I  I15  1  0.66666700  0.33333300  0.23303304  1
  I  I16  1  0.33333300  0.66666700  0.65154293  1
  I  I17  1  0.00000000  0.00000000  0.15622301  1
  I  I18  1  0.00000000  0.00000000  0.46383934  1
  I  I19  1  0.33333300  0.66666700  0.34384464  1
  I  I20  1  0.33333300  0.66666700  0.03606544  1
  I  I21  1  0.33333300  0.66666700  0.95930161  1
  I  I22  1  0.66666700  0.33333300  0.92543009  1
  I  I23  1  0.66666700  0.33333300  0.38688777  1
  I  I24  1  0.33333300  0.66666700  0.42071262  1
  I  I25  1  0.66666700  0.33333300  0.84848316  1
  I  I26  1  0.33333300  0.66666700  0.26688419  1
  I  I27  1  0.33333300  0.66666700  0.57458529  1
  I  I28  1  0.66666700  0.33333300  0.54069115  1
  I  I29  1  0.33333300  0.66666700  0.11307549  1
  I  I30  1  0.33333300  0.66666700  0.19009383  1
  I  I31  1  0.33333300  0.66666700  0.72844667  1
  I  I32  1  0.00000000  0.00000000  0.88236713  1
  I  I33  1  0.00000000  0.00000000  0.30997381  1
  I  I34  1  0.66666700  0.33333300  0.61769799  1
  I  I35  1  0.00000000  0.00000000  0.00223677  1
  I  I36  1  0.66666700  0.33333300  0.07923286  1
  I  I37  1  0.33333300  0.66666700  0.49764989  1
  I  I38  1  0.66666700  0.33333300  0.77159677  1
