# generated using pymatgen
data_Li2Co3SnO8
_symmetry_space_group_name_H-M   'P 1'
_cell_length_a   5.79759196
_cell_length_b   5.79759231
_cell_length_c   5.79759256
_cell_angle_alpha   60.47654704
_cell_angle_beta   60.47655202
_cell_angle_gamma   60.47654753
_symmetry_Int_Tables_number   1
_chemical_formula_structural   Li2Co3SnO8
_chemical_formula_sum   'Li2 Co3 Sn1 O8'
_cell_volume   139.27752577
_cell_formula_units_Z   1
loop_
 _symmetry_equiv_pos_site_id
 _symmetry_equiv_pos_as_xyz
  1  'x, y, z'
loop_
 _atom_site_type_symbol
 _atom_site_label
 _atom_site_symmetry_multiplicity
 _atom_site_fract_x
 _atom_site_fract_y
 _atom_site_fract_z
 _atom_site_occupancy
  Li  Li0  1  0.12038965  0.12038965  0.12038965  1
  Li  Li1  1  0.49525778  0.49525778  0.49525778  1
  Co  Co2  1  0.01449096  0.49731007  0.49731007  1
  Co  Co3  1  0.49731007  0.49731007  0.01449096  1
  Co  Co4  1  0.49731007  0.01449096  0.49731007  1
  Sn  Sn5  1  0.88745996  0.88745996  0.88745996  1
  O  O6  1  0.26526875  0.26526875  0.26526875  1
  O  O7  1  0.24705142  0.71038673  0.24705142  1
  O  O8  1  0.24705142  0.24705142  0.71038673  1
  O  O9  1  0.71038673  0.24705142  0.24705142  1
  O  O10  1  0.29929476  0.73855461  0.73855461  1
  O  O11  1  0.73855461  0.73855461  0.29929476  1
  O  O12  1  0.73855461  0.29929476  0.73855461  1
  O  O13  1  0.74162020  0.74162020  0.74162020  1
