# generated using pymatgen
data_CdI2
_symmetry_space_group_name_H-M   'P 1'
_cell_length_a   4.33680679
_cell_length_b   4.33680705
_cell_length_c   99.95118796
_cell_angle_alpha   90.00000000
_cell_angle_beta   90.00000000
_cell_angle_gamma   119.99999790
_symmetry_Int_Tables_number   1
_chemical_formula_structural   CdI2
_chemical_formula_sum   'Cd13 I26'
_cell_volume   1628.01640227
_cell_formula_units_Z   13
loop_
 _symmetry_equiv_pos_site_id
 _symmetry_equiv_pos_as_xyz
  1  'x, y, z'
loop_
 _atom_site_type_symbol
 _atom_site_label
 _atom_site_symmetry_multiplicity
 _atom_site_fract_x
 _atom_site_fract_y
 _atom_site_fract_z
 _atom_site_occupancy
  Cd  Cd0  1  0.00000000  0.00000000  0.86532459  1
  Cd  Cd1  1  0.00000000  0.00000000  0.71163862  1
  Cd  Cd2  1  0.33333300  0.66666700  0.32700377  1
  Cd  Cd3  1  0.00000000  0.00000000  0.09598885  1
  Cd  Cd4  1  0.33333300  0.66666700  0.94237617  1
  Cd  Cd5  1  0.33333300  0.66666700  0.48097999  1
  Cd  Cd6  1  0.33333300  0.66666700  0.78841206  1
  Cd  Cd7  1  0.33333300  0.66666700  0.63454777  1
  Cd  Cd8  1  0.33333300  0.66666700  0.17304042  1
  Cd  Cd9  1  0.33333300  0.66666700  0.01907901  1
  Cd  Cd10  1  0.00000000  0.00000000  0.24998542  1
  Cd  Cd11  1  0.00000000  0.00000000  0.55764370  1
  Cd  Cd12  1  0.00000000  0.00000000  0.40399001  1
  I  I13  1  0.66666700  0.33333300  0.65171022  1
  I  I14  1  0.33333300  0.66666700  0.23273217  1
  I  I15  1  0.00000000  0.00000000  0.15579786  1
  I  I16  1  0.33333300  0.66666700  0.69445730  1
  I  I17  1  0.66666700  0.33333300  0.95955055  1
  I  I18  1  0.66666700  0.33333300  0.72880700  1
  I  I19  1  0.66666700  0.33333300  0.19027665  1
  I  I20  1  0.66666700  0.33333300  0.80558616  1
  I  I21  1  0.00000000  0.00000000  0.46373550  1
  I  I22  1  0.66666700  0.33333300  0.49820401  1
  I  I23  1  0.66666700  0.33333300  0.34425595  1
  I  I24  1  0.66666700  0.33333300  0.57481714  1
  I  I25  1  0.66666700  0.33333300  0.03633450  1
  I  I26  1  0.66666700  0.33333300  0.26724295  1
  I  I27  1  0.00000000  0.00000000  0.30976279  1
  I  I28  1  0.00000000  0.00000000  0.00180780  1
  I  I29  1  0.00000000  0.00000000  0.61738613  1
  I  I30  1  0.66666700  0.33333300  0.11325918  1
  I  I31  1  0.33333300  0.66666700  0.38672777  1
  I  I32  1  0.33333300  0.66666700  0.84814436  1
  I  I33  1  0.00000000  0.00000000  0.77121970  1
  I  I34  1  0.66666700  0.33333300  0.88251093  1
  I  I35  1  0.33333300  0.66666700  0.54046977  1
  I  I36  1  0.66666700  0.33333300  0.42126268  1
  I  I37  1  0.33333300  0.66666700  0.07871119  1
  I  I38  1  0.00000000  0.00000000  0.92521939  1
