# generated using pymatgen
data_NdSe2
_symmetry_space_group_name_H-M   'P 1'
_cell_length_a   4.20039910
_cell_length_b   8.44363322
_cell_length_c   8.55241606
_cell_angle_alpha   89.79788138
_cell_angle_beta   90.00000000
_cell_angle_gamma   90.00000000
_symmetry_Int_Tables_number   1
_chemical_formula_structural   NdSe2
_chemical_formula_sum   'Nd4 Se8'
_cell_volume   303.32348362
_cell_formula_units_Z   4
loop_
 _symmetry_equiv_pos_site_id
 _symmetry_equiv_pos_as_xyz
  1  'x, y, z'
loop_
 _atom_site_type_symbol
 _atom_site_label
 _atom_site_symmetry_multiplicity
 _atom_site_fract_x
 _atom_site_fract_y
 _atom_site_fract_z
 _atom_site_occupancy
  Nd  Nd0  1  0.27730441  0.37328002  0.27457846  1
  Nd  Nd1  1  0.72269559  0.62671998  0.72542154  1
  Nd  Nd2  1  0.22269559  0.87328002  0.27457846  1
  Nd  Nd3  1  0.77730441  0.12671998  0.72542154  1
  Se  Se4  1  0.18530418  0.61888510  0.99792412  1
  Se  Se5  1  0.75694853  0.12528075  0.36779101  1
  Se  Se6  1  0.24305147  0.87471925  0.63220899  1
  Se  Se7  1  0.25694853  0.37471925  0.63220899  1
  Se  Se8  1  0.68530418  0.88111490  0.00207588  1
  Se  Se9  1  0.74305147  0.62528075  0.36779101  1
  Se  Se10  1  0.81469582  0.38111490  0.00207588  1
  Se  Se11  1  0.31469582  0.11888510  0.99792412  1
