# generated using pymatgen
data_CdI2
_symmetry_space_group_name_H-M   'P 1'
_cell_length_a   4.33578916
_cell_length_b   4.33578942
_cell_length_c   100.78163979
_cell_angle_alpha   90.00000000
_cell_angle_beta   90.00000000
_cell_angle_gamma   119.99999800
_symmetry_Int_Tables_number   1
_chemical_formula_structural   CdI2
_chemical_formula_sum   'Cd13 I26'
_cell_volume   1640.77260959
_cell_formula_units_Z   13
loop_
 _symmetry_equiv_pos_site_id
 _symmetry_equiv_pos_as_xyz
  1  'x, y, z'
loop_
 _atom_site_type_symbol
 _atom_site_label
 _atom_site_symmetry_multiplicity
 _atom_site_fract_x
 _atom_site_fract_y
 _atom_site_fract_z
 _atom_site_occupancy
  Cd  Cd0  1  0.66666700  0.33333300  0.71160507  1
  Cd  Cd1  1  0.66666700  0.33333300  0.48079700  1
  Cd  Cd2  1  0.33333300  0.66666700  0.63455929  1
  Cd  Cd3  1  0.33333300  0.66666700  0.09617618  1
  Cd  Cd4  1  0.66666700  0.33333300  0.55767412  1
  Cd  Cd5  1  0.66666700  0.33333300  0.01912534  1
  Cd  Cd6  1  0.66666700  0.33333300  0.40376464  1
  Cd  Cd7  1  0.66666700  0.33333300  0.32695742  1
  Cd  Cd8  1  0.66666700  0.33333300  0.17324204  1
  Cd  Cd9  1  0.33333300  0.66666700  0.78846723  1
  Cd  Cd10  1  0.33333300  0.66666700  0.86535555  1
  Cd  Cd11  1  0.33333300  0.66666700  0.24992355  1
  Cd  Cd12  1  0.33333300  0.66666700  0.94235434  1
  I  I13  1  0.66666700  0.33333300  0.88241647  1
  I  I14  1  0.00000000  0.00000000  0.61748549  1
  I  I15  1  0.00000000  0.00000000  0.54058999  1
  I  I16  1  0.33333300  0.66666700  0.19030250  1
  I  I17  1  0.00000000  0.00000000  0.23284910  1
  I  I18  1  0.66666700  0.33333300  0.95942605  1
  I  I19  1  0.33333300  0.66666700  0.34403693  1
  I  I20  1  0.00000000  0.00000000  0.84829205  1
  I  I21  1  0.66666700  0.33333300  0.65162697  1
  I  I22  1  0.00000000  0.00000000  0.15618293  1
  I  I23  1  0.00000000  0.00000000  0.77138223  1
  I  I24  1  0.00000000  0.00000000  0.69455948  1
  I  I25  1  0.33333300  0.66666700  0.42084602  1
  I  I26  1  0.00000000  0.00000000  0.00203368  1
  I  I27  1  0.66666700  0.33333300  0.26699956  1
  I  I28  1  0.00000000  0.00000000  0.92527454  1
  I  I29  1  0.33333300  0.66666700  0.57476283  1
  I  I30  1  0.33333300  0.66666700  0.03621079  1
  I  I31  1  0.33333300  0.66666700  0.72865955  1
  I  I32  1  0.00000000  0.00000000  0.07912924  1
  I  I33  1  0.66666700  0.33333300  0.11323733  1
  I  I34  1  0.00000000  0.00000000  0.30987905  1
  I  I35  1  0.00000000  0.00000000  0.46372799  1
  I  I36  1  0.66666700  0.33333300  0.80555240  1
  I  I37  1  0.00000000  0.00000000  0.38667301  1
  I  I38  1  0.33333300  0.66666700  0.49786207  1
