# generated using pymatgen
data_Ca3(Cu2Sn)4
_symmetry_space_group_name_H-M   'P 1'
_cell_length_a   9.14353325
_cell_length_b   9.14353341
_cell_length_c   7.75314245
_cell_angle_alpha   90.00000000
_cell_angle_beta   90.00000000
_cell_angle_gamma   119.99999939
_symmetry_Int_Tables_number   1
_chemical_formula_structural   Ca3(Cu2Sn)4
_chemical_formula_sum   'Ca6 Cu16 Sn8'
_cell_volume   561.35358728
_cell_formula_units_Z   2
loop_
 _symmetry_equiv_pos_site_id
 _symmetry_equiv_pos_as_xyz
  1  'x, y, z'
loop_
 _atom_site_type_symbol
 _atom_site_label
 _atom_site_symmetry_multiplicity
 _atom_site_fract_x
 _atom_site_fract_y
 _atom_site_fract_z
 _atom_site_occupancy
  Ca  Ca0  1  0.47572104  0.52427896  0.49886025  1
  Ca  Ca1  1  0.95144209  0.47572104  0.99886025  1
  Ca  Ca2  1  0.52427896  0.04855791  0.99886025  1
  Ca  Ca3  1  0.04855791  0.52427896  0.49886025  1
  Ca  Ca4  1  0.47572104  0.95144209  0.49886025  1
  Ca  Ca5  1  0.52427896  0.47572104  0.99886025  1
  Cu  Cu6  1  0.79423841  0.89711921  0.47043585  1
  Cu  Cu7  1  0.00000000  0.00000000  0.71857603  1
  Cu  Cu8  1  0.67288820  0.83644410  0.16041091  1
  Cu  Cu9  1  0.89711921  0.79423841  0.97043585  1
  Cu  Cu10  1  0.83644410  0.16355590  0.66041091  1
  Cu  Cu11  1  0.16355590  0.83644410  0.16041091  1
  Cu  Cu12  1  0.20576159  0.10288079  0.97043585  1
  Cu  Cu13  1  0.16355590  0.32711180  0.16041091  1
  Cu  Cu14  1  0.00000000  0.00000000  0.21857603  1
  Cu  Cu15  1  0.33333300  0.66666700  0.83868229  1
  Cu  Cu16  1  0.83644410  0.67288820  0.66041091  1
  Cu  Cu17  1  0.89711921  0.10288079  0.97043585  1
  Cu  Cu18  1  0.10288079  0.20576159  0.47043585  1
  Cu  Cu19  1  0.10288079  0.89711921  0.47043585  1
  Cu  Cu20  1  0.32711180  0.16355590  0.66041091  1
  Cu  Cu21  1  0.66666700  0.33333300  0.33868229  1
  Sn  Sn22  1  0.33333300  0.66666700  0.19626208  1
  Sn  Sn23  1  0.16899806  0.33799613  0.78841952  1
  Sn  Sn24  1  0.66200387  0.83100194  0.78841952  1
  Sn  Sn25  1  0.33799613  0.16899806  0.28841952  1
  Sn  Sn26  1  0.83100194  0.66200387  0.28841952  1
  Sn  Sn27  1  0.66666700  0.33333300  0.69626208  1
  Sn  Sn28  1  0.16899806  0.83100194  0.78841952  1
  Sn  Sn29  1  0.83100194  0.16899806  0.28841952  1
