# generated using pymatgen
data_CdI2
_symmetry_space_group_name_H-M   'P 1'
_cell_length_a   4.33676794
_cell_length_b   4.33676820
_cell_length_c   100.60840444
_cell_angle_alpha   90.00000000
_cell_angle_beta   90.00000000
_cell_angle_gamma   119.99999799
_symmetry_Int_Tables_number   1
_chemical_formula_structural   CdI2
_chemical_formula_sum   'Cd13 I26'
_cell_volume   1638.69185759
_cell_formula_units_Z   13
loop_
 _symmetry_equiv_pos_site_id
 _symmetry_equiv_pos_as_xyz
  1  'x, y, z'
loop_
 _atom_site_type_symbol
 _atom_site_label
 _atom_site_symmetry_multiplicity
 _atom_site_fract_x
 _atom_site_fract_y
 _atom_site_fract_z
 _atom_site_occupancy
  Cd  Cd0  1  0.66666700  0.33333300  0.71152980  1
  Cd  Cd1  1  0.00000000  0.00000000  0.86538876  1
  Cd  Cd2  1  0.66666700  0.33333300  0.17313745  1
  Cd  Cd3  1  0.66666700  0.33333300  0.40379895  1
  Cd  Cd4  1  0.66666700  0.33333300  0.32694497  1
  Cd  Cd5  1  0.00000000  0.00000000  0.94229530  1
  Cd  Cd6  1  0.66666700  0.33333300  0.78846550  1
  Cd  Cd7  1  0.00000000  0.00000000  0.48085218  1
  Cd  Cd8  1  0.00000000  0.00000000  0.09617445  1
  Cd  Cd9  1  0.00000000  0.00000000  0.63457670  1
  Cd  Cd10  1  0.00000000  0.00000000  0.25000320  1
  Cd  Cd11  1  0.66666700  0.33333300  0.55772191  1
  Cd  Cd12  1  0.66666700  0.33333300  0.01912188  1
  I  I13  1  0.33333300  0.66666700  0.80557079  1
  I  I14  1  0.66666700  0.33333300  0.92519772  1
  I  I15  1  0.00000000  0.00000000  0.54062261  1
  I  I16  1  0.00000000  0.00000000  0.30984556  1
  I  I17  1  0.33333300  0.66666700  0.65166238  1
  I  I18  1  0.00000000  0.00000000  0.15604159  1
  I  I19  1  0.33333300  0.66666700  0.34404283  1
  I  I20  1  0.33333300  0.66666700  0.88247712  1
  I  I21  1  0.33333300  0.66666700  0.03622903  1
  I  I22  1  0.33333300  0.66666700  0.95938884  1
  I  I23  1  0.66666700  0.33333300  0.23291834  1
  I  I24  1  0.66666700  0.33333300  0.07908069  1
  I  I25  1  0.00000000  0.00000000  0.77135796  1
  I  I26  1  0.00000000  0.00000000  0.69444616  1
  I  I27  1  0.33333300  0.66666700  0.42090731  1
  I  I28  1  0.66666700  0.33333300  0.84829476  1
  I  I29  1  0.33333300  0.66666700  0.26708786  1
  I  I30  1  0.00000000  0.00000000  0.00200615  1
  I  I31  1  0.33333300  0.66666700  0.11325602  1
  I  I32  1  0.33333300  0.66666700  0.19023907  1
  I  I33  1  0.33333300  0.66666700  0.72861126  1
  I  I34  1  0.66666700  0.33333300  0.46375718  1
  I  I35  1  0.66666700  0.33333300  0.61749167  1
  I  I36  1  0.33333300  0.66666700  0.57482689  1
  I  I37  1  0.00000000  0.00000000  0.38668664  1
  I  I38  1  0.33333300  0.66666700  0.49794253  1
