# generated using pymatgen
data_SiC
_symmetry_space_group_name_H-M   'P 1'
_cell_length_a   3.09439971
_cell_length_b   3.09439965
_cell_length_c   48.09961694
_cell_angle_alpha   90.00000000
_cell_angle_beta   90.00000000
_cell_angle_gamma   120.00000055
_symmetry_Int_Tables_number   1
_chemical_formula_structural   SiC
_chemical_formula_sum   'Si19 C19'
_cell_volume   398.86420342
_cell_formula_units_Z   19
loop_
 _symmetry_equiv_pos_site_id
 _symmetry_equiv_pos_as_xyz
  1  'x, y, z'
loop_
 _atom_site_type_symbol
 _atom_site_label
 _atom_site_symmetry_multiplicity
 _atom_site_fract_x
 _atom_site_fract_y
 _atom_site_fract_z
 _atom_site_occupancy
  Si  Si0  1  0.66666700  0.33333300  0.73684459  1
  Si  Si1  1  0.66666700  0.33333300  0.94735125  1
  Si  Si2  1  0.66666700  0.33333300  0.15789125  1
  Si  Si3  1  0.33333300  0.66666700  0.68418725  1
  Si  Si4  1  0.00000000  0.00000000  0.78942833  1
  Si  Si5  1  0.33333300  0.66666700  0.36838700  1
  Si  Si6  1  0.00000000  0.00000000  0.42103367  1
  Si  Si7  1  0.66666700  0.33333300  0.63154528  1
  Si  Si8  1  0.00000000  0.00000000  0.21053595  1
  Si  Si9  1  0.66666700  0.33333300  0.52626539  1
  Si  Si10  1  0.33333300  0.66666700  0.47368417  1
  Si  Si11  1  0.00000000  0.00000000  0.89470896  1
  Si  Si12  1  0.00000000  0.00000000  0.99997796  1
  Si  Si13  1  0.33333300  0.66666700  0.84209011  1
  Si  Si14  1  0.33333300  0.66666700  0.26310716  1
  Si  Si15  1  0.66666700  0.33333300  0.31576973  1
  Si  Si16  1  0.00000000  0.00000000  0.10524530  1
  Si  Si17  1  0.00000000  0.00000000  0.57892851  1
  Si  Si18  1  0.33333300  0.66666700  0.05262172  1
  C  C19  1  0.00000000  0.00000000  0.61850927  1
  C  C20  1  0.00000000  0.00000000  0.82890894  1
  C  C21  1  0.33333300  0.66666700  0.72378001  1
  C  C22  1  0.66666700  0.33333300  0.77633536  1
  C  C23  1  0.33333300  0.66666700  0.40784538  1
  C  C24  1  0.66666700  0.33333300  0.35535294  1
  C  C25  1  0.66666700  0.33333300  0.67100020  1
  C  C26  1  0.00000000  0.00000000  0.14471186  1
  C  C27  1  0.66666700  0.33333300  0.98694087  1
  C  C28  1  0.00000000  0.00000000  0.46062518  1
  C  C29  1  0.00000000  0.00000000  0.93416836  1
  C  C30  1  0.66666700  0.33333300  0.19748130  1
  C  C31  1  0.33333300  0.66666700  0.51316722  1
  C  C32  1  0.66666700  0.33333300  0.56574354  1
  C  C33  1  0.33333300  0.66666700  0.30258680  1
  C  C34  1  0.00000000  0.00000000  0.25001416  1
  C  C35  1  0.00000000  0.00000000  0.03943421  1
  C  C36  1  0.33333300  0.66666700  0.88167681  1
  C  C37  1  0.33333300  0.66666700  0.09221403  1
