# generated using pymatgen
data_CdI2
_symmetry_space_group_name_H-M   'P 1'
_cell_length_a   4.33453518
_cell_length_b   4.33453544
_cell_length_c   45.80621126
_cell_angle_alpha   90.00000000
_cell_angle_beta   90.00000000
_cell_angle_gamma   119.99999801
_symmetry_Int_Tables_number   1
_chemical_formula_structural   CdI2
_chemical_formula_sum   'Cd6 I12'
_cell_volume   745.31541299
_cell_formula_units_Z   6
loop_
 _symmetry_equiv_pos_site_id
 _symmetry_equiv_pos_as_xyz
  1  'x, y, z'
loop_
 _atom_site_type_symbol
 _atom_site_label
 _atom_site_symmetry_multiplicity
 _atom_site_fract_x
 _atom_site_fract_y
 _atom_site_fract_z
 _atom_site_occupancy
  Cd  Cd0  1  0.33333300  0.66666700  0.87496343  1
  Cd  Cd1  1  0.33333300  0.66666700  0.70837263  1
  Cd  Cd2  1  0.66666700  0.33333300  0.04168163  1
  Cd  Cd3  1  0.33333300  0.66666700  0.37495861  1
  Cd  Cd4  1  0.33333300  0.66666700  0.54167989  1
  Cd  Cd5  1  0.66666700  0.33333300  0.20832731  1
  I  I6  1  0.33333300  0.66666700  0.07931381  1
  I  I7  1  0.00000000  0.00000000  0.17064890  1
  I  I8  1  0.00000000  0.00000000  0.67068542  1
  I  I9  1  0.00000000  0.00000000  0.33727363  1
  I  I10  1  0.66666700  0.33333300  0.91260515  1
  I  I11  1  0.66666700  0.33333300  0.41261307  1
  I  I12  1  0.00000000  0.00000000  0.00399925  1
  I  I13  1  0.66666700  0.33333300  0.57930537  1
  I  I14  1  0.66666700  0.33333300  0.74600596  1
  I  I15  1  0.00000000  0.00000000  0.83729007  1
  I  I16  1  0.33333300  0.66666700  0.24595151  1
  I  I17  1  0.00000000  0.00000000  0.50402436  1
