# generated using pymatgen
data_Li2Ti4VO8
_symmetry_space_group_name_H-M   'P 1'
_cell_length_a   5.86867523
_cell_length_b   5.94045639
_cell_length_c   5.93547465
_cell_angle_alpha   89.23287972
_cell_angle_beta   60.37158890
_cell_angle_gamma   119.60107967
_symmetry_Int_Tables_number   1
_chemical_formula_structural   Li2Ti4VO8
_chemical_formula_sum   'Li2 Ti4 V1 O8'
_cell_volume   147.03153887
_cell_formula_units_Z   1
loop_
 _symmetry_equiv_pos_site_id
 _symmetry_equiv_pos_as_xyz
  1  'x, y, z'
loop_
 _atom_site_type_symbol
 _atom_site_label
 _atom_site_symmetry_multiplicity
 _atom_site_fract_x
 _atom_site_fract_y
 _atom_site_fract_z
 _atom_site_occupancy
  Li  Li0  1  0.00000000  0.00000000  0.50000000  1
  Li  Li1  1  0.50000000  0.00000000  0.50000000  1
  Ti  Ti2  1  0.00000000  0.00000000  0.00000000  1
  Ti  Ti3  1  0.00000000  0.50000000  0.00000000  1
  Ti  Ti4  1  0.50000000  0.50000000  0.00000000  1
  Ti  Ti5  1  0.00000000  0.50000000  0.50000000  1
  V  V6  1  0.50000000  0.00000000  0.00000000  1
  O  O7  1  0.99873462  0.25099497  0.75170400  1
  O  O8  1  0.52160346  0.26588720  0.22268128  1
  O  O9  1  0.99439672  0.24401054  0.25521710  1
  O  O10  1  0.50055635  0.25099497  0.75170400  1
  O  O11  1  0.49944365  0.74900503  0.24829600  1
  O  O12  1  0.00560328  0.75598946  0.74478290  1
  O  O13  1  0.47839654  0.73411280  0.77731872  1
  O  O14  1  0.00126538  0.74900503  0.24829600  1
