# generated using pymatgen
data_CdI2
_symmetry_space_group_name_H-M   'P 1'
_cell_length_a   4.33571632
_cell_length_b   4.33571658
_cell_length_c   53.75888191
_cell_angle_alpha   90.00000000
_cell_angle_beta   90.00000000
_cell_angle_gamma   119.99999800
_symmetry_Int_Tables_number   1
_chemical_formula_structural   CdI2
_chemical_formula_sum   'Cd7 I14'
_cell_volume   875.19053595
_cell_formula_units_Z   7
loop_
 _symmetry_equiv_pos_site_id
 _symmetry_equiv_pos_as_xyz
  1  'x, y, z'
loop_
 _atom_site_type_symbol
 _atom_site_label
 _atom_site_symmetry_multiplicity
 _atom_site_fract_x
 _atom_site_fract_y
 _atom_site_fract_z
 _atom_site_occupancy
  Cd  Cd0  1  0.00000000  0.00000000  0.89279446  1
  Cd  Cd1  1  0.66666700  0.33333300  0.46431676  1
  Cd  Cd2  1  0.00000000  0.00000000  0.60714317  1
  Cd  Cd3  1  0.66666700  0.33333300  0.32140091  1
  Cd  Cd4  1  0.33333300  0.66666700  0.75005230  1
  Cd  Cd5  1  0.00000000  0.00000000  0.17855899  1
  Cd  Cd6  1  0.66666700  0.33333300  0.03572100  1
  I  I7  1  0.66666700  0.33333300  0.57512381  1
  I  I8  1  0.66666700  0.33333300  0.14653621  1
  I  I9  1  0.33333300  0.66666700  0.06775602  1
  I  I10  1  0.00000000  0.00000000  0.78207716  1
  I  I11  1  0.33333300  0.66666700  0.21058644  1
  I  I12  1  0.33333300  0.66666700  0.35342837  1
  I  I13  1  0.00000000  0.00000000  0.43234858  1
  I  I14  1  0.33333300  0.66666700  0.63915998  1
  I  I15  1  0.00000000  0.00000000  0.00366770  1
  I  I16  1  0.33333300  0.66666700  0.92480292  1
  I  I17  1  0.66666700  0.33333300  0.86080673  1
  I  I18  1  0.33333300  0.66666700  0.49630440  1
  I  I19  1  0.66666700  0.33333300  0.71802294  1
  I  I20  1  0.00000000  0.00000000  0.28939114  1
