# generated using pymatgen
data_ZrI2
_symmetry_space_group_name_H-M   'P 1'
_cell_length_a   3.77533354
_cell_length_b   6.92664874
_cell_length_c   16.32497485
_cell_angle_alpha   95.16104289
_cell_angle_beta   90.00000000
_cell_angle_gamma   90.00000000
_symmetry_Int_Tables_number   1
_chemical_formula_structural   ZrI2
_chemical_formula_sum   'Zr4 I8'
_cell_volume   425.17401336
_cell_formula_units_Z   4
loop_
 _symmetry_equiv_pos_site_id
 _symmetry_equiv_pos_as_xyz
  1  'x, y, z'
loop_
 _atom_site_type_symbol
 _atom_site_label
 _atom_site_symmetry_multiplicity
 _atom_site_fract_x
 _atom_site_fract_y
 _atom_site_fract_z
 _atom_site_occupancy
  Zr  Zr0  1  0.25000000  0.68655639  0.99682681  1
  Zr  Zr1  1  0.25000000  0.18783078  0.50325259  1
  Zr  Zr2  1  0.75000000  0.31344361  0.00317319  1
  Zr  Zr3  1  0.75000000  0.81216922  0.49674741  1
  I  I4  1  0.25000000  0.60182906  0.60071391  1
  I  I5  1  0.75000000  0.39817094  0.39928609  1
  I  I6  1  0.75000000  0.55245104  0.86439105  1
  I  I7  1  0.75000000  0.94132205  0.10061384  1
  I  I8  1  0.25000000  0.44754896  0.13560895  1
  I  I9  1  0.75000000  0.10964534  0.63567022  1
  I  I10  1  0.25000000  0.05867795  0.89938616  1
  I  I11  1  0.25000000  0.89035466  0.36432978  1
