# generated using pymatgen
data_SiC
_symmetry_space_group_name_H-M   'P 1'
_cell_length_a   3.09480920
_cell_length_b   3.09480903
_cell_length_c   91.10035726
_cell_angle_alpha   90.00000000
_cell_angle_beta   90.00000000
_cell_angle_gamma   120.00000182
_symmetry_Int_Tables_number   1
_chemical_formula_structural   SiC
_chemical_formula_sum   'Si36 C36'
_cell_volume   755.64608797
_cell_formula_units_Z   36
loop_
 _symmetry_equiv_pos_site_id
 _symmetry_equiv_pos_as_xyz
  1  'x, y, z'
loop_
 _atom_site_type_symbol
 _atom_site_label
 _atom_site_symmetry_multiplicity
 _atom_site_fract_x
 _atom_site_fract_y
 _atom_site_fract_z
 _atom_site_occupancy
  Si  Si0  1  0.00000000  0.00000000  0.16665819  1
  Si  Si1  1  0.66666700  0.33333300  0.61109965  1
  Si  Si2  1  0.33333300  0.66666700  0.91663813  1
  Si  Si3  1  0.00000000  0.00000000  0.41665493  1
  Si  Si4  1  0.33333300  0.66666700  0.36111557  1
  Si  Si5  1  0.66666700  0.33333300  0.27778537  1
  Si  Si6  1  0.33333300  0.66666700  0.80556495  1
  Si  Si7  1  0.33333300  0.66666700  0.30553683  1
  Si  Si8  1  0.66666700  0.33333300  0.77777304  1
  Si  Si9  1  0.33333300  0.66666700  0.13886379  1
  Si  Si10  1  0.00000000  0.00000000  0.66664135  1
  Si  Si11  1  0.33333300  0.66666700  0.02778452  1
  Si  Si12  1  0.66666700  0.33333300  0.52777246  1
  Si  Si13  1  0.33333300  0.66666700  0.63889160  1
  Si  Si14  1  0.00000000  0.00000000  0.83331120  1
  Si  Si15  1  0.33333300  0.66666700  0.19444509  1
  Si  Si16  1  0.33333300  0.66666700  0.47220967  1
  Si  Si17  1  0.66666700  0.33333300  0.11111260  1
  Si  Si18  1  0.66666700  0.33333300  0.05553219  1
  Si  Si19  1  0.00000000  0.00000000  0.49997494  1
  Si  Si20  1  0.66666700  0.33333300  0.22219601  1
  Si  Si21  1  0.00000000  0.00000000  0.55556153  1
  Si  Si22  1  0.00000000  0.00000000  0.72222464  1
  Si  Si23  1  0.00000000  0.00000000  0.08332483  1
  Si  Si24  1  0.66666700  0.33333300  0.94443297  1
  Si  Si25  1  0.66666700  0.33333300  0.38886207  1
  Si  Si26  1  0.66666700  0.33333300  0.69443280  1
  Si  Si27  1  0.66666700  0.33333300  0.86110387  1
  Si  Si28  1  0.00000000  0.00000000  0.33332737  1
  Si  Si29  1  0.33333300  0.66666700  0.58330782  1
  Si  Si30  1  0.00000000  0.00000000  0.99999023  1
  Si  Si31  1  0.00000000  0.00000000  0.88889056  1
  Si  Si32  1  0.66666700  0.33333300  0.44444388  1
  Si  Si33  1  0.33333300  0.66666700  0.74997733  1
  Si  Si34  1  0.00000000  0.00000000  0.24999332  1
  Si  Si35  1  0.33333300  0.66666700  0.97220653  1
  C  C36  1  0.00000000  0.00000000  0.74305957  1
  C  C37  1  0.00000000  0.00000000  0.27088344  1
  C  C38  1  0.33333300  0.66666700  0.38194997  1
  C  C39  1  0.00000000  0.00000000  0.57639074  1
  C  C40  1  0.66666700  0.33333300  0.46528190  1
  C  C41  1  0.66666700  0.33333300  0.13194902  1
  C  C42  1  0.66666700  0.33333300  0.40969780  1
  C  C43  1  0.33333300  0.66666700  0.82639538  1
  C  C44  1  0.00000000  0.00000000  0.43754970  1
  C  C45  1  0.66666700  0.33333300  0.29861235  1
  C  C46  1  0.00000000  0.00000000  0.10421831  1
  C  C47  1  0.66666700  0.33333300  0.71532844  1
  C  C48  1  0.00000000  0.00000000  0.90972789  1
  C  C49  1  0.66666700  0.33333300  0.79866196  1
  C  C50  1  0.00000000  0.00000000  0.52080902  1
  C  C51  1  0.66666700  0.33333300  0.88199638  1
  C  C52  1  0.66666700  0.33333300  0.07636970  1
  C  C53  1  0.33333300  0.66666700  0.99302346  1
  C  C54  1  0.66666700  0.33333300  0.24303008  1
  C  C55  1  0.00000000  0.00000000  0.18754554  1
  C  C56  1  0.66666700  0.33333300  0.63198687  1
  C  C57  1  0.33333300  0.66666700  0.04861919  1
  C  C58  1  0.00000000  0.00000000  0.85414225  1
  C  C59  1  0.33333300  0.66666700  0.60414412  1
  C  C60  1  0.00000000  0.00000000  0.35421433  1
  C  C61  1  0.33333300  0.66666700  0.15969338  1
  C  C62  1  0.33333300  0.66666700  0.49306436  1
  C  C63  1  0.33333300  0.66666700  0.65972086  1
  C  C64  1  0.33333300  0.66666700  0.93747431  1
  C  C65  1  0.33333300  0.66666700  0.77080865  1
  C  C66  1  0.33333300  0.66666700  0.32636560  1
  C  C67  1  0.66666700  0.33333300  0.54866814  1
  C  C68  1  0.33333300  0.66666700  0.21527934  1
  C  C69  1  0.00000000  0.00000000  0.02088893  1
  C  C70  1  0.66666700  0.33333300  0.96532920  1
  C  C71  1  0.00000000  0.00000000  0.68746798  1
