# generated using pymatgen
data_PrBC
_symmetry_space_group_name_H-M   'P 1'
_cell_length_a   8.54195122
_cell_length_b   8.57789426
_cell_length_c   12.35109079
_cell_angle_alpha   90.00000000
_cell_angle_beta   90.00000000
_cell_angle_gamma   90.00000000
_symmetry_Int_Tables_number   1
_chemical_formula_structural   PrBC
_chemical_formula_sum   'Pr20 B20 C20'
_cell_volume   904.98856040
_cell_formula_units_Z   20
loop_
 _symmetry_equiv_pos_site_id
 _symmetry_equiv_pos_as_xyz
  1  'x, y, z'
loop_
 _atom_site_type_symbol
 _atom_site_label
 _atom_site_symmetry_multiplicity
 _atom_site_fract_x
 _atom_site_fract_y
 _atom_site_fract_z
 _atom_site_occupancy
  Pr  Pr0  1  0.34015105  0.00855957  0.42045224  1
  Pr  Pr1  1  0.06110142  0.69776351  0.13342124  1
  Pr  Pr2  1  0.25492244  0.71134463  0.67322321  1
  Pr  Pr3  1  0.65804591  0.90822430  0.59709388  1
  Pr  Pr4  1  0.95020044  0.59789067  0.85944608  1
  Pr  Pr5  1  0.65984895  0.50855957  0.07954776  1
  Pr  Pr6  1  0.45020044  0.90210933  0.14055392  1
  Pr  Pr7  1  0.04979956  0.09789067  0.64055392  1
  Pr  Pr8  1  0.43889858  0.30223649  0.63342124  1
  Pr  Pr9  1  0.93889858  0.19776351  0.36657876  1
  Pr  Pr10  1  0.75492244  0.78865537  0.32677679  1
  Pr  Pr11  1  0.15804591  0.59177570  0.40290612  1
  Pr  Pr12  1  0.74507756  0.21134463  0.82677679  1
  Pr  Pr13  1  0.15984895  0.99144043  0.92045224  1
  Pr  Pr14  1  0.24507756  0.28865537  0.17322321  1
  Pr  Pr15  1  0.34195409  0.40822430  0.90290612  1
  Pr  Pr16  1  0.84195409  0.09177570  0.09709388  1
  Pr  Pr17  1  0.84015105  0.49144043  0.57954776  1
  Pr  Pr18  1  0.56110142  0.80223649  0.86657876  1
  Pr  Pr19  1  0.54979956  0.40210933  0.35944608  1
  B  B20  1  0.47994348  0.11229396  0.95944518  1
  B  B21  1  0.11681914  0.39678167  0.71279103  1
  B  B22  1  0.61681914  0.10321833  0.28720897  1
  B  B23  1  0.31552405  0.69173045  0.99174294  1
  B  B24  1  0.02005652  0.88770604  0.45944518  1
  B  B25  1  0.56167236  0.20039273  0.17910397  1
  B  B26  1  0.09797331  0.97392391  0.24065134  1
  B  B27  1  0.38318086  0.60321833  0.21279103  1
  B  B28  1  0.68447595  0.19173045  0.50825706  1
  B  B29  1  0.81552405  0.80826955  0.00825706  1
  B  B30  1  0.97994348  0.38770604  0.04055482  1
  B  B31  1  0.40202669  0.02607609  0.74065134  1
  B  B32  1  0.43832764  0.70039273  0.32089603  1
  B  B33  1  0.90202669  0.47392391  0.25934866  1
  B  B34  1  0.93832764  0.79960727  0.67910397  1
  B  B35  1  0.88318086  0.89678167  0.78720897  1
  B  B36  1  0.59797331  0.52607609  0.75934866  1
  B  B37  1  0.18447595  0.30826955  0.49174294  1
  B  B38  1  0.06167236  0.29960727  0.82089603  1
  B  B39  1  0.52005652  0.61229396  0.54055482  1
  C  C40  1  0.64623798  0.10524306  0.40691664  1
  C  C41  1  0.85376202  0.89475694  0.90691664  1
  C  C42  1  0.94300487  0.38937512  0.15795649  1
  C  C43  1  0.44300487  0.11062488  0.84204351  1
  C  C44  1  0.25562981  0.70145930  0.88050542  1
  C  C45  1  0.75562981  0.79854070  0.11949458  1
  C  C46  1  0.47486758  0.69242398  0.43868561  1
  C  C47  1  0.55699513  0.61062488  0.65795649  1
  C  C48  1  0.97486758  0.80757602  0.56131439  1
  C  C49  1  0.52513242  0.19242398  0.06131439  1
  C  C50  1  0.24437019  0.29854070  0.38050542  1
  C  C51  1  0.14461076  0.99671711  0.12736916  1
  C  C52  1  0.02513242  0.30757602  0.93868561  1
  C  C53  1  0.35376202  0.60524306  0.09308336  1
  C  C54  1  0.64461076  0.50328289  0.87263084  1
  C  C55  1  0.85538924  0.49671711  0.37263084  1
  C  C56  1  0.14623798  0.39475694  0.59308336  1
  C  C57  1  0.74437019  0.20145930  0.61949458  1
  C  C58  1  0.35538924  0.00328289  0.62736916  1
  C  C59  1  0.05699513  0.88937512  0.34204351  1
