# generated using pymatgen
data_SiBr4
_symmetry_space_group_name_H-M   'P 1'
_cell_length_a   7.34015055
_cell_length_b   11.23145649
_cell_length_c   11.38112792
_cell_angle_alpha   102.71647068
_cell_angle_beta   90.00000000
_cell_angle_gamma   90.00000000
_symmetry_Int_Tables_number   1
_chemical_formula_structural   SiBr4
_chemical_formula_sum   'Si4 Br16'
_cell_volume   915.25234454
_cell_formula_units_Z   4
loop_
 _symmetry_equiv_pos_site_id
 _symmetry_equiv_pos_as_xyz
  1  'x, y, z'
loop_
 _atom_site_type_symbol
 _atom_site_label
 _atom_site_symmetry_multiplicity
 _atom_site_fract_x
 _atom_site_fract_y
 _atom_site_fract_z
 _atom_site_occupancy
  Si  Si0  1  0.07814524  0.75190018  0.85845313  1
  Si  Si1  1  0.42185476  0.75190018  0.35845313  1
  Si  Si2  1  0.92185476  0.24809982  0.14154687  1
  Si  Si3  1  0.57814524  0.24809982  0.64154687  1
  Br  Br4  1  0.44143467  0.09313739  0.69621605  1
  Br  Br5  1  0.43269141  0.29383492  0.48693499  1
  Br  Br6  1  0.07623738  0.59120812  0.70575277  1
  Br  Br7  1  0.63736093  0.19613846  0.08922142  1
  Br  Br8  1  0.06730859  0.29383492  0.98693499  1
  Br  Br9  1  0.57623738  0.40879188  0.79424723  1
  Br  Br10  1  0.36263907  0.80386154  0.91077858  1
  Br  Br11  1  0.55856533  0.90686261  0.30378395  1
  Br  Br12  1  0.94143467  0.90686261  0.80378395  1
  Br  Br13  1  0.92376262  0.40879188  0.29424723  1
  Br  Br14  1  0.56730859  0.70616508  0.51306501  1
  Br  Br15  1  0.13736093  0.80386154  0.41077858  1
  Br  Br16  1  0.93269141  0.70616508  0.01306501  1
  Br  Br17  1  0.86263907  0.19613846  0.58922142  1
  Br  Br18  1  0.05856533  0.09313739  0.19621605  1
  Br  Br19  1  0.42376262  0.59120812  0.20575277  1
