# generated using pymatgen
data_CdI2
_symmetry_space_group_name_H-M   'P 1'
_cell_length_a   4.33654466
_cell_length_b   4.33654493
_cell_length_c   98.92343487
_cell_angle_alpha   90.00000000
_cell_angle_beta   90.00000000
_cell_angle_gamma   119.99999795
_symmetry_Int_Tables_number   1
_chemical_formula_structural   CdI2
_chemical_formula_sum   'Cd13 I26'
_cell_volume   1611.08146757
_cell_formula_units_Z   13
loop_
 _symmetry_equiv_pos_site_id
 _symmetry_equiv_pos_as_xyz
  1  'x, y, z'
loop_
 _atom_site_type_symbol
 _atom_site_label
 _atom_site_symmetry_multiplicity
 _atom_site_fract_x
 _atom_site_fract_y
 _atom_site_fract_z
 _atom_site_occupancy
  Cd  Cd0  1  0.00000000  0.00000000  0.71163739  1
  Cd  Cd1  1  0.33333300  0.66666700  0.32698936  1
  Cd  Cd2  1  0.33333300  0.66666700  0.55763899  1
  Cd  Cd3  1  0.00000000  0.00000000  0.09600461  1
  Cd  Cd4  1  0.00000000  0.00000000  0.63466467  1
  Cd  Cd5  1  0.33333300  0.66666700  0.86537285  1
  Cd  Cd6  1  0.33333300  0.66666700  0.94231982  1
  Cd  Cd7  1  0.33333300  0.66666700  0.48099373  1
  Cd  Cd8  1  0.33333300  0.66666700  0.40402146  1
  Cd  Cd9  1  0.00000000  0.00000000  0.24999209  1
  Cd  Cd10  1  0.33333300  0.66666700  0.01902323  1
  Cd  Cd11  1  0.00000000  0.00000000  0.78835577  1
  Cd  Cd12  1  0.00000000  0.00000000  0.17299170  1
  I  I13  1  0.33333300  0.66666700  0.61723775  1
  I  I14  1  0.66666700  0.33333300  0.65207003  1
  I  I15  1  0.00000000  0.00000000  0.54022139  1
  I  I16  1  0.00000000  0.00000000  0.84797631  1
  I  I17  1  0.33333300  0.66666700  0.23259757  1
  I  I18  1  0.00000000  0.00000000  0.30958963  1
  I  I19  1  0.00000000  0.00000000  0.38662841  1
  I  I20  1  0.66666700  0.33333300  0.95972947  1
  I  I21  1  0.66666700  0.33333300  0.72903122  1
  I  I22  1  0.66666700  0.33333300  0.19037683  1
  I  I23  1  0.66666700  0.33333300  0.80576711  1
  I  I24  1  0.00000000  0.00000000  0.46360727  1
  I  I25  1  0.66666700  0.33333300  0.34438719  1
  I  I26  1  0.66666700  0.33333300  0.57504873  1
  I  I27  1  0.66666700  0.33333300  0.03641653  1
  I  I28  1  0.66666700  0.33333300  0.26738148  1
  I  I29  1  0.33333300  0.66666700  0.77096242  1
  I  I30  1  0.33333300  0.66666700  0.69422733  1
  I  I31  1  0.66666700  0.33333300  0.11338518  1
  I  I32  1  0.33333300  0.66666700  0.07862393  1
  I  I33  1  0.66666700  0.33333300  0.88279853  1
  I  I34  1  0.66666700  0.33333300  0.42141909  1
  I  I35  1  0.33333300  0.66666700  0.15559342  1
  I  I36  1  0.00000000  0.00000000  0.00162767  1
  I  I37  1  0.66666700  0.33333300  0.49837380  1
  I  I38  1  0.00000000  0.00000000  0.92491606  1
