# generated using pymatgen
data_Ba2Li3TaN4
_symmetry_space_group_name_H-M   'P 1'
_cell_length_a   5.71871728
_cell_length_b   6.36180223
_cell_length_c   10.16649738
_cell_angle_alpha   81.17255080
_cell_angle_beta   73.66451438
_cell_angle_gamma   63.28782845
_symmetry_Int_Tables_number   1
_chemical_formula_structural   Ba2Li3TaN4
_chemical_formula_sum   'Ba4 Li6 Ta2 N8'
_cell_volume   316.90139577
_cell_formula_units_Z   2
loop_
 _symmetry_equiv_pos_site_id
 _symmetry_equiv_pos_as_xyz
  1  'x, y, z'
loop_
 _atom_site_type_symbol
 _atom_site_label
 _atom_site_symmetry_multiplicity
 _atom_site_fract_x
 _atom_site_fract_y
 _atom_site_fract_z
 _atom_site_occupancy
  Ba  Ba0  1  0.87131772  0.30579188  0.88822710  1
  Ba  Ba1  1  0.12868228  0.69420812  0.11177290  1
  Ba  Ba2  1  0.56538723  0.19414936  0.61174945  1
  Ba  Ba3  1  0.43461277  0.80585064  0.38825055  1
  Li  Li4  1  0.88438367  0.75000185  0.74999720  1
  Li  Li5  1  0.11561633  0.24999815  0.25000280  1
  Li  Li6  1  0.38269129  0.19005218  0.95758846  1
  Li  Li7  1  0.03035030  0.30995167  0.54241355  1
  Li  Li8  1  0.96964970  0.69004833  0.45758645  1
  Li  Li9  1  0.61730871  0.80994782  0.04241154  1
  Ta  Ta10  1  0.36257326  0.75001394  0.74994445  1
  Ta  Ta11  1  0.63742674  0.24998606  0.25005555  1
  N  N12  1  0.29344797  0.38935774  0.38721556  1
  N  N13  1  0.08263960  0.99137213  0.66230178  1
  N  N14  1  0.91736040  0.00862787  0.33769822  1
  N  N15  1  0.23629313  0.50857549  0.83770089  1
  N  N16  1  0.43000178  0.88934998  0.88722242  1
  N  N17  1  0.76370687  0.49142451  0.16229911  1
  N  N18  1  0.70655203  0.61064226  0.61278444  1
  N  N19  1  0.56999822  0.11065002  0.11277758  1
