# generated using pymatgen
data_NaV3(FeO4)3
_symmetry_space_group_name_H-M   'P 1'
_cell_length_a   6.88757109
_cell_length_b   8.31830741
_cell_length_c   10.03358288
_cell_angle_alpha   106.18976559
_cell_angle_beta   104.52066735
_cell_angle_gamma   101.92854300
_symmetry_Int_Tables_number   1
_chemical_formula_structural   NaV3(FeO4)3
_chemical_formula_sum   'Na2 V6 Fe6 O24'
_cell_volume   510.22058852
_cell_formula_units_Z   2
loop_
 _symmetry_equiv_pos_site_id
 _symmetry_equiv_pos_as_xyz
  1  'x, y, z'
loop_
 _atom_site_type_symbol
 _atom_site_label
 _atom_site_symmetry_multiplicity
 _atom_site_fract_x
 _atom_site_fract_y
 _atom_site_fract_z
 _atom_site_occupancy
  Na  Na0  1  0.98109247  0.02926956  0.55758703  1
  Na  Na1  1  0.45329780  0.98699174  0.46111898  1
  V  V2  1  0.73458195  0.17061039  0.26289399  1
  V  V3  1  0.09712933  0.78316251  0.13006147  1
  V  V4  1  0.27258718  0.83333318  0.73876916  1
  V  V5  1  0.90679190  0.21374859  0.87637395  1
  V  V6  1  0.38742882  0.40976963  0.67006301  1
  V  V7  1  0.61384657  0.58897854  0.33070722  1
  Fe  Fe8  1  0.88195546  0.44414511  0.60551317  1
  Fe  Fe9  1  0.45819275  0.29159947  0.98169644  1
  Fe  Fe10  1  0.12184495  0.55455076  0.39704400  1
  Fe  Fe11  1  0.77610654  0.76521789  0.79817262  1
  Fe  Fe12  1  0.23047452  0.23127427  0.20678374  1
  Fe  Fe13  1  0.54782080  0.70758158  0.01940655  1
  O  O14  1  0.69433846  0.95818644  0.17483568  1
  O  O15  1  0.31180515  0.05199588  0.82390825  1
  O  O16  1  0.98653611  0.28719454  0.26159484  1
  O  O17  1  0.37154627  0.47659399  0.34905963  1
  O  O18  1  0.63122404  0.52301562  0.66008720  1
  O  O19  1  0.83296235  0.52825334  0.41379543  1
  O  O20  1  0.49326780  0.77661200  0.82598021  1
  O  O21  1  0.41357308  0.43710717  0.85631155  1
  O  O22  1  0.18135407  0.47815339  0.57830078  1
  O  O23  1  0.19711391  0.01106096  0.23500546  1
  O  O24  1  0.16019601  0.26094359  0.01543722  1
  O  O25  1  0.08269675  0.67005475  0.25135945  1
  O  O26  1  0.82272791  0.98865114  0.77211701  1
  O  O27  1  0.50985817  0.22754887  0.16950307  1
  O  O28  1  0.32828937  0.19601435  0.57953583  1
  O  O29  1  0.72720458  0.27055786  0.95833882  1
  O  O30  1  0.24972669  0.80115413  0.55492869  1
  O  O31  1  0.57739813  0.54668506  0.14289298  1
  O  O32  1  0.74555466  0.19232866  0.44168471  1
  O  O33  1  0.85366466  0.74286666  0.98877403  1
  O  O34  1  0.93460765  0.31461064  0.75468857  1
  O  O35  1  0.02541436  0.72039400  0.74294229  1
  O  O36  1  0.26705884  0.72983690  0.04566986  1
  O  O37  1  0.66211897  0.80231883  0.41809711  1
