# generated using pymatgen
data_Tl8Sb21As19(PbS17)4
_symmetry_space_group_name_H-M   'P 1'
_cell_length_a   8.59967533
_cell_length_b   17.04317359
_cell_length_c   21.71991540
_cell_angle_alpha   84.91318471
_cell_angle_beta   84.51674075
_cell_angle_gamma   89.34210080
_symmetry_Int_Tables_number   1
_chemical_formula_structural   Tl8Sb21As19(PbS17)4
_chemical_formula_sum   'Tl8 Sb21 As19 Pb4 S68'
_cell_volume   3156.33419207
_cell_formula_units_Z   1
loop_
 _symmetry_equiv_pos_site_id
 _symmetry_equiv_pos_as_xyz
  1  'x, y, z'
loop_
 _atom_site_type_symbol
 _atom_site_label
 _atom_site_symmetry_multiplicity
 _atom_site_fract_x
 _atom_site_fract_y
 _atom_site_fract_z
 _atom_site_occupancy
  Tl  Tl0  1  0.40834657  0.72919775  0.32314742  1
  Tl  Tl1  1  0.55603796  0.27464279  0.68814401  1
  Tl  Tl2  1  0.06630660  0.77663491  0.68820241  1
  Tl  Tl3  1  0.07690075  0.28170670  0.68786806  1
  Tl  Tl4  1  0.42888709  0.23575860  0.31554833  1
  Tl  Tl5  1  0.90459191  0.22992896  0.31798867  1
  Tl  Tl6  1  0.91537633  0.73628685  0.31752898  1
  Tl  Tl7  1  0.57360352  0.78529642  0.68330290  1
  Sb  Sb8  1  0.93908301  0.16349511  0.05688763  1
  Sb  Sb9  1  0.82850545  0.00490290  0.61063729  1
  Sb  Sb10  1  0.86959065  0.34268525  0.48542439  1
  Sb  Sb11  1  0.47951508  0.84203094  0.93401940  1
  Sb  Sb12  1  0.21568192  0.83380341  0.11986261  1
  Sb  Sb13  1  0.11175399  0.17085103  0.52106222  1
  Sb  Sb14  1  0.15300994  0.50994896  0.39504496  1
  Sb  Sb15  1  0.76310342  0.67991370  0.88710641  1
  Sb  Sb16  1  0.41216393  0.49221079  0.24070073  1
  Sb  Sb17  1  0.72427744  0.49138418  0.98133886  1
  Sb  Sb18  1  0.94041214  0.66308483  0.05844019  1
  Sb  Sb19  1  0.33154371  0.50044423  0.61404290  1
  Sb  Sb20  1  0.04383077  0.52744448  0.76656705  1
  Sb  Sb21  1  0.57682676  0.02296103  0.76517134  1
  Sb  Sb22  1  0.76270926  0.18321901  0.88456088  1
  Sb  Sb23  1  0.24767672  0.67650947  0.87312325  1
  Sb  Sb24  1  0.21707599  0.33607398  0.12503029  1
  Sb  Sb25  1  0.95726286  0.97944555  0.23454454  1
  Sb  Sb26  1  0.64880505  0.01454189  0.38913302  1
  Sb  Sb27  1  0.61284047  0.67021075  0.52066385  1
  Sb  Sb28  1  0.37005728  0.84476437  0.48451460  1
  As  As29  1  0.63281593  0.15776193  0.49370138  1
  As  As30  1  0.32934504  0.99932529  0.63149186  1
  As  As31  1  0.73282584  0.99710174  0.96121750  1
  As  As32  1  0.82081137  0.49689977  0.63183095  1
  As  As33  1  0.71825689  0.32760980  0.13305782  1
  As  As34  1  0.47264772  0.34630156  0.93357656  1
  As  As35  1  0.74024906  0.82837461  0.13715313  1
  As  As36  1  0.06070414  0.85064228  0.93726813  1
  As  As37  1  0.51501107  0.16620053  0.06905510  1
  As  As38  1  0.65182413  0.51434026  0.37414471  1
  As  As39  1  0.06448573  0.34907185  0.94328633  1
  As  As40  1  0.52140579  0.67372598  0.07703923  1
  As  As41  1  0.25872164  0.01740848  0.03756182  1
  As  As42  1  0.25870861  0.52319637  0.04619890  1
  As  As43  1  0.85013853  0.85660617  0.51048652  1
  As  As44  1  0.26144494  0.18689613  0.87241545  1
  As  As45  1  0.34963816  0.35534554  0.51071202  1
  As  As46  1  0.13263601  0.65830577  0.49507607  1
  As  As47  1  0.16114279  0.01480622  0.37087668  1
  Pb  Pb48  1  0.45466487  0.00307075  0.22484570  1
  Pb  Pb49  1  0.92740913  0.49303869  0.22911572  1
  Pb  Pb50  1  0.05443692  0.02106097  0.77771027  1
  Pb  Pb51  1  0.54746012  0.51326529  0.77804978  1
  S  S52  1  0.54898579  0.08992894  0.93562674  1
  S  S53  1  0.69156544  0.37238683  0.22829184  1
  S  S54  1  0.10576505  0.27941030  0.43247033  1
  S  S55  1  0.67196570  0.59631611  0.28693816  1
  S  S56  1  0.69698847  0.57921514  0.10425423  1
  S  S57  1  0.87504853  0.23409374  0.57386936  1
  S  S58  1  0.91708313  0.23984627  0.15486919  1
  S  S59  1  0.06819663  0.28001972  0.85361041  1
  S  S60  1  0.43513003  0.42713423  0.07221494  1
  S  S61  1  0.37299289  0.93434295  0.35558841  1
  S  S62  1  0.05027880  0.78166574  0.84762664  1
  S  S63  1  0.82881847  0.73587457  0.56819958  1
  S  S64  1  0.03290421  0.90666880  0.56798246  1
  S  S65  1  0.77675300  0.13025784  0.76919953  1
  S  S66  1  0.69180703  0.07680516  0.10006807  1
  S  S67  1  0.48228843  0.76280239  0.83912635  1
  S  S68  1  0.44409387  0.10837909  0.43855598  1
  S  S69  1  0.94775508  0.07238645  0.92371312  1
  S  S70  1  0.15341645  0.77893586  0.43721737  1
  S  S71  1  0.28398787  0.09842830  0.11892180  1
  S  S72  1  0.28048555  0.43324991  0.90781279  1
  S  S73  1  0.71295638  0.92214296  0.87719214  1
  S  S74  1  0.51782028  0.74970257  0.16380500  1
  S  S75  1  0.60601995  0.78109542  0.43205698  1
  S  S76  1  0.32551149  0.23591576  0.57039371  1
  S  S77  1  0.50107943  0.24364938  0.15565137  1
  S  S78  1  0.94869267  0.60759448  0.43832676  1
  S  S79  1  0.53763222  0.59262202  0.94500083  1
  S  S80  1  0.19791168  0.75791775  0.99068632  1
  S  S81  1  0.79029500  0.93176951  0.71684082  1
  S  S82  1  0.72434604  0.87647010  0.23640788  1
  S  S83  1  0.65515809  0.27835782  0.43564395  1
  S  S84  1  0.77325447  0.76266907  0.01258213  1
  S  S85  1  0.79947986  0.62910230  0.78135346  1
  S  S86  1  0.95433592  0.93470349  0.34742842  1
  S  S87  1  0.29188656  0.42772880  0.71766955  1
  S  S88  1  0.30563236  0.91640017  0.71771137  1
  S  S89  1  0.53614783  0.40547100  0.56662725  1
  S  S90  1  0.84156169  0.09496676  0.44476834  1
  S  S91  1  0.63985398  0.92013106  0.55887337  1
  S  S92  1  0.04093718  0.94479327  0.07768269  1
  S  S93  1  0.27151817  0.93474677  0.90135434  1
  S  S94  1  0.45041814  0.43237943  0.34967888  1
  S  S95  1  0.02553128  0.57739644  0.65617396  1
  S  S96  1  0.34263711  0.59518130  0.44601861  1
  S  S97  1  0.61127829  0.57872736  0.64806954  1
  S  S98  1  0.28175394  0.14490915  0.77681479  1
  S  S99  1  0.77512637  0.25592972  -0.00024845  1
  S  S100  1  0.47899820  0.26998640  0.84837606  1
  S  S101  1  0.19206594  0.58237149  0.28858358  1
  S  S102  1  0.43942636  0.92507170  0.06393532  1
  S  S103  1  0.18946920  0.88004583  0.22688238  1
  S  S104  1  0.19457960  0.26217135  0.00322473  1
  S  S105  1  0.53141681  0.08134393  0.65605441  1
  S  S106  1  0.28850209  0.60332065  0.12676678  1
  S  S107  1  0.11177729  0.07779653  0.65054756  1
  S  S108  1  0.20673806  0.38349691  0.23727819  1
  S  S109  1  0.95092846  0.57580194  0.93450147  1
  S  S110  1  0.68581963  0.08725457  0.28568074  1
  S  S111  1  0.37677887  0.73389543  0.57305947  1
  S  S112  1  0.93385030  0.73874408  0.15915173  1
  S  S113  1  0.04018336  0.45155957  0.08622393  1
  S  S114  1  0.69067094  0.41428895  0.88513499  1
  S  S115  1  0.25826610  0.63396757  0.76302229  1
  S  S116  1  0.87001650  0.43621367  0.35572716  1
  S  S117  1  0.79616885  0.41928306  0.72206366  1
  S  S118  1  0.18447981  0.09114951  0.27991296  1
  S  S119  1  0.14071581  0.42037988  0.55757251  1
