# generated using pymatgen
data_NdCu3Se2ClO8
_symmetry_space_group_name_H-M   'P 1'
_cell_length_a   6.44001968
_cell_length_b   7.18149763
_cell_length_c   9.72641336
_cell_angle_alpha   90.00000000
_cell_angle_beta   90.00000000
_cell_angle_gamma   90.00000000
_symmetry_Int_Tables_number   1
_chemical_formula_structural   NdCu3Se2ClO8
_chemical_formula_sum   'Nd2 Cu6 Se4 Cl2 O16'
_cell_volume   449.83675599
_cell_formula_units_Z   2
loop_
 _symmetry_equiv_pos_site_id
 _symmetry_equiv_pos_as_xyz
  1  'x, y, z'
loop_
 _atom_site_type_symbol
 _atom_site_label
 _atom_site_symmetry_multiplicity
 _atom_site_fract_x
 _atom_site_fract_y
 _atom_site_fract_z
 _atom_site_occupancy
  Nd  Nd0  1  0.25000000  0.26318158  0.25000000  1
  Nd  Nd1  1  0.75000000  0.73681842  0.75000000  1
  Cu  Cu2  1  0.50000000  -0.00000000  0.50000000  1
  Cu  Cu3  1  0.25000000  0.79459343  0.25000000  1
  Cu  Cu4  1  0.00000000  0.00000000  -0.00000000  1
  Cu  Cu5  1  0.75000000  0.20540657  0.75000000  1
  Cu  Cu6  1  0.00000000  -0.00000000  0.50000000  1
  Cu  Cu7  1  0.50000000  0.00000000  0.00000000  1
  Se  Se8  1  0.75000000  0.40146417  0.44285419  1
  Se  Se9  1  0.25000000  0.59853583  0.55714581  1
  Se  Se10  1  0.25000000  0.59853583  0.94285419  1
  Se  Se11  1  0.75000000  0.40146417  0.05714581  1
  Cl  Cl12  1  0.25000000  0.15945144  0.75000000  1
  Cl  Cl13  1  0.75000000  0.84054856  0.25000000  1
  O  O14  1  0.75000000  0.42268826  0.87962745  1
  O  O15  1  0.03937756  0.74543095  0.58445216  1
  O  O16  1  0.46062244  0.74543095  0.58445216  1
  O  O17  1  0.53937756  0.25456905  0.41554784  1
  O  O18  1  0.96062244  0.25456905  0.08445216  1
  O  O19  1  0.75000000  0.42268826  0.62037255  1
  O  O20  1  0.03937756  0.74543095  0.91554784  1
  O  O21  1  0.75000000  0.01179383  0.61053393  1
  O  O22  1  0.75000000  0.01179383  0.88946607  1
  O  O23  1  0.96062244  0.25456905  0.41554784  1
  O  O24  1  0.25000000  0.57731174  0.37962745  1
  O  O25  1  0.53937756  0.25456905  0.08445216  1
  O  O26  1  0.46062244  0.74543095  0.91554784  1
  O  O27  1  0.25000000  0.57731174  0.12037255  1
  O  O28  1  0.25000000  0.98820617  0.38946607  1
  O  O29  1  0.25000000  0.98820617  0.11053393  1
