# generated using pymatgen
data_V2B(PO4)3
_symmetry_space_group_name_H-M   'P 1'
_cell_length_a   14.15680739
_cell_length_b   14.15680780
_cell_length_c   7.62706622
_cell_angle_alpha   90.00000000
_cell_angle_beta   90.00000000
_cell_angle_gamma   119.99999909
_symmetry_Int_Tables_number   1
_chemical_formula_structural   V2B(PO4)3
_chemical_formula_sum   'V12 B6 P18 O72'
_cell_volume   1323.78913356
_cell_formula_units_Z   6
loop_
 _symmetry_equiv_pos_site_id
 _symmetry_equiv_pos_as_xyz
  1  'x, y, z'
loop_
 _atom_site_type_symbol
 _atom_site_label
 _atom_site_symmetry_multiplicity
 _atom_site_fract_x
 _atom_site_fract_y
 _atom_site_fract_z
 _atom_site_occupancy
  V  V0  1  0.97504377  0.65538502  0.55461856  1
  V  V1  1  0.31965874  0.97504377  0.05461856  1
  V  V2  1  0.97504377  0.65538502  0.94538144  1
  V  V3  1  0.02495623  0.34461498  0.05461856  1
  V  V4  1  0.68034126  0.02495623  0.55461856  1
  V  V5  1  0.68034126  0.02495623  0.94538144  1
  V  V6  1  0.34461498  0.31965874  0.94538144  1
  V  V7  1  0.02495623  0.34461498  0.44538144  1
  V  V8  1  0.65538502  0.68034126  0.44538144  1
  V  V9  1  0.65538502  0.68034126  0.05461856  1
  V  V10  1  0.34461498  0.31965874  0.55461856  1
  V  V11  1  0.31965874  0.97504377  0.44538144  1
  B  B12  1  0.33333300  0.66666700  0.25000000  1
  B  B13  1  0.66666700  0.33333300  0.25000000  1
  B  B14  1  0.33333300  0.66666700  0.75000000  1
  B  B15  1  0.66666700  0.33333300  0.75000000  1
  B  B16  1  0.00000000  0.00000000  0.25000000  1
  B  B17  1  0.00000000  0.00000000  0.75000000  1
  P  P18  1  0.41018463  0.51650067  0.25000000  1
  P  P19  1  0.22148663  0.44468246  0.75000000  1
  P  P20  1  0.22319583  0.77851337  0.75000000  1
  P  P21  1  0.55531754  0.77680417  0.75000000  1
  P  P22  1  0.85360046  0.77879329  0.75000000  1
  P  P23  1  0.07480716  0.85360046  0.25000000  1
  P  P24  1  0.92519284  0.14639954  0.75000000  1
  P  P25  1  0.14639954  0.22120671  0.25000000  1
  P  P26  1  0.89368396  0.41018463  0.75000000  1
  P  P27  1  0.48349933  0.89368396  0.25000000  1
  P  P28  1  0.10631604  0.58981537  0.25000000  1
  P  P29  1  0.44468246  0.22319583  0.25000000  1
  P  P30  1  0.51650067  0.10631604  0.75000000  1
  P  P31  1  0.77680417  0.22148663  0.25000000  1
  P  P32  1  0.77851337  0.55531754  0.25000000  1
  P  P33  1  0.58981537  0.48349933  0.75000000  1
  P  P34  1  0.22120671  0.07480716  0.75000000  1
  P  P35  1  0.77879329  0.92519284  0.25000000  1
  O  O36  1  0.32608774  0.56599008  0.75000000  1
  O  O37  1  0.56590746  0.72518705  0.91803609  1
  O  O38  1  0.76009766  0.32608774  0.25000000  1
  O  O39  1  0.57069743  0.23583766  0.75000000  1
  O  O40  1  0.43409254  0.27481295  0.41803609  1
  O  O41  1  0.63243417  0.90236572  0.75000000  1
  O  O42  1  0.45192157  0.06904293  0.91968680  1
  O  O43  1  0.69592808  0.79895018  0.25000000  1
  O  O44  1  0.96650272  0.89135861  0.75000000  1
  O  O45  1  0.26993155  0.36756583  0.75000000  1
  O  O46  1  0.06904293  0.61712135  0.08031320  1
  O  O47  1  0.20643423  0.22942473  0.41875587  1
  O  O48  1  0.23583766  0.66514024  0.25000000  1
  O  O49  1  0.92485589  0.03349728  0.75000000  1
  O  O50  1  0.76416234  0.33485976  0.75000000  1
  O  O51  1  0.45192157  0.06904293  0.58031320  1
  O  O52  1  0.46773787  0.39417963  0.75000000  1
  O  O53  1  0.03349728  0.10864139  0.25000000  1
  O  O54  1  0.77057527  0.97700950  0.08124413  1
  O  O55  1  0.72518705  0.15927959  0.08196391  1
  O  O56  1  0.02299050  0.79356577  0.41875587  1
  O  O57  1  0.38287865  0.45192157  0.41968680  1
  O  O58  1  0.06904293  0.61712135  0.41968680  1
  O  O59  1  0.10864139  0.07514411  0.75000000  1
  O  O60  1  0.09763428  0.73006845  0.75000000  1
  O  O61  1  0.42930257  0.76416234  0.25000000  1
  O  O62  1  0.79356577  0.77057527  0.58124413  1
  O  O63  1  0.54807843  0.93095707  0.08031320  1
  O  O64  1  0.43409254  0.27481295  0.08196391  1
  O  O65  1  0.07514411  0.96650272  0.25000000  1
  O  O66  1  0.90236572  0.26993155  0.25000000  1
  O  O67  1  0.84072041  0.56590746  0.08196391  1
  O  O68  1  0.20104982  0.89697790  0.25000000  1
  O  O69  1  0.67391226  0.43400992  0.25000000  1
  O  O70  1  0.60582037  0.07355824  0.75000000  1
  O  O71  1  0.92644176  0.53226213  0.75000000  1
  O  O72  1  0.56599008  0.23990234  0.25000000  1
  O  O73  1  0.73006845  0.63243417  0.25000000  1
  O  O74  1  0.27481295  0.84072041  0.58196391  1
  O  O75  1  0.15927959  0.43409254  0.58196391  1
  O  O76  1  0.22942473  0.02299050  0.91875587  1
  O  O77  1  0.61712135  0.54807843  0.91968680  1
  O  O78  1  0.93095707  0.38287865  0.91968680  1
  O  O79  1  0.38287865  0.45192157  0.08031320  1
  O  O80  1  0.22942473  0.02299050  0.58124413  1
  O  O81  1  0.02299050  0.79356577  0.08124413  1
  O  O82  1  0.97700950  0.20643423  0.58124413  1
  O  O83  1  0.54807843  0.93095707  0.41968680  1
  O  O84  1  0.10302210  0.30407192  0.25000000  1
  O  O85  1  0.79895018  0.10302210  0.75000000  1
  O  O86  1  0.89697790  0.69592808  0.75000000  1
  O  O87  1  0.56590746  0.72518705  0.58196391  1
  O  O88  1  0.07355824  0.46773787  0.25000000  1
  O  O89  1  0.97700950  0.20643423  0.91875587  1
  O  O90  1  0.77057527  0.97700950  0.41875587  1
  O  O91  1  0.30407192  0.20104982  0.75000000  1
  O  O92  1  0.72518705  0.15927959  0.41803609  1
  O  O93  1  0.33485976  0.57069743  0.25000000  1
  O  O94  1  0.53226213  0.60582037  0.25000000  1
  O  O95  1  0.93095707  0.38287865  0.58031320  1
  O  O96  1  0.61712135  0.54807843  0.58031320  1
  O  O97  1  0.15927959  0.43409254  0.91803609  1
  O  O98  1  0.27481295  0.84072041  0.91803609  1
  O  O99  1  0.39417963  0.92644176  0.25000000  1
  O  O100  1  0.23990234  0.67391226  0.75000000  1
  O  O101  1  0.89135861  0.92485589  0.25000000  1
  O  O102  1  0.20643423  0.22942473  0.08124413  1
  O  O103  1  0.36756583  0.09763428  0.25000000  1
  O  O104  1  0.84072041  0.56590746  0.41803609  1
  O  O105  1  0.43400992  0.76009766  0.75000000  1
  O  O106  1  0.66514024  0.42930257  0.75000000  1
  O  O107  1  0.79356577  0.77057527  0.91875587  1
