# generated using pymatgen
data_CdI2
_symmetry_space_group_name_H-M   'P 1'
_cell_length_a   4.33504858
_cell_length_b   4.33504884
_cell_length_c   91.87212046
_cell_angle_alpha   90.00000000
_cell_angle_beta   90.00000000
_cell_angle_gamma   119.99999800
_symmetry_Int_Tables_number   1
_chemical_formula_structural   CdI2
_chemical_formula_sum   'Cd12 I24'
_cell_volume   1495.21052136
_cell_formula_units_Z   12
loop_
 _symmetry_equiv_pos_site_id
 _symmetry_equiv_pos_as_xyz
  1  'x, y, z'
loop_
 _atom_site_type_symbol
 _atom_site_label
 _atom_site_symmetry_multiplicity
 _atom_site_fract_x
 _atom_site_fract_y
 _atom_site_fract_z
 _atom_site_occupancy
  Cd  Cd0  1  0.66666700  0.33333300  0.02086419  1
  Cd  Cd1  1  0.66666700  0.33333300  0.18752557  1
  Cd  Cd2  1  0.00000000  0.00000000  0.10415450  1
  Cd  Cd3  1  0.00000000  0.00000000  0.60415532  1
  Cd  Cd4  1  0.00000000  0.00000000  0.85417422  1
  Cd  Cd5  1  0.00000000  0.00000000  0.52084267  1
  Cd  Cd6  1  0.66666700  0.33333300  0.77081716  1
  Cd  Cd7  1  0.00000000  0.00000000  0.27081790  1
  Cd  Cd8  1  0.00000000  0.00000000  0.35416376  1
  Cd  Cd9  1  0.66666700  0.33333300  0.43749830  1
  Cd  Cd10  1  0.00000000  0.00000000  0.93749704  1
  Cd  Cd11  1  0.00000000  0.00000000  0.68750691  1
  I  I12  1  0.00000000  0.00000000  0.16876190  1
  I  I13  1  0.66666700  0.33333300  0.58541211  1
  I  I14  1  0.33333300  0.66666700  0.78956887  1
  I  I15  1  0.66666700  0.33333300  0.33542138  1
  I  I16  1  0.00000000  0.00000000  0.41873159  1
  I  I17  1  0.66666700  0.33333300  0.08541267  1
  I  I18  1  0.33333300  0.66666700  0.45625079  1
  I  I19  1  0.33333300  0.66666700  0.20627198  1
  I  I20  1  0.33333300  0.66666700  0.95623973  1
  I  I21  1  0.66666700  0.33333300  0.83542934  1
  I  I22  1  0.66666700  0.33333300  0.91875851  1
  I  I23  1  0.66666700  0.33333300  0.50209926  1
  I  I24  1  0.33333300  0.66666700  0.53958552  1
  I  I25  1  0.33333300  0.66666700  0.12290049  1
  I  I26  1  0.33333300  0.66666700  0.03961036  1
  I  I27  1  0.00000000  0.00000000  0.00209985  1
  I  I28  1  0.33333300  0.66666700  0.28956450  1
  I  I29  1  0.33333300  0.66666700  0.37290459  1
  I  I30  1  0.33333300  0.66666700  0.62290360  1
  I  I31  1  0.33333300  0.66666700  0.70624898  1
  I  I32  1  0.00000000  0.00000000  0.75204911  1
  I  I33  1  0.66666700  0.33333300  0.66876350  1
  I  I34  1  0.66666700  0.33333300  0.25207662  1
  I  I35  1  0.33333300  0.66666700  0.87291721  1
