# generated using pymatgen
data_SrEu2Fe2O7
_symmetry_space_group_name_H-M   'P 1'
_cell_length_a   5.57431555
_cell_length_b   5.57431555
_cell_length_c   19.98792486
_cell_angle_alpha   90.00000000
_cell_angle_beta   90.00000000
_cell_angle_gamma   90.00000000
_symmetry_Int_Tables_number   1
_chemical_formula_structural   SrEu2Fe2O7
_chemical_formula_sum   'Sr4 Eu8 Fe8 O28'
_cell_volume   621.08466627
_cell_formula_units_Z   4
loop_
 _symmetry_equiv_pos_site_id
 _symmetry_equiv_pos_as_xyz
  1  'x, y, z'
loop_
 _atom_site_type_symbol
 _atom_site_label
 _atom_site_symmetry_multiplicity
 _atom_site_fract_x
 _atom_site_fract_y
 _atom_site_fract_z
 _atom_site_occupancy
  O  O0  1  0.71451885  0.28548115  0.00000000  1
  O  O1  1  0.21451885  0.21451885  0.50000000  1
  O  O2  1  0.78548115  0.78548115  0.50000000  1
  O  O3  1  0.28548115  0.71451885  0.00000000  1
  O  O4  1  0.00000000  0.00000000  0.61929717  1
  O  O5  1  0.50000000  0.50000000  0.11929717  1
  O  O6  1  0.50000000  0.50000000  0.88070283  1
  O  O7  1  0.00000000  0.00000000  0.38070283  1
  O  O8  1  0.00000000  0.00000000  0.90992380  1
  O  O9  1  0.50000000  0.50000000  0.40992380  1
  O  O10  1  0.50000000  0.50000000  0.59007620  1
  O  O11  1  0.00000000  0.00000000  0.09007620  1
  O  O12  1  0.70555821  0.70555821  0.70378134  1
  O  O13  1  0.29444179  0.29444179  0.70378134  1
  O  O14  1  0.70555821  0.70555821  0.29621866  1
  O  O15  1  0.20555821  0.79444179  0.20378134  1
  O  O16  1  0.79444179  0.20555821  0.20378134  1
  O  O17  1  0.79444179  0.20555821  0.79621866  1
  O  O18  1  0.20555821  0.79444179  0.79621866  1
  O  O19  1  0.29444179  0.29444179  0.29621866  1
  O  O20  1  0.00000000  0.50000000  0.39595063  1
  O  O21  1  0.00000000  0.50000000  0.89595063  1
  O  O22  1  0.50000000  0.00000000  0.10404937  1
  O  O23  1  0.50000000  0.00000000  0.60404937  1
  O  O24  1  0.00000000  0.50000000  0.60404937  1
  O  O25  1  0.00000000  0.50000000  0.10404937  1
  O  O26  1  0.50000000  0.00000000  0.89595063  1
  O  O27  1  0.50000000  0.00000000  0.39595063  1
  Fe  Fe28  1  0.75410433  0.75410433  0.59867803  1
  Fe  Fe29  1  0.24589567  0.24589567  0.59867803  1
  Fe  Fe30  1  0.75410433  0.75410433  0.40132197  1
  Fe  Fe31  1  0.25410433  0.74589567  0.09867803  1
  Fe  Fe32  1  0.74589567  0.25410433  0.09867803  1
  Fe  Fe33  1  0.74589567  0.25410433  0.90132197  1
  Fe  Fe34  1  0.25410433  0.74589567  0.90132197  1
  Fe  Fe35  1  0.24589567  0.24589567  0.40132197  1
  Sr  Sr36  1  0.75438447  0.75438447  0.00000000  1
  Sr  Sr37  1  0.74561553  0.25438447  0.50000000  1
  Sr  Sr38  1  0.25438447  0.74561553  0.50000000  1
  Sr  Sr39  1  0.24561553  0.24561553  0.00000000  1
  Eu  Eu40  1  0.76893248  0.76893248  0.81646680  1
  Eu  Eu41  1  0.23106752  0.23106752  0.81646680  1
  Eu  Eu42  1  0.76893248  0.76893248  0.18353320  1
  Eu  Eu43  1  0.26893248  0.73106752  0.31646680  1
  Eu  Eu44  1  0.73106752  0.26893248  0.31646680  1
  Eu  Eu45  1  0.73106752  0.26893248  0.68353320  1
  Eu  Eu46  1  0.26893248  0.73106752  0.68353320  1
  Eu  Eu47  1  0.23106752  0.23106752  0.18353320  1
