# generated using pymatgen
data_SiGeO3
_symmetry_space_group_name_H-M   'P 1'
_cell_length_a   20.06183978
_cell_length_b   9.43247159
_cell_length_c   5.42094784
_cell_angle_alpha   90.00000000
_cell_angle_beta   90.00000000
_cell_angle_gamma   90.00000000
_symmetry_Int_Tables_number   1
_chemical_formula_structural   SiGeO3
_chemical_formula_sum   'Si16 Ge16 O48'
_cell_volume   1025.82077938
_cell_formula_units_Z   16
loop_
 _symmetry_equiv_pos_site_id
 _symmetry_equiv_pos_as_xyz
  1  'x, y, z'
loop_
 _atom_site_type_symbol
 _atom_site_label
 _atom_site_symmetry_multiplicity
 _atom_site_fract_x
 _atom_site_fract_y
 _atom_site_fract_z
 _atom_site_occupancy
  Si  Si0  1  0.00286653  0.65038592  0.26562437  1
  Si  Si1  1  0.00286653  0.84961408  0.76562437  1
  Si  Si2  1  0.24769128  0.65105895  0.48478184  1
  Si  Si3  1  0.24769128  0.84894105  0.98478184  1
  Si  Si4  1  0.25230872  0.15105895  0.48478184  1
  Si  Si5  1  0.25230872  0.34894105  0.98478184  1
  Si  Si6  1  0.49713347  0.15038592  0.26562437  1
  Si  Si7  1  0.49713347  0.34961408  0.76562437  1
  Si  Si8  1  0.50286653  0.65038592  0.23437563  1
  Si  Si9  1  0.50286653  0.84961408  0.73437563  1
  Si  Si10  1  0.74769128  0.65105895  0.01521816  1
  Si  Si11  1  0.74769128  0.84894105  0.51521816  1
  Si  Si12  1  0.75230872  0.15105895  0.01521816  1
  Si  Si13  1  0.75230872  0.34894105  0.51521816  1
  Si  Si14  1  0.99713347  0.15038592  0.23437563  1
  Si  Si15  1  0.99713347  0.34961408  0.73437563  1
  Ge  Ge16  1  0.12478872  0.91540257  0.36696980  1
  Ge  Ge17  1  0.12478872  0.58459743  0.86696980  1
  Ge  Ge18  1  0.12539132  0.40187209  0.37078748  1
  Ge  Ge19  1  0.12539132  0.09812791  0.87078748  1
  Ge  Ge20  1  0.37460868  0.59812791  0.87078748  1
  Ge  Ge21  1  0.37460868  0.90187209  0.37078748  1
  Ge  Ge22  1  0.37521128  0.08459743  0.86696980  1
  Ge  Ge23  1  0.37521128  0.41540257  0.36696980  1
  Ge  Ge24  1  0.62478872  0.58459743  0.63303020  1
  Ge  Ge25  1  0.62478872  0.91540257  0.13303020  1
  Ge  Ge26  1  0.62539132  0.09812791  0.62921252  1
  Ge  Ge27  1  0.62539132  0.40187209  0.12921252  1
  Ge  Ge28  1  0.87460868  0.59812791  0.62921252  1
  Ge  Ge29  1  0.87460868  0.90187209  0.12921252  1
  Ge  Ge30  1  0.87521128  0.08459743  0.63303020  1
  Ge  Ge31  1  0.87521128  0.41540257  0.13303020  1
  O  O32  1  0.00552237  0.76144564  0.02909875  1
  O  O33  1  0.00552237  0.73855436  0.52909875  1
  O  O34  1  0.06776251  0.06322196  0.21599549  1
  O  O35  1  0.06776251  0.43677804  0.71599549  1
  O  O36  1  0.06671465  0.54524940  0.22115821  1
  O  O37  1  0.06671465  0.95475060  0.72115821  1
  O  O38  1  0.18340478  0.05953417  0.51546584  1
  O  O39  1  0.18340478  0.44046583  0.01546584  1
  O  O40  1  0.18142668  0.94887518  0.01975355  1
  O  O41  1  0.18142668  0.55112482  0.51975355  1
  O  O42  1  0.24564808  0.73601657  0.21912273  1
  O  O43  1  0.24564808  0.76398343  0.71912273  1
  O  O44  1  0.25435192  0.26398343  0.71912273  1
  O  O45  1  0.25435192  0.23601657  0.21912273  1
  O  O46  1  0.31857332  0.44887518  0.01975355  1
  O  O47  1  0.31857332  0.05112482  0.51975355  1
  O  O48  1  0.31659522  0.55953417  0.51546584  1
  O  O49  1  0.31659522  0.94046583  0.01546584  1
  O  O50  1  0.43328535  0.04524940  0.22115821  1
  O  O51  1  0.43328535  0.45475060  0.72115821  1
  O  O52  1  0.43223749  0.56322196  0.21599549  1
  O  O53  1  0.43223749  0.93677804  0.71599549  1
  O  O54  1  0.49447763  0.23855436  0.52909875  1
  O  O55  1  0.49447763  0.26144564  0.02909875  1
  O  O56  1  0.50552237  0.73855436  0.97090125  1
  O  O57  1  0.50552237  0.76144564  0.47090125  1
  O  O58  1  0.56776251  0.06322196  0.28400451  1
  O  O59  1  0.56776251  0.43677804  0.78400451  1
  O  O60  1  0.56671465  0.54524940  0.27884179  1
  O  O61  1  0.56671465  0.95475060  0.77884179  1
  O  O62  1  0.68340478  0.05953417  0.98453416  1
  O  O63  1  0.68340478  0.44046583  0.48453416  1
  O  O64  1  0.68142668  0.94887518  0.48024645  1
  O  O65  1  0.68142668  0.55112482  0.98024645  1
  O  O66  1  0.74564808  0.76398343  0.78087727  1
  O  O67  1  0.74564808  0.73601657  0.28087727  1
  O  O68  1  0.75435192  0.26398343  0.78087727  1
  O  O69  1  0.75435192  0.23601657  0.28087727  1
  O  O70  1  0.81857332  0.44887518  0.48024645  1
  O  O71  1  0.81857332  0.05112482  0.98024645  1
  O  O72  1  0.81659522  0.55953417  0.98453416  1
  O  O73  1  0.81659522  0.94046583  0.48453416  1
  O  O74  1  0.93328535  0.04524940  0.27884179  1
  O  O75  1  0.93328535  0.45475060  0.77884179  1
  O  O76  1  0.93223749  0.56322196  0.28400451  1
  O  O77  1  0.93223749  0.93677804  0.78400451  1
  O  O78  1  0.99447763  0.23855436  0.97090125  1
  O  O79  1  0.99447763  0.26144564  0.47090125  1
