# generated using pymatgen
data_La4Si4I3
_symmetry_space_group_name_H-M   'P 1'
_cell_length_a   4.26166124
_cell_length_b   12.49587609
_cell_length_c   12.67796259
_cell_angle_alpha   97.51883077
_cell_angle_beta   90.00000000
_cell_angle_gamma   99.81821174
_symmetry_Int_Tables_number   1
_chemical_formula_structural   La4Si4I3
_chemical_formula_sum   'La8 Si8 I6'
_cell_volume   659.36167921
_cell_formula_units_Z   2
loop_
 _symmetry_equiv_pos_site_id
 _symmetry_equiv_pos_as_xyz
  1  'x, y, z'
loop_
 _atom_site_type_symbol
 _atom_site_label
 _atom_site_symmetry_multiplicity
 _atom_site_fract_x
 _atom_site_fract_y
 _atom_site_fract_z
 _atom_site_occupancy
  La  La0  1  0.50324830  0.00649660  0.16538168  1
  La  La1  1  0.07359094  0.14718189  0.44572449  1
  La  La2  1  0.64421350  0.28842700  0.02325138  1
  La  La3  1  0.92640906  0.85281811  0.55427551  1
  La  La4  1  0.35578650  0.71157300  0.97674862  1
  La  La5  1  0.36197251  0.72394502  0.29090371  1
  La  La6  1  0.63802749  0.27605498  0.70909629  1
  La  La7  1  0.49675170  0.99350340  0.83461832  1
  Si  Si8  1  0.47670288  0.95340576  0.40909115  1
  Si  Si9  1  0.95735763  0.91471526  0.31698901  1
  Si  Si10  1  0.94965400  0.89930799  0.98425792  1
  Si  Si11  1  0.52329712  0.04659424  0.59090885  1
  Si  Si12  1  0.09569051  0.19138103  0.85993935  1
  Si  Si13  1  0.05034600  0.10069201  0.01574208  1
  Si  Si14  1  0.04264237  0.08528474  0.68301099  1
  Si  Si15  1  0.90430949  0.80861897  0.14006065  1
  I  I16  1  0.75664132  0.51328265  0.86974181  1
  I  I17  1  0.24335868  0.48671735  0.13025819  1
  I  I18  1  0.19981977  0.39963955  0.57304975  1
  I  I19  1  0.63152461  0.26304922  0.28812102  1
  I  I20  1  0.80018023  0.60036045  0.42695025  1
  I  I21  1  0.36847539  0.73695078  0.71187898  1
