# generated using pymatgen
data_WO3
_symmetry_space_group_name_H-M   'P 1'
_cell_length_a   7.67910225
_cell_length_b   7.71959911
_cell_length_c   7.75591298
_cell_angle_alpha   89.81752331
_cell_angle_beta   89.95823144
_cell_angle_gamma   89.94620933
_symmetry_Int_Tables_number   1
_chemical_formula_structural   WO3
_chemical_formula_sum   'W8 O24'
_cell_volume   459.76469292
_cell_formula_units_Z   8
loop_
 _symmetry_equiv_pos_site_id
 _symmetry_equiv_pos_as_xyz
  1  'x, y, z'
loop_
 _atom_site_type_symbol
 _atom_site_label
 _atom_site_symmetry_multiplicity
 _atom_site_fract_x
 _atom_site_fract_y
 _atom_site_fract_z
 _atom_site_occupancy
  O  O0  1  0.76734851  0.99905754  0.50323011  1
  O  O1  1  0.23265149  0.00094246  0.49676989  1
  O  O2  1  0.76623747  0.49914151  0.99673210  1
  O  O3  1  0.23376253  0.50085849  0.00326790  1
  O  O4  1  0.73376751  0.50677255  0.49674809  1
  O  O5  1  0.26623249  0.49322745  0.50325191  1
  O  O6  1  0.73265976  0.00667676  0.00321520  1
  O  O7  1  0.26734024  0.99332324  0.99678480  1
  O  O8  1  0.00111634  0.98757904  0.76760300  1
  O  O9  1  0.99888366  0.01242096  0.23239700  1
  O  O10  1  0.50096653  0.48715686  0.76632535  1
  O  O11  1  0.49903347  0.51284314  0.23367465  1
  O  O12  1  0.00099669  0.51306402  0.73364247  1
  O  O13  1  0.99900331  0.48693598  0.26635753  1
  O  O14  1  0.50109133  0.01262742  0.73243488  1
  O  O15  1  0.49890867  0.98737258  0.26756512  1
  O  O16  1  0.26296340  0.74665985  0.74550630  1
  O  O17  1  0.73703660  0.25334015  0.25449370  1
  O  O18  1  0.23728124  0.24661971  0.75451016  1
  O  O19  1  0.76271876  0.75338029  0.24548984  1
  O  O20  1  0.23702598  0.74661145  0.25309788  1
  O  O21  1  0.76297402  0.25338855  0.74690212  1
  O  O22  1  0.26275126  0.24656822  0.24694534  1
  O  O23  1  0.73724874  0.75343178  0.75305466  1
  W  W24  1  0.75307254  0.51157660  0.73480518  1
  W  W25  1  0.24692746  0.48842340  0.26519482  1
  W  W26  1  0.75512452  0.01110636  0.76535908  1
  W  W27  1  0.24487548  0.98889364  0.23464092  1
  W  W28  1  0.74693806  0.51127927  0.23456397  1
  W  W29  1  0.25306194  0.48872073  0.76543603  1
  W  W30  1  0.74486460  0.01081135  0.26559854  1
  W  W31  1  0.25513540  0.98918865  0.73440146  1
