# generated using pymatgen
data_RbMgP(H6O5)2
_symmetry_space_group_name_H-M   'P 1'
_cell_length_a   6.17098897
_cell_length_b   6.92231892
_cell_length_c   11.37999101
_cell_angle_alpha   90.00000000
_cell_angle_beta   90.00000000
_cell_angle_gamma   90.00000000
_symmetry_Int_Tables_number   1
_chemical_formula_structural   RbMgP(H6O5)2
_chemical_formula_sum   'Rb2 Mg2 P2 H24 O20'
_cell_volume   486.12537710
_cell_formula_units_Z   2
loop_
 _symmetry_equiv_pos_site_id
 _symmetry_equiv_pos_as_xyz
  1  'x, y, z'
loop_
 _atom_site_type_symbol
 _atom_site_label
 _atom_site_symmetry_multiplicity
 _atom_site_fract_x
 _atom_site_fract_y
 _atom_site_fract_z
 _atom_site_occupancy
  Rb  Rb0  1  0.34904672  0.50000000  0.77121316  1
  Rb  Rb1  1  0.65095328  0.00000000  0.27121316  1
  Mg  Mg2  1  0.38611221  0.50000000  0.11957374  1
  Mg  Mg3  1  0.61388779  0.00000000  0.61957374  1
  P  P4  1  0.01263946  0.00000000  0.98804119  1
  P  P5  1  0.98736054  0.50000000  0.48804119  1
  H  H6  1  0.20719202  0.69942030  0.30697661  1
  H  H7  1  0.79280798  0.80057970  0.80697661  1
  H  H8  1  0.64383041  0.75704782  0.98813199  1
  H  H9  1  0.72625223  0.50000000  0.28920463  1
  H  H10  1  0.99677052  0.88233531  0.49651193  1
  H  H11  1  0.16977716  0.00000000  0.65803489  1
  H  H12  1  0.35616959  0.74295218  0.48813199  1
  H  H13  1  0.35616959  0.25704782  0.48813199  1
  H  H14  1  0.27374777  0.00000000  0.78920463  1
  H  H15  1  0.81820578  0.67764346  0.68676893  1
  H  H16  1  0.60465474  0.32865953  0.47909720  1
  H  H17  1  0.39534526  0.17134047  0.97909720  1
  H  H18  1  0.39534526  0.82865953  0.97909720  1
  H  H19  1  0.83022284  0.50000000  0.15803489  1
  H  H20  1  0.18179422  0.17764346  0.18676893  1
  H  H21  1  0.00322948  0.38233531  0.99651193  1
  H  H22  1  0.00322948  0.61766469  0.99651193  1
  H  H23  1  0.18179422  0.82235654  0.18676893  1
  H  H24  1  0.81820578  0.32235654  0.68676893  1
  H  H25  1  0.79280798  0.19942030  0.80697661  1
  H  H26  1  0.20719202  0.30057970  0.30697661  1
  H  H27  1  0.64383041  0.24295218  0.98813199  1
  H  H28  1  0.99677052  0.11766469  0.49651193  1
  H  H29  1  0.60465474  0.67134047  0.47909720  1
  O  O30  1  0.72584148  0.77679653  0.72819430  1
  O  O31  1  0.27415852  0.72320347  0.22819430  1
  O  O32  1  0.24244945  0.00000000  0.93008061  1
  O  O33  1  0.49043959  0.71850968  0.00634247  1
  O  O34  1  0.93353554  0.00000000  0.53619665  1
  O  O35  1  0.50956041  0.78149032  0.50634247  1
  O  O36  1  0.27415852  0.27679653  0.22819430  1
  O  O37  1  0.88917352  0.18430791  0.94636939  1
  O  O38  1  0.75755055  0.50000000  0.43008061  1
  O  O39  1  0.72584148  0.22320347  0.72819430  1
  O  O40  1  0.96326938  0.50000000  0.62341857  1
  O  O41  1  0.11082648  0.31569209  0.44636939  1
  O  O42  1  0.03673062  0.00000000  0.12341857  1
  O  O43  1  0.30700395  0.00000000  0.70193093  1
  O  O44  1  0.49043959  0.28149032  0.00634247  1
  O  O45  1  0.50956041  0.21850968  0.50634247  1
  O  O46  1  0.11082648  0.68430791  0.44636939  1
  O  O47  1  0.69299605  0.50000000  0.20193093  1
  O  O48  1  0.06646446  0.50000000  0.03619665  1
  O  O49  1  0.88917352  0.81569209  0.94636939  1
