# generated using pymatgen
data_Cs2K2B10O17
_symmetry_space_group_name_H-M   'P 1'
_cell_length_a   6.67710032
_cell_length_b   11.44274009
_cell_length_c   11.98101736
_cell_angle_alpha   102.68519116
_cell_angle_beta   106.33765570
_cell_angle_gamma   90.09185653
_symmetry_Int_Tables_number   1
_chemical_formula_structural   Cs2K2B10O17
_chemical_formula_sum   'Cs4 K4 B20 O34'
_cell_volume   855.03087481
_cell_formula_units_Z   2
loop_
 _symmetry_equiv_pos_site_id
 _symmetry_equiv_pos_as_xyz
  1  'x, y, z'
loop_
 _atom_site_type_symbol
 _atom_site_label
 _atom_site_symmetry_multiplicity
 _atom_site_fract_x
 _atom_site_fract_y
 _atom_site_fract_z
 _atom_site_occupancy
  Cs  Cs0  1  0.25518044  0.40360983  0.88851055  1
  Cs  Cs1  1  0.74421203  0.59502915  0.11005735  1
  Cs  Cs2  1  0.36636087  0.09550233  0.11079293  1
  Cs  Cs3  1  0.64218130  0.90740445  0.89092295  1
  K  K4  1  0.19373622  0.32793507  0.54260512  1
  K  K5  1  0.65193722  0.17328748  0.45959114  1
  K  K6  1  0.35156514  0.82536571  0.54336038  1
  K  K7  1  0.81304668  0.67588439  0.45656349  1
  B  B8  1  0.49046898  0.83665950  0.28802269  1
  B  B9  1  0.51041257  0.16271953  0.71151326  1
  B  B10  1  0.44247772  0.42521156  0.30308958  1
  B  B11  1  0.12211702  0.76485167  0.89808369  1
  B  B12  1  0.22533102  0.98470741  0.33400317  1
  B  B13  1  0.89282173  0.51475594  0.66619816  1
  B  B14  1  0.87659794  0.23444441  0.10407238  1
  B  B15  1  0.79593167  0.33618481  0.28986220  1
  B  B16  1  0.20557998  0.66311046  0.71298640  1
  B  B17  1  0.04776939  0.87073826  0.73097683  1
  B  B18  1  0.85844617  0.92478259  0.29940874  1
  B  B19  1  0.95443381  0.12880614  0.27137308  1
  B  B20  1  0.14256308  0.07357480  0.69910559  1
  B  B21  1  0.56030237  0.57419976  0.70013686  1
  B  B22  1  0.22484443  0.73184533  0.10237814  1
  B  B23  1  0.68472135  0.37083729  0.72975969  1
  B  B24  1  0.77607752  0.01383796  0.66453902  1
  B  B25  1  0.10833264  0.48472377  0.33434217  1
  B  B26  1  0.31746894  0.62800376  0.27048964  1
  B  B27  1  0.77602668  0.26723813  0.89842333  1
  O  O28  1  0.05723341  0.86440972  0.85611816  1
  O  O29  1  0.76488746  0.31773137  0.15756948  1
  O  O30  1  0.23231486  0.68037107  0.84452060  1
  O  O31  1  0.43437089  0.73972965  0.33667185  1
  O  O32  1  0.07366302  0.74795764  -0.00026059  1
  O  O33  1  0.42886758  0.95571053  0.34722688  1
  O  O34  1  0.20484679  0.63169629  0.14399873  1
  O  O35  1  0.15163559  0.59924684  0.32540049  1
  O  O36  1  0.17404176  0.10032891  0.32923437  1
  O  O37  1  0.41534039  0.65812886  0.69116672  1
  O  O38  1  0.72204719  0.84151430  0.30940624  1
  O  O39  1  0.92424095  0.25216979  0.00213031  1
  O  O40  1  0.84718863  0.39966323  0.67266291  1
  O  O41  1  0.80137595  0.02874829  0.26393997  1
  O  O42  1  0.53775416  0.47025545  0.73490434  1
  O  O43  1  0.57378585  0.04367971  0.65297495  1
  O  O44  1  0.10169369  0.76029495  0.66492004  1
  O  O45  1  0.08300323  0.54422837  0.65341292  1
  O  O46  1  0.38602390  0.81852416  0.15658729  1
  O  O47  1  0.91891210  0.45515730  0.34798835  1
  O  O48  1  0.92974785  0.09866906  0.66641036  1
  O  O49  1  0.90043916  0.23899022  0.33756526  1
  O  O50  1  0.58792953  0.34193627  0.31342931  1
  O  O51  1  0.61385879  0.18091650  0.84334003  1
  O  O52  1  0.25899722  0.39975195  0.33211366  1
  O  O53  1  0.27859310  0.15691479  0.68876651  1
  O  O54  1  0.82794324  0.89919410  0.67273695  1
  O  O55  1  0.46425391  0.52876392  0.26676400  1
  O  O56  1  0.56666913  0.25972754  0.66371027  1
  O  O57  1  0.74387685  0.60044375  0.67135861  1
  O  O58  1  0.19943389  0.97211140  0.73867746  1
  O  O59  1  0.94451343  0.13527974  0.14598861  1
  O  O60  1  0.07051790  0.89832797  0.32719666  1
  O  O61  1  0.79974570  0.36623485  0.85579379  1
