# generated using pymatgen
data_Ba11(Cd4Bi7)2
_symmetry_space_group_name_H-M   'P 1'
_cell_length_a   5.01776572
_cell_length_b   14.61383340
_cell_length_c   17.21519387
_cell_angle_alpha   91.43703182
_cell_angle_beta   89.99824108
_cell_angle_gamma   99.80762732
_symmetry_Int_Tables_number   1
_chemical_formula_structural   Ba11(Cd4Bi7)2
_chemical_formula_sum   'Ba11 Cd8 Bi14'
_cell_volume   1243.51738849
_cell_formula_units_Z   1
loop_
 _symmetry_equiv_pos_site_id
 _symmetry_equiv_pos_as_xyz
  1  'x, y, z'
loop_
 _atom_site_type_symbol
 _atom_site_label
 _atom_site_symmetry_multiplicity
 _atom_site_fract_x
 _atom_site_fract_y
 _atom_site_fract_z
 _atom_site_occupancy
  Ba  Ba0  1  0.74969996  0.49479144  0.70372232  1
  Ba  Ba1  1  0.38153632  0.76467872  0.84004802  1
  Ba  Ba2  1  0.14691131  0.28926869  0.53453527  1
  Ba  Ba3  1  0.65296354  0.30996722  0.90015106  1
  Ba  Ba4  1  0.99413997  0.98250851  0.63415895  1
  Ba  Ba5  1  0.50346289  0.00055799  0.99965037  1
  Ba  Ba6  1  0.25507869  0.50637456  0.29785641  1
  Ba  Ba7  1  0.35128415  0.69052714  0.09914305  1
  Ba  Ba8  1  0.85297090  0.70925353  0.46624974  1
  Ba  Ba9  1  0.61490286  0.23546697  0.15995281  1
  Ba  Ba10  1  0.01110671  0.01699932  0.36737830  1
  Cd  Cd11  1  0.80470862  0.59727004  0.95897288  1
  Cd  Cd12  1  0.36885309  0.74540357  0.61168416  1
  Cd  Cd13  1  0.19684393  0.40421326  0.04003065  1
  Cd  Cd14  1  0.59990146  0.18858173  0.68491764  1
  Cd  Cd15  1  0.62414860  0.25203400  0.38867559  1
  Cd  Cd16  1  0.94360268  0.87828351  0.15853657  1
  Cd  Cd17  1  0.05890750  0.12112269  0.84115243  1
  Cd  Cd18  1  0.40913850  0.81220632  0.31556430  1
  Bi  Bi19  1  0.56061287  0.11447539  0.51771301  1
  Bi  Bi20  1  0.90986997  0.81280631  0.98751296  1
  Bi  Bi21  1  0.15335116  0.29869549  0.73848329  1
  Bi  Bi22  1  0.09259436  0.18829191  0.01187616  1
  Bi  Bi23  1  0.85463069  0.70098528  0.26236234  1
  Bi  Bi24  1  0.86699588  0.74026056  0.69887898  1
  Bi  Bi25  1  0.26306321  0.51514043  0.88303307  1
  Bi  Bi26  1  0.44139911  0.88383668  0.48361132  1
  Bi  Bi27  1  0.72901278  0.45766312  0.46081342  1
  Bi  Bi28  1  0.49362888  0.98041028  0.20912751  1
  Bi  Bi29  1  0.26989112  0.54011013  0.54112849  1
  Bi  Bi30  1  0.12812133  0.26081521  0.30129313  1
  Bi  Bi31  1  0.50951541  0.01884654  0.79035043  1
  Bi  Bi32  1  0.73863355  0.48555144  0.11651338  1
