# generated using pymatgen
data_Cs2SbCl6
_symmetry_space_group_name_H-M   'P 1'
_cell_length_a   10.74338508
_cell_length_b   10.74338510
_cell_length_c   13.21463427
_cell_angle_alpha   113.98488985
_cell_angle_beta   113.98488989
_cell_angle_gamma   90.00000145
_symmetry_Int_Tables_number   1
_chemical_formula_structural   Cs2SbCl6
_chemical_formula_sum   'Cs8 Sb4 Cl24'
_cell_volume   1248.01559743
_cell_formula_units_Z   4
loop_
 _symmetry_equiv_pos_site_id
 _symmetry_equiv_pos_as_xyz
  1  'x, y, z'
loop_
 _atom_site_type_symbol
 _atom_site_label
 _atom_site_symmetry_multiplicity
 _atom_site_fract_x
 _atom_site_fract_y
 _atom_site_fract_z
 _atom_site_occupancy
  Cs  Cs0  1  0.50000000  0.77536884  0.50000000  1
  Cs  Cs1  1  0.22463116  1.00000000  0.00000000  1
  Cs  Cs2  1  0.00000000  0.22463116  0.50000000  1
  Cs  Cs3  1  0.77536884  0.50000000  1.00000000  1
  Cs  Cs4  1  0.50000000  0.22463116  0.50000000  1
  Cs  Cs5  1  0.77536884  0.00000000  1.00000000  1
  Cs  Cs6  1  0.22463116  0.50000000  0.00000000  1
  Cs  Cs7  1  0.00000000  0.77536884  0.50000000  1
  Sb  Sb8  1  0.62500000  0.37500000  0.25000000  1
  Sb  Sb9  1  0.37500000  0.62500000  0.75000000  1
  Sb  Sb10  1  0.12500000  0.87500000  0.25000000  1
  Sb  Sb11  1  0.87500000  0.12500000  0.75000000  1
  Cl  Cl12  1  0.99779889  0.24779889  0.99559779  1
  Cl  Cl13  1  0.62407810  0.60158426  0.24815621  1
  Cl  Cl14  1  0.24779889  0.99779889  0.49559779  1
  Cl  Cl15  1  0.13000072  0.12711349  0.26000144  1
  Cl  Cl16  1  0.75220111  0.00220111  0.50440221  1
  Cl  Cl17  1  0.85342805  0.37592190  0.25184379  1
  Cl  Cl18  1  0.37592190  0.39841574  0.75184379  1
  Cl  Cl19  1  0.14657195  0.62407810  0.74815621  1
  Cl  Cl20  1  0.60158426  0.62407810  0.74815621  1
  Cl  Cl21  1  0.13000072  0.63288795  0.26000144  1
  Cl  Cl22  1  0.63288795  0.13000072  0.76000144  1
  Cl  Cl23  1  0.39841574  0.37592190  0.25184379  1
  Cl  Cl24  1  0.51213903  0.26213903  0.02427806  1
  Cl  Cl25  1  0.37592190  0.85342805  0.75184379  1
  Cl  Cl26  1  0.86999928  0.36711205  0.73999856  1
  Cl  Cl27  1  0.87288651  0.86999928  0.23999856  1
  Cl  Cl28  1  0.86999928  0.87288651  0.73999856  1
  Cl  Cl29  1  0.00220111  0.75220111  0.00440221  1
  Cl  Cl30  1  0.26213903  0.51213903  0.52427806  1
  Cl  Cl31  1  0.48786097  0.73786097  0.97572194  1
  Cl  Cl32  1  0.36711205  0.86999928  0.23999856  1
  Cl  Cl33  1  0.62407810  0.14657195  0.24815621  1
  Cl  Cl34  1  0.12711349  0.13000072  0.76000144  1
  Cl  Cl35  1  0.73786097  0.48786097  0.47572194  1
