# generated using pymatgen
data_CeCu6
_symmetry_space_group_name_H-M   'P 1'
_cell_length_a   5.02701110
_cell_length_b   8.06466105
_cell_length_c   10.10434051
_cell_angle_alpha   90.00000000
_cell_angle_beta   90.00000000
_cell_angle_gamma   90.98582418
_symmetry_Int_Tables_number   1
_chemical_formula_structural   CeCu6
_chemical_formula_sum   'Ce4 Cu24'
_cell_volume   409.58085482
_cell_formula_units_Z   4
loop_
 _symmetry_equiv_pos_site_id
 _symmetry_equiv_pos_as_xyz
  1  'x, y, z'
loop_
 _atom_site_type_symbol
 _atom_site_label
 _atom_site_symmetry_multiplicity
 _atom_site_fract_x
 _atom_site_fract_y
 _atom_site_fract_z
 _atom_site_occupancy
  Ce  Ce0  1  0.25676218  0.25932475  0.43525005  1
  Ce  Ce1  1  0.25676218  0.75932475  0.06474995  1
  Ce  Ce2  1  0.74323782  0.24067525  0.93525005  1
  Ce  Ce3  1  0.74323782  0.74067525  0.56474995  1
  Cu  Cu4  1  0.24800421  0.14642752  0.14348366  1
  Cu  Cu5  1  0.75199579  0.35357248  0.64348366  1
  Cu  Cu6  1  0.76747699  0.43849718  0.40564101  1
  Cu  Cu7  1  0.24900515  0.31731136  0.74370320  1
  Cu  Cu8  1  0.50325303  0.56575117  0.80673208  1
  Cu  Cu9  1  0.74981750  0.10035935  0.48419411  1
  Cu  Cu10  1  0.25018250  0.89964065  0.51580589  1
  Cu  Cu11  1  0.49674697  0.93424883  0.30673208  1
  Cu  Cu12  1  0.50325303  0.06575117  0.69326792  1
  Cu  Cu13  1  0.25018250  0.39964065  0.98419411  1
  Cu  Cu14  1  0.99284411  0.56278093  0.80977703  1
  Cu  Cu15  1  0.75199579  0.85357248  0.85651634  1
  Cu  Cu16  1  0.76747699  0.93849718  0.09435899  1
  Cu  Cu17  1  0.23252301  0.06150282  0.90564101  1
  Cu  Cu18  1  0.24800421  0.64642752  0.35651634  1
  Cu  Cu19  1  0.74981750  0.60035935  0.01580589  1
  Cu  Cu20  1  0.75099485  0.68268864  0.25629680  1
  Cu  Cu21  1  0.49674697  0.43424883  0.19326792  1
  Cu  Cu22  1  0.00715589  0.43721907  0.19022297  1
  Cu  Cu23  1  0.24900515  0.81731136  0.75629680  1
  Cu  Cu24  1  0.23252301  0.56150282  0.59435899  1
  Cu  Cu25  1  0.99284411  0.06278093  0.69022297  1
  Cu  Cu26  1  0.00715589  0.93721907  0.30977703  1
  Cu  Cu27  1  0.75099485  0.18268864  0.24370320  1
