# generated using pymatgen
data_CaTiSiO5
_symmetry_space_group_name_H-M   'P 1'
_cell_length_a   5.50872165
_cell_length_b   5.50872165
_cell_length_c   7.13048826
_cell_angle_alpha   104.27921658
_cell_angle_beta   104.27921650
_cell_angle_gamma   105.56593190
_symmetry_Int_Tables_number   1
_chemical_formula_structural   CaTiSiO5
_chemical_formula_sum   'Ca2 Ti2 Si2 O10'
_cell_volume   190.32631079
_cell_formula_units_Z   2
loop_
 _symmetry_equiv_pos_site_id
 _symmetry_equiv_pos_as_xyz
  1  'x, y, z'
loop_
 _atom_site_type_symbol
 _atom_site_label
 _atom_site_symmetry_multiplicity
 _atom_site_fract_x
 _atom_site_fract_y
 _atom_site_fract_z
 _atom_site_occupancy
  O  O0  1  0.18739547  0.61445238  0.38437985  1
  O  O1  1  0.38554762  0.81260453  0.11562015  1
  O  O2  1  0.81260453  0.38554762  0.61562015  1
  O  O3  1  0.61445238  0.18739547  0.88437985  1
  O  O4  1  0.87723820  0.75067301  0.09220313  1
  O  O5  1  0.24932699  0.12276180  0.40779687  1
  O  O6  1  0.43111287  0.56888713  0.75000000  1
  O  O7  1  0.56888713  0.43111287  0.25000000  1
  O  O8  1  0.75067301  0.87723820  0.59220313  1
  O  O9  1  0.12276180  0.24932699  0.90779687  1
  Si  Si10  1  0.18025793  0.81974207  0.25000000  1
  Si  Si11  1  0.81974207  0.18025793  0.75000000  1
  Ca  Ca12  1  0.17173430  0.82826570  0.75000000  1
  Ca  Ca13  1  0.82826570  0.17173430  0.25000000  1
  Ti  Ti14  1  0.50000000  0.50000000  0.50000000  1
  Ti  Ti15  1  0.50000000  0.50000000  0.00000000  1
