# generated using pymatgen
data_Ba8Nb6CoO24
_symmetry_space_group_name_H-M   'P 1'
_cell_length_a   5.87546328
_cell_length_b   5.87546338
_cell_length_c   19.20686328
_cell_angle_alpha   90.00000000
_cell_angle_beta   90.00000000
_cell_angle_gamma   119.99999941
_symmetry_Int_Tables_number   1
_chemical_formula_structural   Ba8Nb6CoO24
_chemical_formula_sum   'Ba8 Nb6 Co1 O24'
_cell_volume   574.21075120
_cell_formula_units_Z   1
loop_
 _symmetry_equiv_pos_site_id
 _symmetry_equiv_pos_as_xyz
  1  'x, y, z'
loop_
 _atom_site_type_symbol
 _atom_site_label
 _atom_site_symmetry_multiplicity
 _atom_site_fract_x
 _atom_site_fract_y
 _atom_site_fract_z
 _atom_site_occupancy
  Ba  Ba0  1  0.66666700  0.33333300  0.31731928  1
  Ba  Ba1  1  0.66666700  0.33333300  0.93839833  1
  Ba  Ba2  1  0.33333300  0.66666700  0.06160167  1
  Ba  Ba3  1  0.33333300  0.66666700  0.68268072  1
  Ba  Ba4  1  0.33333300  0.66666700  0.45582020  1
  Ba  Ba5  1  0.66666700  0.33333300  0.54417980  1
  Ba  Ba6  1  0.00000000  0.00000000  0.81407014  1
  Ba  Ba7  1  0.00000000  0.00000000  0.18592986  1
  Nb  Nb8  1  0.00000000  0.00000000  0.38520451  1
  Nb  Nb9  1  0.66666700  0.33333300  0.74692160  1
  Nb  Nb10  1  0.00000000  0.00000000  0.61479549  1
  Nb  Nb11  1  0.33333300  0.66666700  0.87918960  1
  Nb  Nb12  1  0.33333300  0.66666700  0.25307840  1
  Nb  Nb13  1  0.66666700  0.33333300  0.12081040  1
  Co  Co14  1  0.00000000  0.00000000  0.00000000  1
  O  O15  1  0.16883867  0.83116133  0.30707595  1
  O  O16  1  0.33767734  0.16883867  0.69292405  1
  O  O17  1  0.16404313  0.83595687  0.57053518  1
  O  O18  1  0.83595687  0.16404313  0.42946482  1
  O  O19  1  0.49888980  0.50111020  0.18674534  1
  O  O20  1  0.50111020  0.49888980  0.81325466  1
  O  O21  1  0.50111020  0.00222041  0.81325466  1
  O  O22  1  0.99777959  0.49888980  0.81325466  1
  O  O23  1  0.00222041  0.50111020  0.18674534  1
  O  O24  1  0.49888980  0.99777959  0.18674534  1
  O  O25  1  0.17201480  0.82798520  0.93486648  1
  O  O26  1  0.32808626  0.16404313  0.42946482  1
  O  O27  1  0.67191374  0.83595687  0.57053518  1
  O  O28  1  0.16883867  0.33767734  0.30707595  1
  O  O29  1  0.83595687  0.67191374  0.42946482  1
  O  O30  1  0.82798520  0.65597040  0.06513352  1
  O  O31  1  0.83116133  0.66232266  0.69292405  1
  O  O32  1  0.66232266  0.83116133  0.30707595  1
  O  O33  1  0.34402960  0.17201480  0.06513352  1
  O  O34  1  0.82798520  0.17201480  0.06513352  1
  O  O35  1  0.16404313  0.32808626  0.57053518  1
  O  O36  1  0.17201480  0.34402960  0.93486648  1
  O  O37  1  0.65597040  0.82798520  0.93486648  1
  O  O38  1  0.83116133  0.16883867  0.69292405  1
