# generated using pymatgen
data_KLiSO4
_symmetry_space_group_name_H-M   'P 1'
_cell_length_a   5.19846154
_cell_length_b   5.22727597
_cell_length_c   8.80271443
_cell_angle_alpha   89.83648153
_cell_angle_beta   89.67114909
_cell_angle_gamma   60.18217919
_symmetry_Int_Tables_number   1
_chemical_formula_structural   KLiSO4
_chemical_formula_sum   'K2 Li2 S2 O8'
_cell_volume   207.53181871
_cell_formula_units_Z   2
loop_
 _symmetry_equiv_pos_site_id
 _symmetry_equiv_pos_as_xyz
  1  'x, y, z'
loop_
 _atom_site_type_symbol
 _atom_site_label
 _atom_site_symmetry_multiplicity
 _atom_site_fract_x
 _atom_site_fract_y
 _atom_site_fract_z
 _atom_site_occupancy
  Li  Li0  1  0.63468316  0.66053067  0.30805673  1
  Li  Li1  1  0.29521383  0.33946933  0.80805673  1
  O  O2  1  0.02207068  0.33356341  0.24359770  1
  O  O3  1  0.35563409  0.66643659  0.74359770  1
  O  O4  1  0.56334679  0.05253399  0.25081473  1
  O  O5  1  0.61588079  0.94746601  0.75081473  1
  O  O6  1  0.65757983  0.65471013  0.52892619  1
  O  O7  1  0.31228996  0.34528987  0.02892619  1
  O  O8  1  0.89552610  0.40952877  0.76385914  1
  O  O9  1  0.30505487  0.59047123  0.26385914  1
  S  S10  1  0.30043873  0.33047501  0.19781217  1
  S  S11  1  0.63091374  0.66952499  0.69781217  1
  K  K12  1  0.96127032  0.00282681  0.49393334  1
  K  K13  1  0.96409713  0.99717319  0.99393334  1
