# generated using pymatgen
data_Sm(HO)3
_symmetry_space_group_name_H-M   'P 1'
_cell_length_a   6.38658443
_cell_length_b   6.38657220
_cell_length_c   3.69143727
_cell_angle_alpha   90.00000000
_cell_angle_beta   90.00000000
_cell_angle_gamma   119.99995463
_symmetry_Int_Tables_number   1
_chemical_formula_structural   Sm(HO)3
_chemical_formula_sum   'Sm2 H6 O6'
_cell_volume   130.39556104
_cell_formula_units_Z   2
loop_
 _symmetry_equiv_pos_site_id
 _symmetry_equiv_pos_as_xyz
  1  'x, y, z'
loop_
 _atom_site_type_symbol
 _atom_site_label
 _atom_site_symmetry_multiplicity
 _atom_site_fract_x
 _atom_site_fract_y
 _atom_site_fract_z
 _atom_site_occupancy
  Sm  Sm0  1  0.33333513  0.66666781  0.25000000  1
  Sm  Sm1  1  0.66666487  0.33333219  0.75000000  1
  H  H2  1  0.86073259  0.72483745  0.25000000  1
  H  H3  1  0.86410711  0.13926867  0.25000000  1
  H  H4  1  0.27515994  0.13589210  0.25000000  1
  H  H5  1  0.13926741  0.27516255  0.75000000  1
  H  H6  1  0.13589289  0.86073133  0.75000000  1
  H  H7  1  0.72484006  0.86410790  0.75000000  1
  O  O8  1  0.91698891  0.60781210  0.25000000  1
  O  O9  1  0.69081974  0.08301052  0.25000000  1
  O  O10  1  0.39218958  0.30918080  0.25000000  1
  O  O11  1  0.08301109  0.39218790  0.75000000  1
  O  O12  1  0.30918026  0.91698948  0.75000000  1
  O  O13  1  0.60781042  0.69081920  0.75000000  1
