# generated using pymatgen
data_In(HO)3
_symmetry_space_group_name_H-M   'P 1'
_cell_length_a   7.00957509
_cell_length_b   7.00957509
_cell_length_c   7.00957509
_cell_angle_alpha   109.53919206
_cell_angle_beta   109.53919206
_cell_angle_gamma   109.53919206
_symmetry_Int_Tables_number   1
_chemical_formula_structural   In(HO)3
_chemical_formula_sum   'In4 H12 O12'
_cell_volume   264.45721425
_cell_formula_units_Z   4
loop_
 _symmetry_equiv_pos_site_id
 _symmetry_equiv_pos_as_xyz
  1  'x, y, z'
loop_
 _atom_site_type_symbol
 _atom_site_label
 _atom_site_symmetry_multiplicity
 _atom_site_fract_x
 _atom_site_fract_y
 _atom_site_fract_z
 _atom_site_occupancy
  In  In0  1  0.50000000  0.00000000  0.00000000  1
  In  In1  1  0.00000000  0.00000000  0.50000000  1
  In  In2  1  0.00000000  0.50000000  0.00000000  1
  In  In3  1  0.50000000  0.50000000  0.50000000  1
  H  H4  1  0.44560895  0.27150628  0.82610362  1
  H  H5  1  0.55439105  0.72849372  0.17389638  1
  H  H6  1  0.31684918  0.36302032  0.04643315  1
  H  H7  1  0.68315082  0.63697968  0.95356685  1
  H  H8  1  0.82610362  0.44560895  0.27150628  1
  H  H9  1  0.17389638  0.55439105  0.72849372  1
  H  H10  1  0.04643315  0.31684918  0.36302032  1
  H  H11  1  0.95356685  0.68315082  0.63697968  1
  H  H12  1  0.27150628  0.82610362  0.44560895  1
  H  H13  1  0.72849372  0.17389638  0.55439105  1
  H  H14  1  0.36302032  0.04643315  0.31684918  1
  H  H15  1  0.63697968  0.95356685  0.68315082  1
  O  O16  1  0.32219144  0.15567183  0.83125393  1
  O  O17  1  0.67780856  0.84432817  0.16874607  1
  O  O18  1  0.32201821  0.49221299  0.16925549  1
  O  O19  1  0.67798179  0.50778701  0.83074451  1
  O  O20  1  0.83125393  0.32219144  0.15567183  1
  O  O21  1  0.16874607  0.67780856  0.84432817  1
  O  O22  1  0.16925549  0.32201821  0.49221299  1
  O  O23  1  0.83074451  0.67798179  0.50778701  1
  O  O24  1  0.15567183  0.83125393  0.32219144  1
  O  O25  1  0.84432817  0.16874607  0.67780856  1
  O  O26  1  0.49221299  0.16925549  0.32201821  1
  O  O27  1  0.50778701  0.83074451  0.67798179  1
