# generated using pymatgen
data_K3ZnH5
_symmetry_space_group_name_H-M   'P 1'
_cell_length_a   7.75620704
_cell_length_b   7.75620704
_cell_length_c   7.75620704
_cell_angle_alpha   121.49664908
_cell_angle_beta   121.49664908
_cell_angle_gamma   87.42670373
_symmetry_Int_Tables_number   1
_chemical_formula_structural   K3ZnH5
_chemical_formula_sum   'K6 Zn2 H10'
_cell_volume   322.12173866
_cell_formula_units_Z   2
loop_
 _symmetry_equiv_pos_site_id
 _symmetry_equiv_pos_as_xyz
  1  'x, y, z'
loop_
 _atom_site_type_symbol
 _atom_site_label
 _atom_site_symmetry_multiplicity
 _atom_site_fract_x
 _atom_site_fract_y
 _atom_site_fract_z
 _atom_site_occupancy
  K  K0  1  0.18210177  0.68210177  0.86420355  1
  K  K1  1  0.81789823  0.31789823  0.13579645  1
  K  K2  1  0.68210177  0.81789823  0.50000000  1
  K  K3  1  0.31789823  0.18210177  0.50000000  1
  K  K4  1  0.25000000  0.25000000  0.00000000  1
  K  K5  1  0.75000000  0.75000000  0.00000000  1
  Zn  Zn6  1  0.25000000  0.75000000  0.50000000  1
  Zn  Zn7  1  0.75000000  0.25000000  0.50000000  1
  H  H8  1  0.46330372  0.96330372  0.74949946  1
  H  H9  1  0.21380427  0.71380427  0.25050054  1
  H  H10  1  0.96330372  0.21380427  0.50000000  1
  H  H11  1  0.71380427  0.46330372  0.50000000  1
  H  H12  1  0.53669628  0.03669628  0.25050054  1
  H  H13  1  0.78619573  0.28619573  0.74949946  1
  H  H14  1  0.03669628  0.78619573  0.50000000  1
  H  H15  1  0.28619573  0.53669628  0.50000000  1
  H  H16  1  0.50000000  0.50000000  0.00000000  1
  H  H17  1  0.00000000  0.00000000  0.00000000  1
