# generated using pymatgen
data_Fe3Co5O16
_symmetry_space_group_name_H-M   'P 1'
_cell_length_a   5.24069306
_cell_length_b   2.86798571
_cell_length_c   19.15952095
_cell_angle_alpha   90.00000379
_cell_angle_beta   84.92028743
_cell_angle_gamma   90.00000573
_symmetry_Int_Tables_number   1
_chemical_formula_structural   Fe3Co5O16
_chemical_formula_sum   'Fe3 Co5 O16'
_cell_volume   286.84104392
_cell_formula_units_Z   1
loop_
 _symmetry_equiv_pos_site_id
 _symmetry_equiv_pos_as_xyz
  1  'x, y, z'
loop_
 _atom_site_type_symbol
 _atom_site_label
 _atom_site_symmetry_multiplicity
 _atom_site_fract_x
 _atom_site_fract_y
 _atom_site_fract_z
 _atom_site_occupancy
  Fe  Fe0  1  0.89214857  0.00000000  0.37966126  1
  Fe  Fe1  1  0.75000000  0.50000000  0.25000000  1
  Fe  Fe2  1  0.60785143  1.00000000  0.12033874  1
  Co  Co3  1  0.37432492  1.00000000  0.87242523  1
  Co  Co4  1  0.25000000  0.50000000  0.75000000  1
  Co  Co5  1  0.12567508  0.00000000  0.62757477  1
  Co  Co6  1  0.01166361  0.50000000  0.50539320  1
  Co  Co7  1  0.48833639  0.50000000  0.99460680  1
  O  O8  1  0.62697533  1.00000000  0.93785257  1
  O  O9  1  0.24176846  0.50000000  0.92956174  1
  O  O10  1  0.12010092  0.00000000  0.80759162  1
  O  O11  1  0.50416870  0.50000000  0.81495649  1
  O  O12  1  0.37989908  1.00000000  0.69240838  1
  O  O13  1  0.99583130  0.50000000  0.68504351  1
  O  O14  1  0.87302467  0.00000000  0.56214743  1
  O  O15  1  0.25823154  0.50000000  0.57043826  1
  O  O16  1  0.15322454  1.00000000  0.45157198  1
  O  O17  1  0.75275620  0.50000000  0.43912562  1
  O  O18  1  0.60610452  0.00000000  0.30669099  1
  O  O19  1  0.02841285  0.50000000  0.32225751  1
  O  O20  1  0.89389548  1.00000000  0.19330901  1
  O  O21  1  0.47158715  0.50000000  0.17774249  1
  O  O22  1  0.34677546  0.00000000  0.04842802  1
  O  O23  1  0.74724380  0.50000000  0.06087438  1
