# generated using pymatgen
data_Nb5P3
_symmetry_space_group_name_H-M   'P 1'
_cell_length_a   3.45232352
_cell_length_b   11.56340422
_cell_length_c   25.59404869
_cell_angle_alpha   90.00000000
_cell_angle_beta   90.00000000
_cell_angle_gamma   90.00000000
_symmetry_Int_Tables_number   1
_chemical_formula_structural   Nb5P3
_chemical_formula_sum   'Nb40 P24'
_cell_volume   1021.73009648
_cell_formula_units_Z   8
loop_
 _symmetry_equiv_pos_site_id
 _symmetry_equiv_pos_as_xyz
  1  'x, y, z'
loop_
 _atom_site_type_symbol
 _atom_site_label
 _atom_site_symmetry_multiplicity
 _atom_site_fract_x
 _atom_site_fract_y
 _atom_site_fract_z
 _atom_site_occupancy
  Nb  Nb0  1  0.25000000  0.93157008  0.60134306  1
  Nb  Nb1  1  0.25000000  0.34480165  0.26003295  1
  Nb  Nb2  1  0.75000000  0.43157008  0.89865694  1
  Nb  Nb3  1  0.25000000  0.21116890  0.62430868  1
  Nb  Nb4  1  0.75000000  0.06842992  0.39865694  1
  Nb  Nb5  1  0.25000000  0.56842992  0.10134306  1
  Nb  Nb6  1  0.75000000  0.60833116  0.00075007  1
  Nb  Nb7  1  0.75000000  0.37954041  0.77419023  1
  Nb  Nb8  1  0.25000000  0.15519835  0.76003295  1
  Nb  Nb9  1  0.25000000  0.10833116  0.49924993  1
  Nb  Nb10  1  0.75000000  0.05719144  0.15175554  1
  Nb  Nb11  1  0.75000000  0.45916054  0.17710770  1
  Nb  Nb12  1  0.75000000  0.19417357  0.04542851  1
  Nb  Nb13  1  0.25000000  0.94280856  0.84824446  1
  Nb  Nb14  1  0.25000000  0.41572590  0.46417544  1
  Nb  Nb15  1  0.25000000  0.80582643  0.95457149  1
  Nb  Nb16  1  0.75000000  0.34360359  0.36262017  1
  Nb  Nb17  1  0.75000000  0.89166884  0.50075007  1
  Nb  Nb18  1  0.25000000  0.65639641  0.63737983  1
  Nb  Nb19  1  0.75000000  0.04083946  0.67710770  1
  Nb  Nb20  1  0.75000000  0.44280856  0.65175554  1
  Nb  Nb21  1  0.25000000  0.08427410  0.96417544  1
  Nb  Nb22  1  0.75000000  0.58427410  0.53582456  1
  Nb  Nb23  1  0.25000000  0.39166884  0.99924993  1
  Nb  Nb24  1  0.75000000  0.15639641  0.86262017  1
  Nb  Nb25  1  0.25000000  0.62045959  0.22580977  1
  Nb  Nb26  1  0.75000000  0.78883110  0.37569132  1
  Nb  Nb27  1  0.25000000  0.54083946  0.82289230  1
  Nb  Nb28  1  0.75000000  0.84480165  0.23996705  1
  Nb  Nb29  1  0.75000000  0.65519835  0.73996705  1
  Nb  Nb30  1  0.25000000  0.84360359  0.13737983  1
  Nb  Nb31  1  0.25000000  0.28883110  0.12430868  1
  Nb  Nb32  1  0.75000000  0.71116890  0.87569132  1
  Nb  Nb33  1  0.75000000  0.30582643  0.54542851  1
  Nb  Nb34  1  0.25000000  0.87954041  0.72580977  1
  Nb  Nb35  1  0.25000000  0.95916054  0.32289230  1
  Nb  Nb36  1  0.25000000  0.69417357  0.45457149  1
  Nb  Nb37  1  0.75000000  0.12045959  0.27419023  1
  Nb  Nb38  1  0.25000000  0.55719144  0.34824446  1
  Nb  Nb39  1  0.75000000  0.91572590  0.03582456  1
  P  P40  1  0.75000000  0.25066054  0.95097526  1
  P  P41  1  0.75000000  0.50035943  0.28024497  1
  P  P42  1  0.75000000  0.41911748  0.07280537  1
  P  P43  1  0.25000000  0.74640912  0.30288954  1
  P  P44  1  0.25000000  0.05240789  0.07704520  1
  P  P45  1  0.25000000  0.00035943  0.21975503  1
  P  P46  1  0.75000000  0.25359088  0.69711046  1
  P  P47  1  0.75000000  0.24640912  0.19711046  1
  P  P48  1  0.25000000  0.75066054  0.54902474  1
  P  P49  1  0.75000000  0.94759211  0.92295480  1
  P  P50  1  0.25000000  0.75359088  0.80288954  1
  P  P51  1  0.75000000  0.68842509  0.15826457  1
  P  P52  1  0.25000000  0.58088252  0.92719463  1
  P  P53  1  0.75000000  0.24933946  0.45097526  1
  P  P54  1  0.25000000  0.91911748  0.42719463  1
  P  P55  1  0.25000000  0.44759211  0.57704520  1
  P  P56  1  0.75000000  0.81157491  0.65826457  1
  P  P57  1  0.25000000  0.18842509  0.34173543  1
  P  P58  1  0.75000000  0.08088252  0.57280537  1
  P  P59  1  0.25000000  0.49964057  0.71975503  1
  P  P60  1  0.75000000  0.99964057  0.78024497  1
  P  P61  1  0.25000000  0.31157491  0.84173543  1
  P  P62  1  0.75000000  0.55240789  0.42295480  1
  P  P63  1  0.25000000  0.74933946  0.04902474  1
