# generated using pymatgen
data_PBr2N
_symmetry_space_group_name_H-M   'P 1'
_cell_length_a   9.66744167
_cell_length_b   10.58713057
_cell_length_c   12.27776670
_cell_angle_alpha   101.14687623
_cell_angle_beta   112.22213817
_cell_angle_gamma   93.39530664
_symmetry_Int_Tables_number   1
_chemical_formula_structural   PBr2N
_chemical_formula_sum   'P10 Br20 N10'
_cell_volume   1129.17144627
_cell_formula_units_Z   10
loop_
 _symmetry_equiv_pos_site_id
 _symmetry_equiv_pos_as_xyz
  1  'x, y, z'
loop_
 _atom_site_type_symbol
 _atom_site_label
 _atom_site_symmetry_multiplicity
 _atom_site_fract_x
 _atom_site_fract_y
 _atom_site_fract_z
 _atom_site_occupancy
  P  P0  1  0.61462477  0.31296761  0.40343788  1
  P  P1  1  0.80522598  0.01087417  0.14500329  1
  P  P2  1  0.30764208  0.95621378  0.66299374  1
  P  P3  1  0.19477402  0.98912583  0.85499671  1
  P  P4  1  0.65169171  0.47558793  0.24819357  1
  P  P5  1  0.38537523  0.68703239  0.59656212  1
  P  P6  1  0.83256484  0.29481009  0.16948554  1
  P  P7  1  0.16743516  0.70518991  0.83051446  1
  P  P8  1  0.34830829  0.52441207  0.75180643  1
  P  P9  1  0.69235792  0.04378622  0.33700626  1
  Br  Br10  1  0.99336208  0.66643850  0.64128711  1
  Br  Br11  1  0.03943668  0.62053175  0.92333475  1
  Br  Br12  1  0.97306198  0.04593752  0.84398366  1
  Br  Br13  1  0.57242698  0.48156316  0.86367479  1
  Br  Br14  1  0.62970690  0.72430193  0.63754865  1
  Br  Br15  1  0.79754421  0.66489463  0.30209468  1
  Br  Br16  1  0.47264745  0.91309665  0.25880924  1
  Br  Br17  1  0.72070910  0.35178191  0.60271792  1
  Br  Br18  1  0.19840604  0.99013734  0.48025099  1
  Br  Br19  1  0.20245579  0.33510537  0.69790532  1
  Br  Br20  1  0.27929090  0.64821809  0.39728208  1
  Br  Br21  1  0.02693802  0.95406248  0.15601634  1
  Br  Br22  1  0.37029310  0.27569807  0.36245135  1
  Br  Br23  1  0.35645771  0.13943719  0.00833061  1
  Br  Br24  1  0.80159396  0.00986266  0.51974901  1
  Br  Br25  1  0.64354229  0.86056281  0.99166939  1
  Br  Br26  1  0.00663792  0.33356150  0.35871289  1
  Br  Br27  1  0.96056332  0.37946825  0.07666525  1
  Br  Br28  1  0.42757302  0.51843684  0.13632521  1
  Br  Br29  1  0.52735255  0.08690335  0.74119076  1
  N  N30  1  0.78550163  0.14483344  0.10606962  1
  N  N31  1  0.65106253  0.44487530  0.36975294  1
  N  N32  1  0.21449837  0.85516656  0.89393038  1
  N  N33  1  0.79461486  0.99359051  0.26707467  1
  N  N34  1  0.30664816  0.62905803  0.84129222  1
  N  N35  1  0.34893747  0.55512470  0.63024706  1
  N  N36  1  0.20538514  0.00640949  0.73292533  1
  N  N37  1  0.33329145  0.80974607  0.65796838  1
  N  N38  1  0.66670855  0.19025393  0.34203162  1
  N  N39  1  0.69335184  0.37094197  0.15870778  1
