# generated using pymatgen
data_Cs2Tb6Te7N2
_symmetry_space_group_name_H-M   'P 1'
_cell_length_a   4.22321453
_cell_length_b   11.53593210
_cell_length_c   12.32819714
_cell_angle_alpha   103.47182670
_cell_angle_beta   99.91945198
_cell_angle_gamma   90.14883755
_symmetry_Int_Tables_number   1
_chemical_formula_structural   Cs2Tb6Te7N2
_chemical_formula_sum   'Cs2 Tb6 Te7 N2'
_cell_volume   574.78355407
_cell_formula_units_Z   1
loop_
 _symmetry_equiv_pos_site_id
 _symmetry_equiv_pos_as_xyz
  1  'x, y, z'
loop_
 _atom_site_type_symbol
 _atom_site_label
 _atom_site_symmetry_multiplicity
 _atom_site_fract_x
 _atom_site_fract_y
 _atom_site_fract_z
 _atom_site_occupancy
  Tb  Tb0  1  0.17228081  0.38889744  0.32968525  1
  Tb  Tb1  1  0.83391874  0.61104688  0.67044248  1
  Tb  Tb2  1  0.59183322  0.13594462  0.18292542  1
  Tb  Tb3  1  0.41054966  0.86197800  0.81799629  1
  Tb  Tb4  1  0.78540112  0.87001171  0.57041386  1
  Tb  Tb5  1  0.21525480  0.13156115  0.43152106  1
  Cs  Cs6  1  0.06705119  0.69950104  0.13502949  1
  Cs  Cs7  1  0.93874192  0.30399812  0.87106785  1
  Te  Te8  1  0.66681982  0.94323510  0.32888101  1
  Te  Te9  1  0.34000888  0.05752529  0.67195158  1
  Te  Te10  1  0.00118472  0.99692906  0.00148519  1
  Te  Te11  1  0.76549585  0.33894392  0.52033123  1
  Te  Te12  1  0.58348071  0.40313511  0.15139081  1
  Te  Te13  1  0.42675778  0.59578503  0.84878537  1
  Te  Te14  1  0.23897519  0.66124236  0.48273584  1
  N  N15  1  0.14087890  0.19482216  0.27561572  1
  N  N16  1  0.86009969  0.80541801  0.72543656  1
