# generated using pymatgen
data_Na3Sr4Al5F26
_symmetry_space_group_name_H-M   'P 1'
_cell_length_a   10.39771222
_cell_length_b   10.39771222
_cell_length_c   18.60185603
_cell_angle_alpha   90.00000000
_cell_angle_beta   90.00000000
_cell_angle_gamma   90.00000000
_symmetry_Int_Tables_number   1
_chemical_formula_structural   Na3Sr4Al5F26
_chemical_formula_sum   'Na12 Sr16 Al20 F104'
_cell_volume   2011.09166092
_cell_formula_units_Z   4
loop_
 _symmetry_equiv_pos_site_id
 _symmetry_equiv_pos_as_xyz
  1  'x, y, z'
loop_
 _atom_site_type_symbol
 _atom_site_label
 _atom_site_symmetry_multiplicity
 _atom_site_fract_x
 _atom_site_fract_y
 _atom_site_fract_z
 _atom_site_occupancy
  Na  Na0  1  0.75000000  0.25000000  0.49597941  1
  Na  Na1  1  0.75000000  0.25000000  0.99597941  1
  Na  Na2  1  0.50000000  0.50000000  0.50000000  1
  Na  Na3  1  0.00000000  0.50000000  0.00000000  1
  Na  Na4  1  0.25000000  0.25000000  0.50220131  1
  Na  Na5  1  0.25000000  0.75000000  0.50402059  1
  Na  Na6  1  0.75000000  0.75000000  0.49779869  1
  Na  Na7  1  0.50000000  0.00000000  0.00000000  1
  Na  Na8  1  0.00000000  0.00000000  0.50000000  1
  Na  Na9  1  0.25000000  0.25000000  0.99779869  1
  Na  Na10  1  0.25000000  0.75000000  0.00402059  1
  Na  Na11  1  0.75000000  0.75000000  0.00220131  1
  Sr  Sr12  1  0.28743738  0.99714396  0.19450285  1
  Sr  Sr13  1  0.50285604  0.28743738  0.30549715  1
  Sr  Sr14  1  0.78743738  0.49714396  0.80549715  1
  Sr  Sr15  1  0.78204727  0.49732829  0.17445838  1
  Sr  Sr16  1  0.28204727  0.99732829  0.82554162  1
  Sr  Sr17  1  0.49714396  0.71256262  0.69450285  1
  Sr  Sr18  1  0.49732829  0.71795273  0.32554162  1
  Sr  Sr19  1  0.71256262  0.00285604  0.80549715  1
  Sr  Sr20  1  0.71795273  0.00267171  0.17445838  1
  Sr  Sr21  1  0.99714396  0.21256262  0.30549715  1
  Sr  Sr22  1  0.00267171  0.78204727  0.32554162  1
  Sr  Sr23  1  0.00285604  0.78743738  0.69450285  1
  Sr  Sr24  1  0.50267171  0.28204727  0.67445838  1
  Sr  Sr25  1  0.21256262  0.50285604  0.19450285  1
  Sr  Sr26  1  0.99732829  0.21795273  0.67445838  1
  Sr  Sr27  1  0.21795273  0.50267171  0.82554162  1
  Al  Al28  1  0.01498876  0.25591765  0.12762955  1
  Al  Al29  1  0.01030329  0.74719358  0.13420483  1
  Al  Al30  1  0.98969671  0.25280642  0.86579517  1
  Al  Al31  1  0.48969671  0.75280642  0.13420483  1
  Al  Al32  1  0.25280642  0.51030329  0.63420483  1
  Al  Al33  1  0.50000000  0.50000000  0.00000000  1
  Al  Al34  1  0.48501124  0.24408235  0.12762955  1
  Al  Al35  1  0.24719358  0.98969671  0.63420483  1
  Al  Al36  1  0.24408235  0.01498876  0.37237045  1
  Al  Al37  1  0.00000000  0.00000000  0.00000000  1
  Al  Al38  1  0.75591765  0.98501124  0.62762955  1
  Al  Al39  1  0.51030329  0.24719358  0.86579517  1
  Al  Al40  1  0.98501124  0.74408235  0.87237045  1
  Al  Al41  1  0.00000000  0.50000000  0.50000000  1
  Al  Al42  1  0.50000000  0.00000000  0.50000000  1
  Al  Al43  1  0.74408235  0.51498876  0.62762955  1
  Al  Al44  1  0.51498876  0.75591765  0.87237045  1
  Al  Al45  1  0.75280642  0.01030329  0.36579517  1
  Al  Al46  1  0.74719358  0.48969671  0.36579517  1
  Al  Al47  1  0.25591765  0.48501124  0.37237045  1
  F  F48  1  0.34379534  0.39617122  0.57821506  1
  F  F49  1  0.04721359  0.87371490  0.06612315  1
  F  F50  1  0.34070144  0.50425888  0.96325796  1
  F  F51  1  0.12275050  0.99717714  0.30242462  1
  F  F52  1  0.45038145  0.36858237  0.06036219  1
  F  F53  1  0.84091594  0.10526051  0.57402979  1
  F  F54  1  0.60382878  0.84379534  0.07821506  1
  F  F55  1  0.38650894  0.66686913  0.82779632  1
  F  F56  1  0.62628510  0.04721359  0.43387685  1
  F  F57  1  0.50425888  0.15929856  0.53674204  1
  F  F58  1  0.66686913  0.11349106  0.67220368  1
  F  F59  1  0.88650894  0.16686913  0.17220368  1
  F  F60  1  0.50282286  0.12275050  0.19757538  1
  F  F61  1  0.36050830  0.14309397  0.08759356  1
  F  F62  1  0.32498107  0.12784049  0.31240871  1
  F  F63  1  0.87280163  0.99042428  0.29443324  1
  F  F64  1  0.65908406  0.39473949  0.57402979  1
  F  F65  1  0.17649224  0.62418885  0.69501086  1
  F  F66  1  0.10526051  0.65908406  0.92597021  1
  F  F67  1  0.86858237  0.54961855  0.56036219  1
  F  F68  1  0.63748874  0.14783418  0.90604244  1
  F  F69  1  0.13141763  0.45038145  0.43963781  1
  F  F70  1  0.14783418  0.86251126  0.59395756  1
  F  F71  1  0.67501893  0.87215951  0.68759129  1
  F  F72  1  0.12719837  0.00957572  0.70556676  1
  F  F73  1  0.37371490  0.95278641  0.56612315  1
  F  F74  1  0.84070144  0.00425888  0.03674204  1
  F  F75  1  0.85216582  0.13748874  0.40604244  1
  F  F76  1  0.00957572  0.37280163  0.79443324  1
  F  F77  1  0.62719837  0.50957572  0.29443324  1
  F  F78  1  0.62275050  0.49717714  0.69757538  1
  F  F79  1  0.87371490  0.45278641  0.43387685  1
  F  F80  1  0.34091594  0.60526051  0.42597021  1
  F  F81  1  0.95038145  0.86858237  0.93963781  1
  F  F82  1  0.87724950  0.00282286  0.69757538  1
  F  F83  1  0.86251126  0.35216582  0.90604244  1
  F  F84  1  0.14309397  0.13949170  0.41240644  1
  F  F85  1  0.89617122  0.65620466  0.07821506  1
  F  F86  1  0.37215951  0.32498107  0.18759129  1
  F  F87  1  0.65620466  0.60382878  0.42178494  1
  F  F88  1  0.33668488  0.12044763  0.67141848  1
  F  F89  1  0.35690603  0.36050830  0.41240644  1
  F  F90  1  0.11349106  0.83313087  0.82779632  1
  F  F91  1  0.49042428  0.12719837  0.79443324  1
  F  F92  1  0.63949170  0.85690603  0.91240644  1
  F  F93  1  0.66331512  0.87955237  0.32858152  1
  F  F94  1  0.10382878  0.34379534  0.92178494  1
  F  F95  1  0.83668488  0.62044763  0.32858152  1
  F  F96  1  0.37724950  0.50282286  0.30242462  1
  F  F97  1  0.49717714  0.87724950  0.80242462  1
  F  F98  1  0.87581115  0.17649224  0.80498914  1
  F  F99  1  0.82498107  0.62784049  0.68759129  1
  F  F100  1  0.89473949  0.34091594  0.07402979  1
  F  F101  1  0.36858237  0.04961855  0.43963781  1
  F  F102  1  0.17501893  0.37215951  0.31240871  1
  F  F103  1  0.15929856  0.99574112  0.96325796  1
  F  F104  1  0.54721359  0.37371490  0.93387685  1
  F  F105  1  0.36251126  0.85216582  0.09395756  1
  F  F106  1  0.37280163  0.49042428  0.70556676  1
  F  F107  1  0.12044763  0.16331512  0.82858152  1
  F  F108  1  0.50957572  0.87280163  0.20556676  1
  F  F109  1  0.37955237  0.33668488  0.82858152  1
  F  F110  1  0.85690603  0.86050830  0.58759356  1
  F  F111  1  0.95278641  0.12628510  0.93387685  1
  F  F112  1  0.87215951  0.82498107  0.81240871  1
  F  F113  1  0.64309397  0.63949170  0.58759356  1
  F  F114  1  0.12628510  0.54721359  0.56612315  1
  F  F115  1  0.12418885  0.82350776  0.19501086  1
  F  F116  1  0.99042428  0.62719837  0.20556676  1
  F  F117  1  0.67649224  0.12418885  0.30498914  1
  F  F118  1  0.13949170  0.35690603  0.08759356  1
  F  F119  1  0.83313087  0.38650894  0.67220368  1
  F  F120  1  0.39617122  0.15620466  0.92178494  1
  F  F121  1  0.35216582  0.63748874  0.59395756  1
  F  F122  1  0.63141763  0.95038145  0.56036219  1
  F  F123  1  0.15620466  0.10382878  0.57821506  1
  F  F124  1  0.62784049  0.67501893  0.81240871  1
  F  F125  1  0.65929856  0.49574112  0.03674204  1
  F  F126  1  0.99574112  0.34070144  0.53674204  1
  F  F127  1  0.45278641  0.62628510  0.06612315  1
  F  F128  1  0.39473949  0.84091594  0.92597021  1
  F  F129  1  0.16686913  0.61349106  0.32779632  1
  F  F130  1  0.62044763  0.66331512  0.17141848  1
  F  F131  1  0.32350776  0.87581115  0.69501086  1
  F  F132  1  0.82350776  0.37581115  0.30498914  1
  F  F133  1  0.13748874  0.64783418  0.09395756  1
  F  F134  1  0.00425888  0.65929856  0.46325796  1
  F  F135  1  0.12784049  0.17501893  0.18759129  1
  F  F136  1  0.15908406  0.89473949  0.42597021  1
  F  F137  1  0.00282286  0.62275050  0.80242462  1
  F  F138  1  0.99717714  0.37724950  0.19757538  1
  F  F139  1  0.54961855  0.63141763  0.93963781  1
  F  F140  1  0.61349106  0.33313087  0.17220368  1
  F  F141  1  0.37581115  0.67649224  0.19501086  1
  F  F142  1  0.33313087  0.88650894  0.32779632  1
  F  F143  1  0.64783418  0.36251126  0.40604244  1
  F  F144  1  0.86050830  0.64309397  0.91240644  1
  F  F145  1  0.04961855  0.13141763  0.06036219  1
  F  F146  1  0.87955237  0.83668488  0.17141848  1
  F  F147  1  0.60526051  0.15908406  0.07402979  1
  F  F148  1  0.16331512  0.37955237  0.67141848  1
  F  F149  1  0.84379534  0.89617122  0.42178494  1
  F  F150  1  0.49574112  0.84070144  0.46325796  1
  F  F151  1  0.62418885  0.32350776  0.80498914  1
