# generated using pymatgen
data_InCoO3
_symmetry_space_group_name_H-M   'P 1'
_cell_length_a   5.12414189
_cell_length_b   5.31383334
_cell_length_c   7.43516932
_cell_angle_alpha   90.00020597
_cell_angle_beta   89.99936291
_cell_angle_gamma   90.01058513
_symmetry_Int_Tables_number   1
_chemical_formula_structural   InCoO3
_chemical_formula_sum   'In4 Co4 O12'
_cell_volume   202.45100286
_cell_formula_units_Z   4
loop_
 _symmetry_equiv_pos_site_id
 _symmetry_equiv_pos_as_xyz
  1  'x, y, z'
loop_
 _atom_site_type_symbol
 _atom_site_label
 _atom_site_symmetry_multiplicity
 _atom_site_fract_x
 _atom_site_fract_y
 _atom_site_fract_z
 _atom_site_occupancy
  In  In0  1  0.02168424  0.93630077  0.75000118  1
  In  In1  1  0.47834519  0.43626308  0.74999886  1
  In  In2  1  0.52164455  0.56373598  0.24999597  1
  In  In3  1  0.97831890  0.06370151  0.25000474  1
  Co  Co4  1  0.00000138  0.49999759  -0.00001215  1
  Co  Co5  1  0.00000129  0.50000380  0.50001801  1
  Co  Co6  1  0.49998763  -0.00000393  -0.00000806  1
  Co  Co7  1  0.50000359  -0.00000738  0.50001884  1
  O  O8  1  0.11889036  0.45116156  0.24999175  1
  O  O9  1  0.19712429  0.20031195  0.56381005  1
  O  O10  1  0.19711547  0.20030881  0.93616597  1
  O  O11  1  0.30300608  0.70049204  0.93617498  1
  O  O12  1  0.30301356  0.70045962  0.56382033  1
  O  O13  1  0.38116534  0.95117228  0.25002841  1
  O  O14  1  0.61882220  0.04883027  0.74996781  1
  O  O15  1  0.69701170  0.29951844  0.43616673  1
  O  O16  1  0.69697938  0.29952386  0.06383580  1
  O  O17  1  0.80285806  0.79970676  0.06383493  1
  O  O18  1  0.80287294  0.79970212  0.43617973  1
  O  O19  1  0.88115385  0.54882086  0.75000612  1
