# generated using pymatgen
data_Ba3NdRu2O9
_symmetry_space_group_name_H-M   'P 1'
_cell_length_a   6.01184480
_cell_length_b   6.01184480
_cell_length_c   14.91353479
_cell_angle_alpha   90.28393078
_cell_angle_beta   90.28393076
_cell_angle_gamma   120.00901596
_symmetry_Int_Tables_number   1
_chemical_formula_structural   Ba3NdRu2O9
_chemical_formula_sum   'Ba6 Nd2 Ru4 O18'
_cell_volume   466.73024505
_cell_formula_units_Z   2
loop_
 _symmetry_equiv_pos_site_id
 _symmetry_equiv_pos_as_xyz
  1  'x, y, z'
loop_
 _atom_site_type_symbol
 _atom_site_label
 _atom_site_symmetry_multiplicity
 _atom_site_fract_x
 _atom_site_fract_y
 _atom_site_fract_z
 _atom_site_occupancy
  O  O0  1  0.34539291  0.16569685  0.40373567  1
  O  O1  1  0.83430315  0.65460709  0.09626433  1
  O  O2  1  0.65460709  0.83430315  0.59626433  1
  O  O3  1  0.16569685  0.34539291  0.90373567  1
  O  O4  1  0.80995028  0.63037725  0.41224765  1
  O  O5  1  0.36962275  0.19004972  0.08775235  1
  O  O6  1  0.19004972  0.36962275  0.58775235  1
  O  O7  1  0.63037725  0.80995028  0.91224765  1
  O  O8  1  0.81094549  0.16553884  0.40678751  1
  O  O9  1  0.83446116  0.18905451  0.09321249  1
  O  O10  1  0.18905451  0.83446116  0.59321249  1
  O  O11  1  0.16553884  0.81094549  0.90678751  1
  O  O12  1  0.49088046  0.50911954  0.75000000  1
  O  O13  1  0.50911954  0.49088046  0.25000000  1
  O  O14  1  0.49169777  0.98095213  0.75361294  1
  O  O15  1  0.01904787  0.50830223  0.74638706  1
  O  O16  1  0.50830223  0.01904787  0.24638706  1
  O  O17  1  0.98095213  0.49169777  0.25361294  1
  Ru  Ru18  1  0.33867733  0.67219405  0.66628847  1
  Ru  Ru19  1  0.32780595  0.66132267  0.83371153  1
  Ru  Ru20  1  0.66132267  0.32780595  0.33371153  1
  Ru  Ru21  1  0.67219405  0.33867733  0.16628847  1
  Ba  Ba22  1  0.33180523  0.66468153  0.39782465  1
  Ba  Ba23  1  0.00040380  0.99959620  0.75000000  1
  Ba  Ba24  1  0.66819477  0.33531847  0.60217535  1
  Ba  Ba25  1  0.33531847  0.66819477  0.10217535  1
  Ba  Ba26  1  0.66468153  0.33180523  0.89782465  1
  Ba  Ba27  1  0.99959620  0.00040380  0.25000000  1
  Nd  Nd28  1  0.00000000  0.00000000  0.50000000  1
  Nd  Nd29  1  0.00000000  0.00000000  0.00000000  1
