# generated using pymatgen
data_ZnS
_symmetry_space_group_name_H-M   'P 1'
_cell_length_a   3.85513237
_cell_length_b   3.85513227
_cell_length_c   201.48987551
_cell_angle_alpha   90.00000000
_cell_angle_beta   90.00000000
_cell_angle_gamma   120.00000094
_symmetry_Int_Tables_number   1
_chemical_formula_structural   ZnS
_chemical_formula_sum   'Zn64 S64'
_cell_volume   2593.35776766
_cell_formula_units_Z   64
loop_
 _symmetry_equiv_pos_site_id
 _symmetry_equiv_pos_as_xyz
  1  'x, y, z'
loop_
 _atom_site_type_symbol
 _atom_site_label
 _atom_site_symmetry_multiplicity
 _atom_site_fract_x
 _atom_site_fract_y
 _atom_site_fract_z
 _atom_site_occupancy
  Zn  Zn0  1  0.33333300  0.66666700  0.92187632  1
  Zn  Zn1  1  0.00000000  0.00000000  0.42187739  1
  Zn  Zn2  1  0.33333300  0.66666700  0.87499966  1
  Zn  Zn3  1  0.33333300  0.66666700  0.74999892  1
  Zn  Zn4  1  0.66666700  0.33333300  0.59374910  1
  Zn  Zn5  1  0.00000000  0.00000000  0.18750008  1
  Zn  Zn6  1  0.66666700  0.33333300  0.49999962  1
  Zn  Zn7  1  0.33333300  0.66666700  0.01562766  1
  Zn  Zn8  1  0.00000000  0.00000000  0.46874912  1
  Zn  Zn9  1  0.66666700  0.33333300  0.84374921  1
  Zn  Zn10  1  0.33333300  0.66666700  0.95312858  1
  Zn  Zn11  1  0.33333300  0.66666700  0.67187651  1
  Zn  Zn12  1  0.33333300  0.66666700  0.78125199  1
  Zn  Zn13  1  0.33333300  0.66666700  0.53125037  1
  Zn  Zn14  1  0.66666700  0.33333300  0.17187731  1
  Zn  Zn15  1  0.66666700  0.33333300  0.89062704  1
  Zn  Zn16  1  0.66666700  0.33333300  0.21874924  1
  Zn  Zn17  1  0.00000000  0.00000000  0.28125057  1
  Zn  Zn18  1  0.00000000  0.00000000  0.23437698  1
  Zn  Zn19  1  0.33333300  0.66666700  0.15625066  1
  Zn  Zn20  1  0.00000000  0.00000000  0.51562718  1
  Zn  Zn21  1  0.00000000  0.00000000  0.60937649  1
  Zn  Zn22  1  0.33333300  0.66666700  0.29687765  1
  Zn  Zn23  1  0.33333300  0.66666700  0.48437620  1
  Zn  Zn24  1  0.66666700  0.33333300  0.12499980  1
  Zn  Zn25  1  0.33333300  0.66666700  0.82812699  1
  Zn  Zn26  1  0.33333300  0.66666700  0.10937664  1
  Zn  Zn27  1  0.66666700  0.33333300  0.03125031  1
  Zn  Zn28  1  0.66666700  0.33333300  0.68749876  1
  Zn  Zn29  1  0.00000000  0.00000000  0.09374942  1
  Zn  Zn30  1  0.00000000  0.00000000  0.81249986  1
  Zn  Zn31  1  0.66666700  0.33333300  0.45312659  1
  Zn  Zn32  1  0.33333300  0.66666700  0.62499967  1
  Zn  Zn33  1  0.33333300  0.66666700  0.70312810  1
  Zn  Zn34  1  0.00000000  0.00000000  0.37499975  1
  Zn  Zn35  1  0.66666700  0.33333300  0.98437493  1
  Zn  Zn36  1  0.00000000  0.00000000  0.96874834  1
  Zn  Zn37  1  0.00000000  0.00000000  0.04687784  1
  Zn  Zn38  1  0.33333300  0.66666700  0.20312651  1
  Zn  Zn39  1  0.00000000  0.00000000  0.85937645  1
  Zn  Zn40  1  0.66666700  0.33333300  0.26562753  1
  Zn  Zn41  1  0.66666700  0.33333300  0.07812693  1
  Zn  Zn42  1  0.33333300  0.66666700  0.34374894  1
  Zn  Zn43  1  0.66666700  0.33333300  0.35937657  1
  Zn  Zn44  1  0.66666700  0.33333300  0.54687772  1
  Zn  Zn45  1  0.66666700  0.33333300  0.73437648  1
  Zn  Zn46  1  0.00000000  0.00000000  0.00000160  1
  Zn  Zn47  1  0.33333300  0.66666700  0.43750001  1
  Zn  Zn48  1  0.33333300  0.66666700  0.39062712  1
  Zn  Zn49  1  0.00000000  0.00000000  0.14062706  1
  Zn  Zn50  1  0.66666700  0.33333300  0.93749873  1
  Zn  Zn51  1  0.66666700  0.33333300  0.31249993  1
  Zn  Zn52  1  0.00000000  0.00000000  0.56249988  1
  Zn  Zn53  1  0.00000000  0.00000000  0.90625080  1
  Zn  Zn54  1  0.00000000  0.00000000  0.71874912  1
  Zn  Zn55  1  0.66666700  0.33333300  0.64062691  1
  Zn  Zn56  1  0.66666700  0.33333300  0.40625074  1
  Zn  Zn57  1  0.33333300  0.66666700  0.06250003  1
  Zn  Zn58  1  0.66666700  0.33333300  0.79687776  1
  Zn  Zn59  1  0.00000000  0.00000000  0.65625075  1
  Zn  Zn60  1  0.00000000  0.00000000  0.32812668  1
  Zn  Zn61  1  0.33333300  0.66666700  0.24999979  1
  Zn  Zn62  1  0.00000000  0.00000000  0.76562600  1
  Zn  Zn63  1  0.33333300  0.66666700  0.57812686  1
  S  S64  1  0.66666700  0.33333300  0.51172014  1
  S  S65  1  0.66666700  0.33333300  0.60546915  1
  S  S66  1  0.33333300  0.66666700  0.49609380  1
  S  S67  1  0.33333300  0.66666700  0.83984376  1
  S  S68  1  0.00000000  0.00000000  0.24609283  1
  S  S69  1  0.33333300  0.66666700  0.12109347  1
  S  S70  1  0.00000000  0.00000000  0.33984303  1
  S  S71  1  0.00000000  0.00000000  0.38671989  1
  S  S72  1  0.00000000  0.00000000  0.73047010  1
  S  S73  1  0.66666700  0.33333300  0.23047026  1
  S  S74  1  0.33333300  0.66666700  0.21484287  1
  S  S75  1  0.33333300  0.66666700  0.76171282  1
  S  S76  1  0.66666700  0.33333300  0.90234295  1
  S  S77  1  0.66666700  0.33333300  0.80859413  1
  S  S78  1  0.00000000  0.00000000  0.66796980  1
  S  S79  1  0.00000000  0.00000000  0.05859342  1
  S  S80  1  0.33333300  0.66666700  0.07421958  1
  S  S81  1  0.00000000  0.00000000  0.15234362  1
  S  S82  1  0.33333300  0.66666700  0.68358676  1
  S  S83  1  0.00000000  0.00000000  0.48046984  1
  S  S84  1  0.33333300  0.66666700  0.26171998  1
  S  S85  1  0.33333300  0.66666700  0.79296897  1
  S  S86  1  0.33333300  0.66666700  0.16797006  1
  S  S87  1  0.66666700  0.33333300  0.69922644  1
  S  S88  1  0.33333300  0.66666700  0.40234330  1
  S  S89  1  0.00000000  0.00000000  0.43359279  1
  S  S90  1  0.00000000  0.00000000  0.91796981  1
  S  S91  1  0.33333300  0.66666700  0.30859378  1
  S  S92  1  0.33333300  0.66666700  0.02734400  1
  S  S93  1  0.33333300  0.66666700  0.58984384  1
  S  S94  1  0.00000000  0.00000000  0.98046315  1
  S  S95  1  0.33333300  0.66666700  0.93358711  1
  S  S96  1  0.66666700  0.33333300  0.94922642  1
  S  S97  1  0.00000000  0.00000000  0.01171855  1
  S  S98  1  0.66666700  0.33333300  0.27734354  1
  S  S99  1  0.00000000  0.00000000  0.82422067  1
  S  S100  1  0.00000000  0.00000000  0.62109343  1
  S  S101  1  0.66666700  0.33333300  0.46484278  1
  S  S102  1  0.33333300  0.66666700  0.96484148  1
  S  S103  1  0.66666700  0.33333300  0.55859367  1
  S  S104  1  0.66666700  0.33333300  0.37109361  1
  S  S105  1  0.66666700  0.33333300  0.74609398  1
  S  S106  1  0.00000000  0.00000000  0.29296993  1
  S  S107  1  0.66666700  0.33333300  0.65234319  1
  S  S108  1  0.66666700  0.33333300  0.04297048  1
  S  S109  1  0.33333300  0.66666700  0.88672002  1
  S  S110  1  0.00000000  0.00000000  0.87109358  1
  S  S111  1  0.33333300  0.66666700  0.63671998  1
  S  S112  1  0.66666700  0.33333300  0.85546906  1
  S  S113  1  0.00000000  0.00000000  0.52734321  1
  S  S114  1  0.33333300  0.66666700  0.35546918  1
  S  S115  1  0.00000000  0.00000000  0.77734984  1
  S  S116  1  0.66666700  0.33333300  0.32421954  1
  S  S117  1  0.33333300  0.66666700  0.44921965  1
  S  S118  1  0.00000000  0.00000000  0.10546978  1
  S  S119  1  0.33333300  0.66666700  0.71484164  1
  S  S120  1  0.66666700  0.33333300  0.41796968  1
  S  S121  1  0.66666700  0.33333300  0.08984394  1
  S  S122  1  0.66666700  0.33333300  0.99610083  1
  S  S123  1  0.00000000  0.00000000  0.19922072  1
  S  S124  1  0.00000000  0.00000000  0.57422035  1
  S  S125  1  0.66666700  0.33333300  0.18359360  1
  S  S126  1  0.33333300  0.66666700  0.54297047  1
  S  S127  1  0.66666700  0.33333300  0.13672001  1
