# generated using pymatgen
data_K2La2Ti3O10
_symmetry_space_group_name_H-M   'P 1'
_cell_length_a   3.91119621
_cell_length_b   3.91119621
_cell_length_c   15.28115765
_cell_angle_alpha   97.35256050
_cell_angle_beta   97.35256050
_cell_angle_gamma   89.99999999
_symmetry_Int_Tables_number   1
_chemical_formula_structural   K2La2Ti3O10
_chemical_formula_sum   'K2 La2 Ti3 O10'
_cell_volume   229.90251645
_cell_formula_units_Z   1
loop_
 _symmetry_equiv_pos_site_id
 _symmetry_equiv_pos_as_xyz
  1  'x, y, z'
loop_
 _atom_site_type_symbol
 _atom_site_label
 _atom_site_symmetry_multiplicity
 _atom_site_fract_x
 _atom_site_fract_y
 _atom_site_fract_z
 _atom_site_occupancy
  O  O0  1  0.80140625  0.80140625  0.60281250  1
  O  O1  1  0.19859375  0.19859375  0.39718750  1
  O  O2  1  0.87349491  0.37349491  0.74698983  1
  O  O3  1  0.37349491  0.87349491  0.74698983  1
  O  O4  1  0.12650509  0.62650509  0.25301017  1
  O  O5  1  0.62650509  0.12650509  0.25301017  1
  O  O6  1  0.93575215  0.93575215  0.87150430  1
  O  O7  1  0.50000000  0.00000000  0.00000000  1
  O  O8  1  0.00000000  0.50000000  0.00000000  1
  O  O9  1  0.06424785  0.06424785  0.12849570  1
  K  K10  1  0.29225628  0.29225628  0.58451255  1
  K  K11  1  0.70774372  0.70774372  0.41548745  1
  Ti  Ti12  1  0.13990851  0.13990851  0.27981702  1
  Ti  Ti13  1  0.86009149  0.86009149  0.72018298  1
  Ti  Ti14  1  0.00000000  0.00000000  0.00000000  1
  La  La15  1  0.42844385  0.42844385  0.85688771  1
  La  La16  1  0.57155615  0.57155615  0.14311229  1
