# generated using pymatgen
data_Li3As7
_symmetry_space_group_name_H-M   'P 1'
_cell_length_a   12.66034566
_cell_length_b   12.74559111
_cell_length_c   22.88236859
_cell_angle_alpha   90.00000000
_cell_angle_beta   90.00000000
_cell_angle_gamma   90.00000000
_symmetry_Int_Tables_number   1
_chemical_formula_structural   Li3As7
_chemical_formula_sum   'Li48 As112'
_cell_volume   3692.38112265
_cell_formula_units_Z   16
loop_
 _symmetry_equiv_pos_site_id
 _symmetry_equiv_pos_as_xyz
  1  'x, y, z'
loop_
 _atom_site_type_symbol
 _atom_site_label
 _atom_site_symmetry_multiplicity
 _atom_site_fract_x
 _atom_site_fract_y
 _atom_site_fract_z
 _atom_site_occupancy
  Li  Li0  1  0.77981121  0.54278628  0.80575164  1
  Li  Li1  1  0.01313877  0.24667720  0.85126517  1
  Li  Li2  1  0.11934606  0.41921584  0.48154322  1
  Li  Li3  1  0.22018879  0.95721372  0.30575164  1
  Li  Li4  1  0.81693073  0.00440810  0.31520350  1
  Li  Li5  1  0.31693073  0.49559190  0.31520350  1
  Li  Li6  1  0.27981121  0.95721372  0.80575164  1
  Li  Li7  1  0.18306927  0.99559190  0.68479650  1
  Li  Li8  1  0.48686123  0.24667720  0.35126517  1
  Li  Li9  1  0.68306927  0.50440810  0.68479650  1
  Li  Li10  1  0.98686123  0.25332280  0.35126517  1
  Li  Li11  1  0.79948809  0.33494936  0.84827357  1
  Li  Li12  1  0.79948809  0.83494936  0.65172643  1
  Li  Li13  1  0.88065394  0.08078416  0.98154322  1
  Li  Li14  1  0.16323285  0.74623372  0.92571657  1
  Li  Li15  1  0.81693073  0.50440810  0.18479650  1
  Li  Li16  1  0.20051191  0.66505064  0.15172643  1
  Li  Li17  1  0.66323285  0.25376628  0.57428343  1
  Li  Li18  1  0.29948809  0.16505064  0.84827357  1
  Li  Li19  1  0.29948809  0.66505064  0.65172643  1
  Li  Li20  1  0.18306927  0.49559190  0.81520350  1
  Li  Li21  1  0.51313877  0.25332280  0.85126517  1
  Li  Li22  1  0.27981121  0.45721372  0.69424836  1
  Li  Li23  1  0.68306927  0.00440810  0.81520350  1
  Li  Li24  1  0.20051191  0.16505064  0.34827357  1
  Li  Li25  1  0.51313877  0.75332280  0.64873483  1
  Li  Li26  1  0.01313877  0.74667720  0.64873483  1
  Li  Li27  1  0.31693073  0.99559190  0.18479650  1
  Li  Li28  1  0.22018879  0.45721372  0.19424836  1
  Li  Li29  1  0.66323285  0.75376628  0.92571657  1
  Li  Li30  1  0.38065394  0.41921584  0.98154322  1
  Li  Li31  1  0.77981121  0.04278628  0.69424836  1
  Li  Li32  1  0.33676715  0.24623372  0.07428343  1
  Li  Li33  1  0.72018879  0.04278628  0.19424836  1
  Li  Li34  1  0.70051191  0.83494936  0.15172643  1
  Li  Li35  1  0.38065394  0.91921584  0.51845678  1
  Li  Li36  1  0.88065394  0.58078416  0.51845678  1
  Li  Li37  1  0.98686123  0.75332280  0.14873483  1
  Li  Li38  1  0.61934606  0.58078416  0.01845678  1
  Li  Li39  1  0.16323285  0.24623372  0.57428343  1
  Li  Li40  1  0.61934606  0.08078416  0.48154322  1
  Li  Li41  1  0.33676715  0.74623372  0.42571657  1
  Li  Li42  1  0.72018879  0.54278628  0.30575164  1
  Li  Li43  1  0.70051191  0.33494936  0.34827357  1
  Li  Li44  1  0.11934606  0.91921584  0.01845678  1
  Li  Li45  1  0.83676715  0.75376628  0.42571657  1
  Li  Li46  1  0.48686123  0.74667720  0.14873483  1
  Li  Li47  1  0.83676715  0.25376628  0.07428343  1
  As  As48  1  0.15537683  0.85200609  0.21032618  1
  As  As49  1  0.02569330  0.38728009  0.13141698  1
  As  As50  1  0.52569330  0.61271991  0.36858302  1
  As  As51  1  0.64066669  0.37114224  0.77642606  1
  As  As52  1  0.88587248  0.24401440  0.69991555  1
  As  As53  1  0.90899254  0.84388087  0.96212705  1
  As  As54  1  0.98708028  0.01400202  0.78900968  1
  As  As55  1  0.97430670  0.11271991  0.63141698  1
  As  As56  1  0.34875272  0.53182807  0.51072725  1
  As  As57  1  0.08437571  0.23546112  0.69356331  1
  As  As58  1  0.58437571  0.26453888  0.69356331  1
  As  As59  1  0.85933331  0.87114224  0.22357394  1
  As  As60  1  0.48708028  0.48599798  0.78900968  1
  As  As61  1  0.01291972  0.48599798  0.28900968  1
  As  As62  1  0.85506442  0.28488770  0.95458978  1
  As  As63  1  0.52697187  0.44902041  0.31295558  1
  As  As64  1  0.65537683  0.14799391  0.28967382  1
  As  As65  1  0.97430670  0.61271991  0.86858302  1
  As  As66  1  0.47302813  0.05097959  0.81295558  1
  As  As67  1  0.14066669  0.12885776  0.77642606  1
  As  As68  1  0.16767633  0.26263067  0.95524962  1
  As  As69  1  0.84462317  0.14799391  0.78967382  1
  As  As70  1  0.51291972  0.01400202  0.28900968  1
  As  As71  1  0.26193897  0.55415146  0.92333895  1
  As  As72  1  0.51291972  0.51400202  0.21099032  1
  As  As73  1  0.38587248  0.75598560  0.80008445  1
  As  As74  1  0.11412752  0.75598560  0.30008445  1
  As  As75  1  0.83232367  0.23736933  0.45524962  1
  As  As76  1  0.57637291  0.40980494  0.93186901  1
  As  As77  1  0.92362709  0.40980494  0.43186901  1
  As  As78  1  0.02697187  0.55097959  0.18704442  1
  As  As79  1  0.07637291  0.09019506  0.93186901  1
  As  As80  1  0.16767633  0.76263067  0.54475038  1
  As  As81  1  0.42362709  0.09019506  0.43186901  1
  As  As82  1  0.34462317  0.35200609  0.78967382  1
  As  As83  1  0.52697187  0.94902041  0.18704442  1
  As  As84  1  0.21751818  0.96330897  0.91800610  1
  As  As85  1  0.85933331  0.37114224  0.27642606  1
  As  As86  1  0.41562429  0.73546112  0.30643669  1
  As  As87  1  0.23806103  0.05415146  0.07666105  1
  As  As88  1  0.42362709  0.59019506  0.06813099  1
  As  As89  1  0.84875272  0.46817193  0.98927275  1
  As  As90  1  0.35933331  0.62885776  0.22357394  1
  As  As91  1  0.21751818  0.46330897  0.58199390  1
  As  As92  1  0.65124728  0.46817193  0.48927275  1
  As  As93  1  0.98708028  0.51400202  0.71099032  1
  As  As94  1  0.97302813  0.94902041  0.68704442  1
  As  As95  1  0.83232367  0.73736933  0.04475038  1
  As  As96  1  0.61412752  0.74401440  0.30008445  1
  As  As97  1  0.33232367  0.76263067  0.04475038  1
  As  As98  1  0.35933331  0.12885776  0.27642606  1
  As  As99  1  0.40899254  0.65611913  0.96212705  1
  As  As100  1  0.48708028  0.98599798  0.71099032  1
  As  As101  1  0.34462317  0.85200609  0.71032618  1
  As  As102  1  0.23806103  0.55415146  0.42333895  1
  As  As103  1  0.84462317  0.64799391  0.71032618  1
  As  As104  1  0.66767633  0.23736933  0.95524962  1
  As  As105  1  0.15124728  0.53182807  0.01072725  1
  As  As106  1  0.78248182  0.53669103  0.41800610  1
  As  As107  1  0.07637291  0.59019506  0.56813099  1
  As  As108  1  0.66767633  0.73736933  0.54475038  1
  As  As109  1  0.02697187  0.05097959  0.31295558  1
  As  As110  1  0.78248182  0.03669103  0.08199390  1
  As  As111  1  0.85506442  0.78488770  0.54541022  1
  As  As112  1  0.92362709  0.90980494  0.06813099  1
  As  As113  1  0.15124728  0.03182807  0.48927275  1
  As  As114  1  0.38587248  0.25598560  0.69991555  1
  As  As115  1  0.73806103  0.44584854  0.07666105  1
  As  As116  1  0.52569330  0.11271991  0.13141698  1
  As  As117  1  0.26193897  0.05415146  0.57666105  1
  As  As118  1  0.02569330  0.88728009  0.36858302  1
  As  As119  1  0.76193897  0.94584854  0.92333895  1
  As  As120  1  0.47302813  0.55097959  0.68704442  1
  As  As121  1  0.59100746  0.84388087  0.46212705  1
  As  As122  1  0.97302813  0.44902041  0.81295558  1
  As  As123  1  0.91562429  0.76453888  0.30643669  1
  As  As124  1  0.59100746  0.34388087  0.03787295  1
  As  As125  1  0.14493558  0.71511230  0.04541022  1
  As  As126  1  0.73806103  0.94584854  0.42333895  1
  As  As127  1  0.64493558  0.28488770  0.45458978  1
  As  As128  1  0.88587248  0.74401440  0.80008445  1
  As  As129  1  0.64066669  0.87114224  0.72357394  1
  As  As130  1  0.65537683  0.64799391  0.21032618  1
  As  As131  1  0.84875272  0.96817193  0.51072725  1
  As  As132  1  0.76193897  0.44584854  0.57666105  1
  As  As133  1  0.47430670  0.38728009  0.63141698  1
  As  As134  1  0.40899254  0.15611913  0.53787295  1
  As  As135  1  0.08437571  0.73546112  0.80643669  1
  As  As136  1  0.35506442  0.71511230  0.54541022  1
  As  As137  1  0.58437571  0.76453888  0.80643669  1
  As  As138  1  0.64493558  0.78488770  0.04541022  1
  As  As139  1  0.11412752  0.25598560  0.19991555  1
  As  As140  1  0.14066669  0.62885776  0.72357394  1
  As  As141  1  0.34875272  0.03182807  0.98927275  1
  As  As142  1  0.15537683  0.35200609  0.28967382  1
  As  As143  1  0.28248182  0.96330897  0.41800610  1
  As  As144  1  0.91562429  0.26453888  0.19356331  1
  As  As145  1  0.61412752  0.24401440  0.19991555  1
  As  As146  1  0.33232367  0.26263067  0.45524962  1
  As  As147  1  0.57637291  0.90980494  0.56813099  1
  As  As148  1  0.28248182  0.46330897  0.08199390  1
  As  As149  1  0.71751818  0.53669103  0.91800610  1
  As  As150  1  0.71751818  0.03669103  0.58199390  1
  As  As151  1  0.90899254  0.34388087  0.53787295  1
  As  As152  1  0.09100746  0.15611913  0.03787295  1
  As  As153  1  0.14493558  0.21511230  0.45458978  1
  As  As154  1  0.01291972  0.98599798  0.21099032  1
  As  As155  1  0.47430670  0.88728009  0.86858302  1
  As  As156  1  0.09100746  0.65611913  0.46212705  1
  As  As157  1  0.65124728  0.96817193  0.01072725  1
  As  As158  1  0.41562429  0.23546112  0.19356331  1
  As  As159  1  0.35506442  0.21511230  0.95458978  1
