# generated using pymatgen
data_Na3Pb2S3ClO12
_symmetry_space_group_name_H-M   'P 1'
_cell_length_a   9.96277456
_cell_length_b   10.01750421
_cell_length_c   7.17944013
_cell_angle_alpha   90.00000000
_cell_angle_beta   90.00000000
_cell_angle_gamma   119.81811140
_symmetry_Int_Tables_number   1
_chemical_formula_structural   Na3Pb2S3ClO12
_chemical_formula_sum   'Na6 Pb4 S6 Cl2 O24'
_cell_volume   621.66171232
_cell_formula_units_Z   2
loop_
 _symmetry_equiv_pos_site_id
 _symmetry_equiv_pos_as_xyz
  1  'x, y, z'
loop_
 _atom_site_type_symbol
 _atom_site_label
 _atom_site_symmetry_multiplicity
 _atom_site_fract_x
 _atom_site_fract_y
 _atom_site_fract_z
 _atom_site_occupancy
  Na  Na0  1  0.26325606  0.00286423  0.25000000  1
  Na  Na1  1  0.33952307  0.67523577  0.00260747  1
  Na  Na2  1  0.33952307  0.67523577  0.49739253  1
  Na  Na3  1  0.66047693  0.32476423  0.50260747  1
  Na  Na4  1  0.66047693  0.32476423  0.99739253  1
  Na  Na5  1  0.73674394  0.99713577  0.75000000  1
  Pb  Pb6  1  0.98937419  0.24092833  0.25000000  1
  Pb  Pb7  1  0.25751476  0.25328661  0.75000000  1
  Pb  Pb8  1  0.74248524  0.74671339  0.25000000  1
  Pb  Pb9  1  0.01062581  0.75907167  0.75000000  1
  S  S10  1  0.03312255  0.41260177  0.75000000  1
  S  S11  1  0.37690914  0.96457805  0.75000000  1
  S  S12  1  0.41337034  0.38180591  0.25000000  1
  S  S13  1  0.58662966  0.61819409  0.75000000  1
  S  S14  1  0.62309086  0.03542195  0.25000000  1
  S  S15  1  0.96687745  0.58739823  0.25000000  1
  Cl  Cl16  1  0.00000000  0.00000000  0.00000000  1
  Cl  Cl17  1  0.00000000  0.00000000  0.50000000  1
  O  O18  1  0.13446374  0.64506938  0.25000000  1
  O  O19  1  0.27165756  0.91540255  0.58220732  1
  O  O20  1  0.27165756  0.91540255  0.91779268  1
  O  O21  1  0.12343539  0.58574072  0.75000000  1
  O  O22  1  0.08323596  0.35777484  0.58310322  1
  O  O23  1  0.08323596  0.35777484  0.91689678  1
  O  O24  1  0.46625745  0.88242925  0.75000000  1
  O  O25  1  0.51916171  0.86550290  0.25000000  1
  O  O26  1  0.35877499  0.49507212  0.25000000  1
  O  O27  1  0.41167809  0.53600178  0.75000000  1
  O  O28  1  0.35836317  0.28032186  0.08261501  1
  O  O29  1  0.35836317  0.28032186  0.41738499  1
  O  O30  1  0.64163683  0.71967814  0.58261501  1
  O  O31  1  0.64163683  0.71967814  0.91738499  1
  O  O32  1  0.58832191  0.46399822  0.25000000  1
  O  O33  1  0.64122501  0.50492788  0.75000000  1
  O  O34  1  0.48083829  0.13449710  0.75000000  1
  O  O35  1  0.53374255  0.11757075  0.25000000  1
  O  O36  1  0.91676404  0.64222516  0.08310322  1
  O  O37  1  0.91676404  0.64222516  0.41689678  1
  O  O38  1  0.87656461  0.41425928  0.25000000  1
  O  O39  1  0.72834244  0.08459745  0.08220732  1
  O  O40  1  0.72834244  0.08459745  0.41779268  1
  O  O41  1  0.86553626  0.35493062  0.75000000  1
