# generated using pymatgen
data_LiNi3P2
_symmetry_space_group_name_H-M   'P 1'
_cell_length_a   8.98882650
_cell_length_b   17.98471858
_cell_length_c   7.19974947
_cell_angle_alpha   90.00000000
_cell_angle_beta   90.00000000
_cell_angle_gamma   119.98762828
_symmetry_Int_Tables_number   1
_chemical_formula_structural   LiNi3P2
_chemical_formula_sum   'Li14 Ni42 P28'
_cell_volume   1008.11201035
_cell_formula_units_Z   14
loop_
 _symmetry_equiv_pos_site_id
 _symmetry_equiv_pos_as_xyz
  1  'x, y, z'
loop_
 _atom_site_type_symbol
 _atom_site_label
 _atom_site_symmetry_multiplicity
 _atom_site_fract_x
 _atom_site_fract_y
 _atom_site_fract_z
 _atom_site_occupancy
  Li  Li0  1  0.33399960  0.83408718  0.99357035  1
  Li  Li1  1  0.33399960  0.83408718  0.50642965  1
  Li  Li2  1  0.22218496  0.55160151  0.25000000  1
  Li  Li3  1  0.87949279  0.88791241  0.75000000  1
  Li  Li4  1  0.66970913  0.66853561  0.25000000  1
  Li  Li5  1  0.66353577  0.66379396  0.75000000  1
  Li  Li6  1  0.33552691  0.33411296  0.00352933  1
  Li  Li7  1  0.33552691  0.33411296  0.49647067  1
  Li  Li8  1  0.21775628  0.05006516  0.25000000  1
  Li  Li9  1  0.89667556  0.55737153  0.75000000  1
  Li  Li10  1  0.87838798  0.38860324  0.75000000  1
  Li  Li11  1  0.66897782  0.16769434  0.25000000  1
  Li  Li12  1  0.66747706  0.16706592  0.75000000  1
  Li  Li13  1  0.89659937  0.06033109  0.25000000  1
  Ni  Ni14  1  0.11580275  0.91760206  0.00828544  1
  Ni  Ni15  1  0.11580275  0.91760206  0.49171456  1
  Ni  Ni16  1  0.04846624  0.80496586  0.25000000  1
  Ni  Ni17  1  0.04597670  0.80455531  0.75000000  1
  Ni  Ni18  1  0.16568255  0.64095769  0.99603198  1
  Ni  Ni19  1  0.16568255  0.64095769  0.50396802  1
  Ni  Ni20  1  0.55964837  0.97491761  0.75000000  1
  Ni  Ni21  1  0.56673459  0.97811728  0.25000000  1
  Ni  Ni22  1  0.39350843  0.71924771  0.25000000  1
  Ni  Ni23  1  0.38748794  0.71531456  0.75000000  1
  Ni  Ni24  1  0.18627569  0.53849259  0.75000000  1
  Ni  Ni25  1  0.11950645  0.41893800  0.00554519  1
  Ni  Ni26  1  0.11950645  0.41893800  0.49445481  1
  Ni  Ni27  1  0.04811470  0.30703358  0.75000000  1
  Ni  Ni28  1  0.05220571  0.30610891  0.25000000  1
  Ni  Ni29  1  0.71783983  0.94142530  0.99287293  1
  Ni  Ni30  1  0.71783983  0.94142530  0.50712707  1
  Ni  Ni31  1  0.63000895  0.78575941  0.00021948  1
  Ni  Ni32  1  0.63000895  0.78575941  0.49978052  1
  Ni  Ni33  1  0.43134248  0.52967056  0.00126416  1
  Ni  Ni34  1  0.43134248  0.52967056  0.49873584  1
  Ni  Ni35  1  0.88487211  0.90411605  0.25000000  1
  Ni  Ni36  1  0.16428326  0.14192770  0.99703464  1
  Ni  Ni37  1  0.16428326  0.14192770  0.50296536  1
  Ni  Ni38  1  0.56930840  0.47684005  0.25000000  1
  Ni  Ni39  1  0.56267190  0.47749454  0.75000000  1
  Ni  Ni40  1  0.38927564  0.21625167  0.25000000  1
  Ni  Ni41  1  0.38955523  0.21731407  0.75000000  1
  Ni  Ni42  1  0.20169662  0.04071214  0.75000000  1
  Ni  Ni43  1  0.94217210  0.68496634  0.00381932  1
  Ni  Ni44  1  0.94217210  0.68496634  0.49618068  1
  Ni  Ni45  1  0.71488212  0.43937532  0.00098633  1
  Ni  Ni46  1  0.71488212  0.43937532  0.49901367  1
  Ni  Ni47  1  0.62887451  0.28410263  0.00028023  1
  Ni  Ni48  1  0.62887451  0.28410263  0.49971977  1
  Ni  Ni49  1  0.91551006  0.56183653  0.25000000  1
  Ni  Ni50  1  0.42858322  0.02855755  0.99654444  1
  Ni  Ni51  1  0.42858322  0.02855755  0.50345556  1
  Ni  Ni52  1  0.87897766  0.39236980  0.25000000  1
  Ni  Ni53  1  0.94247008  0.18655498  0.99918988  1
  Ni  Ni54  1  0.94247008  0.18655498  0.50081012  1
  Ni  Ni55  1  0.90841137  0.06285578  0.75000000  1
  P  P56  1  0.29344374  0.93669635  0.25000000  1
  P  P57  1  0.28254040  0.93809988  0.75000000  1
  P  P58  1  0.12543514  0.70409398  0.25000000  1
  P  P59  1  0.12568904  0.70832553  0.75000000  1
  P  P60  1  0.99655767  0.49928025  0.00745814  1
  P  P61  1  0.99655767  0.49928025  0.49254186  1
  P  P62  1  0.59392352  0.85823335  0.25000000  1
  P  P63  1  0.57986769  0.85302102  0.75000000  1
  P  P64  1  0.42458674  0.65009872  0.99969194  1
  P  P65  1  0.42458674  0.65009872  0.50030806  1
  P  P66  1  0.29576635  0.43744117  0.25000000  1
  P  P67  1  0.28524238  0.44078340  0.75000000  1
  P  P68  1  0.12879498  0.20749680  0.25000000  1
  P  P69  1  0.12197134  0.20725465  0.75000000  1
  P  P70  1  0.00067162  0.00158841  0.99336423  1
  P  P71  1  0.00067162  0.00158841  0.50663577  1
  P  P72  1  0.87746310  0.78826603  0.00258638  1
  P  P73  1  0.87746310  0.78826603  0.49741362  1
  P  P74  1  0.70143923  0.56113105  0.00179142  1
  P  P75  1  0.70143923  0.56113105  0.49820858  1
  P  P76  1  0.58950174  0.35345963  0.25000000  1
  P  P77  1  0.58302261  0.35582388  0.75000000  1
  P  P78  1  0.42138179  0.14885818  0.99736956  1
  P  P79  1  0.42138179  0.14885818  0.50263044  1
  P  P80  1  0.87888777  0.28960892  0.00324204  1
  P  P81  1  0.87888777  0.28960892  0.49675796  1
  P  P82  1  0.70069078  0.06200654  0.99566904  1
  P  P83  1  0.70069078  0.06200654  0.50433096  1
