# generated using pymatgen
data_Sr8(TiS3)7
_symmetry_space_group_name_H-M   'P 1'
_cell_length_a   11.65987903
_cell_length_b   11.65987927
_cell_length_c   20.90191563
_cell_angle_alpha   90.00000000
_cell_angle_beta   90.00000000
_cell_angle_gamma   119.99999930
_symmetry_Int_Tables_number   1
_chemical_formula_structural   Sr8(TiS3)7
_chemical_formula_sum   'Sr24 Ti21 S63'
_cell_volume   2460.96152252
_cell_formula_units_Z   3
loop_
 _symmetry_equiv_pos_site_id
 _symmetry_equiv_pos_as_xyz
  1  'x, y, z'
loop_
 _atom_site_type_symbol
 _atom_site_label
 _atom_site_symmetry_multiplicity
 _atom_site_fract_x
 _atom_site_fract_y
 _atom_site_fract_z
 _atom_site_occupancy
  Sr  Sr0  1  0.02185525  0.68580398  0.18846583  1
  Sr  Sr1  1  0.30609830  0.96801497  0.31903616  1
  Sr  Sr2  1  0.99205446  0.35954104  0.56351001  1
  Sr  Sr3  1  0.30353208  0.97178992  0.05890885  1
  Sr  Sr4  1  0.36748658  0.00794554  0.56351001  1
  Sr  Sr5  1  0.02821008  0.33174217  0.05890885  1
  Sr  Sr6  1  0.03198503  0.33808334  0.31903616  1
  Sr  Sr7  1  0.31419602  0.33605128  0.18846583  1
  Sr  Sr8  1  0.66394872  0.97814475  0.18846583  1
  Sr  Sr9  1  0.33522991  0.30190314  0.67957084  1
  Sr  Sr10  1  0.36006559  0.36401937  0.43647008  1
  Sr  Sr11  1  0.33173303  0.30344698  0.94118001  1
  Sr  Sr12  1  0.66825783  0.69646792  0.05890885  1
  Sr  Sr13  1  0.64045896  0.63251342  0.56351001  1
  Sr  Sr14  1  0.66191666  0.69390170  0.31903616  1
  Sr  Sr15  1  0.33606003  0.02144137  0.81151233  1
  Sr  Sr16  1  0.68538134  0.66393997  0.81151233  1
  Sr  Sr17  1  0.96667323  0.66477009  0.67957084  1
  Sr  Sr18  1  0.97171395  0.66826697  0.94118001  1
  Sr  Sr19  1  0.63598063  0.99604622  0.43647008  1
  Sr  Sr20  1  0.69655302  0.02828605  0.94118001  1
  Sr  Sr21  1  0.00395378  0.63993441  0.43647008  1
  Sr  Sr22  1  0.69809686  0.03332677  0.67957084  1
  Sr  Sr23  1  0.97855863  0.31461866  0.81151233  1
  Ti  Ti24  1  0.33333300  0.66666700  0.66603580  1
  Ti  Ti25  1  0.33333300  0.66666700  0.09724986  1
  Ti  Ti26  1  0.33333300  0.66666700  0.23977255  1
  Ti  Ti27  1  0.33333300  0.66666700  0.95148426  1
  Ti  Ti28  1  0.00000000  0.00000000  0.99834687  1
  Ti  Ti29  1  0.00000000  0.00000000  0.14035324  1
  Ti  Ti30  1  0.33333300  0.66666700  0.80745803  1
  Ti  Ti31  1  0.00000000  0.00000000  0.28143700  1
  Ti  Ti32  1  0.00000000  0.00000000  0.57494144  1
  Ti  Ti33  1  0.00000000  0.00000000  0.72114692  1
  Ti  Ti34  1  0.00000000  0.00000000  0.85887608  1
  Ti  Ti35  1  0.33333300  0.66666700  0.38376167  1
  Ti  Ti36  1  0.33333300  0.66666700  0.52459370  1
  Ti  Ti37  1  0.66666700  0.33333300  0.47545099  1
  Ti  Ti38  1  0.66666700  0.33333300  0.61713793  1
  Ti  Ti39  1  0.00000000  0.00000000  0.42802901  1
  Ti  Ti40  1  0.66666700  0.33333300  0.19168332  1
  Ti  Ti41  1  0.66666700  0.33333300  0.33312642  1
  Ti  Ti42  1  0.66666700  0.33333300  0.76104994  1
  Ti  Ti43  1  0.66666700  0.33333300  0.90261324  1
  Ti  Ti44  1  0.66666700  0.33333300  0.04800631  1
  S  S45  1  0.15637918  0.98468820  0.65008906  1
  S  S46  1  0.16432586  0.99422949  0.20557749  1
  S  S47  1  0.15643576  0.97281708  0.93153005  1
  S  S48  1  0.15225004  0.64387798  0.31218234  1
  S  S49  1  0.16224653  0.65990888  0.58910922  1
  S  S50  1  0.17014628  0.67200047  0.03254756  1
  S  S51  1  0.14442967  0.56519857  0.88416317  1
  S  S52  1  0.24919609  0.77236986  0.73624877  1
  S  S53  1  0.30751679  0.82301984  0.44970442  1
  S  S54  1  0.16720873  0.49814872  0.17482553  1
  S  S55  1  0.33093999  0.83279127  0.17482553  1
  S  S56  1  0.00577051  0.17009637  0.20557749  1
  S  S57  1  0.01531180  0.17169098  0.65008906  1
  S  S58  1  0.17698016  0.48449695  0.44970442  1
  S  S59  1  0.02718292  0.18361869  0.93153005  1
  S  S60  1  0.22763014  0.47682623  0.73624877  1
  S  S61  1  0.42076890  0.85557033  0.88416317  1
  S  S62  1  0.49162794  0.84774996  0.31218234  1
  S  S63  1  0.50185419  0.82985372  0.03254756  1
  S  S64  1  0.34009112  0.50233765  0.58910922  1
  S  S65  1  0.49766235  0.83775347  0.58910922  1
  S  S66  1  0.17098728  0.16464928  0.79404866  1
  S  S67  1  0.32799953  0.49814581  0.03254756  1
  S  S68  1  0.16213976  0.16684519  0.34864330  1
  S  S69  1  0.35612202  0.50837206  0.31218234  1
  S  S70  1  0.18338864  0.15618650  0.06823667  1
  S  S71  1  0.18604365  0.09233069  0.49902736  1
  S  S72  1  0.43480143  0.57923110  0.88416317  1
  S  S73  1  0.52317377  0.75080391  0.73624877  1
  S  S74  1  0.50185128  0.66906001  0.17482553  1
  S  S75  1  0.51550305  0.69248321  0.44970442  1
  S  S76  1  0.49266305  0.32076503  0.55119263  1
  S  S77  1  0.49786776  0.33052833  0.82539984  1
  S  S78  1  0.47674824  0.24989231  0.26381161  1
  S  S79  1  0.56529485  0.42091916  0.11599577  1
  S  S80  1  0.81638131  0.84356424  0.93153005  1
  S  S81  1  0.64572361  0.49341327  0.68853962  1
  S  S82  1  0.82830902  0.84362082  0.65008906  1
  S  S83  1  0.67190304  0.50183381  0.96761326  1
  S  S84  1  0.82990363  0.83567414  0.20557749  1
  S  S85  1  0.50438417  0.16093152  0.41080802  1
  S  S86  1  0.65654736  0.49561583  0.41080802  1
  S  S87  1  0.49816619  0.17006923  0.96761326  1
  S  S88  1  0.50658673  0.15231034  0.68853962  1
  S  S89  1  0.90628704  0.81395635  0.49902736  1
  S  S90  1  0.57908084  0.14437569  0.11599577  1
  S  S91  1  0.77314407  0.52325176  0.26381161  1
  S  S92  1  0.97279786  0.81661136  0.06823667  1
  S  S93  1  0.82810198  0.50733695  0.55119263  1
  S  S94  1  0.00470543  0.83786024  0.34864330  1
  S  S95  1  0.99366201  0.82901272  0.79404866  1
  S  S96  1  0.66947167  0.16733943  0.82539984  1
  S  S97  1  0.83266057  0.50213224  0.82539984  1
  S  S98  1  0.67923497  0.17189802  0.55119263  1
  S  S99  1  0.75010769  0.22685593  0.26381161  1
  S  S100  1  0.85562431  0.43470515  0.11599577  1
  S  S101  1  0.82993077  0.32809696  0.96761326  1
  S  S102  1  0.83906848  0.34345264  0.41080802  1
  S  S103  1  0.84768966  0.35427639  0.68853962  1
  S  S104  1  0.84381350  0.02720214  0.06823667  1
  S  S105  1  0.83535072  0.00633799  0.79404866  1
  S  S106  1  0.83315481  0.99529457  0.34864330  1
  S  S107  1  0.90766931  0.09371296  0.49902736  1
