# generated using pymatgen
data_TiCrO3
_symmetry_space_group_name_H-M   'P 1'
_cell_length_a   5.11803424
_cell_length_b   5.39320361
_cell_length_c   7.61414466
_cell_angle_alpha   89.99970296
_cell_angle_beta   90.00227199
_cell_angle_gamma   90.00102180
_symmetry_Int_Tables_number   1
_chemical_formula_structural   TiCrO3
_chemical_formula_sum   'Ti4 Cr4 O12'
_cell_volume   210.17019492
_cell_formula_units_Z   4
loop_
 _symmetry_equiv_pos_site_id
 _symmetry_equiv_pos_as_xyz
  1  'x, y, z'
loop_
 _atom_site_type_symbol
 _atom_site_label
 _atom_site_symmetry_multiplicity
 _atom_site_fract_x
 _atom_site_fract_y
 _atom_site_fract_z
 _atom_site_occupancy
  Ti  Ti0  1  -0.00010021  0.50003810  0.00004503  1
  Ti  Ti1  1  -0.00010727  0.50004369  0.49994969  1
  Ti  Ti2  1  0.50003495  -0.00001435  0.00002126  1
  Ti  Ti3  1  0.50003553  -0.00002330  0.49997260  1
  Cr  Cr4  1  0.01083285  0.92239229  0.75004037  1
  Cr  Cr5  1  0.48913725  0.42247116  0.74992278  1
  Cr  Cr6  1  0.51090256  0.57761362  0.25000000  1
  Cr  Cr7  1  0.98911585  0.07756117  0.24999493  1
  O  O8  1  0.13180483  0.44610685  0.25000493  1
  O  O9  1  0.19692312  0.20530017  0.57014794  1
  O  O10  1  0.19690778  0.20528363  0.92985497  1
  O  O11  1  0.30311682  0.70529100  0.57014976  1
  O  O12  1  0.30308172  0.70532064  0.92985775  1
  O  O13  1  0.36824251  0.94610915  0.24999912  1
  O  O14  1  0.63177966  0.05391698  0.75000280  1
  O  O15  1  0.69694953  0.29465512  0.07009057  1
  O  O16  1  0.69691729  0.29467764  0.42991496  1
  O  O17  1  0.80311575  0.79467342  0.07008346  1
  O  O18  1  0.80311632  0.79468143  0.42994537  1
  O  O19  1  0.86819316  0.55390159  0.75000171  1
