# generated using pymatgen
data_Na3SmBr6
_symmetry_space_group_name_H-M   'P 1'
_cell_length_a   8.04184238
_cell_length_b   8.04401340
_cell_length_c   40.20222619
_cell_angle_alpha   55.67285581
_cell_angle_beta   55.71165251
_cell_angle_gamma   55.68458751
_symmetry_Int_Tables_number   1
_chemical_formula_structural   Na3SmBr6
_chemical_formula_sum   'Na15 Sm5 Br30'
_cell_volume   1655.03902456
_cell_formula_units_Z   5
loop_
 _symmetry_equiv_pos_site_id
 _symmetry_equiv_pos_as_xyz
  1  'x, y, z'
loop_
 _atom_site_type_symbol
 _atom_site_label
 _atom_site_symmetry_multiplicity
 _atom_site_fract_x
 _atom_site_fract_y
 _atom_site_fract_z
 _atom_site_occupancy
  Na  Na0  1  0.30930206  0.31123519  0.06133952  1
  Na  Na1  1  0.51019616  0.50712457  0.10068098  1
  Na  Na2  1  0.31038433  0.31056430  0.26149198  1
  Na  Na3  1  0.50887361  0.50696952  0.30083587  1
  Na  Na4  1  0.80766935  0.80813321  0.16118883  1
  Na  Na5  1  0.31035983  0.31064849  0.46148347  1
  Na  Na6  1  0.50878827  0.50738385  0.50074365  1
  Na  Na7  1  0.80778427  0.80845822  0.36119320  1
  Na  Na8  1  0.31216943  0.30872876  0.66132697  1
  Na  Na9  1  0.19582708  0.18571302  0.84021030  1
  Na  Na10  1  0.51249649  0.50841063  0.69991694  1
  Na  Na11  1  0.80789924  0.80859451  0.56111951  1
  Na  Na12  1  0.48844935  0.49766144  0.90324938  1
  Na  Na13  1  0.80693208  0.81323387  0.76032575  1
  Na  Na14  1  0.80804879  0.79999653  0.96369419  1
  Sm  Sm15  1  0.00512993  0.01087094  0.99974457  1
  Sm  Sm16  1  0.00454615  0.00489808  0.60045975  1
  Sm  Sm17  1  0.00428860  0.00472217  0.20054118  1
  Sm  Sm18  1  0.00415669  0.00468298  0.40059677  1
  Sm  Sm19  1  0.99726425  0.99275661  0.80188047  1
  Br  Br20  1  0.11097782  0.38494841  0.14758430  1
  Br  Br21  1  0.38470502  0.73615518  0.02203644  1
  Br  Br22  1  0.73516755  0.10941530  0.07713643  1
  Br  Br23  1  0.21859398  0.90246037  0.12439570  1
  Br  Br24  1  0.62072849  0.21862086  0.18072607  1
  Br  Br25  1  0.11067049  0.38501152  0.34768847  1
  Br  Br26  1  0.90228108  0.62449256  0.04411744  1
  Br  Br27  1  0.38431902  0.73588145  0.22257247  1
  Br  Br28  1  0.73591364  0.11030758  0.27726086  1
  Br  Br29  1  0.21861561  0.90264908  0.32442852  1
  Br  Br30  1  0.62054445  0.21876008  0.38076971  1
  Br  Br31  1  0.11070205  0.38531299  0.54763136  1
  Br  Br32  1  0.90283944  0.62067948  0.24408041  1
  Br  Br33  1  0.38468923  0.73587815  0.42250338  1
  Br  Br34  1  0.73559860  0.11051685  0.47728499  1
  Br  Br35  1  0.21928747  0.90253002  0.52435740  1
  Br  Br36  1  0.62121246  0.21827539  0.58053569  1
  Br  Br37  1  0.10976703  0.37903851  0.75091336  1
  Br  Br38  1  0.90244109  0.62094915  0.44403799  1
  Br  Br39  1  0.38435972  0.73547325  0.62261530  1
  Br  Br40  1  0.73512326  0.11164770  0.67685032  1
  Br  Br41  1  0.22046082  0.90209359  0.72384965  1
  Br  Br42  1  0.62042914  0.22653789  0.77895085  1
  Br  Br43  1  0.10265878  0.38927018  0.95015637  1
  Br  Br44  1  0.90470767  0.62018665  0.64404575  1
  Br  Br45  1  0.38079737  0.77601245  0.82042802  1
  Br  Br46  1  0.77569399  0.10882512  0.87549454  1
  Br  Br47  1  0.22587393  0.89584360  0.92434230  1
  Br  Br48  1  0.62247012  0.21831637  0.98000610  1
  Br  Br49  1  0.89340473  0.61872340  0.84429652  1
