# generated using pymatgen
data_K(WO3)6
_symmetry_space_group_name_H-M   'P 1'
_cell_length_a   7.51537159
_cell_length_b   7.51537198
_cell_length_c   7.72223055
_cell_angle_alpha   90.00000000
_cell_angle_beta   90.00000000
_cell_angle_gamma   119.99999824
_symmetry_Int_Tables_number   1
_chemical_formula_structural   K(WO3)6
_chemical_formula_sum   'K1 W6 O18'
_cell_volume   377.72379371
_cell_formula_units_Z   1
loop_
 _symmetry_equiv_pos_site_id
 _symmetry_equiv_pos_as_xyz
  1  'x, y, z'
loop_
 _atom_site_type_symbol
 _atom_site_label
 _atom_site_symmetry_multiplicity
 _atom_site_fract_x
 _atom_site_fract_y
 _atom_site_fract_z
 _atom_site_occupancy
  K  K0  1  0.00000000  0.00000000  0.49982078  1
  W  W1  1  0.00000000  0.48947957  0.24928762  1
  W  W2  1  0.48947957  0.00000000  0.24928762  1
  W  W3  1  0.51121902  0.00000000  0.75098410  1
  W  W4  1  0.48878098  0.48878098  0.75098410  1
  W  W5  1  0.51052043  0.51052043  0.24928762  1
  W  W6  1  1.00000000  0.51121902  0.75098410  1
  O  O7  1  1.00000000  0.50070375  0.50002970  1
  O  O8  1  0.00000000  0.50015819  0.00003034  1
  O  O9  1  0.20898612  0.78586109  0.25189089  1
  O  O10  1  0.21448871  0.79139865  0.74797310  1
  O  O11  1  0.21413891  0.42312503  0.25189089  1
  O  O12  1  0.20860135  0.42309006  0.74797310  1
  O  O13  1  0.50070375  0.00000000  0.50002970  1
  O  O14  1  0.57687497  0.79101388  0.25189089  1
  O  O15  1  0.57690994  0.78551129  0.74797310  1
  O  O16  1  0.49929625  0.49929625  0.50002970  1
  O  O17  1  0.49984181  0.49984181  0.00003034  1
  O  O18  1  0.42312503  0.21413891  0.25189089  1
  O  O19  1  0.42309006  0.20860135  0.74797310  1
  O  O20  1  0.50015819  0.00000000  0.00003034  1
  O  O21  1  0.78551129  0.57690994  0.74797310  1
  O  O22  1  0.79101388  0.57687497  0.25189089  1
  O  O23  1  0.78586109  0.20898612  0.25189089  1
  O  O24  1  0.79139865  0.21448871  0.74797310  1
