# generated using pymatgen
data_ZnS
_symmetry_space_group_name_H-M   'P 1'
_cell_length_a   3.85322842
_cell_length_b   3.85322832
_cell_length_c   138.48421306
_cell_angle_alpha   90.00000000
_cell_angle_beta   90.00000000
_cell_angle_gamma   120.00000088
_symmetry_Int_Tables_number   1
_chemical_formula_structural   ZnS
_chemical_formula_sum   'Zn44 S44'
_cell_volume   1780.65750062
_cell_formula_units_Z   44
loop_
 _symmetry_equiv_pos_site_id
 _symmetry_equiv_pos_as_xyz
  1  'x, y, z'
loop_
 _atom_site_type_symbol
 _atom_site_label
 _atom_site_symmetry_multiplicity
 _atom_site_fract_x
 _atom_site_fract_y
 _atom_site_fract_z
 _atom_site_occupancy
  Zn  Zn0  1  0.00000000  0.00000000  0.47727230  1
  Zn  Zn1  1  0.33333300  0.66666700  0.70454952  1
  Zn  Zn2  1  0.66666700  0.33333300  0.38636200  1
  Zn  Zn3  1  0.66666700  0.33333300  0.79545261  1
  Zn  Zn4  1  0.00000000  0.00000000  0.81818280  1
  Zn  Zn5  1  0.33333300  0.66666700  0.15909295  1
  Zn  Zn6  1  0.66666700  0.33333300  0.25000223  1
  Zn  Zn7  1  0.00000000  0.00000000  0.86364227  1
  Zn  Zn8  1  0.33333300  0.66666700  0.63636192  1
  Zn  Zn9  1  0.33333300  0.66666700  0.22727244  1
  Zn  Zn10  1  0.00000000  0.00000000  0.27273096  1
  Zn  Zn11  1  0.66666700  0.33333300  0.11364012  1
  Zn  Zn12  1  0.00000000  0.00000000  0.06818290  1
  Zn  Zn13  1  0.66666700  0.33333300  0.88636175  1
  Zn  Zn14  1  0.00000000  0.00000000  0.54545216  1
  Zn  Zn15  1  0.33333300  0.66666700  0.56818292  1
  Zn  Zn16  1  0.00000000  0.00000000  0.93182027  1
  Zn  Zn17  1  0.33333300  0.66666700  0.09091000  1
  Zn  Zn18  1  0.00000000  0.00000000  0.13636201  1
  Zn  Zn19  1  0.66666700  0.33333300  0.04545219  1
  Zn  Zn20  1  0.00000000  0.00000000  0.68182019  1
  Zn  Zn21  1  0.66666700  0.33333300  0.31818289  1
  Zn  Zn22  1  0.33333300  0.66666700  0.97727220  1
  Zn  Zn23  1  0.00000000  0.00000000  0.61363995  1
  Zn  Zn24  1  0.33333300  0.66666700  0.50000237  1
  Zn  Zn25  1  0.00000000  0.00000000  0.75000223  1
  Zn  Zn26  1  0.33333300  0.66666700  0.84090811  1
  Zn  Zn27  1  0.66666700  0.33333300  0.59090986  1
  Zn  Zn28  1  0.00000000  0.00000000  0.34091013  1
  Zn  Zn29  1  0.66666700  0.33333300  0.95454981  1
  Zn  Zn30  1  0.33333300  0.66666700  0.77273081  1
  Zn  Zn31  1  0.33333300  0.66666700  0.36364006  1
  Zn  Zn32  1  0.33333300  0.66666700  0.02273304  1
  Zn  Zn33  1  0.33333300  0.66666700  0.29545224  1
  Zn  Zn34  1  0.00000000  0.00000000  0.20454992  1
  Zn  Zn35  1  0.00000000  0.00000000  0.40909267  1
  Zn  Zn36  1  0.66666700  0.33333300  0.18182021  1
  Zn  Zn37  1  0.66666700  0.33333300  0.52273076  1
  Zn  Zn38  1  0.33333300  0.66666700  0.43182014  1
  Zn  Zn39  1  0.66666700  0.33333300  0.45454287  1
  Zn  Zn40  1  0.00000000  0.00000000  0.00000047  1
  Zn  Zn41  1  0.33333300  0.66666700  0.90909260  1
  Zn  Zn42  1  0.66666700  0.33333300  0.65909281  1
  Zn  Zn43  1  0.66666700  0.33333300  0.72727238  1
  S  S44  1  0.33333300  0.66666700  0.17613710  1
  S  S45  1  0.33333300  0.66666700  0.65340795  1
  S  S46  1  0.66666700  0.33333300  0.26704703  1
  S  S47  1  0.33333300  0.66666700  0.58522672  1
  S  S48  1  0.00000000  0.00000000  0.63067905  1
  S  S49  1  0.66666700  0.33333300  0.90340808  1
  S  S50  1  0.33333300  0.66666700  0.44886005  1
  S  S51  1  0.66666700  0.33333300  0.60795118  1
  S  S52  1  0.33333300  0.66666700  0.10795098  1
  S  S53  1  0.33333300  0.66666700  0.99430920  1
  S  S54  1  0.00000000  0.00000000  0.35795143  1
  S  S55  1  0.33333300  0.66666700  0.31249760  1
  S  S56  1  0.00000000  0.00000000  0.28976970  1
  S  S57  1  0.66666700  0.33333300  0.81249722  1
  S  S58  1  0.33333300  0.66666700  0.78977022  1
  S  S59  1  0.33333300  0.66666700  0.51704706  1
  S  S60  1  0.33333300  0.66666700  0.85795920  1
  S  S61  1  0.00000000  0.00000000  0.42613648  1
  S  S62  1  0.00000000  0.00000000  0.76704686  1
  S  S63  1  0.66666700  0.33333300  0.19886113  1
  S  S64  1  0.00000000  0.00000000  0.94886169  1
  S  S65  1  0.66666700  0.33333300  0.67613696  1
  S  S66  1  0.00000000  0.00000000  0.01705481  1
  S  S67  1  0.66666700  0.33333300  0.33522664  1
  S  S68  1  0.66666700  0.33333300  0.74431750  1
  S  S69  1  0.33333300  0.66666700  0.03976898  1
  S  S70  1  0.33333300  0.66666700  0.38067954  1
  S  S71  1  0.00000000  0.00000000  0.15340720  1
  S  S72  1  0.66666700  0.33333300  0.53977032  1
  S  S73  1  0.00000000  0.00000000  0.49431819  1
  S  S74  1  0.66666700  0.33333300  0.47158705  1
  S  S75  1  0.66666700  0.33333300  0.06249777  1
  S  S76  1  0.00000000  0.00000000  0.56249768  1
  S  S77  1  0.00000000  0.00000000  0.88067772  1
  S  S78  1  0.66666700  0.33333300  0.40340790  1
  S  S79  1  0.00000000  0.00000000  0.22159003  1
  S  S80  1  0.00000000  0.00000000  0.69886183  1
  S  S81  1  0.33333300  0.66666700  0.92613721  1
  S  S82  1  0.66666700  0.33333300  0.97158867  1
  S  S83  1  0.66666700  0.33333300  0.13067950  1
  S  S84  1  0.00000000  0.00000000  0.08522765  1
  S  S85  1  0.33333300  0.66666700  0.24431757  1
  S  S86  1  0.00000000  0.00000000  0.83521921  1
  S  S87  1  0.33333300  0.66666700  0.72158912  1
