# generated using pymatgen
data_K4PH5Se3O16
_symmetry_space_group_name_H-M   'P 1'
_cell_length_a   15.18190246
_cell_length_b   7.78463545
_cell_length_c   7.84754467
_cell_angle_alpha   71.06925145
_cell_angle_beta   87.97994291
_cell_angle_gamma   86.01129717
_symmetry_Int_Tables_number   1
_chemical_formula_structural   K4PH5Se3O16
_chemical_formula_sum   'K8 P2 H10 Se6 O32'
_cell_volume   875.09714624
_cell_formula_units_Z   2
loop_
 _symmetry_equiv_pos_site_id
 _symmetry_equiv_pos_as_xyz
  1  'x, y, z'
loop_
 _atom_site_type_symbol
 _atom_site_label
 _atom_site_symmetry_multiplicity
 _atom_site_fract_x
 _atom_site_fract_y
 _atom_site_fract_z
 _atom_site_occupancy
  K  K0  1  0.01434295  0.73969381  0.22061092  1
  K  K1  1  0.16821248  0.80607368  0.66852825  1
  K  K2  1  0.32977761  0.18877551  0.33706506  1
  K  K3  1  0.48238768  0.25860433  0.77974313  1
  K  K4  1  0.51761232  0.74139567  0.22025687  1
  K  K5  1  0.67022239  0.81122449  0.66293494  1
  K  K6  1  0.83178752  0.19392632  0.33147175  1
  K  K7  1  0.98565705  0.26030619  0.77938908  1
  P  P8  1  0.23138298  0.27592933  0.80887776  1
  P  P9  1  0.76861702  0.72407067  0.19112224  1
  H  H10  1  0.13014136  0.42600935  0.02297199  1
  H  H11  1  0.18284641  0.99248949  0.91816306  1
  H  H12  1  0.25223592  0.46968648  0.53096720  1
  H  H13  1  0.31302932  0.06565599  0.03516565  1
  H  H14  1  0.37161696  0.57088742  0.97166129  1
  H  H15  1  0.62838304  0.42911258  0.02833871  1
  H  H16  1  0.68697068  0.93434401  0.96483435  1
  H  H17  1  0.74776408  0.53031352  0.46903280  1
  H  H18  1  0.81715359  0.00751051  0.08183694  1
  H  H19  1  0.86985864  0.57399065  0.97702801  1
  Se  Se20  1  0.06498700  0.21850398  0.27508646  1
  Se  Se21  1  0.26623431  0.72405412  0.19935372  1
  Se  Se22  1  0.43607727  0.78207067  0.72260345  1
  Se  Se23  1  0.56392273  0.21792933  0.27739655  1
  Se  Se24  1  0.73376569  0.27594588  0.80064628  1
  Se  Se25  1  0.93501300  0.78149602  0.72491354  1
  O  O26  1  0.00475146  0.13471681  0.15118151  1
  O  O27  1  0.00435290  0.27212249  0.43182933  1
  O  O28  1  0.09747306  0.43541788  0.13833052  1
  O  O29  1  0.15637886  0.09118104  0.34734567  1
  O  O30  1  0.17407945  0.11338007  0.81134825  1
  O  O31  1  0.17500557  0.42863135  0.84501137  1
  O  O32  1  0.18677508  0.79992907  0.04427453  1
  O  O33  1  0.21732635  0.64836716  0.40332528  1
  O  O34  1  0.27641324  0.34373797  0.61693329  1
  O  O35  1  0.30958785  0.19874987  0.94379409  1
  O  O36  1  0.33021926  0.55441081  0.16500030  1
  O  O37  1  0.33134734  0.89439913  0.18665494  1
  O  O38  1  0.34391500  0.90819987  0.65267107  1
  O  O39  1  0.40379124  0.56313025  0.85698961  1
  O  O40  1  0.50454188  0.13550413  0.15164216  1
  O  O41  1  0.50324309  0.27064328  0.43407221  1
  O  O42  1  0.49675691  0.72935672  0.56592779  1
  O  O43  1  0.49545812  0.86449587  0.84835784  1
  O  O44  1  0.59620876  0.43686975  0.14301039  1
  O  O45  1  0.65608500  0.09180013  0.34732893  1
  O  O46  1  0.66865266  0.10560087  0.81334506  1
  O  O47  1  0.66978074  0.44558919  0.83499970  1
  O  O48  1  0.69041215  0.80125013  0.05620591  1
  O  O49  1  0.72358676  0.65626203  0.38306671  1
  O  O50  1  0.78267365  0.35163284  0.59667472  1
  O  O51  1  0.81322492  0.20007093  0.95572547  1
  O  O52  1  0.82499443  0.57136865  0.15498863  1
  O  O53  1  0.82592055  0.88661993  0.18865175  1
  O  O54  1  0.84362114  0.90881896  0.65265433  1
  O  O55  1  0.90252694  0.56458212  0.86166948  1
  O  O56  1  0.99564710  0.72787751  0.56817067  1
  O  O57  1  0.99524854  0.86528319  0.84881849  1
