# generated using pymatgen
data_B2AsH13C3Br3N
_symmetry_space_group_name_H-M   'P 1'
_cell_length_a   6.78031215
_cell_length_b   11.55603140
_cell_length_c   18.73390490
_cell_angle_alpha   102.97928029
_cell_angle_beta   90.00000000
_cell_angle_gamma   90.00000000
_symmetry_Int_Tables_number   1
_chemical_formula_structural   B2AsH13C3Br3N
_chemical_formula_sum   'B8 As4 H52 C12 Br12 N4'
_cell_volume   1430.36499779
_cell_formula_units_Z   4
loop_
 _symmetry_equiv_pos_site_id
 _symmetry_equiv_pos_as_xyz
  1  'x, y, z'
loop_
 _atom_site_type_symbol
 _atom_site_label
 _atom_site_symmetry_multiplicity
 _atom_site_fract_x
 _atom_site_fract_y
 _atom_site_fract_z
 _atom_site_occupancy
  B  B0  1  0.88506731  0.20614294  0.35297154  1
  B  B1  1  0.38506731  0.79385706  0.14702846  1
  B  B2  1  0.11493269  0.79385706  0.64702846  1
  B  B3  1  0.61493269  0.20614294  0.85297154  1
  B  B4  1  0.93536730  0.31199259  0.18628427  1
  B  B5  1  0.43536730  0.68800741  0.31371573  1
  B  B6  1  0.06463270  0.68800741  0.81371573  1
  B  B7  1  0.56463270  0.31199259  0.68628427  1
  As  As8  1  0.98530848  0.17979308  0.24422595  1
  As  As9  1  0.48530848  0.82020692  0.25577405  1
  As  As10  1  0.01469152  0.82020692  0.75577405  1
  As  As11  1  0.51469152  0.17979308  0.74422595  1
  H  H12  1  0.98495972  0.40401280  0.22680398  1
  H  H13  1  0.48495972  0.59598720  0.27319602  1
  H  H14  1  0.01504028  0.59598720  0.77319602  1
  H  H15  1  0.51504028  0.40401280  0.72680398  1
  H  H16  1  0.76195230  0.30406707  0.17102104  1
  H  H17  1  0.26195230  0.69593293  0.32897896  1
  H  H18  1  0.23804770  0.69593293  0.82897896  1
  H  H19  1  0.73804770  0.30406707  0.67102104  1
  H  H20  1  0.20220046  0.14615798  0.24470020  1
  H  H21  1  0.70220046  0.85384202  0.25529980  1
  H  H22  1  0.79779954  0.85384202  0.75529980  1
  H  H23  1  0.29779954  0.14615798  0.74470020  1
  H  H24  1  0.90326895  0.06013649  0.20441840  1
  H  H25  1  0.40326895  0.93986351  0.29558160  1
  H  H26  1  0.09673105  0.93986351  0.79558160  1
  H  H27  1  0.59673105  0.06013649  0.70441840  1
  H  H28  1  0.86457391  0.17265735  0.04751498  1
  H  H29  1  0.36457391  0.82734265  0.45248502  1
  H  H30  1  0.13542609  0.82734265  0.95248502  1
  H  H31  1  0.63542609  0.17265735  0.54751498  1
  H  H32  1  0.10627668  0.17606128  0.00924347  1
  H  H33  1  0.60627668  0.82393872  0.49075653  1
  H  H34  1  0.89372332  0.82393872  0.99075653  1
  H  H35  1  0.39372332  0.17606128  0.50924347  1
  H  H36  1  0.06915079  0.10729879  0.08490598  1
  H  H37  1  0.56915079  0.89270121  0.41509402  1
  H  H38  1  0.93084921  0.89270121  0.91509402  1
  H  H39  1  0.43084921  0.10729879  0.58490598  1
  H  H40  1  0.08146819  0.39111434  0.02755000  1
  H  H41  1  0.58146819  0.60888566  0.47245000  1
  H  H42  1  0.91853181  0.60888566  0.97245000  1
  H  H43  1  0.41853181  0.39111434  0.52755000  1
  H  H44  1  0.83673545  0.37897558  0.06205831  1
  H  H45  1  0.33673545  0.62102442  0.43794169  1
  H  H46  1  0.16326455  0.62102442  0.93794169  1
  H  H47  1  0.66326455  0.37897558  0.56205831  1
  H  H48  1  0.00990032  0.47897917  0.11568487  1
  H  H49  1  0.50990032  0.52102083  0.38431513  1
  H  H50  1  0.99009968  0.52102083  0.88431513  1
  H  H51  1  0.49009968  0.47897917  0.61568487  1
  H  H52  1  0.33168824  0.23714120  0.14804937  1
  H  H53  1  0.83168824  0.76285880  0.35195063  1
  H  H54  1  0.66831176  0.76285880  0.85195063  1
  H  H55  1  0.16831176  0.23714120  0.64804937  1
  H  H56  1  0.35201667  0.30881335  0.07294116  1
  H  H57  1  0.85201667  0.69118665  0.42705884  1
  H  H58  1  0.64798333  0.69118665  0.92705884  1
  H  H59  1  0.14798333  0.30881335  0.57294116  1
  H  H60  1  0.30421732  0.39541940  0.16339656  1
  H  H61  1  0.80421732  0.60458060  0.33660344  1
  H  H62  1  0.69578268  0.60458060  0.83660344  1
  H  H63  1  0.19578268  0.39541940  0.66339656  1
  C  C64  1  0.02265683  0.18001471  0.05971756  1
  C  C65  1  0.52265683  0.81998529  0.44028244  1
  C  C66  1  0.97734317  0.81998529  0.94028244  1
  C  C67  1  0.47734317  0.18001471  0.55971756  1
  C  C68  1  0.99216417  0.39359388  0.07672674  1
  C  C69  1  0.49216417  0.60640612  0.42327326  1
  C  C70  1  0.00783583  0.60640612  0.92327326  1
  C  C71  1  0.50783583  0.39359388  0.57672674  1
  C  C72  1  0.27727455  0.31037975  0.12511573  1
  C  C73  1  0.77727455  0.68962025  0.37488427  1
  C  C74  1  0.72272545  0.68962025  0.87488427  1
  C  C75  1  0.22272545  0.31037975  0.62511573  1
  Br  Br76  1  0.96845548  0.06450862  0.39354046  1
  Br  Br77  1  0.46845548  0.93549138  0.10645954  1
  Br  Br78  1  0.03154452  0.93549138  0.60645954  1
  Br  Br79  1  0.53154452  0.06450862  0.89354046  1
  Br  Br80  1  0.58741611  0.21886669  0.35042713  1
  Br  Br81  1  0.08741611  0.78113331  0.14957287  1
  Br  Br82  1  0.41258389  0.78113331  0.64957287  1
  Br  Br83  1  0.91258389  0.21886669  0.85042713  1
  Br  Br84  1  0.01002910  0.35740122  0.41118764  1
  Br  Br85  1  0.51002910  0.64259878  0.08881236  1
  Br  Br86  1  0.98997090  0.64259878  0.58881236  1
  Br  Br87  1  0.48997090  0.35740122  0.91118764  1
  N  N88  1  0.06015555  0.29608857  0.11195592  1
  N  N89  1  0.56015555  0.70391143  0.38804408  1
  N  N90  1  0.93984445  0.70391143  0.88804408  1
  N  N91  1  0.43984445  0.29608857  0.61195592  1
