# generated using pymatgen
data_NaCoP2HO7
_symmetry_space_group_name_H-M   'P 1'
_cell_length_a   6.58094180
_cell_length_b   6.58973098
_cell_length_c   20.21387026
_cell_angle_alpha   84.30571846
_cell_angle_beta   66.96917422
_cell_angle_gamma   88.01031978
_symmetry_Int_Tables_number   1
_chemical_formula_structural   NaCoP2HO7
_chemical_formula_sum   'Na6 Co6 P12 H6 O42'
_cell_volume   802.74821248
_cell_formula_units_Z   6
loop_
 _symmetry_equiv_pos_site_id
 _symmetry_equiv_pos_as_xyz
  1  'x, y, z'
loop_
 _atom_site_type_symbol
 _atom_site_label
 _atom_site_symmetry_multiplicity
 _atom_site_fract_x
 _atom_site_fract_y
 _atom_site_fract_z
 _atom_site_occupancy
  Na  Na0  1  0.22670097  0.61297051  0.08574347  1
  Na  Na1  1  0.22685203  0.61294799  0.41896791  1
  Na  Na2  1  0.69437694  0.34357970  0.25393203  1
  Na  Na3  1  0.30378152  0.65571262  0.74665755  1
  Na  Na4  1  0.69404813  0.34310729  0.58728019  1
  Na  Na5  1  0.69611405  0.34459701  0.92014059  1
  Co  Co6  1  0.28510484  0.14377181  0.20519790  1
  Co  Co7  1  0.70968229  0.85538431  0.12784153  1
  Co  Co8  1  0.28415686  0.14520329  0.53897849  1
  Co  Co9  1  0.70983517  0.85478892  0.46062570  1
  Co  Co10  1  0.28504448  0.14505153  0.87180817  1
  Co  Co11  1  0.71426456  0.85461951  0.79513472  1
  P  P12  1  0.16230185  0.11700356  0.04529910  1
  P  P13  1  0.25975292  0.64199746  0.23950655  1
  P  P14  1  0.16288523  0.11759784  0.37840001  1
  P  P15  1  0.74038460  0.35753334  0.09332101  1
  P  P16  1  0.26014630  0.64275394  0.57301690  1
  P  P17  1  0.16199183  0.11948830  0.71183976  1
  P  P18  1  0.83830132  0.88116907  0.28817676  1
  P  P19  1  0.74009342  0.35713941  0.42664590  1
  P  P20  1  0.25995264  0.64131987  0.90641312  1
  P  P21  1  0.83775174  0.88037243  0.62147411  1
  P  P22  1  0.74018930  0.35850660  0.76007945  1
  P  P23  1  0.83728653  0.88090010  0.95514553  1
  H  H24  1  0.42818302  0.28249725  0.06686964  1
  H  H25  1  0.42823484  0.28237245  0.40028244  1
  H  H26  1  0.57444681  0.71700712  0.26708724  1
  H  H27  1  0.42516179  0.28361531  0.73385486  1
  H  H28  1  0.57514669  0.71645083  0.59937358  1
  H  H29  1  0.57428532  0.71707085  0.93389170  1
  O  O30  1  0.04275232  0.92128163  0.08411821  1
  O  O31  1  0.01675313  0.71290523  0.29268677  1
  O  O32  1  0.27038792  0.20630967  0.09406641  1
  O  O33  1  0.22627387  0.46372433  0.20219221  1
  O  O34  1  0.04262177  0.92099152  0.41754348  1
  O  O35  1  0.36302664  0.82890732  0.18442028  1
  O  O36  1  0.33229677  0.11386115  0.30233338  1
  O  O37  1  0.61537130  0.40482772  0.04368624  1
  O  O38  1  0.38272742  0.59146026  0.28973114  1
  O  O39  1  0.66995556  0.88871717  0.03102283  1
  O  O40  1  0.01711677  0.71326179  0.62597122  1
  O  O41  1  0.27012679  0.20621958  0.42755685  1
  O  O42  1  0.63500679  0.17344496  0.14981961  1
  O  O43  1  0.22644099  0.46426841  0.53579920  1
  O  O44  1  0.04474290  0.92128578  0.75048459  1
  O  O45  1  0.77864989  0.53610833  0.12988362  1
  O  O46  1  0.36420992  0.82948375  0.51792208  1
  O  O47  1  0.72763137  0.79536789  0.23953140  1
  O  O48  1  0.98384290  0.28644454  0.04064776  1
  O  O49  1  0.33209633  0.11474972  0.63562113  1
  O  O50  1  0.61522331  0.40488547  0.37710048  1
  O  O51  1  0.38456457  0.59263719  0.62283619  1
  O  O52  1  0.67002248  0.88922100  0.36454174  1
  O  O53  1  0.01674063  0.71273823  0.95930880  1
  O  O54  1  0.27143968  0.20397215  0.76098656  1
  O  O55  1  0.63447849  0.17290500  0.48306684  1
  O  O56  1  0.22800331  0.46361184  0.86856997  1
  O  O57  1  0.95546522  0.07843896  0.24905303  1
  O  O58  1  0.77868031  0.53536010  0.46332596  1
  O  O59  1  0.36462105  0.82741002  0.85064088  1
  O  O60  1  0.72897579  0.79518185  0.57228004  1
  O  O61  1  0.98377545  0.28617095  0.37402207  1
  O  O62  1  0.33244355  0.11372828  0.96874737  1
  O  O63  1  0.61593698  0.40653640  0.71013560  1
  O  O64  1  0.38227722  0.59218203  0.95671553  1
  O  O65  1  0.66779784  0.88572567  0.69778876  1
  O  O66  1  0.63584940  0.17231525  0.81585448  1
  O  O67  1  0.95441699  0.07873210  0.58290684  1
  O  O68  1  0.77199820  0.53653866  0.79765621  1
  O  O69  1  0.72752186  0.79546302  0.90625564  1
  O  O70  1  0.98327336  0.28709110  0.70731231  1
  O  O71  1  0.95600497  0.07860376  0.91553744  1
