# generated using pymatgen
data_K4Zr3Mn(PO4)6
_symmetry_space_group_name_H-M   'P 1'
_cell_length_a   10.37655241
_cell_length_b   10.38096061
_cell_length_c   10.36498149
_cell_angle_alpha   90.00000000
_cell_angle_beta   90.00000000
_cell_angle_gamma   89.96424286
_symmetry_Int_Tables_number   1
_chemical_formula_structural   K4Zr3Mn(PO4)6
_chemical_formula_sum   'K8 Zr6 Mn2 P12 O48'
_cell_volume   1116.50088949
_cell_formula_units_Z   2
loop_
 _symmetry_equiv_pos_site_id
 _symmetry_equiv_pos_as_xyz
  1  'x, y, z'
loop_
 _atom_site_type_symbol
 _atom_site_label
 _atom_site_symmetry_multiplicity
 _atom_site_fract_x
 _atom_site_fract_y
 _atom_site_fract_z
 _atom_site_occupancy
  K  K0  1  0.05995521  0.43849888  0.56361753  1
  K  K1  1  0.19392481  0.79074611  0.29911478  1
  K  K2  1  0.30607519  0.20925389  0.79911478  1
  K  K3  1  0.44004479  0.56150112  0.06361753  1
  K  K4  1  0.57224768  0.07105656  0.43123400  1
  K  K5  1  0.70676078  0.69107356  0.70044560  1
  K  K6  1  0.79323922  0.30892644  0.20044560  1
  K  K7  1  0.92775232  0.92894344  0.93123400  1
  Zr  Zr8  1  0.08217383  0.58491774  0.91559754  1
  Zr  Zr9  1  0.14349007  0.14642790  0.14390771  1
  Zr  Zr10  1  0.35650993  0.85357210  0.64390771  1
  Zr  Zr11  1  0.41782617  0.41508226  0.41559754  1
  Zr  Zr12  1  0.58878571  0.91359250  0.08650356  1
  Zr  Zr13  1  0.91121429  0.08640750  0.58650356  1
  Mn  Mn14  1  0.64941403  0.35523331  0.85183195  1
  Mn  Mn15  1  0.85058597  0.64476669  0.35183195  1
  P  P16  1  0.03662486  0.76976897  0.62562963  1
  P  P17  1  0.12697478  0.46335631  0.23135917  1
  P  P18  1  0.23010200  0.12655384  0.46198760  1
  P  P19  1  0.26989800  0.87344616  0.96198760  1
  P  P20  1  0.37302522  0.53664369  0.73135917  1
  P  P21  1  0.46337514  0.23023103  0.12562963  1
  P  P22  1  0.54032764  0.73191791  0.37556063  1
  P  P23  1  0.62302237  0.04039613  0.76890725  1
  P  P24  1  0.73284699  0.37715050  0.53904253  1
  P  P25  1  0.76715301  0.62284950  0.03904253  1
  P  P26  1  0.87697763  0.95960387  0.26890725  1
  P  P27  1  0.95967236  0.26808209  0.87556063  1
  O  O28  1  0.00642108  0.40875032  0.85225805  1
  O  O29  1  0.02371133  0.69737846  0.75702555  1
  O  O30  1  0.02912265  0.54774243  0.29885396  1
  O  O31  1  0.05484330  0.20275996  0.97345338  1
  O  O32  1  0.08419137  0.31855933  0.23140809  1
  O  O33  1  0.08955411  0.14870773  0.50605734  1
  O  O34  1  0.15082587  0.50469491  0.08860838  1
  O  O35  1  0.18158572  0.77018932  0.58396732  1
  O  O36  1  0.19303445  0.74721315  0.97981677  1
  O  O37  1  0.20317409  0.97602387  0.04768645  1
  O  O38  1  0.23259402  0.08086237  0.31960690  1
  O  O39  1  0.24223512  0.52483800  0.80423965  1
  O  O40  1  0.25776488  0.47516200  0.30423965  1
  O  O41  1  0.26740598  0.91913763  0.81960690  1
  O  O42  1  0.29682591  0.02397613  0.54768645  1
  O  O43  1  0.30696555  0.25278685  0.47981677  1
  O  O44  1  0.31841428  0.22981068  0.08396732  1
  O  O45  1  0.34917413  0.49530509  0.58860838  1
  O  O46  1  0.41044589  0.85129227  0.00605734  1
  O  O47  1  0.41580863  0.68144067  0.73140809  1
  O  O48  1  0.44515670  0.79724004  0.47345338  1
  O  O49  1  0.47087735  0.45225757  0.79885396  1
  O  O50  1  0.47628867  0.30262154  0.25702555  1
  O  O51  1  0.49357892  0.59124968  0.35225805  1
  O  O52  1  0.50519656  0.08801151  0.14981816  1
  O  O53  1  0.52081083  0.80776071  0.24703490  1
  O  O54  1  0.52470560  0.94627017  0.70314523  1
  O  O55  1  0.54602493  0.29810909  0.02654509  1
  O  O56  1  0.57272341  0.17707817  0.76188766  1
  O  O57  1  0.58943072  0.35156863  0.49466562  1
  O  O58  1  0.64659946  0.99321938  0.90958319  1
  O  O59  1  0.67691110  0.73966253  0.42662912  1
  O  O60  1  0.69658930  0.75752594  0.02530612  1
  O  O61  1  0.70057162  0.53174010  0.94569856  1
  O  O62  1  0.73742508  0.42394955  0.67814883  1
  O  O63  1  0.74788282  0.97997138  0.19381620  1
  O  O64  1  0.75211718  0.02002862  0.69381620  1
  O  O65  1  0.76257492  0.57605045  0.17814883  1
  O  O66  1  0.79942838  0.46825990  0.44569856  1
  O  O67  1  0.80341070  0.24247406  0.52530612  1
  O  O68  1  0.82308890  0.26033747  0.92662912  1
  O  O69  1  0.85340054  0.00678062  0.40958319  1
  O  O70  1  0.91056928  0.64843137  0.99466562  1
  O  O71  1  0.92727659  0.82292183  0.26188766  1
  O  O72  1  0.95397507  0.70189091  0.52654509  1
  O  O73  1  0.97529440  0.05372983  0.20314523  1
  O  O74  1  0.97918917  0.19223929  0.74703490  1
  O  O75  1  0.99480344  0.91198849  0.64981816  1
