# generated using pymatgen
data_BaYF5
_symmetry_space_group_name_H-M   'P 1'
_cell_length_a   8.49008711
_cell_length_b   8.49008711
_cell_length_c   5.99055365
_cell_angle_alpha   89.28184227
_cell_angle_beta   90.71815773
_cell_angle_gamma   30.59737065
_symmetry_Int_Tables_number   1
_chemical_formula_structural   BaYF5
_chemical_formula_sum   'Ba2 Y2 F10'
_cell_volume   219.54325692
_cell_formula_units_Z   2
loop_
 _symmetry_equiv_pos_site_id
 _symmetry_equiv_pos_as_xyz
  1  'x, y, z'
loop_
 _atom_site_type_symbol
 _atom_site_label
 _atom_site_symmetry_multiplicity
 _atom_site_fract_x
 _atom_site_fract_y
 _atom_site_fract_z
 _atom_site_occupancy
  Ba  Ba0  1  0.67250090  0.67250090  0.75000000  1
  Ba  Ba1  1  0.32749910  0.32749910  0.25000000  1
  Y  Y2  1  0.92663165  0.92663165  0.75000000  1
  Y  Y3  1  0.07336835  0.07336835  0.25000000  1
  F  F4  1  0.26089321  0.80794989  0.59173032  1
  F  F5  1  0.19205011  0.73910679  0.09173032  1
  F  F6  1  0.19518884  0.17113027  0.01175439  1
  F  F7  1  0.38260183  0.38260183  0.75000000  1
  F  F8  1  0.17113027  0.19518884  0.48824561  1
  F  F9  1  0.82886973  0.80481116  0.51175439  1
  F  F10  1  0.61739817  0.61739817  0.25000000  1
  F  F11  1  0.80481116  0.82886973  0.98824561  1
  F  F12  1  0.80794989  0.26089321  0.90826968  1
  F  F13  1  0.73910679  0.19205011  0.40826968  1
