# generated using pymatgen
data_SnF2
_symmetry_space_group_name_H-M   'P 1'
_cell_length_a   5.14741973
_cell_length_b   5.30178559
_cell_length_c   8.48933623
_cell_angle_alpha   90.00000000
_cell_angle_beta   90.00000000
_cell_angle_gamma   90.00000000
_symmetry_Int_Tables_number   1
_chemical_formula_structural   SnF2
_chemical_formula_sum   'Sn4 F8'
_cell_volume   231.67836409
_cell_formula_units_Z   4
loop_
 _symmetry_equiv_pos_site_id
 _symmetry_equiv_pos_as_xyz
  1  'x, y, z'
loop_
 _atom_site_type_symbol
 _atom_site_label
 _atom_site_symmetry_multiplicity
 _atom_site_fract_x
 _atom_site_fract_y
 _atom_site_fract_z
 _atom_site_occupancy
  F  F0  1  0.09961084  0.75721418  0.79915267  1
  F  F1  1  0.59961084  0.74278582  0.20084733  1
  F  F2  1  0.90038916  0.25721418  0.70084733  1
  F  F3  1  0.40038916  0.24278582  0.29915267  1
  F  F4  1  0.52289095  0.13320116  0.95643346  1
  F  F5  1  0.02289095  0.36679884  0.04356654  1
  F  F6  1  0.47710905  0.63320116  0.54356654  1
  F  F7  1  0.97710905  0.86679884  0.45643346  1
  Sn  Sn8  1  0.25393034  0.00312107  0.62257166  1
  Sn  Sn9  1  0.75393034  0.49687893  0.37742834  1
  Sn  Sn10  1  0.74606966  0.50312107  0.87742834  1
  Sn  Sn11  1  0.24606966  0.99687893  0.12257166  1
