# generated using pymatgen
data_Ca5P3HO13
_symmetry_space_group_name_H-M   'P 1'
_cell_length_a   9.50280915
_cell_length_b   19.00220481
_cell_length_c   6.93592362
_cell_angle_alpha   90.00000000
_cell_angle_beta   90.00000000
_cell_angle_gamma   120.03718050
_symmetry_Int_Tables_number   1
_chemical_formula_structural   Ca5P3HO13
_chemical_formula_sum   'Ca20 P12 H4 O52'
_cell_volume   1084.24668506
_cell_formula_units_Z   4
loop_
 _symmetry_equiv_pos_site_id
 _symmetry_equiv_pos_as_xyz
  1  'x, y, z'
loop_
 _atom_site_type_symbol
 _atom_site_label
 _atom_site_symmetry_multiplicity
 _atom_site_fract_x
 _atom_site_fract_y
 _atom_site_fract_z
 _atom_site_occupancy
  Ca  Ca0  1  0.32570090  0.07979917  0.49967020  1
  Ca  Ca1  1  0.67429910  0.42020083  0.99967020  1
  Ca  Ca2  1  0.67429910  0.92020083  0.50032980  1
  Ca  Ca3  1  0.32570090  0.57979917  0.00032980  1
  Ca  Ca4  1  0.34125652  0.08703580  0.00190789  1
  Ca  Ca5  1  0.65874348  0.41296420  0.50190789  1
  Ca  Ca6  1  0.65874348  0.91296420  0.99809211  1
  Ca  Ca7  1  0.34125652  0.58703580  0.49809211  1
  Ca  Ca8  1  0.24669817  0.74678845  0.24651385  1
  Ca  Ca9  1  0.75330183  0.75321155  0.74651385  1
  Ca  Ca10  1  0.75330183  0.25321155  0.75348615  1
  Ca  Ca11  1  0.24669817  0.24678845  0.25348615  1
  Ca  Ca12  1  0.99389487  0.12342129  0.75640012  1
  Ca  Ca13  1  0.00610513  0.37657871  0.25640012  1
  Ca  Ca14  1  0.00610513  0.87657871  0.24359988  1
  Ca  Ca15  1  0.99389487  0.62342129  0.74359988  1
  Ca  Ca16  1  0.25311782  0.87336443  0.74348787  1
  Ca  Ca17  1  0.74688218  0.62663557  0.24348787  1
  Ca  Ca18  1  0.74688218  0.12663557  0.25651213  1
  Ca  Ca19  1  0.25311782  0.37336443  0.75651213  1
  P  P20  1  0.39827379  0.93401498  0.24512566  1
  P  P21  1  0.60172621  0.56598502  0.74512566  1
  P  P22  1  0.60172621  0.06598502  0.75487434  1
  P  P23  1  0.39827379  0.43401498  0.25487434  1
  P  P24  1  0.63177286  0.76495252  0.24452985  1
  P  P25  1  0.36822714  0.73504748  0.74452985  1
  P  P26  1  0.36822714  0.23504748  0.75547015  1
  P  P27  1  0.63177286  0.26495252  0.25547015  1
  P  P28  1  0.02989564  0.94914702  0.74845767  1
  P  P29  1  0.97010436  0.55085298  0.24845767  1
  P  P30  1  0.97010436  0.05085298  0.25154233  1
  P  P31  1  0.02989564  0.44914702  0.75154233  1
  H  H32  1  0.99997899  0.75005378  0.05726960  1
  H  H33  1  0.00002101  0.74994622  0.55726960  1
  H  H34  1  0.00002101  0.24994622  0.94273040  1
  H  H35  1  0.99997899  0.25005378  0.44273040  1
  O  O36  1  0.32772018  0.99215715  0.23997697  1
  O  O37  1  0.67227982  0.50784285  0.73997697  1
  O  O38  1  0.67227982  0.00784285  0.76002303  1
  O  O39  1  0.32772018  0.49215715  0.26002303  1
  O  O40  1  0.48503107  0.82848603  0.73995876  1
  O  O41  1  0.51496893  0.67151397  0.23995876  1
  O  O42  1  0.51496893  0.17151397  0.26004124  1
  O  O43  1  0.48503107  0.32848603  0.76004124  1
  O  O44  1  0.15685418  0.08595707  0.25425645  1
  O  O45  1  0.84314582  0.41404293  0.75425645  1
  O  O46  1  0.84314582  0.91404293  0.74574355  1
  O  O47  1  0.15685418  0.58595707  0.24574355  1
  O  O48  1  0.58746969  0.98288227  0.26335769  1
  O  O49  1  0.41253031  0.51711773  0.76335769  1
  O  O50  1  0.41253031  0.01711773  0.73664231  1
  O  O51  1  0.58746969  0.48288227  0.23664231  1
  O  O52  1  0.53466893  0.81117240  0.25741308  1
  O  O53  1  0.46533107  0.68882760  0.75741308  1
  O  O54  1  0.46533107  0.18882760  0.74258692  1
  O  O55  1  0.53466893  0.31117240  0.24258692  1
  O  O56  1  0.12194305  0.04370891  0.76768909  1
  O  O57  1  0.87805695  0.45629109  0.26768909  1
  O  O58  1  0.87805695  0.95629109  0.23231091  1
  O  O59  1  0.12194305  0.54370891  0.73231091  1
  O  O60  1  0.32744642  0.87447225  0.41811319  1
  O  O61  1  0.67255358  0.62552775  0.91811319  1
  O  O62  1  0.67255358  0.12552775  0.58188681  1
  O  O63  1  0.32744642  0.37447225  0.08188681  1
  O  O64  1  0.74826023  0.79035542  0.42095554  1
  O  O65  1  0.25173977  0.70964458  0.92095554  1
  O  O66  1  0.25173977  0.20964458  0.57904446  1
  O  O67  1  0.74826023  0.29035542  0.07904446  1
  O  O68  1  0.07974101  0.91317442  0.91875786  1
  O  O69  1  0.92025899  0.58682558  0.41875786  1
  O  O70  1  0.92025899  0.08682558  0.08124214  1
  O  O71  1  0.07974101  0.41317442  0.58124214  1
  O  O72  1  0.35754204  0.88220865  0.05837415  1
  O  O73  1  0.64245796  0.61779135  0.55837415  1
  O  O74  1  0.64245796  0.11779135  0.94162585  1
  O  O75  1  0.35754204  0.38220865  0.44162585  1
  O  O76  1  0.73802019  0.79508434  0.06029053  1
  O  O77  1  0.26197981  0.70491566  0.56029053  1
  O  O78  1  0.26197981  0.20491566  0.93970947  1
  O  O79  1  0.73802019  0.29508434  0.43970947  1
  O  O80  1  0.09069128  0.92898019  0.55956514  1
  O  O81  1  0.90930872  0.57101981  0.05956514  1
  O  O82  1  0.90930872  0.07101981  0.44043486  1
  O  O83  1  0.09069128  0.42898019  0.94043486  1
  O  O84  1  0.99961556  0.75024979  0.19896655  1
  O  O85  1  0.00038444  0.74975021  0.69896655  1
  O  O86  1  0.00038444  0.24975021  0.80103345  1
  O  O87  1  0.99961556  0.25024979  0.30103345  1
