# generated using pymatgen
data_K2Cr2AsHO10
_symmetry_space_group_name_H-M   'P 1'
_cell_length_a   7.84414665
_cell_length_b   7.84414636
_cell_length_c   14.74552908
_cell_angle_alpha   90.00000000
_cell_angle_beta   90.00000000
_cell_angle_gamma   120.00000123
_symmetry_Int_Tables_number   1
_chemical_formula_structural   K2Cr2AsHO10
_chemical_formula_sum   'K6 Cr6 As3 H3 O30'
_cell_volume   785.74636228
_cell_formula_units_Z   3
loop_
 _symmetry_equiv_pos_site_id
 _symmetry_equiv_pos_as_xyz
  1  'x, y, z'
loop_
 _atom_site_type_symbol
 _atom_site_label
 _atom_site_symmetry_multiplicity
 _atom_site_fract_x
 _atom_site_fract_y
 _atom_site_fract_z
 _atom_site_occupancy
  K  K0  1  0.02070102  0.56674779  0.67995955  1
  K  K1  1  0.54604677  0.97929898  0.01329355  1
  K  K2  1  0.43325221  0.45395323  0.34662655  1
  K  K3  1  0.39653026  0.39078267  0.85224812  1
  K  K4  1  0.99425241  0.60346974  0.18558212  1
  K  K5  1  0.60921733  0.00574759  0.51891512  1
  Cr  Cr6  1  0.57987649  0.99736452  0.76382819  1
  Cr  Cr7  1  0.41748803  0.42012351  0.09716219  1
  Cr  Cr8  1  0.00263548  0.58251197  0.43049519  1
  Cr  Cr9  1  0.99485414  0.57132998  0.94042800  1
  Cr  Cr10  1  0.57647585  0.00514586  0.27376200  1
  Cr  Cr11  1  0.42867002  0.42352415  0.60709500  1
  As  As12  1  0.89601057  0.87552814  0.83553661  1
  As  As13  1  0.97951757  0.10398943  0.16887061  1
  As  As14  1  0.12447186  0.02048243  0.50220361  1
  H  H15  1  0.96332479  0.96562551  0.64389255  1
  H  H16  1  0.00230072  0.03667521  0.97722655  1
  H  H17  1  0.03437449  0.99769928  0.31055955  1
  O  O18  1  0.41411164  0.85679550  0.68998115  1
  O  O19  1  0.44268386  0.58588836  0.02331515  1
  O  O20  1  0.14320450  0.55731614  0.35664815  1
  O  O21  1  0.49029951  0.09084884  0.83507521  1
  O  O22  1  0.60054932  0.50970049  0.16840921  1
  O  O23  1  0.90915116  0.39945068  0.50174221  1
  O  O24  1  0.76745977  0.16881128  0.71027463  1
  O  O25  1  0.40135151  0.23254023  0.04360863  1
  O  O26  1  0.83118872  0.59864849  0.37694163  1
  O  O27  1  0.66037981  0.84976722  0.83139684  1
  O  O28  1  0.18938741  0.33962019  0.16473084  1
  O  O29  1  0.15023278  0.81061259  0.49806384  1
  O  O30  1  0.00897296  0.91377653  0.73579752  1
  O  O31  1  0.90480357  0.99102704  0.06913152  1
  O  O32  1  0.08622347  0.09519643  0.40246452  1
  O  O33  1  0.04657914  0.06345570  0.90967184  1
  O  O34  1  0.01687656  0.95342086  0.24300584  1
  O  O35  1  0.93654430  0.98312344  0.57633884  1
  O  O36  1  0.83270201  0.64491226  0.88141505  1
  O  O37  1  0.81221024  0.16729799  0.21474905  1
  O  O38  1  0.35508774  0.18778976  0.54808205  1
  O  O39  1  0.85587654  0.37433603  0.99915890  1
  O  O40  1  0.51845948  0.14412346  0.33249290  1
  O  O41  1  0.62566397  0.48154052  0.66582590  1
  O  O42  1  0.12304693  0.53207900  0.86496589  1
  O  O43  1  0.40903207  0.87695307  0.19829989  1
  O  O44  1  0.46792100  0.59096793  0.53163289  1
  O  O45  1  0.13957971  0.74793232  0.00849793  1
  O  O46  1  0.60835261  0.86042029  0.34183193  1
  O  O47  1  0.25206768  0.39164739  0.67516493  1
