# generated using pymatgen
data_MnH6(OF)3
_symmetry_space_group_name_H-M   'P 1'
_cell_length_a   8.47736592
_cell_length_b   9.73974870
_cell_length_c   6.43282992
_cell_angle_alpha   90.00000000
_cell_angle_beta   98.19829713
_cell_angle_gamma   90.00000000
_symmetry_Int_Tables_number   1
_chemical_formula_structural   MnH6(OF)3
_chemical_formula_sum   'Mn4 H24 O12 F12'
_cell_volume   525.71410630
_cell_formula_units_Z   4
loop_
 _symmetry_equiv_pos_site_id
 _symmetry_equiv_pos_as_xyz
  1  'x, y, z'
loop_
 _atom_site_type_symbol
 _atom_site_label
 _atom_site_symmetry_multiplicity
 _atom_site_fract_x
 _atom_site_fract_y
 _atom_site_fract_z
 _atom_site_occupancy
  Mn  Mn0  1  0.50000000  0.50000000  0.50000000  1
  Mn  Mn1  1  0.50000000  0.00000000  0.00000000  1
  Mn  Mn2  1  0.00000000  0.50000000  0.00000000  1
  Mn  Mn3  1  0.00000000  0.00000000  0.50000000  1
  H  H4  1  0.55230337  0.23396216  0.67509126  1
  H  H5  1  0.44769663  0.73396216  0.82490874  1
  H  H6  1  0.44769663  0.76603784  0.32490874  1
  H  H7  1  0.55230337  0.26603784  0.17509126  1
  H  H8  1  0.71502493  0.31698841  0.71001020  1
  H  H9  1  0.28497507  0.81698841  0.78998980  1
  H  H10  1  0.28497507  0.68301159  0.28998980  1
  H  H11  1  0.71502493  0.18301159  0.21001020  1
  H  H12  1  0.13157480  0.40563721  0.39190678  1
  H  H13  1  0.86842520  0.90563721  0.10809322  1
  H  H14  1  0.86842520  0.59436279  0.60809322  1
  H  H15  1  0.13157480  0.09436279  0.89190678  1
  H  H16  1  0.98808490  0.30289659  0.31182521  1
  H  H17  1  0.01191510  0.80289659  0.18817479  1
  H  H18  1  0.01191510  0.69710341  0.68817479  1
  H  H19  1  0.98808490  0.19710341  0.81182521  1
  H  H20  1  0.24049321  0.44322186  0.79142376  1
  H  H21  1  0.75950679  0.94322186  0.70857624  1
  H  H22  1  0.75950679  0.55677814  0.20857624  1
  H  H23  1  0.24049321  0.05677814  0.29142376  1
  H  H24  1  0.30614524  0.43646918  0.04283827  1
  H  H25  1  0.69385476  0.93646918  0.45716173  1
  H  H26  1  0.69385476  0.56353082  0.95716173  1
  H  H27  1  0.30614524  0.06353082  0.54283827  1
  O  O28  1  0.61265396  0.30729171  0.61656390  1
  O  O29  1  0.38734604  0.80729171  0.88343610  1
  O  O30  1  0.38734604  0.69270829  0.38343610  1
  O  O31  1  0.61265396  0.19270829  0.11656390  1
  O  O32  1  0.03069106  0.39563008  0.29440311  1
  O  O33  1  0.96930894  0.89563008  0.20559689  1
  O  O34  1  0.96930894  0.60436992  0.70559689  1
  O  O35  1  0.03069106  0.10436992  0.79440311  1
  O  O36  1  0.20996620  0.42929291  0.93398788  1
  O  O37  1  0.79003380  0.92929291  0.56601212  1
  O  O38  1  0.79003380  0.57070709  0.06601212  1
  O  O39  1  0.20996620  0.07070709  0.43398788  1
  F  F40  1  0.29736045  0.43867807  0.55927864  1
  F  F41  1  0.70263955  0.93867807  0.94072136  1
  F  F42  1  0.70263955  0.56132193  0.44072136  1
  F  F43  1  0.29736045  0.06132193  0.05927864  1
  F  F44  1  0.54309177  0.57788694  0.77306900  1
  F  F45  1  0.45690823  0.07788694  0.72693100  1
  F  F46  1  0.45690823  0.42211306  0.22693100  1
  F  F47  1  0.54309177  0.92211306  0.27306900  1
  F  F48  1  0.89968574  0.34800024  0.85955208  1
  F  F49  1  0.10031426  0.84800024  0.64044792  1
  F  F50  1  0.10031426  0.65199976  0.14044792  1
  F  F51  1  0.89968574  0.15199976  0.35955208  1
