# generated using pymatgen
data_Rb3FeO3
_symmetry_space_group_name_H-M   'P 1'
_cell_length_a   5.04271249
_cell_length_b   12.50107877
_cell_length_c   11.58676208
_cell_angle_alpha   90.00000000
_cell_angle_beta   102.96854016
_cell_angle_gamma   90.00000000
_symmetry_Int_Tables_number   1
_chemical_formula_structural   Rb3FeO3
_chemical_formula_sum   'Rb12 Fe4 O12'
_cell_volume   711.79135009
_cell_formula_units_Z   4
loop_
 _symmetry_equiv_pos_site_id
 _symmetry_equiv_pos_as_xyz
  1  'x, y, z'
loop_
 _atom_site_type_symbol
 _atom_site_label
 _atom_site_symmetry_multiplicity
 _atom_site_fract_x
 _atom_site_fract_y
 _atom_site_fract_z
 _atom_site_occupancy
  Rb  Rb0  1  0.10476008  0.58486911  0.63880095  1
  Rb  Rb1  1  0.27004587  0.01047364  0.62332950  1
  Rb  Rb2  1  0.49124176  0.76545722  0.96290884  1
  Rb  Rb3  1  0.10476008  0.91513089  0.13880095  1
  Rb  Rb4  1  0.27004587  0.48952636  0.12332950  1
  Rb  Rb5  1  0.50875824  0.26545722  0.53709116  1
  Rb  Rb6  1  0.49124176  0.73454278  0.46290884  1
  Rb  Rb7  1  0.72995413  0.51047364  0.87667050  1
  Rb  Rb8  1  0.89523992  0.08486911  0.86119905  1
  Rb  Rb9  1  0.50875824  0.23454278  0.03709116  1
  Rb  Rb10  1  0.72995413  0.98952636  0.37667050  1
  Rb  Rb11  1  0.89523992  0.41513089  0.36119905  1
  Fe  Fe12  1  0.19457999  0.31759978  0.75704020  1
  Fe  Fe13  1  0.19457999  0.18240022  0.25704020  1
  Fe  Fe14  1  0.80542001  0.81759978  0.74295980  1
  Fe  Fe15  1  0.80542001  0.68240022  0.24295980  1
  O  O16  1  0.04847777  0.36332028  0.60713735  1
  O  O17  1  0.23304505  0.41144206  0.88267217  1
  O  O18  1  0.04847777  0.13667972  0.10713735  1
  O  O19  1  0.35810266  0.18504067  0.78334652  1
  O  O20  1  0.23304505  0.08855794  0.38267217  1
  O  O21  1  0.35810266  0.31495933  0.28334652  1
  O  O22  1  0.64189734  0.68504067  0.71665348  1
  O  O23  1  0.76695495  0.91144206  0.61732783  1
  O  O24  1  0.64189734  0.81495933  0.21665348  1
  O  O25  1  0.95152223  0.86332028  0.89286265  1
  O  O26  1  0.76695495  0.58855794  0.11732783  1
  O  O27  1  0.95152223  0.63667972  0.39286265  1
