# generated using pymatgen
data_NaMgFe(SO4)3
_symmetry_space_group_name_H-M   'P 1'
_cell_length_a   8.60403231
_cell_length_b   8.62718937
_cell_length_c   8.94437465
_cell_angle_alpha   61.11084277
_cell_angle_beta   61.17129257
_cell_angle_gamma   60.10586678
_symmetry_Int_Tables_number   1
_chemical_formula_structural   NaMgFe(SO4)3
_chemical_formula_sum   'Na2 Mg2 Fe2 S6 O24'
_cell_volume   477.79628250
_cell_formula_units_Z   2
loop_
 _symmetry_equiv_pos_site_id
 _symmetry_equiv_pos_as_xyz
  1  'x, y, z'
loop_
 _atom_site_type_symbol
 _atom_site_label
 _atom_site_symmetry_multiplicity
 _atom_site_fract_x
 _atom_site_fract_y
 _atom_site_fract_z
 _atom_site_occupancy
  Na  Na0  1  0.00128850  0.50095628  0.99710969  1
  Na  Na1  1  0.50115784  0.00051599  0.49712313  1
  Mg  Mg2  1  0.14605122  0.64536888  0.55760672  1
  Mg  Mg3  1  0.65113255  0.14539469  0.05776008  1
  Fe  Fe4  1  0.34783029  0.85244951  0.94729224  1
  Fe  Fe5  1  0.85214465  0.35278476  0.44712674  1
  S  S6  1  0.24785444  0.04247790  0.25205552  1
  S  S7  1  0.04636736  0.24822780  0.75291131  1
  S  S8  1  0.54134740  0.45667870  0.25263426  1
  S  S9  1  0.45785456  0.54231805  0.75209715  1
  S  S10  1  0.95248770  0.74805439  0.25277051  1
  S  S11  1  0.74930036  0.95678783  0.75240191  1
  O  O12  1  0.07965300  0.22050564  0.26423502  1
  O  O13  1  0.28049802  0.01718126  0.08339923  1
  O  O14  1  0.01338494  0.29077163  0.58503984  1
  O  O15  1  0.11109138  0.79005522  0.08464423  1
  O  O16  1  0.41225678  0.06754921  0.23778000  1
  O  O17  1  0.22681365  0.08148268  0.75620689  1
  O  O18  1  0.07119600  0.41042401  0.74319138  1
  O  O19  1  0.56912045  0.28389304  0.23300448  1
  O  O20  1  0.38544212  0.48487682  0.41614460  1
  O  O21  1  0.21099451  0.88240099  0.41020260  1
  O  O22  1  0.50445669  0.62239160  0.08950360  1
  O  O23  1  0.28253368  0.56646460  0.73863507  1
  O  O24  1  0.72107322  0.43887192  0.25854864  1
  O  O25  1  0.49726753  0.38251708  0.90972786  1
  O  O26  1  0.78321017  0.12270762  0.58898362  1
  O  O27  1  0.61903749  0.51788851  0.58274599  1
  O  O28  1  0.43536913  0.72078409  0.76386835  1
  O  O29  1  0.93466856  0.58167099  0.25614834  1
  O  O30  1  0.77568793  0.91049577  0.24349708  1
  O  O31  1  0.58153871  0.93809228  0.75916173  1
  O  O32  1  0.89210604  0.20423411  0.91461616  1
  O  O33  1  0.98985942  0.70333550  0.41421472  1
  O  O34  1  0.71368054  0.98509511  0.91553573  1
  O  O35  1  0.91424320  0.78429555  0.73207556  1
