# generated using pymatgen
data_Gd3SbO7
_symmetry_space_group_name_H-M   'P 1'
_cell_length_a   6.56121019
_cell_length_b   6.56121019
_cell_length_c   7.60445957
_cell_angle_alpha   90.00000000
_cell_angle_beta   90.00000000
_cell_angle_gamma   109.42011033
_symmetry_Int_Tables_number   1
_chemical_formula_structural   Gd3SbO7
_chemical_formula_sum   'Gd6 Sb2 O14'
_cell_volume   308.74275176
_cell_formula_units_Z   2
loop_
 _symmetry_equiv_pos_site_id
 _symmetry_equiv_pos_as_xyz
  1  'x, y, z'
loop_
 _atom_site_type_symbol
 _atom_site_label
 _atom_site_symmetry_multiplicity
 _atom_site_fract_x
 _atom_site_fract_y
 _atom_site_fract_z
 _atom_site_occupancy
  Gd  Gd0  1  0.00028439  0.46884076  0.49800647  1
  Gd  Gd1  1  0.53115924  0.99971561  0.50199353  1
  Gd  Gd2  1  0.48846420  0.48846420  0.75000000  1
  Gd  Gd3  1  0.51153580  0.51153580  0.25000000  1
  Gd  Gd4  1  0.99971561  0.53115924  0.99800647  1
  Gd  Gd5  1  0.46884076  0.00028439  0.00199353  1
  Sb  Sb6  1  0.99929750  0.99929750  0.25000000  1
  Sb  Sb7  1  0.00070250  0.00070250  0.75000000  1
  O  O8  1  0.06704935  0.93295065  0.00000000  1
  O  O9  1  0.36294290  0.63705710  0.00000000  1
  O  O10  1  0.06343790  0.31505807  0.21799822  1
  O  O11  1  0.68494193  0.93656210  0.78200178  1
  O  O12  1  0.37096365  0.62903635  0.50000000  1
  O  O13  1  0.67862270  0.92386290  0.22253995  1
  O  O14  1  0.07613710  0.32137730  0.77746005  1
  O  O15  1  0.32137730  0.07613710  0.72253995  1
  O  O16  1  0.92386290  0.67862270  0.27746005  1
  O  O17  1  0.62903635  0.37096365  0.00000000  1
  O  O18  1  0.93656210  0.68494193  0.71799822  1
  O  O19  1  0.31505807  0.06343790  0.28200178  1
  O  O20  1  0.63705710  0.36294290  0.50000000  1
  O  O21  1  0.93295065  0.06704935  0.50000000  1
