# generated using pymatgen
data_SrTaNO2
_symmetry_space_group_name_H-M   'P 1'
_cell_length_a   5.73092103
_cell_length_b   8.17504128
_cell_length_c   5.72167996
_cell_angle_alpha   90.00000000
_cell_angle_beta   90.00000000
_cell_angle_gamma   90.05467555
_symmetry_Int_Tables_number   1
_chemical_formula_structural   SrTaNO2
_chemical_formula_sum   'Sr4 Ta4 N4 O8'
_cell_volume   268.06353636
_cell_formula_units_Z   4
loop_
 _symmetry_equiv_pos_site_id
 _symmetry_equiv_pos_as_xyz
  1  'x, y, z'
loop_
 _atom_site_type_symbol
 _atom_site_label
 _atom_site_symmetry_multiplicity
 _atom_site_fract_x
 _atom_site_fract_y
 _atom_site_fract_z
 _atom_site_occupancy
  Sr  Sr0  1  0.99300839  0.76260402  0.01219517  1
  Sr  Sr1  1  0.49139885  0.76242337  0.51467705  1
  Sr  Sr2  1  0.49300839  0.26260402  0.48780483  1
  Sr  Sr3  1  0.99139885  0.26242337  0.98532295  1
  Ta  Ta4  1  -0.00097370  0.00203575  0.50440001  1
  Ta  Ta5  1  0.98378090  0.51865587  0.50745465  1
  Ta  Ta6  1  0.48378090  0.01865587  0.99254535  1
  Ta  Ta7  1  0.49902630  0.50203575  0.99559999  1
  N  N8  1  0.22781412  0.99902153  0.77316209  1
  N  N9  1  0.46551625  0.26648277  0.00844787  1
  N  N10  1  0.72781412  0.49902153  0.72683791  1
  N  N11  1  0.96551625  0.76648277  0.49155213  1
  O  O12  1  0.04644740  0.26950333  0.49771668  1
  O  O13  1  0.22613410  0.53860022  0.77854659  1
  O  O14  1  0.28143807  0.99597000  0.27704000  1
  O  O15  1  0.28543662  0.53870314  0.27956092  1
  O  O16  1  0.54644740  0.76950333  0.00228332  1
  O  O17  1  0.72613410  0.03860022  0.72145341  1
  O  O18  1  0.78543662  0.03870314  0.22043908  1
  O  O19  1  0.78143807  0.49597000  0.22296000  1
