# generated using pymatgen
data_DyY3O6
_symmetry_space_group_name_H-M   'P 1'
_cell_length_a   9.26616665
_cell_length_b   9.26612656
_cell_length_c   9.26616674
_cell_angle_alpha   109.48218839
_cell_angle_beta   109.46552691
_cell_angle_gamma   109.46612582
_symmetry_Int_Tables_number   1
_chemical_formula_structural   DyY3O6
_chemical_formula_sum   'Dy4 Y12 O24'
_cell_volume   612.45697471
_cell_formula_units_Z   4
loop_
 _symmetry_equiv_pos_site_id
 _symmetry_equiv_pos_as_xyz
  1  'x, y, z'
loop_
 _atom_site_type_symbol
 _atom_site_label
 _atom_site_symmetry_multiplicity
 _atom_site_fract_x
 _atom_site_fract_y
 _atom_site_fract_z
 _atom_site_occupancy
  Dy  Dy0  1  0.53267249  0.75000007  0.28267246  1
  Dy  Dy1  1  0.21719752  0.96704093  0.24988009  1
  Dy  Dy2  1  0.28283898  0.53295890  0.75015667  1
  Dy  Dy3  1  0.03299351  0.75000007  0.78299349  1
  Y  Y4  1  0.96742101  0.24999993  0.21742097  1
  Y  Y5  1  0.49976379  0.99982487  0.00011200  1
  Y  Y6  1  0.78272234  0.03256761  0.74989467  1
  Y  Y7  1  0.71732787  0.46743245  0.25015475  1
  Y  Y8  1  0.75004547  0.28276237  0.53278196  1
  Y  Y9  1  0.75001348  0.78263623  0.03268817  1
  Y  Y10  1  0.00028726  0.50017517  0.99993905  1
  Y  Y11  1  0.50009350  0.50001540  0.50007755  1
  Y  Y12  1  0.46710718  0.24999993  0.71710727  1
  Y  Y13  1  0.00006219  0.99998452  0.50007870  1
  Y  Y14  1  0.25005173  0.71736370  0.46737724  1
  Y  Y15  1  0.25001981  0.21723770  0.96728323  1
  O  O16  1  0.76016842  0.03078681  0.48841186  1
  O  O17  1  0.73921611  0.22807746  0.27078308  1
  O  O18  1  0.27147478  0.01080185  0.04264106  1
  O  O19  1  0.96854307  0.51112570  0.23920468  1
  O  O20  1  0.46809302  0.22886230  0.45691204  1
  O  O21  1  0.77144833  0.72930160  0.26069510  1
  O  O22  1  0.04270552  0.27192252  0.01113859  1
  O  O23  1  0.45762411  0.46921323  0.22938167  1
  O  O24  1  0.77114264  0.54297529  0.53201946  1
  O  O25  1  0.72933714  0.26089147  0.77188898  1
  O  O26  1  0.01158040  0.04230707  0.27169410  1
  O  O27  1  0.48845060  0.76010276  0.03119084  1
  O  O28  1  0.27108826  0.73989732  0.22834896  1
  O  O29  1  0.22938800  0.45769298  0.46927334  1
  O  O30  1  0.98904422  0.95702476  0.72816738  1
  O  O31  1  0.51099763  0.23910849  0.96844569  1
  O  O32  1  0.54230367  0.53153137  0.77072168  1
  O  O33  1  0.95801459  0.72856614  0.98877866  1
  O  O34  1  0.53139351  0.77069838  0.54214678  1
  O  O35  1  0.22804969  0.27113778  0.73922980  1
  O  O36  1  0.03183924  0.48919813  0.76067398  1
  O  O37  1  0.72807811  0.98887434  0.95741731  1
  O  O38  1  0.23919022  0.96846852  0.51077222  1
  O  O39  1  0.26021157  0.77143388  0.72944748  1
