# generated using pymatgen
data_Y2HgO4
_symmetry_space_group_name_H-M   'P 1'
_cell_length_a   3.65001632
_cell_length_b   7.10213487
_cell_length_c   8.88388093
_cell_angle_alpha   101.94765060
_cell_angle_beta   101.85461914
_cell_angle_gamma   75.10988505
_symmetry_Int_Tables_number   1
_chemical_formula_structural   Y2HgO4
_chemical_formula_sum   'Y4 Hg2 O8'
_cell_volume   214.90052321
_cell_formula_units_Z   2
loop_
 _symmetry_equiv_pos_site_id
 _symmetry_equiv_pos_as_xyz
  1  'x, y, z'
loop_
 _atom_site_type_symbol
 _atom_site_label
 _atom_site_symmetry_multiplicity
 _atom_site_fract_x
 _atom_site_fract_y
 _atom_site_fract_z
 _atom_site_occupancy
  Y  Y0  1  0.38071727  0.77678369  0.53821722  1
  Y  Y1  1  0.84067749  0.51917145  0.20052742  1
  Y  Y2  1  0.15932251  0.48082855  0.79947258  1
  Y  Y3  1  0.61928373  0.22321631  0.46178278  1
  Hg  Hg4  1  0.11336182  0.93409479  0.16081842  1
  Hg  Hg5  1  0.88663818  0.06590521  0.83918158  1
  O  O6  1  0.76740650  0.85290889  0.38772289  1
  O  O7  1  0.20330842  0.64803117  0.05464800  1
  O  O8  1  0.96497633  0.78767949  0.71763315  1
  O  O9  1  0.41778948  0.51167425  0.34725321  1
  O  O10  1  0.58221052  0.48832575  0.65274679  1
  O  O11  1  0.03502367  0.21232051  0.28236685  1
  O  O12  1  0.79669158  0.35196883  0.94535200  1
  O  O13  1  0.23259350  0.14709111  0.61227711  1
