# generated using pymatgen
data_Tb3SbO7
_symmetry_space_group_name_H-M   'P 1'
_cell_length_a   6.51380340
_cell_length_b   6.51380340
_cell_length_c   7.55241541
_cell_angle_alpha   90.00000000
_cell_angle_beta   90.00000000
_cell_angle_gamma   109.32113615
_symmetry_Int_Tables_number   1
_chemical_formula_structural   Tb3SbO7
_chemical_formula_sum   'Tb6 Sb2 O14'
_cell_volume   302.39836346
_cell_formula_units_Z   2
loop_
 _symmetry_equiv_pos_site_id
 _symmetry_equiv_pos_as_xyz
  1  'x, y, z'
loop_
 _atom_site_type_symbol
 _atom_site_label
 _atom_site_symmetry_multiplicity
 _atom_site_fract_x
 _atom_site_fract_y
 _atom_site_fract_z
 _atom_site_occupancy
  Tb  Tb0  1  0.00000321  0.46799508  0.49731099  1
  Tb  Tb1  1  0.53200492  -0.00000321  0.50268901  1
  Tb  Tb2  1  0.48699010  0.48699010  0.75000000  1
  Tb  Tb3  1  0.51300990  0.51300990  0.25000000  1
  Tb  Tb4  1  -0.00000321  0.53200492  0.99731099  1
  Tb  Tb5  1  0.46799508  0.00000321  0.00268901  1
  Sb  Sb6  1  0.99960335  0.99960335  0.25000000  1
  Sb  Sb7  1  0.00039665  0.00039665  0.75000000  1
  O  O8  1  0.06955654  0.93044346  0.00000000  1
  O  O9  1  0.36264881  0.63735119  0.00000000  1
  O  O10  1  0.06418568  0.31698627  0.21745428  1
  O  O11  1  0.68301373  0.93581432  0.78254572  1
  O  O12  1  0.37039585  0.62960415  0.50000000  1
  O  O13  1  0.67645746  0.92253537  0.22249048  1
  O  O14  1  0.07746463  0.32354254  0.77750952  1
  O  O15  1  0.32354254  0.07746463  0.72249048  1
  O  O16  1  0.92253537  0.67645746  0.27750952  1
  O  O17  1  0.62960415  0.37039585  0.00000000  1
  O  O18  1  0.93581432  0.68301373  0.71745428  1
  O  O19  1  0.31698627  0.06418568  0.28254572  1
  O  O20  1  0.63735119  0.36264881  0.50000000  1
  O  O21  1  0.93044346  0.06955654  0.50000000  1
