# generated using pymatgen
data_CaPbI4
_symmetry_space_group_name_H-M   'P 1'
_cell_length_a   8.85526696
_cell_length_b   4.61322833
_cell_length_c   8.06402781
_cell_angle_alpha   90.02740687
_cell_angle_beta   117.07216126
_cell_angle_gamma   104.66302340
_symmetry_Int_Tables_number   1
_chemical_formula_structural   CaPbI4
_chemical_formula_sum   'Ca1 Pb1 I4'
_cell_volume   281.20869515
_cell_formula_units_Z   1
loop_
 _symmetry_equiv_pos_site_id
 _symmetry_equiv_pos_as_xyz
  1  'x, y, z'
loop_
 _atom_site_type_symbol
 _atom_site_label
 _atom_site_symmetry_multiplicity
 _atom_site_fract_x
 _atom_site_fract_y
 _atom_site_fract_z
 _atom_site_occupancy
  Ca  Ca0  1  0.00140080  0.50398112  0.49782243  1
  Pb  Pb1  1  0.99597251  0.99827323  0.99597885  1
  I  I2  1  0.23954993  0.61549130  0.94195189  1
  I  I3  1  0.23596706  0.11885308  0.45537580  1
  I  I4  1  0.75506922  0.38092087  0.05515910  1
  I  I5  1  0.76459947  0.88729039  0.53680693  1
