# generated using pymatgen
data_Li5AuO4
_symmetry_space_group_name_H-M   'P 1'
_cell_length_a   4.78043179
_cell_length_b   4.77990217
_cell_length_c   10.05215109
_cell_angle_alpha   100.51811923
_cell_angle_beta   79.24280258
_cell_angle_gamma   77.20225703
_symmetry_Int_Tables_number   1
_chemical_formula_structural   Li5AuO4
_chemical_formula_sum   'Li10 Au2 O8'
_cell_volume   213.95601905
_cell_formula_units_Z   2
loop_
 _symmetry_equiv_pos_site_id
 _symmetry_equiv_pos_as_xyz
  1  'x, y, z'
loop_
 _atom_site_type_symbol
 _atom_site_label
 _atom_site_symmetry_multiplicity
 _atom_site_fract_x
 _atom_site_fract_y
 _atom_site_fract_z
 _atom_site_occupancy
  Li  Li0  1  0.00346085  0.99989764  0.99979467  1
  Li  Li1  1  0.10400763  0.39539030  0.79225748  1
  Li  Li2  1  0.39058078  0.10405998  0.21037197  1
  Li  Li3  1  0.85561351  0.13923668  0.28219726  1
  Li  Li4  1  0.35213057  0.64256467  0.29210944  1
  Li  Li5  1  0.14530212  0.85722534  0.71652934  1
  Li  Li6  1  0.64406191  0.35811019  0.70988819  1
  Li  Li7  1  0.75266307  0.75291065  0.49868442  1
  Li  Li8  1  0.88867642  0.60748511  0.21555124  1
  Li  Li9  1  0.61178514  0.89216090  0.78178293  1
  Au  Au10  1  0.24863152  0.24917846  0.50049474  1
  Au  Au11  1  0.49921432  0.49854099  0.00035951  1
  O  O12  1  0.06897076  0.42022174  0.35318350  1
  O  O13  1  0.42240636  0.07574812  0.64727603  1
  O  O14  1  0.32961258  0.67726831  0.85340229  1
  O  O15  1  0.67326438  0.32623289  0.14799659  1
  O  O16  1  0.17551853  0.81715324  0.14750546  1
  O  O17  1  0.81931305  0.17677560  0.85294789  1
  O  O18  1  0.56961873  0.92910443  0.35301489  1
  O  O19  1  0.93136679  0.57395977  0.64776418  1
