# generated using pymatgen
data_CrGaO4
_symmetry_space_group_name_H-M   'P 1'
_cell_length_a   4.53778885
_cell_length_b   5.42297946
_cell_length_c   4.54361414
_cell_angle_alpha   91.47114051
_cell_angle_beta   88.26421684
_cell_angle_gamma   146.84929825
_symmetry_Int_Tables_number   1
_chemical_formula_structural   CrGaO4
_chemical_formula_sum   'Cr1 Ga1 O4'
_cell_volume   61.11488347
_cell_formula_units_Z   1
loop_
 _symmetry_equiv_pos_site_id
 _symmetry_equiv_pos_as_xyz
  1  'x, y, z'
loop_
 _atom_site_type_symbol
 _atom_site_label
 _atom_site_symmetry_multiplicity
 _atom_site_fract_x
 _atom_site_fract_y
 _atom_site_fract_z
 _atom_site_occupancy
  Cr  Cr0  1  0.50431377  0.00023292  0.49841114  1
  Ga  Ga1  1  0.50308292  0.49935135  0.99838690  1
  O  O2  1  0.20917066  0.99932292  0.79356648  1
  O  O3  1  0.19467681  0.50029438  0.68676184  1
  O  O4  1  0.79916881  0.99935491  0.20312164  1
  O  O5  1  0.81420703  0.49897951  0.30882501  1
