# generated using pymatgen
data_Y7HoO12
_symmetry_space_group_name_H-M   'P 1'
_cell_length_a   9.25355978
_cell_length_b   9.25355978
_cell_length_c   9.25355978
_cell_angle_alpha   109.46456977
_cell_angle_beta   109.47275898
_cell_angle_gamma   109.47633338
_symmetry_Int_Tables_number   1
_chemical_formula_structural   Y7HoO12
_chemical_formula_sum   'Y14 Ho2 O24'
_cell_volume   609.96456951
_cell_formula_units_Z   2
loop_
 _symmetry_equiv_pos_site_id
 _symmetry_equiv_pos_as_xyz
  1  'x, y, z'
loop_
 _atom_site_type_symbol
 _atom_site_label
 _atom_site_symmetry_multiplicity
 _atom_site_fract_x
 _atom_site_fract_y
 _atom_site_fract_z
 _atom_site_occupancy
  Y  Y0  1  0.96734129  0.25000000  0.21734129  1
  Y  Y1  1  0.49933722  0.99979278  0.99919663  1
  Y  Y2  1  0.78281011  0.03281011  0.75000000  1
  Y  Y3  1  0.71718989  0.46718989  0.25000000  1
  Y  Y4  1  0.75000000  0.28327588  0.53327588  1
  Y  Y5  1  0.75000000  0.78210298  0.03210298  1
  Y  Y6  1  0.99940384  0.50020722  0.99954444  1
  Y  Y7  1  0.50059616  0.50014059  0.50080337  1
  Y  Y8  1  0.00066278  -0.00014059  0.50045556  1
  Y  Y9  1  0.53265871  0.75000000  0.28265871  1
  Y  Y10  1  0.25000000  0.71789702  0.46789702  1
  Y  Y11  1  0.25000000  0.21672412  0.96672412  1
  Y  Y12  1  0.28217006  0.53217006  0.75000000  1
  Y  Y13  1  0.21782994  0.96782994  0.25000000  1
  Ho  Ho14  1  0.46706714  0.25000000  0.71706714  1
  Ho  Ho15  1  0.03293286  0.75000000  0.78293286  1
  O  O16  1  0.76120271  0.03165880  0.48931639  1
  O  O17  1  0.73879729  0.22811268  0.27045609  1
  O  O18  1  0.27129368  0.01020982  0.04156024  1
  O  O19  1  0.96860957  0.51127120  0.23937664  1
  O  O20  1  0.77189557  0.72923294  0.26062336  1
  O  O21  1  0.46864958  0.22973345  0.45843976  1
  O  O22  1  0.45765659  0.46834120  0.22954391  1
  O  O23  1  0.04234341  0.27188732  0.01068361  1
  O  O24  1  0.48897723  0.76065812  0.03133381  1
  O  O25  1  0.72793936  0.26066617  0.77176875  1
  O  O26  1  0.01102277  0.04235658  0.27168090  1
  O  O27  1  0.77206064  0.54382939  0.53272681  1
  O  O28  1  0.22932331  0.45764342  0.46866619  1
  O  O29  1  0.27067669  0.73934188  0.22831910  1
  O  O30  1  0.98889743  0.95617061  0.72823125  1
  O  O31  1  0.51110257  0.23933383  0.96727319  1
  O  O32  1  0.95781839  0.72880426  0.98754263  1
  O  O33  1  0.54218161  0.52972424  0.77098687  1
  O  O34  1  0.53139043  0.77076706  0.54266263  1
  O  O35  1  0.22870632  0.27026655  0.73891614  1
  O  O36  1  0.03135042  0.48979018  0.76108386  1
  O  O37  1  0.72810443  0.98872880  0.95733737  1
  O  O38  1  0.25873837  0.77119574  0.72901313  1
  O  O39  1  0.24126163  0.97027576  0.51245737  1
