# generated using pymatgen
data_Li2MnSiO4
_symmetry_space_group_name_H-M   'P 1'
_cell_length_a   5.09793309
_cell_length_b   6.37821786
_cell_length_c   10.91000514
_cell_angle_alpha   90.00011553
_cell_angle_beta   90.00033064
_cell_angle_gamma   90.00603561
_symmetry_Int_Tables_number   1
_chemical_formula_structural   Li2MnSiO4
_chemical_formula_sum   'Li8 Mn4 Si4 O16'
_cell_volume   354.74675642
_cell_formula_units_Z   4
loop_
 _symmetry_equiv_pos_site_id
 _symmetry_equiv_pos_as_xyz
  1  'x, y, z'
loop_
 _atom_site_type_symbol
 _atom_site_label
 _atom_site_symmetry_multiplicity
 _atom_site_fract_x
 _atom_site_fract_y
 _atom_site_fract_z
 _atom_site_occupancy
  Li  Li0  1  0.17986450  0.99852115  0.58799631  1
  Li  Li1  1  0.32013298  0.50147497  0.08799622  1
  Li  Li2  1  0.17996212  0.49639916  0.58824972  1
  Li  Li3  1  0.67872668  0.49977442  0.91249993  1
  Li  Li4  1  0.82132810  0.50228147  0.41279396  1
  Li  Li5  1  0.67867735  0.99771382  0.91279315  1
  Li  Li6  1  0.82127627  0.00022543  0.41250065  1
  Li  Li7  1  0.32003648  0.00359780  0.08824964  1
  Mn  Mn8  1  0.32203244  0.75149539  0.33450027  1
  Mn  Mn9  1  0.17796797  0.74850492  0.83449155  1
  Mn  Mn10  1  0.82186825  0.25309912  0.16602311  1
  Mn  Mn11  1  0.67810908  0.24691069  0.66602281  1
  Si  Si12  1  0.82755890  0.75270111  0.16162976  1
  Si  Si13  1  0.67244463  0.74730303  0.66163680  1
  Si  Si14  1  0.32845064  0.25174826  0.33915944  1
  Si  Si15  1  0.17154302  0.24824854  0.83916368  1
  O  O16  1  0.71428365  0.96450847  0.09209217  1
  O  O17  1  0.78569315  0.95871231  0.59139307  1
  O  O18  1  0.15220544  0.75256920  0.15857837  1
  O  O19  1  0.76841190  0.74833400  0.80766906  1
  O  O20  1  0.73160075  0.75166619  0.30766940  1
  O  O21  1  0.34779817  0.74742473  0.65857775  1
  O  O22  1  0.71430399  0.54129931  0.09138725  1
  O  O23  1  0.78572225  0.53549758  0.59209184  1
  O  O24  1  0.21562508  0.46322320  0.40920177  1
  O  O25  1  0.28436500  0.46004756  0.90911111  1
  O  O26  1  0.65314165  0.25158632  0.34207097  1
  O  O27  1  0.26856382  0.24745532  0.69327123  1
  O  O28  1  0.84684994  0.24841024  0.84207082  1
  O  O29  1  0.23142723  0.25254266  0.19327322  1
  O  O30  1  0.21563493  0.03994540  0.40911127  1
  O  O31  1  0.28437663  0.03677524  0.90920070  1
