# generated using pymatgen
data_SbH5(Cl3O)2
_symmetry_space_group_name_H-M   'P 1'
_cell_length_a   7.23158799
_cell_length_b   7.10286568
_cell_length_c   12.95289429
_cell_angle_alpha   96.13594343
_cell_angle_beta   106.42244730
_cell_angle_gamma   59.44336138
_symmetry_Int_Tables_number   1
_chemical_formula_structural   SbH5(Cl3O)2
_chemical_formula_sum   'Sb2 H10 Cl12 O4'
_cell_volume   549.00907613
_cell_formula_units_Z   2
loop_
 _symmetry_equiv_pos_site_id
 _symmetry_equiv_pos_as_xyz
  1  'x, y, z'
loop_
 _atom_site_type_symbol
 _atom_site_label
 _atom_site_symmetry_multiplicity
 _atom_site_fract_x
 _atom_site_fract_y
 _atom_site_fract_z
 _atom_site_occupancy
  Sb  Sb0  1  0.99986354  0.50055073  0.50067172  1
  Sb  Sb1  1  0.99985276  0.00240638  0.99836255  1
  H  H2  1  0.35827295  0.00783503  0.66562454  1
  H  H3  1  0.36254907  0.80071229  0.59921425  1
  H  H4  1  0.47032021  0.75023971  0.74943022  1
  H  H5  1  0.56898746  0.70395883  0.89863928  1
  H  H6  1  0.30367920  0.50926536  0.16876361  1
  H  H7  1  0.70132440  0.49511313  0.83267269  1
  H  H8  1  0.42273300  0.30069482  0.10044952  1
  H  H9  1  0.53144054  0.24788216  0.24992270  1
  H  H10  1  0.62605208  0.20036870  0.39857124  1
  H  H11  1  0.64069181  0.99065868  0.33194136  1
  Cl  Cl12  1  0.39554532  0.87091670  0.06732265  1
  Cl  Cl13  1  0.00712371  0.83790286  0.15651035  1
  Cl  Cl14  1  0.84039430  0.83156029  0.59281477  1
  Cl  Cl15  1  0.07908058  0.67082393  0.90655536  1
  Cl  Cl16  1  0.68108564  0.66660328  0.34313301  1
  Cl  Cl17  1  0.19489086  0.63210678  0.43199969  1
  Cl  Cl18  1  0.80771777  0.36719765  0.56977189  1
  Cl  Cl19  1  0.31946351  0.33389759  0.65727394  1
  Cl  Cl20  1  0.92235915  0.33449596  0.08963716  1
  Cl  Cl21  1  0.15792191  0.17080624  0.40741703  1
  Cl  Cl22  1  0.99324770  0.16771873  0.84072763  1
  Cl  Cl23  1  0.60502797  0.13301519  0.92971715  1
  O  O24  1  0.35814801  0.86920909  0.66903565  1
  O  O25  1  0.55850657  0.63264063  0.82969680  1
  O  O26  1  0.44248605  0.36854537  0.16959215  1
  O  O27  1  0.64132993  0.12957790  0.32982110  1
