# generated using pymatgen
data_CsMgP(H6O5)2
_symmetry_space_group_name_H-M   'P 1'
_cell_length_a   7.16684981
_cell_length_b   7.16684981
_cell_length_c   7.16684981
_cell_angle_alpha   60.00000000
_cell_angle_beta   90.00000000
_cell_angle_gamma   120.00000000
_symmetry_Int_Tables_number   1
_chemical_formula_structural   CsMgP(H6O5)2
_chemical_formula_sum   'Cs1 Mg1 P1 H12 O10'
_cell_volume   260.29744922
_cell_formula_units_Z   1
loop_
 _symmetry_equiv_pos_site_id
 _symmetry_equiv_pos_as_xyz
  1  'x, y, z'
loop_
 _atom_site_type_symbol
 _atom_site_label
 _atom_site_symmetry_multiplicity
 _atom_site_fract_x
 _atom_site_fract_y
 _atom_site_fract_z
 _atom_site_occupancy
  Cs  Cs0  1  0.75000000  0.50000000  0.75000000  1
  Mg  Mg1  1  0.00000000  0.00000000  0.00000000  1
  P  P2  1  0.25000000  0.50000000  0.25000000  1
  H  H3  1  0.85544102  0.11637117  0.26093015  1
  H  H4  1  0.85544102  0.11637117  0.62269868  1
  H  H5  1  0.85544102  0.47813970  0.26093015  1
  H  H6  1  0.62269868  0.47813970  0.26093015  1
  H  H7  1  0.26093015  0.11637117  0.26093015  1
  H  H8  1  0.26093015  0.11637117  0.62269868  1
  H  H9  1  0.62269868  0.88362883  0.26093015  1
  H  H10  1  0.26093015  0.88362883  0.26093015  1
  H  H11  1  0.26093015  0.52186030  0.62269868  1
  H  H12  1  0.62269868  0.88362883  0.85544102  1
  H  H13  1  0.26093015  0.52186030  0.85544102  1
  H  H14  1  0.26093015  0.88362883  0.85544102  1
  O  O15  1  0.79445960  0.00000000  0.20554040  1
  O  O16  1  0.98272429  0.32181653  0.33909224  1
  O  O17  1  0.79445960  0.58891920  0.20554040  1
  O  O18  1  0.20554040  0.00000000  0.20554040  1
  O  O19  1  0.79445960  0.00000000  0.79445960  1
  O  O20  1  0.33909224  0.32181653  0.33909224  1
  O  O21  1  0.20554040  0.00000000  0.79445960  1
  O  O22  1  0.33909224  0.67818347  0.33909224  1
  O  O23  1  0.20554040  0.41108180  0.79445960  1
  O  O24  1  0.33909224  0.67818347  0.98272429  1
