# generated using pymatgen
data_Li6AlCrO6
_symmetry_space_group_name_H-M   'P 1'
_cell_length_a   9.32692891
_cell_length_b   5.38435236
_cell_length_c   9.73250281
_cell_angle_alpha   90.01086850
_cell_angle_beta   90.01185964
_cell_angle_gamma   30.00466753
_symmetry_Int_Tables_number   1
_chemical_formula_structural   Li6AlCrO6
_chemical_formula_sum   'Li12 Al2 Cr2 O12'
_cell_volume   244.41505038
_cell_formula_units_Z   2
loop_
 _symmetry_equiv_pos_site_id
 _symmetry_equiv_pos_as_xyz
  1  'x, y, z'
loop_
 _atom_site_type_symbol
 _atom_site_label
 _atom_site_symmetry_multiplicity
 _atom_site_fract_x
 _atom_site_fract_y
 _atom_site_fract_z
 _atom_site_occupancy
  Li  Li0  1  0.38131098  0.55590168  0.42295954  1
  Li  Li1  1  0.31805570  0.74482810  0.92301168  1
  Li  Li2  1  0.06279893  0.56116410  0.92445512  1
  Li  Li3  1  0.68494854  0.25324252  0.07860815  1
  Li  Li4  1  0.94123109  0.74329664  0.42436411  1
  Li  Li5  1  0.62353422  0.43836303  0.57858541  1
  Li  Li6  1  0.31922239  0.30190615  0.57856010  1
  Li  Li7  1  0.68724505  0.68950613  0.42429644  1
  Li  Li8  1  0.62295865  0.69356720  0.92317992  1
  Li  Li9  1  0.38085539  0.30283717  0.07852845  1
  Li  Li10  1  0.93967156  0.43893615  0.07833628  1
  Li  Li11  1  0.06519203  0.25093009  0.57847577  1
  Al  Al12  1  0.66914843  0.99733160  0.75068964  1
  Al  Al13  1  0.33521169  0.99851824  0.25076698  1
  Cr  Cr14  1  0.00195285  0.99827889  0.25048738  1
  Cr  Cr15  1  0.00226357  0.99773583  0.75053504  1
  O  O16  1  0.29748406  0.75577823  0.13450587  1
  O  O17  1  0.35124438  0.59554373  0.63458852  1
  O  O18  1  0.05470058  0.59710237  0.13452166  1
  O  O19  1  0.65387711  0.39875991  0.36637827  1
  O  O20  1  0.70607181  0.24139984  0.86614618  1
  O  O21  1  0.94967236  0.75452490  0.63455921  1
  O  O22  1  0.70693731  0.64142166  0.63451924  1
  O  O23  1  0.35031694  0.35424772  0.86629565  1
  O  O24  1  0.65313204  0.64263937  0.13445612  1
  O  O25  1  0.29840087  0.35264065  0.36631785  1
  O  O26  1  0.05528591  0.24056906  0.36643510  1
  O  O27  1  0.94870055  0.40057006  0.86645533  1
