# generated using pymatgen
data_Li2CoSiO4
_symmetry_space_group_name_H-M   'P 1'
_cell_length_a   5.00600265
_cell_length_b   5.39315346
_cell_length_c   6.30660590
_cell_angle_alpha   90.00396910
_cell_angle_beta   89.82391418
_cell_angle_gamma   89.86898025
_symmetry_Int_Tables_number   1
_chemical_formula_structural   Li2CoSiO4
_chemical_formula_sum   'Li4 Co2 Si2 O8'
_cell_volume   170.26538224
_cell_formula_units_Z   2
loop_
 _symmetry_equiv_pos_site_id
 _symmetry_equiv_pos_as_xyz
  1  'x, y, z'
loop_
 _atom_site_type_symbol
 _atom_site_label
 _atom_site_symmetry_multiplicity
 _atom_site_fract_x
 _atom_site_fract_y
 _atom_site_fract_z
 _atom_site_occupancy
  Li  Li0  1  0.50582453  0.17154572  0.00075890  1
  Li  Li1  1  0.50354911  0.65071904  0.25174202  1
  Li  Li2  1  0.00296774  0.81936260  0.50088544  1
  Li  Li3  1  0.00381049  0.33884957  0.75229940  1
  Co  Co4  1  0.50563964  0.16493104  0.50794147  1
  Co  Co5  1  0.00700371  0.82594714  0.00738086  1
  Si  Si6  1  0.01100657  0.32259137  0.25252590  1
  Si  Si7  1  0.51109199  0.66855612  0.75302333  1
  O  O8  1  0.90393254  0.17985668  0.03608865  1
  O  O9  1  0.90422422  0.61283740  0.25129199  1
  O  O10  1  0.34094904  0.31527156  0.25359513  1
  O  O11  1  0.90379645  0.17982451  0.46914979  1
  O  O12  1  0.40298029  0.81147043  0.53676600  1
  O  O13  1  0.40437951  0.37876432  0.75220241  1
  O  O14  1  0.84099934  0.67521352  0.75385483  1
  O  O15  1  0.40486983  0.81187497  0.96990286  1
