# generated using pymatgen
data_MgBP(H3O4)2
_symmetry_space_group_name_H-M   'P 1'
_cell_length_a   9.85388576
_cell_length_b   9.85388576
_cell_length_c   9.85388542
_cell_angle_alpha   99.14739216
_cell_angle_beta   99.14739216
_cell_angle_gamma   99.14738799
_symmetry_Int_Tables_number   1
_chemical_formula_structural   MgBP(H3O4)2
_chemical_formula_sum   'Mg6 B6 P6 H36 O48'
_cell_volume   915.80877372
_cell_formula_units_Z   6
loop_
 _symmetry_equiv_pos_site_id
 _symmetry_equiv_pos_as_xyz
  1  'x, y, z'
loop_
 _atom_site_type_symbol
 _atom_site_label
 _atom_site_symmetry_multiplicity
 _atom_site_fract_x
 _atom_site_fract_y
 _atom_site_fract_z
 _atom_site_occupancy
  Mg  Mg0  1  0.24974216  0.75000000  0.25025784  1
  Mg  Mg1  1  0.25000000  0.74974216  0.75025784  1
  Mg  Mg2  1  0.74974216  0.75025784  0.25000000  1
  Mg  Mg3  1  0.25025784  0.24974216  0.75000000  1
  Mg  Mg4  1  0.75000000  0.25025784  0.24974216  1
  Mg  Mg5  1  0.75025784  0.25000000  0.74974216  1
  B  B6  1  0.55929318  0.94070682  0.75000000  1
  B  B7  1  0.05929318  0.25000000  0.44070682  1
  B  B8  1  0.25000000  0.44070682  0.05929318  1
  B  B9  1  0.94070682  0.75000000  0.55929318  1
  B  B10  1  0.75000000  0.55929318  0.94070682  1
  B  B11  1  0.44070682  0.05929318  0.25000000  1
  P  P12  1  0.06013402  0.43986498  0.25000000  1
  P  P13  1  0.56013502  0.75000000  0.93986498  1
  P  P14  1  0.75000000  0.93986498  0.56013502  1
  P  P15  1  0.43986498  0.25000000  0.06013402  1
  P  P16  1  0.25000000  0.06013402  0.43986498  1
  P  P17  1  0.93986498  0.56013502  0.75000000  1
  H  H18  1  0.02164714  0.83229009  0.13012313  1
  H  H19  1  0.16770991  0.86987687  0.97835286  1
  H  H20  1  0.13092675  0.83420032  0.52697724  1
  H  H21  1  0.29499861  0.97966888  0.96144131  1
  H  H22  1  0.03855869  0.70500139  0.02033112  1
  H  H23  1  0.36907325  0.97302276  0.66579968  1
  H  H24  1  0.47302276  0.86907325  0.16579968  1
  H  H25  1  0.20500139  0.53855869  0.52033112  1
  H  H26  1  0.47966888  0.79499861  0.46144131  1
  H  H27  1  0.33420032  0.63092675  0.02697724  1
  H  H28  1  0.36987687  0.66770991  0.47835286  1
  H  H29  1  0.16579968  0.47302276  0.86907325  1
  H  H30  1  0.02697724  0.33420032  0.63092675  1
  H  H31  1  0.33229009  0.52164714  0.63012313  1
  H  H32  1  0.52164714  0.63012313  0.33229009  1
  H  H33  1  0.86987687  0.97835286  0.16770991  1
  H  H34  1  0.46144131  0.47966888  0.79499861  1
  H  H35  1  0.02033112  0.03855869  0.70500139  1
  H  H36  1  0.53855869  0.52033112  0.20500139  1
  H  H37  1  0.97966888  0.96144131  0.29499861  1
  H  H38  1  0.13012313  0.02164714  0.83229009  1
  H  H39  1  0.47835286  0.36987687  0.66770991  1
  H  H40  1  0.66770991  0.47835286  0.36987687  1
  H  H41  1  0.97302276  0.66579968  0.36907325  1
  H  H42  1  0.83420032  0.52697724  0.13092675  1
  H  H43  1  0.63012313  0.33229009  0.52164714  1
  H  H44  1  0.66579968  0.36907325  0.97302276  1
  H  H45  1  0.52033112  0.20500139  0.53855869  1
  H  H46  1  0.79499861  0.46144131  0.47966888  1
  H  H47  1  0.52697724  0.13092675  0.83420032  1
  H  H48  1  0.63092675  0.02697724  0.33420032  1
  H  H49  1  0.96144131  0.29499861  0.97966888  1
  H  H50  1  0.70500139  0.02033112  0.03855869  1
  H  H51  1  0.86907325  0.16579968  0.47302276  1
  H  H52  1  0.83229009  0.13012313  0.02164714  1
  H  H53  1  0.97835286  0.16770991  0.86987687  1
  O  O54  1  0.20135305  0.90156416  0.39406627  1
  O  O55  1  0.09349628  0.78955441  0.60064179  1
  O  O56  1  0.09423029  0.78688969  0.08855990  1
  O  O57  1  0.21311031  0.91144010  0.90576971  1
  O  O58  1  0.09843584  0.60593373  0.79864695  1
  O  O59  1  0.39935821  0.90650372  0.21044559  1
  O  O60  1  0.40650372  0.89935821  0.71044559  1
  O  O61  1  0.10593373  0.59843584  0.29864695  1
  O  O62  1  0.41144010  0.71311031  0.40576971  1
  O  O63  1  0.28688969  0.59423029  0.58855990  1
  O  O64  1  0.28955441  0.59349628  0.10064179  1
  O  O65  1  0.40156416  0.70135305  0.89406627  1
  O  O66  1  0.62234704  0.88613806  0.62771791  1
  O  O67  1  0.61386194  0.87765296  0.87228209  1
  O  O68  1  0.11386194  0.37228209  0.37765296  1
  O  O69  1  0.12771791  0.38613806  0.12234704  1
  O  O70  1  0.70135305  0.89406627  0.40156416  1
  O  O71  1  0.60593373  0.79864695  0.09843584  1
  O  O72  1  0.21044559  0.39935821  0.90650372  1
  O  O73  1  0.10064179  0.28955441  0.59349628  1
  O  O74  1  0.37228209  0.37765296  0.11386194  1
  O  O75  1  0.12234704  0.12771791  0.38613806  1
  O  O76  1  0.59423029  0.58855990  0.28688969  1
  O  O77  1  0.91144010  0.90576971  0.21311031  1
  O  O78  1  0.40576971  0.41144010  0.71311031  1
  O  O79  1  0.08855990  0.09423029  0.78688969  1
  O  O80  1  0.87765296  0.87228209  0.61386194  1
  O  O81  1  0.62771791  0.62234704  0.88613806  1
  O  O82  1  0.78955441  0.60064179  0.09349628  1
  O  O83  1  0.89935821  0.71044559  0.40650372  1
  O  O84  1  0.39406627  0.20135305  0.90156416  1
  O  O85  1  0.29864695  0.10593373  0.59843584  1
  O  O86  1  0.88613806  0.62771791  0.62234704  1
  O  O87  1  0.87228209  0.61386194  0.87765296  1
  O  O88  1  0.38613806  0.12234704  0.12771791  1
  O  O89  1  0.37765296  0.11386194  0.37228209  1
  O  O90  1  0.59843584  0.29864695  0.10593373  1
  O  O91  1  0.71044559  0.40650372  0.89935821  1
  O  O92  1  0.71311031  0.40576971  0.41144010  1
  O  O93  1  0.58855990  0.28688969  0.59423029  1
  O  O94  1  0.89406627  0.40156416  0.70135305  1
  O  O95  1  0.59349628  0.10064179  0.28955441  1
  O  O96  1  0.60064179  0.09349628  0.78955441  1
  O  O97  1  0.90156416  0.39406627  0.20135305  1
  O  O98  1  0.78688969  0.08855990  0.09423029  1
  O  O99  1  0.90576971  0.21311031  0.91144010  1
  O  O100  1  0.90650372  0.21044559  0.39935821  1
  O  O101  1  0.79864695  0.09843584  0.60593373  1
