# generated using pymatgen
data_Na2CoP4(H4O5)4
_symmetry_space_group_name_H-M   'P 1'
_cell_length_a   7.25058862
_cell_length_b   10.84714584
_cell_length_c   11.15484991
_cell_angle_alpha   90.00000000
_cell_angle_beta   79.72002647
_cell_angle_gamma   90.00000000
_symmetry_Int_Tables_number   1
_chemical_formula_structural   Na2CoP4(H4O5)4
_chemical_formula_sum   'Na4 Co2 P8 H32 O40'
_cell_volume   863.22575761
_cell_formula_units_Z   2
loop_
 _symmetry_equiv_pos_site_id
 _symmetry_equiv_pos_as_xyz
  1  'x, y, z'
loop_
 _atom_site_type_symbol
 _atom_site_label
 _atom_site_symmetry_multiplicity
 _atom_site_fract_x
 _atom_site_fract_y
 _atom_site_fract_z
 _atom_site_occupancy
  Na  Na0  1  0.25234324  0.66958999  0.54173041  1
  Na  Na1  1  0.24765676  0.16958999  0.95826959  1
  Na  Na2  1  0.75234324  0.83041001  0.04173041  1
  Na  Na3  1  0.74765676  0.33041001  0.45826959  1
  Co  Co4  1  0.00000000  0.00000000  0.50000000  1
  Co  Co5  1  0.50000000  0.50000000  0.00000000  1
  P  P6  1  0.23651076  0.75679524  0.08351087  1
  P  P7  1  0.26348924  0.25679524  0.41648913  1
  P  P8  1  0.23619892  0.95472737  0.72028811  1
  P  P9  1  0.26380108  0.45472737  0.77971189  1
  P  P10  1  0.73619892  0.54527263  0.22028811  1
  P  P11  1  0.76380108  0.04527263  0.27971189  1
  P  P12  1  0.73651076  0.74320476  0.58351087  1
  P  P13  1  0.76348924  0.24320476  0.91648913  1
  H  H14  1  0.15836985  0.40984524  0.10467084  1
  H  H15  1  0.14293646  0.03649928  0.19718386  1
  H  H16  1  0.12327111  0.42988875  0.39393433  1
  H  H17  1  0.18363839  0.62003861  0.30601730  1
  H  H18  1  0.18512794  0.83509270  0.34478424  1
  H  H19  1  0.07436099  0.29286123  0.78888274  1
  H  H20  1  0.31487206  0.33509270  0.15521576  1
  H  H21  1  0.31636161  0.12003861  0.19398270  1
  H  H22  1  0.16336263  0.58464489  0.92414171  1
  H  H23  1  0.15712400  0.88680301  0.94410191  1
  H  H24  1  0.37672889  0.92988875  0.10606567  1
  H  H25  1  0.35706354  0.53649928  0.30281614  1
  H  H26  1  0.34163015  0.90984524  0.39532916  1
  H  H27  1  0.34287600  0.38680401  0.55589809  1
  H  H28  1  0.33663737  0.08464489  0.57585829  1
  H  H29  1  0.42563901  0.79286123  0.71111726  1
  H  H30  1  0.57436099  0.20713877  0.28888274  1
  H  H31  1  0.66336263  0.91535511  0.42414171  1
  H  H32  1  0.65712400  0.61319699  0.44410191  1
  H  H33  1  0.65836985  0.09015476  0.60467084  1
  H  H34  1  0.64293646  0.46350072  0.69718386  1
  H  H35  1  0.62327111  0.07011125  0.89393433  1
  H  H36  1  0.84287600  0.11319699  0.05589809  1
  H  H37  1  0.83663737  0.41535511  0.07585829  1
  H  H38  1  0.68363839  0.87996139  0.80601730  1
  H  H39  1  0.68512794  0.66490730  0.84478424  1
  H  H40  1  0.92563901  0.70713877  0.21111726  1
  H  H41  1  0.81487206  0.16490730  0.65521576  1
  H  H42  1  0.81636161  0.37996139  0.69398270  1
  H  H43  1  0.87672889  0.57011125  0.60606567  1
  H  H44  1  0.85706354  0.96350072  0.80281614  1
  H  H45  1  0.84163015  0.59015476  0.89532916  1
  O  O46  1  0.09577580  0.82720746  0.01423285  1
  O  O47  1  0.13653819  0.74100749  0.21614946  1
  O  O48  1  0.08357409  0.34233850  0.42246174  1
  O  O49  1  0.04991551  0.97323697  0.67750674  1
  O  O50  1  0.26435394  0.05712915  0.14386062  1
  O  O51  1  0.28005444  0.36826635  0.07932611  1
  O  O52  1  0.29531124  0.63649988  0.01752216  1
  O  O53  1  0.20468876  0.13649988  0.48247784  1
  O  O54  1  0.21994556  0.86826635  0.42067389  1
  O  O55  1  0.23564606  0.55712915  0.35613938  1
  O  O56  1  0.10638919  0.53885728  0.86019712  1
  O  O57  1  0.20313132  0.31518370  0.80785290  1
  O  O58  1  0.41642591  0.84233850  0.07753826  1
  O  O59  1  0.26498924  0.48128148  0.64585492  1
  O  O60  1  0.36346181  0.24100749  0.28385054  1
  O  O61  1  0.23501076  0.98128148  0.85414508  1
  O  O62  1  0.29686868  0.81518370  0.69214710  1
  O  O63  1  0.40422420  0.32720746  0.48576715  1
  O  O64  1  0.39361081  0.03885728  0.63980288  1
  O  O65  1  0.54991551  0.52676303  0.17750674  1
  O  O66  1  0.45008449  0.47323697  0.82249326  1
  O  O67  1  0.60638919  0.96114272  0.36019712  1
  O  O68  1  0.59577580  0.67279254  0.51423285  1
  O  O69  1  0.70313132  0.18481630  0.30785290  1
  O  O70  1  0.76498924  0.01871852  0.14585492  1
  O  O71  1  0.63653819  0.75899251  0.71614946  1
  O  O72  1  0.73501076  0.51871852  0.35414508  1
  O  O73  1  0.58357409  0.15766150  0.92246174  1
  O  O74  1  0.79686868  0.68481630  0.19214710  1
  O  O75  1  0.89361081  0.46114272  0.13980288  1
  O  O76  1  0.76435394  0.44287085  0.64386062  1
  O  O77  1  0.78005444  0.13173365  0.57932611  1
  O  O78  1  0.79531124  0.86350012  0.51752216  1
  O  O79  1  0.70468876  0.36350012  0.98247784  1
  O  O80  1  0.71994556  0.63173365  0.92067389  1
  O  O81  1  0.73564606  0.94287085  0.85613938  1
  O  O82  1  0.95008449  0.02676303  0.32249326  1
  O  O83  1  0.91642591  0.65766150  0.57753826  1
  O  O84  1  0.86346181  0.25899251  0.78385054  1
  O  O85  1  0.90422420  0.17279254  0.98576715  1
