# generated using pymatgen
data_Li2VOF5
_symmetry_space_group_name_H-M   'P 1'
_cell_length_a   4.94200144
_cell_length_b   4.94147407
_cell_length_c   13.42587551
_cell_angle_alpha   90.00631629
_cell_angle_beta   89.98985759
_cell_angle_gamma   120.00152421
_symmetry_Int_Tables_number   1
_chemical_formula_structural   Li2VOF5
_chemical_formula_sum   'Li6 V3 O3 F15'
_cell_volume   283.93959515
_cell_formula_units_Z   3
loop_
 _symmetry_equiv_pos_site_id
 _symmetry_equiv_pos_as_xyz
  1  'x, y, z'
loop_
 _atom_site_type_symbol
 _atom_site_label
 _atom_site_symmetry_multiplicity
 _atom_site_fract_x
 _atom_site_fract_y
 _atom_site_fract_z
 _atom_site_occupancy
  Li  Li0  1  0.33802473  0.67275979  0.17249806  1
  Li  Li1  1  0.32724540  0.66515465  0.50585953  1
  Li  Li2  1  0.33482022  0.66200550  0.83915618  1
  Li  Li3  1  0.68089162  0.34788484  0.50563760  1
  Li  Li4  1  0.66700363  0.31918470  0.17227512  1
  Li  Li5  1  0.65222101  0.33301268  0.83893969  1
  V  V6  1  0.00078286  0.02222595  0.67261507  1
  V  V7  1  0.97778978  0.97855000  0.00593030  1
  V  V8  1  0.02084434  0.99921604  0.33906111  1
  O  O9  1  0.00008063  0.29282149  0.74243117  1
  O  O10  1  0.29317391  -0.00006850  0.40921987  1
  O  O11  1  0.70708817  0.70713189  0.07579392  1
  F  F12  1  0.99365183  0.69064221  0.25028204  1
  F  F13  1  0.00560215  0.69836026  0.91719089  1
  F  F14  1  0.00177605  0.68767743  0.58351303  1
  F  F15  1  0.00741129  0.31753449  0.07759668  1
  F  F16  1  0.99326984  0.30929016  0.41162573  1
  F  F17  1  0.30941931  0.30303671  0.58361116  1
  F  F18  1  0.30166140  0.30716639  0.25051942  1
  F  F19  1  0.31235154  0.31407347  0.91685249  1
  F  F20  1  0.31597360  0.00666316  0.07827813  1
  F  F21  1  0.31021332  0.99264249  0.74424456  1
  F  F22  1  0.68242511  0.68986152  0.41095434  1
  F  F23  1  0.69068641  0.68408125  0.74494217  1
  F  F24  1  0.69698846  0.00638577  0.91694988  1
  F  F25  1  0.68582858  0.99825954  0.25017167  1
  F  F26  1  0.69274282  0.99444811  0.58384917  1
