# generated using pymatgen
data_Cr22Ni50Mo3
_symmetry_space_group_name_H-M   'P 1'
_cell_length_a   6.15031848
_cell_length_b   11.54764006
_cell_length_c   11.96547864
_cell_angle_alpha   88.89960605
_cell_angle_beta   80.37041727
_cell_angle_gamma   89.42448269
_symmetry_Int_Tables_number   1
_chemical_formula_structural   Cr22Ni50Mo3
_chemical_formula_sum   'Cr22 Ni50 Mo3'
_cell_volume   837.65960258
_cell_formula_units_Z   1
loop_
 _symmetry_equiv_pos_site_id
 _symmetry_equiv_pos_as_xyz
  1  'x, y, z'
loop_
 _atom_site_type_symbol
 _atom_site_label
 _atom_site_symmetry_multiplicity
 _atom_site_fract_x
 _atom_site_fract_y
 _atom_site_fract_z
 _atom_site_occupancy
  Cr  Cr0  1  0.00566650  0.99570305  0.00247975  1
  Cr  Cr1  1  0.32052070  0.87917273  0.04015663  1
  Cr  Cr2  1  0.64041402  0.75941979  0.08071957  1
  Cr  Cr3  1  0.28128900  0.52082350  0.16052218  1
  Cr  Cr4  1  0.96030071  0.64052288  0.12124553  1
  Cr  Cr5  1  0.59950695  0.40122528  0.20157279  1
  Cr  Cr6  1  0.23782617  0.16083514  0.27951071  1
  Cr  Cr7  1  0.92105213  0.28017801  0.24182067  1
  Cr  Cr8  1  0.56166461  0.03877535  0.32052306  1
  Cr  Cr9  1  0.19939956  0.79917157  0.39910564  1
  Cr  Cr10  1  0.87810084  0.91935737  0.35943291  1
  Cr  Cr11  1  0.51986691  0.67964202  0.44005419  1
  Cr  Cr12  1  0.16106522  0.44109016  0.51843220  1
  Cr  Cr13  1  0.84035831  0.56058069  0.47967311  1
  Cr  Cr14  1  0.48068200  0.32059236  0.55918149  1
  Cr  Cr15  1  0.79470219  0.20318582  0.59753013  1
  Cr  Cr16  1  0.44397965  0.95609659  0.68012151  1
  Cr  Cr17  1  0.07928737  0.71991301  0.75978821  1
  Cr  Cr18  1  0.76042321  0.83870935  0.71927401  1
  Cr  Cr19  1  0.39932753  0.60041713  0.79980534  1
  Cr  Cr20  1  0.71369835  0.48410972  0.83848185  1
  Cr  Cr21  1  0.36102305  0.24044024  0.92059327  1
  Ni  Ni22  1  0.94739884  0.85215178  0.16153838  1
  Ni  Ni23  1  0.26797407  0.73303832  0.20046796  1
  Ni  Ni24  1  0.58739743  0.61324040  0.24094901  1
  Ni  Ni25  1  0.22727735  0.37399320  0.31923704  1
  Ni  Ni26  1  0.90691859  0.49383136  0.28167056  1
  Ni  Ni27  1  0.54729051  0.25339475  0.36054796  1
  Ni  Ni28  1  0.18795986  0.01223996  0.43590749  1
  Ni  Ni29  1  0.86822696  0.13320401  0.39928166  1
  Ni  Ni30  1  0.50387742  0.89293622  0.47956418  1
  Ni  Ni31  1  0.14602049  0.65365541  0.55893807  1
  Ni  Ni32  1  0.82529948  0.77320408  0.51922290  1
  Ni  Ni33  1  0.46655713  0.53406758  0.59954991  1
  Ni  Ni34  1  0.10827478  0.29585251  0.67674111  1
  Ni  Ni35  1  0.78787745  0.41583332  0.63877726  1
  Ni  Ni36  1  0.42807526  0.17457297  0.72062668  1
  Ni  Ni37  1  0.06337855  0.92992838  0.80171858  1
  Ni  Ni38  1  0.74349196  0.05153247  0.75833014  1
  Ni  Ni39  1  0.38601805  0.81190942  0.84018855  1
  Ni  Ni40  1  0.02628173  0.57638330  0.92068089  1
  Ni  Ni41  1  0.70612791  0.69348689  0.87959879  1
  Ni  Ni42  1  0.34842395  0.45604330  0.96112682  1
  Ni  Ni43  1  0.98780569  0.21313228  0.04468836  1
  Ni  Ni44  1  0.66297988  0.33629492  0.00263523  1
  Ni  Ni45  1  0.30373364  0.09229846  0.08241084  1
  Ni  Ni46  1  0.62613175  0.97093057  0.12280352  1
  Ni  Ni47  1  0.93119162  0.06564645  0.20188365  1
  Ni  Ni48  1  0.25298469  0.94623922  0.23965107  1
  Ni  Ni49  1  0.57252111  0.82616483  0.28098380  1
  Ni  Ni50  1  0.21337262  0.58728286  0.35919373  1
  Ni  Ni51  1  0.89292066  0.70700792  0.32008604  1
  Ni  Ni52  1  0.53265624  0.46733297  0.39984576  1
  Ni  Ni53  1  0.17464976  0.22838991  0.47621680  1
  Ni  Ni54  1  0.85311622  0.34782518  0.43899681  1
  Ni  Ni55  1  0.49682513  0.10675325  0.51764503  1
  Ni  Ni56  1  0.13288628  0.86325786  0.59880562  1
  Ni  Ni57  1  0.81126119  0.98426167  0.55729283  1
  Ni  Ni58  1  0.45348229  0.74538308  0.63982589  1
  Ni  Ni59  1  0.09417183  0.50968602  0.71792571  1
  Ni  Ni60  1  0.77331240  0.62755192  0.67905478  1
  Ni  Ni61  1  0.41653350  0.38814370  0.75798203  1
  Ni  Ni62  1  0.05641160  0.14476248  0.84127705  1
  Ni  Ni63  1  0.73368957  0.26796099  0.79676890  1
  Ni  Ni64  1  0.37079566  0.02378774  0.87918101  1
  Ni  Ni65  1  0.01425685  0.78559454  0.96107739  1
  Ni  Ni66  1  0.69299011  0.90333285  0.91999177  1
  Ni  Ni67  1  0.33496135  0.66683335  0.00021630  1
  Ni  Ni68  1  0.97320313  0.42784087  0.08378703  1
  Ni  Ni69  1  0.65601370  0.54793091  0.04016853  1
  Ni  Ni70  1  0.29359841  0.30674127  0.12074695  1
  Ni  Ni71  1  0.61151958  0.18712533  0.16423718  1
  Mo  Mo72  1  0.12058985  0.07904486  0.63858353  1
  Mo  Mo73  1  0.03951976  0.36118610  0.88057382  1
  Mo  Mo74  1  0.67961118  0.11981429  0.96077431  1
