# generated using pymatgen
data_Dy2Sb2O7
_symmetry_space_group_name_H-M   'P 1'
_cell_length_a   7.53429845
_cell_length_b   7.53413894
_cell_length_c   18.54538004
_cell_angle_alpha   90.00773442
_cell_angle_beta   89.99293079
_cell_angle_gamma   119.99598900
_symmetry_Int_Tables_number   1
_chemical_formula_structural   Dy2Sb2O7
_chemical_formula_sum   'Dy12 Sb12 O42'
_cell_volume   911.71764595
_cell_formula_units_Z   6
loop_
 _symmetry_equiv_pos_site_id
 _symmetry_equiv_pos_as_xyz
  1  'x, y, z'
loop_
 _atom_site_type_symbol
 _atom_site_label
 _atom_site_symmetry_multiplicity
 _atom_site_fract_x
 _atom_site_fract_y
 _atom_site_fract_z
 _atom_site_occupancy
  Dy  Dy0  1  0.00019621  0.82328340  0.66675140  1
  Dy  Dy1  1  0.99975216  0.83405067  0.16659850  1
  Dy  Dy2  1  0.18342992  0.68383642  0.01139413  1
  Dy  Dy3  1  0.17713363  0.17717250  0.99999260  1
  Dy  Dy4  1  0.50057911  0.81663405  0.67815942  1
  Dy  Dy5  1  0.16591328  0.16580527  0.49999375  1
  Dy  Dy6  1  0.31631965  0.49918466  0.34469590  1
  Dy  Dy7  1  0.49919622  0.31633666  0.65531299  1
  Dy  Dy8  1  0.68381701  0.18321479  0.98865656  1
  Dy  Dy9  1  0.81656600  0.50056651  0.32184533  1
  Dy  Dy10  1  0.83407156  0.99977328  0.83339365  1
  Dy  Dy11  1  0.82324551  0.00015353  0.33325576  1
  Sb  Sb12  1  0.99951479  0.32547965  0.16658766  1
  Sb  Sb13  1  0.99879108  0.29819427  0.66643727  1
  Sb  Sb14  1  0.16720685  0.66937696  0.50096830  1
  Sb  Sb15  1  0.50192273  0.83266880  0.16752935  1
  Sb  Sb16  1  0.33095516  0.49779673  0.83436014  1
  Sb  Sb17  1  0.29817528  0.99876689  0.33353927  1
  Sb  Sb18  1  0.67460431  0.67465261  0.50001526  1
  Sb  Sb19  1  0.32551530  0.99966589  0.83343966  1
  Sb  Sb20  1  0.70149445  0.70112954  0.99992835  1
  Sb  Sb21  1  0.49776040  0.33100280  0.16563438  1
  Sb  Sb22  1  0.66939996  0.16722234  0.49904348  1
  Sb  Sb23  1  0.83272493  0.50199296  0.83245683  1
  O  O24  1  0.01663851  0.85117759  0.28488897  1
  O  O25  1  0.99083446  0.80132578  0.80482084  1
  O  O26  1  0.10652707  0.65636755  0.39409245  1
  O  O27  1  0.05102838  0.43800242  0.80554783  1
  O  O28  1  0.32904386  0.99432075  0.95575267  1
  O  O29  1  0.23187988  0.69757874  0.60597761  1
  O  O30  1  0.00629048  0.33498740  0.28885790  1
  O  O31  1  0.20246317  0.68107740  0.14008949  1
  O  O32  1  0.38708397  0.94907744  0.47212264  1
  O  O33  1  0.46453980  0.76820007  0.27282129  1
  O  O34  1  0.47927242  0.79740469  0.80656250  1
  O  O35  1  0.34447852  0.45063664  0.72737236  1
  O  O36  1  0.14805759  0.16467766  0.61817222  1
  O  O37  1  0.31831976  0.52097983  0.47334189  1
  O  O38  1  0.19832018  0.19003869  0.13862056  1
  O  O39  1  0.16463436  0.14802756  0.38180195  1
  O  O40  1  0.30324463  0.53475719  0.93918920  1
  O  O41  1  0.19001908  0.19839607  0.86139577  1
  O  O42  1  0.54979977  0.89391328  0.06096580  1
  O  O43  1  0.56201611  0.61301984  0.13890946  1
  O  O44  1  0.81029229  0.00874465  0.47190923  1
  O  O45  1  0.66555674  0.67130737  0.62237364  1
  O  O46  1  0.45063301  0.34451743  0.27264810  1
  O  O47  1  0.61304324  0.56201999  0.86110678  1
  O  O48  1  0.33495191  0.00624915  0.71108120  1
  O  O49  1  0.83508543  0.98349109  0.95149967  1
  O  O50  1  0.53472976  0.30313592  0.06083490  1
  O  O51  1  0.67129119  0.66553970  0.37764536  1
  O  O52  1  0.52104338  0.31839784  0.52664713  1
  O  O53  1  0.43772671  0.05089080  0.19450106  1
  O  O54  1  0.69761630  0.23187028  0.39399733  1
  O  O55  1  0.68126422  0.20253944  0.85996130  1
  O  O56  1  0.89375201  0.55002635  0.93910836  1
  O  O57  1  0.98368414  0.83507997  0.04850623  1
  O  O58  1  0.79731750  0.47919382  0.19345647  1
  O  O59  1  0.00869115  0.81025192  0.52807708  1
  O  O60  1  0.76818113  0.46453768  0.72720897  1
  O  O61  1  0.65639162  0.10654316  0.60589065  1
  O  O62  1  0.94900849  0.38716716  0.52789353  1
  O  O63  1  0.80129134  0.99076917  0.19522366  1
  O  O64  1  0.99442514  0.32908432  0.04415673  1
  O  O65  1  0.85124182  0.01671301  0.71511324  1
