# generated using pymatgen
data_DyY7O12
_symmetry_space_group_name_H-M   'P 1'
_cell_length_a   9.27009055
_cell_length_b   9.27008532
_cell_length_c   9.27009329
_cell_angle_alpha   109.47310302
_cell_angle_beta   109.46065746
_cell_angle_gamma   109.47997002
_symmetry_Int_Tables_number   1
_chemical_formula_structural   DyY7O12
_chemical_formula_sum   'Dy2 Y14 O24'
_cell_volume   613.23868595
_cell_formula_units_Z   2
loop_
 _symmetry_equiv_pos_site_id
 _symmetry_equiv_pos_as_xyz
  1  'x, y, z'
loop_
 _atom_site_type_symbol
 _atom_site_label
 _atom_site_symmetry_multiplicity
 _atom_site_fract_x
 _atom_site_fract_y
 _atom_site_fract_z
 _atom_site_occupancy
  Dy  Dy0  1  0.46724156  0.24999974  0.71724162  1
  Dy  Dy1  1  0.03275646  0.75000018  0.78275720  1
  Y  Y2  1  0.96733167  0.25000012  0.21733189  1
  Y  Y3  1  0.49994943  0.00004539  0.99997055  1
  Y  Y4  1  0.78268487  0.03268492  0.74999958  1
  Y  Y5  1  0.71731571  0.46731581  0.25000035  1
  Y  Y6  1  0.74999948  0.78259107  0.03259126  1
  Y  Y7  1  0.75000005  0.28274252  0.53274234  1
  Y  Y8  1  0.50007450  0.49997918  0.50003003  1
  Y  Y9  1  0.00005076  0.00002099  0.50009514  1
  Y  Y10  1  0.99992495  0.49995490  0.99990429  1
  Y  Y11  1  0.53266747  0.74999996  0.28266718  1
  Y  Y12  1  0.25000012  0.71740869  0.46740922  1
  Y  Y13  1  0.25000031  0.21725856  0.96725757  1
  Y  Y14  1  0.21738470  0.96738464  0.25000027  1
  Y  Y15  1  0.28261513  0.53261546  0.74999949  1
  O  O16  1  0.76085671  0.03162002  0.48887894  1
  O  O17  1  0.73914381  0.22802229  0.27076466  1
  O  O18  1  0.27169549  0.01087482  0.04244423  1
  O  O19  1  0.96841686  0.51117454  0.23919679  1
  O  O20  1  0.46843063  0.22925111  0.45755584  1
  O  O21  1  0.77197853  0.72921946  0.26080354  1
  O  O22  1  0.45725825  0.46837995  0.22923588  1
  O  O23  1  0.04274071  0.27197694  0.01112064  1
  O  O24  1  0.72885824  0.26080217  0.77192756  1
  O  O25  1  0.48887711  0.76082124  0.03158497  1
  O  O26  1  0.01112304  0.04270801  0.27194327  1
  O  O27  1  0.77114243  0.54306871  0.53194440  1
  O  O28  1  0.22923716  0.45729277  0.46841553  1
  O  O29  1  0.27076307  0.73917795  0.22805608  1
  O  O30  1  0.98887548  0.95693139  0.72807322  1
  O  O31  1  0.51112591  0.23919840  0.96805663  1
  O  O32  1  0.95744779  0.72812760  0.98845366  1
  O  O33  1  0.54255335  0.53100676  0.77067974  1
  O  O34  1  0.53158332  0.77077952  0.54275811  1
  O  O35  1  0.22830552  0.27074948  0.73917935  1
  O  O36  1  0.72802190  0.98882537  0.95724223  1
  O  O37  1  0.03156917  0.48912449  0.76082012  1
  O  O38  1  0.23967298  0.96899383  0.51154737  1
  O  O39  1  0.26032637  0.77187205  0.72932024  1
