# generated using pymatgen
data_Li2ZrFe(PO4)3
_symmetry_space_group_name_H-M   'P 1'
_cell_length_a   8.79096374
_cell_length_b   8.94065759
_cell_length_c   12.37866585
_cell_angle_alpha   90.00000000
_cell_angle_beta   90.00000000
_cell_angle_gamma   90.00000000
_symmetry_Int_Tables_number   1
_chemical_formula_structural   Li2ZrFe(PO4)3
_chemical_formula_sum   'Li8 Zr4 Fe4 P12 O48'
_cell_volume   972.92595878
_cell_formula_units_Z   4
loop_
 _symmetry_equiv_pos_site_id
 _symmetry_equiv_pos_as_xyz
  1  'x, y, z'
loop_
 _atom_site_type_symbol
 _atom_site_label
 _atom_site_symmetry_multiplicity
 _atom_site_fract_x
 _atom_site_fract_y
 _atom_site_fract_z
 _atom_site_occupancy
  Li  Li0  1  0.21512333  0.72705023  0.17738626  1
  Li  Li1  1  0.21903936  0.78384519  0.81644436  1
  Li  Li2  1  0.28096064  0.21615481  0.31644436  1
  Li  Li3  1  0.28487667  0.27294977  0.67738626  1
  Li  Li4  1  0.71903936  0.71615481  0.31644436  1
  Li  Li5  1  0.71512333  0.77294977  0.67738626  1
  Li  Li6  1  0.78487667  0.22705023  0.17738626  1
  Li  Li7  1  0.78096064  0.28384519  0.81644436  1
  Zr  Zr8  1  0.24831969  0.53959476  0.38577980  1
  Zr  Zr9  1  0.25168031  0.46040524  0.88577980  1
  Zr  Zr10  1  0.74831969  0.96040524  0.88577980  1
  Zr  Zr11  1  0.75168031  0.03959476  0.38577980  1
  Fe  Fe12  1  0.24632517  0.95897285  0.61021416  1
  Fe  Fe13  1  0.25367483  0.04102715  0.11021416  1
  Fe  Fe14  1  0.74632517  0.54102715  0.11021416  1
  Fe  Fe15  1  0.75367483  0.45897285  0.61021416  1
  P  P16  1  0.04299587  0.24881817  0.50541240  1
  P  P17  1  0.09925505  0.38941788  0.14782572  1
  P  P18  1  0.10987095  0.10174743  0.85193227  1
  P  P19  1  0.40074495  0.61058212  0.64782572  1
  P  P20  1  0.39012905  0.89825257  0.35193227  1
  P  P21  1  0.45700413  0.75118183  0.00541240  1
  P  P22  1  0.54299587  0.25118183  0.00541240  1
  P  P23  1  0.59925505  0.11058212  0.64782572  1
  P  P24  1  0.60987095  0.39825257  0.35193227  1
  P  P25  1  0.89012905  0.60174743  0.85193227  1
  P  P26  1  0.90074495  0.88941788  0.14782572  1
  P  P27  1  0.95700413  0.74881817  0.50541240  1
  O  O28  1  0.05325365  0.64151514  0.43567719  1
  O  O29  1  0.05504730  0.85744550  0.57014831  1
  O  O30  1  0.07501240  0.89374939  0.15662991  1
  O  O31  1  0.06713747  0.60731108  0.84347343  1
  O  O32  1  0.14893602  0.16187219  0.58211763  1
  O  O33  1  0.14887571  0.33275829  0.42352520  1
  O  O34  1  0.15725725  0.06771002  0.96867155  1
  O  O35  1  0.14984790  0.42777832  0.03104306  1
  O  O36  1  0.16238800  0.23425312  0.18026549  1
  O  O37  1  0.16850745  0.25998223  0.81728133  1
  O  O38  1  0.16997374  0.51320059  0.22193226  1
  O  O39  1  0.17410180  0.98294757  0.77423967  1
  O  O40  1  0.32589820  0.01705243  0.27423967  1
  O  O41  1  0.33002626  0.48679941  0.72193226  1
  O  O42  1  0.33761200  0.76574688  0.68026549  1
  O  O43  1  0.33149255  0.74001777  0.31728133  1
  O  O44  1  0.35015210  0.57222168  0.53104306  1
  O  O45  1  0.34274275  0.93228998  0.46867155  1
  O  O46  1  0.35106398  0.83812781  0.08211763  1
  O  O47  1  0.35112429  0.66724171  0.92352520  1
  O  O48  1  0.42498760  0.10625061  0.65662991  1
  O  O49  1  0.43286253  0.39268892  0.34347343  1
  O  O50  1  0.44495270  0.14255450  0.07014831  1
  O  O51  1  0.44674635  0.35848486  0.93567719  1
  O  O52  1  0.55504730  0.64255450  0.07014831  1
  O  O53  1  0.55325365  0.85848486  0.93567719  1
  O  O54  1  0.57501240  0.60625061  0.65662991  1
  O  O55  1  0.56713747  0.89268892  0.34347343  1
  O  O56  1  0.64893602  0.33812781  0.08211763  1
  O  O57  1  0.64887571  0.16724171  0.92352520  1
  O  O58  1  0.64984790  0.07222168  0.53104306  1
  O  O59  1  0.65725725  0.43228998  0.46867155  1
  O  O60  1  0.66850745  0.24001777  0.31728133  1
  O  O61  1  0.66238800  0.26574688  0.68026549  1
  O  O62  1  0.67410180  0.51705243  0.27423967  1
  O  O63  1  0.66997374  0.98679941  0.72193226  1
  O  O64  1  0.83002626  0.01320059  0.22193226  1
  O  O65  1  0.82589820  0.48294757  0.77423967  1
  O  O66  1  0.83761200  0.73425312  0.18026549  1
  O  O67  1  0.83149255  0.75998223  0.81728133  1
  O  O68  1  0.84274275  0.56771002  0.96867155  1
  O  O69  1  0.85015210  0.92777832  0.03104306  1
  O  O70  1  0.85106398  0.66187219  0.58211763  1
  O  O71  1  0.85112429  0.83275829  0.42352520  1
  O  O72  1  0.93286253  0.10731108  0.84347343  1
  O  O73  1  0.92498760  0.39374939  0.15662991  1
  O  O74  1  0.94674635  0.14151514  0.43567719  1
  O  O75  1  0.94495270  0.35744550  0.57014831  1
