# generated using pymatgen
data_Na3SiBiCO7
_symmetry_space_group_name_H-M   'P 1'
_cell_length_a   9.42214040
_cell_length_b   7.20646551
_cell_length_c   5.23394027
_cell_angle_alpha   90.00000000
_cell_angle_beta   90.65036627
_cell_angle_gamma   90.00000000
_symmetry_Int_Tables_number   1
_chemical_formula_structural   Na3SiBiCO7
_chemical_formula_sum   'Na6 Si2 Bi2 C2 O14'
_cell_volume   355.36337586
_cell_formula_units_Z   2
loop_
 _symmetry_equiv_pos_site_id
 _symmetry_equiv_pos_as_xyz
  1  'x, y, z'
loop_
 _atom_site_type_symbol
 _atom_site_label
 _atom_site_symmetry_multiplicity
 _atom_site_fract_x
 _atom_site_fract_y
 _atom_site_fract_z
 _atom_site_occupancy
  Na  Na0  1  0.08690154  0.25000000  0.76414028  1
  Na  Na1  1  0.25542587  0.01283783  0.24678969  1
  Na  Na2  1  0.25542587  0.48716217  0.24678969  1
  Na  Na3  1  0.74457413  0.51283783  0.75321031  1
  Na  Na4  1  0.74457413  0.98716217  0.75321031  1
  Na  Na5  1  0.91309846  0.75000000  0.23585972  1
  Si  Si6  1  0.40352867  0.25000000  0.70552561  1
  Si  Si7  1  0.59647133  0.75000000  0.29447439  1
  Bi  Bi8  1  0.36630098  0.75000000  0.77316959  1
  Bi  Bi9  1  0.63369902  0.25000000  0.22683041  1
  C  C10  1  0.05180750  0.75000000  0.73245501  1
  C  C11  1  0.94819250  0.25000000  0.26754499  1
  O  O12  1  0.08495253  0.25000000  0.28206351  1
  O  O13  1  0.11583840  0.75000000  0.95518956  1
  O  O14  1  0.12640565  0.75000000  0.52344017  1
  O  O15  1  0.31375446  0.06800652  0.80405495  1
  O  O16  1  0.31375446  0.43199348  0.80405495  1
  O  O17  1  0.40833859  0.25000000  0.38988509  1
  O  O18  1  0.42624481  0.75000000  0.19565675  1
  O  O19  1  0.57375519  0.25000000  0.80434325  1
  O  O20  1  0.59166141  0.75000000  0.61011491  1
  O  O21  1  0.68624554  0.56800652  0.19594505  1
  O  O22  1  0.68624554  0.93199348  0.19594505  1
  O  O23  1  0.87359435  0.25000000  0.47655983  1
  O  O24  1  0.88416160  0.25000000  0.04481044  1
  O  O25  1  0.91504747  0.75000000  0.71793649  1
