# generated using pymatgen
data_Tb2WO6
_symmetry_space_group_name_H-M   'P 1'
_cell_length_a   7.73357641
_cell_length_b   5.41927833
_cell_length_c   11.52649468
_cell_angle_alpha   90.00000000
_cell_angle_beta   104.46239694
_cell_angle_gamma   90.00000000
_symmetry_Int_Tables_number   1
_chemical_formula_structural   Tb2WO6
_chemical_formula_sum   'Tb8 W4 O24'
_cell_volume   467.77207974
_cell_formula_units_Z   4
loop_
 _symmetry_equiv_pos_site_id
 _symmetry_equiv_pos_as_xyz
  1  'x, y, z'
loop_
 _atom_site_type_symbol
 _atom_site_label
 _atom_site_symmetry_multiplicity
 _atom_site_fract_x
 _atom_site_fract_y
 _atom_site_fract_z
 _atom_site_occupancy
  Tb  Tb0  1  0.00000000  0.26213743  0.75000000  1
  Tb  Tb1  1  0.00000000  0.73786257  0.25000000  1
  Tb  Tb2  1  0.20315466  0.81133232  0.57762609  1
  Tb  Tb3  1  0.20315466  0.18866768  0.07762609  1
  Tb  Tb4  1  0.50000000  0.31656677  0.75000000  1
  Tb  Tb5  1  0.50000000  0.68343323  0.25000000  1
  Tb  Tb6  1  0.79684534  0.81133232  0.92237391  1
  Tb  Tb7  1  0.79684534  0.18866768  0.42237391  1
  W  W8  1  0.27857850  0.74587956  0.88630002  1
  W  W9  1  0.27857850  0.25412044  0.38630002  1
  W  W10  1  0.72142150  0.74587956  0.61369998  1
  W  W11  1  0.72142150  0.25412044  0.11369998  1
  O  O12  1  0.06234689  0.96092229  0.89604538  1
  O  O13  1  0.14873865  0.47562808  0.93066801  1
  O  O14  1  0.06234689  0.03907771  0.39604538  1
  O  O15  1  0.21417011  0.53682173  0.72886600  1
  O  O16  1  0.14873865  0.52437192  0.43066801  1
  O  O17  1  0.29061042  0.01359148  0.77142300  1
  O  O18  1  0.21417011  0.46317827  0.22886600  1
  O  O19  1  0.36582127  0.14825088  0.54750510  1
  O  O20  1  0.50980935  0.63653581  0.88784714  1
  O  O21  1  0.29061042  0.98640852  0.27142300  1
  O  O22  1  0.49019065  0.63653581  0.61215286  1
  O  O23  1  0.63417873  0.14825088  0.95249490  1
  O  O24  1  0.36582127  0.85174912  0.04750510  1
  O  O25  1  0.50980935  0.36346419  0.38784714  1
  O  O26  1  0.70938958  0.01359148  0.72857700  1
  O  O27  1  0.49019065  0.36346419  0.11215286  1
  O  O28  1  0.63417873  0.85174912  0.45249490  1
  O  O29  1  0.78582989  0.53682173  0.77113400  1
  O  O30  1  0.70938958  0.98640852  0.22857700  1
  O  O31  1  0.85126135  0.47562808  0.56933199  1
  O  O32  1  0.78582989  0.46317827  0.27113400  1
  O  O33  1  0.93765311  0.96092229  0.60395462  1
  O  O34  1  0.85126135  0.52437192  0.06933199  1
  O  O35  1  0.93765311  0.03907771  0.10395462  1
