# generated using pymatgen
data_Sr12Mn6O23
_symmetry_space_group_name_H-M   'P 1'
_cell_length_a   8.80423351
_cell_length_b   8.67701619
_cell_length_c   8.80204175
_cell_angle_alpha   119.56446285
_cell_angle_beta   82.94469661
_cell_angle_gamma   84.35063150
_symmetry_Int_Tables_number   1
_chemical_formula_structural   Sr12Mn6O23
_chemical_formula_sum   'Sr12 Mn6 O23'
_cell_volume   570.51225045
_cell_formula_units_Z   1
loop_
 _symmetry_equiv_pos_site_id
 _symmetry_equiv_pos_as_xyz
  1  'x, y, z'
loop_
 _atom_site_type_symbol
 _atom_site_label
 _atom_site_symmetry_multiplicity
 _atom_site_fract_x
 _atom_site_fract_y
 _atom_site_fract_z
 _atom_site_occupancy
  Sr  Sr0  1  0.45185186  0.07232019  0.83330422  1
  Sr  Sr1  1  0.04715120  0.41561778  0.65875092  1
  Sr  Sr2  1  0.11951580  0.08438222  0.17458208  1
  Sr  Sr3  1  0.71481414  0.42767981  0.00002878  1
  Sr  Sr4  1  0.62357263  0.56857731  0.66495586  1
  Sr  Sr5  1  0.21440498  0.92885843  0.49678186  1
  Sr  Sr6  1  0.78284102  0.07452890  0.50096255  1
  Sr  Sr7  1  0.38382498  0.42547110  0.33237145  1
  Sr  Sr8  1  0.29391713  0.56276515  0.00283406  1
  Sr  Sr9  1  0.87274987  0.93723485  0.83049894  1
  Sr  Sr10  1  0.95226202  0.57114157  0.33655114  1
  Sr  Sr11  1  0.54309337  0.93142269  0.16837714  1
  Mn  Mn12  1  0.08333300  0.25000000  0.91666700  1
  Mn  Mn13  1  0.25468138  0.74999137  0.74539938  1
  Mn  Mn14  1  0.41602075  0.25047263  0.58518352  1
  Mn  Mn15  1  0.75064625  0.24952737  0.24814948  1
  Mn  Mn16  1  0.58333300  0.75000000  0.41666700  1
  Mn  Mn17  1  0.91198462  0.75000863  0.08793462  1
  O  O18  1  0.15419532  0.99610080  0.84583425  1
  O  O19  1  0.25296804  0.23819961  0.74750287  1
  O  O20  1  0.54894998  0.32906950  0.76710484  1
  O  O21  1  0.10912493  0.67365257  0.58373884  1
  O  O22  1  0.36536024  0.82708076  0.94228427  1
  O  O23  1  0.49997507  0.99952285  0.49789885  1
  O  O24  1  0.31989389  0.50376202  0.68100138  1
  O  O25  1  0.28587836  0.17282778  0.40125597  1
  O  O26  1  0.80130676  0.67291924  0.89104873  1
  O  O27  1  0.01247168  0.50389920  0.98749875  1
  O  O28  1  0.05754107  0.82634743  0.24959516  1
  O  O29  1  0.58333300  0.25000000  0.41666700  1
  O  O30  1  0.41692388  0.74991919  0.58315899  1
  O  O31  1  0.21430285  0.32967929  0.10208570  1
  O  O32  1  0.95236415  0.17032071  0.73124830  1
  O  O33  1  0.66669193  0.50047715  0.33543415  1
  O  O34  1  0.84677211  0.99623798  0.15233162  1
  O  O35  1  0.88078864  0.32717222  0.43207803  1
  O  O36  1  0.71298000  0.82990126  0.59963549  1
  O  O37  1  0.61771702  0.17093050  0.06622916  1
  O  O38  1  0.45368600  0.67009874  0.23369751  1
  O  O39  1  0.91369896  0.26180039  0.08583113  1
  O  O40  1  0.74974212  0.75008081  0.25017401  1
