# generated using pymatgen
data_FeBP2H5NO9
_symmetry_space_group_name_H-M   'P 1'
_cell_length_a   9.47341123
_cell_length_b   8.39051599
_cell_length_c   9.80092125
_cell_angle_alpha   90.00000000
_cell_angle_beta   102.25514371
_cell_angle_gamma   90.00000000
_symmetry_Int_Tables_number   1
_chemical_formula_structural   FeBP2H5NO9
_chemical_formula_sum   'Fe4 B4 P8 H20 N4 O36'
_cell_volume   761.29113871
_cell_formula_units_Z   4
loop_
 _symmetry_equiv_pos_site_id
 _symmetry_equiv_pos_as_xyz
  1  'x, y, z'
loop_
 _atom_site_type_symbol
 _atom_site_label
 _atom_site_symmetry_multiplicity
 _atom_site_fract_x
 _atom_site_fract_y
 _atom_site_fract_z
 _atom_site_occupancy
  Fe  Fe0  1  0.21186314  0.65350620  0.93061895  1
  Fe  Fe1  1  0.21186314  0.84649380  0.43061895  1
  Fe  Fe2  1  0.78813686  0.15350620  0.56938105  1
  Fe  Fe3  1  0.78813686  0.34649380  0.06938105  1
  B  B4  1  0.33238920  0.06244984  0.69156444  1
  B  B5  1  0.33238920  0.43755016  0.19156444  1
  B  B6  1  0.66761080  0.56244984  0.80843556  1
  B  B7  1  0.66761080  0.93755016  0.30843556  1
  P  P8  1  0.07550888  0.93758943  0.70511782  1
  P  P9  1  0.07550888  0.56241057  0.20511782  1
  P  P10  1  0.42185786  0.74287671  0.71634129  1
  P  P11  1  0.42185786  0.75712329  0.21634129  1
  P  P12  1  0.57814214  0.24287671  0.78365871  1
  P  P13  1  0.57814214  0.25712329  0.28365871  1
  P  P14  1  0.92449112  0.43758943  0.79488218  1
  P  P15  1  0.92449112  0.06241057  0.29488218  1
  H  H16  1  0.11215508  0.31363405  0.52154471  1
  H  H17  1  0.15480896  0.44580661  0.65392149  1
  H  H18  1  0.17045943  0.49868993  0.48912875  1
  H  H19  1  0.11215508  0.18636595  0.02154471  1
  H  H20  1  0.15480896  0.05419339  0.15392149  1
  H  H21  1  0.28518439  0.36494968  0.58438866  1
  H  H22  1  0.17045943  0.00131007  0.98912875  1
  H  H23  1  0.28518439  0.13505032  0.08438866  1
  H  H24  1  0.39979133  0.08253753  0.50346450  1
  H  H25  1  0.39979133  0.41746247  0.00346450  1
  H  H26  1  0.60020867  0.58253753  0.99653550  1
  H  H27  1  0.60020867  0.91746247  0.49653550  1
  H  H28  1  0.71481561  0.86494968  0.91561134  1
  H  H29  1  0.82954057  0.99868993  0.01087125  1
  H  H30  1  0.71481561  0.63505032  0.41561134  1
  H  H31  1  0.84519104  0.94580661  0.84607851  1
  H  H32  1  0.88784492  0.81363405  0.97845529  1
  H  H33  1  0.82954057  0.50131007  0.51087125  1
  H  H34  1  0.84519104  0.55419339  0.34607851  1
  H  H35  1  0.88784492  0.68636595  0.47845529  1
  N  N36  1  0.18079016  0.40610067  0.56122779  1
  N  N37  1  0.18079016  0.09389933  0.06122779  1
  N  N38  1  0.81920984  0.90610067  0.93877221  1
  N  N39  1  0.81920984  0.59389933  0.43877221  1
  O  O40  1  0.07681175  0.50582581  0.80572944  1
  O  O41  1  0.11249382  0.84687199  0.84596445  1
  O  O42  1  0.08856574  0.83424341  0.57843780  1
  O  O43  1  0.07681175  0.99417419  0.30572944  1
  O  O44  1  0.18606355  0.08116649  0.71878572  1
  O  O45  1  0.11249382  0.65312801  0.34596445  1
  O  O46  1  0.08856574  0.66575659  0.07843780  1
  O  O47  1  0.18606355  0.41883351  0.21878572  1
  O  O48  1  0.34480897  0.62950374  0.79907354  1
  O  O49  1  0.31318978  0.05254329  0.53641451  1
  O  O50  1  0.40839523  0.92048970  0.76220431  1
  O  O51  1  0.41075550  0.20976048  0.74247736  1
  O  O52  1  0.37082238  0.72360359  0.55825708  1
  O  O53  1  0.34480897  0.87049626  0.29907354  1
  O  O54  1  0.31318978  0.44745671  0.03641451  1
  O  O55  1  0.40839523  0.57951030  0.26220431  1
  O  O56  1  0.41075550  0.29023952  0.24247736  1
  O  O57  1  0.37082238  0.77639641  0.05825708  1
  O  O58  1  0.62917762  0.22360359  0.94174292  1
  O  O59  1  0.58924450  0.70976048  0.75752264  1
  O  O60  1  0.59160477  0.42048970  0.73779569  1
  O  O61  1  0.68681022  0.55254329  0.96358549  1
  O  O62  1  0.65519103  0.12950374  0.70092646  1
  O  O63  1  0.62917762  0.27639641  0.44174292  1
  O  O64  1  0.58924450  0.79023952  0.25752264  1
  O  O65  1  0.59160477  0.07951030  0.23779569  1
  O  O66  1  0.68681022  0.94745671  0.46358549  1
  O  O67  1  0.65519103  0.37049626  0.20092646  1
  O  O68  1  0.81393645  0.58116649  0.78121428  1
  O  O69  1  0.91143426  0.33424341  0.92156220  1
  O  O70  1  0.88750618  0.34687199  0.65403555  1
  O  O71  1  0.81393645  0.91883351  0.28121428  1
  O  O72  1  0.92318825  0.00582581  0.69427056  1
  O  O73  1  0.91143426  0.16575659  0.42156220  1
  O  O74  1  0.88750618  0.15312801  0.15403555  1
  O  O75  1  0.92318825  0.49417419  0.19427056  1
