# generated using pymatgen
data_LiCoBO3
_symmetry_space_group_name_H-M   'P 1'
_cell_length_a   6.06634162
_cell_length_b   5.13067781
_cell_length_c   5.12748419
_cell_angle_alpha   60.33865796
_cell_angle_beta   113.46701014
_cell_angle_gamma   89.23693880
_symmetry_Int_Tables_number   1
_chemical_formula_structural   LiCoBO3
_chemical_formula_sum   'Li2 Co2 B2 O6'
_cell_volume   122.69717806
_cell_formula_units_Z   2
loop_
 _symmetry_equiv_pos_site_id
 _symmetry_equiv_pos_as_xyz
  1  'x, y, z'
loop_
 _atom_site_type_symbol
 _atom_site_label
 _atom_site_symmetry_multiplicity
 _atom_site_fract_x
 _atom_site_fract_y
 _atom_site_fract_z
 _atom_site_occupancy
  Li  Li0  1  0.66928679  0.63083613  0.42831984  1
  Li  Li1  1  0.33071321  0.36916387  0.57168016  1
  Co  Co2  1  0.78618505  0.24605899  0.16785165  1
  Co  Co3  1  0.21381495  0.75394101  0.83214835  1
  B  B4  1  0.74063982  0.91998821  0.81546524  1
  B  B5  1  0.25936018  0.08001179  0.18453476  1
  O  O6  1  0.69096265  0.67286026  0.04462829  1
  O  O7  1  0.82073064  0.88430021  0.60969409  1
  O  O8  1  0.70409110  0.20563234  0.77676618  1
  O  O9  1  0.29590890  0.79436766  0.22323382  1
  O  O10  1  0.17926936  0.11569979  0.39030591  1
  O  O11  1  0.30903735  0.32713974  0.95537171  1
