# generated using pymatgen
data_TlCoO3
_symmetry_space_group_name_H-M   'P 1'
_cell_length_a   5.32707597
_cell_length_b   5.40994852
_cell_length_c   7.92476064
_cell_angle_alpha   90.51006476
_cell_angle_beta   90.46890805
_cell_angle_gamma   89.13552738
_symmetry_Int_Tables_number   1
_chemical_formula_structural   TlCoO3
_chemical_formula_sum   'Tl4 Co4 O12'
_cell_volume   228.34287130
_cell_formula_units_Z   4
loop_
 _symmetry_equiv_pos_site_id
 _symmetry_equiv_pos_as_xyz
  1  'x, y, z'
loop_
 _atom_site_type_symbol
 _atom_site_label
 _atom_site_symmetry_multiplicity
 _atom_site_fract_x
 _atom_site_fract_y
 _atom_site_fract_z
 _atom_site_occupancy
  Tl  Tl0  1  0.01821672  0.95356581  0.74754355  1
  Tl  Tl1  1  0.48555501  0.45368740  0.74766120  1
  Tl  Tl2  1  0.51444512  0.54631257  0.25233881  1
  Tl  Tl3  1  0.98178319  0.04643428  0.25245645  1
  Co  Co4  1  0.00000005  0.49999997  -0.00000005  1
  Co  Co5  1  -0.00000006  0.50000003  0.49999999  1
  Co  Co6  1  0.50000010  0.00000004  0.00000004  1
  Co  Co7  1  0.50000006  0.00000000  0.50000000  1
  O  O8  1  0.10659988  0.45811392  0.24376402  1
  O  O9  1  0.20524243  0.20597422  0.55905266  1
  O  O10  1  0.20628118  0.20499250  0.94270456  1
  O  O11  1  0.30404210  0.71341138  0.94176531  1
  O  O12  1  0.29655927  0.70716251  0.56026243  1
  O  O13  1  0.39271332  0.95891275  0.25320511  1
  O  O14  1  0.60728663  0.04108728  0.74679490  1
  O  O15  1  0.70344075  0.29283747  0.43973753  1
  O  O16  1  0.69595769  0.28658857  0.05823469  1
  O  O17  1  0.79371885  0.79500753  0.05729548  1
  O  O18  1  0.79475755  0.79402569  0.44094730  1
  O  O19  1  0.89340016  0.54188610  0.75623605  1
