# generated using pymatgen
data_Sr21Fe14O47
_symmetry_space_group_name_H-M   'P 1'
_cell_length_a   8.76569202
_cell_length_b   12.39797657
_cell_length_c   11.94254065
_cell_angle_alpha   65.46589782
_cell_angle_beta   68.46445347
_cell_angle_gamma   81.86299314
_symmetry_Int_Tables_number   1
_chemical_formula_structural   Sr21Fe14O47
_chemical_formula_sum   'Sr21 Fe14 O47'
_cell_volume   1098.18248562
_cell_formula_units_Z   1
loop_
 _symmetry_equiv_pos_site_id
 _symmetry_equiv_pos_as_xyz
  1  'x, y, z'
loop_
 _atom_site_type_symbol
 _atom_site_label
 _atom_site_symmetry_multiplicity
 _atom_site_fract_x
 _atom_site_fract_y
 _atom_site_fract_z
 _atom_site_occupancy
  Sr  Sr0  1  0.14285700  0.78571400  0.00000000  1
  Sr  Sr1  1  0.99070321  0.49676146  0.99997231  1
  Sr  Sr2  1  0.13148550  0.94139290  0.36578617  1
  Sr  Sr3  1  0.15422950  0.63003610  0.63421383  1
  Sr  Sr4  1  0.01132930  0.34476804  0.63745330  1
  Sr  Sr5  1  0.30083233  0.91658805  0.63293706  1
  Sr  Sr6  1  0.27438470  0.22665996  0.36254670  1
  Sr  Sr7  1  0.43325600  0.35050250  0.99966350  1
  Sr  Sr8  1  0.55805547  0.79909807  0.36205440  1
  Sr  Sr9  1  0.70445489  0.92681918  0.99958716  1
  Sr  Sr10  1  0.29501179  0.07466754  0.00002769  1
  Sr  Sr11  1  0.58125911  0.64460982  0.00041284  1
  Sr  Sr12  1  0.41595468  0.51231951  0.36574202  1
  Sr  Sr13  1  0.58753310  0.48678851  0.63377816  1
  Sr  Sr14  1  0.44346822  0.20256496  0.63461371  1
  Sr  Sr15  1  0.72765853  0.77233093  0.63794560  1
  Sr  Sr16  1  0.84224578  0.36886404  0.36538629  1
  Sr  Sr17  1  0.98488167  0.65483995  0.36706294  1
  Sr  Sr18  1  0.69818090  0.08463949  0.36622184  1
  Sr  Sr19  1  0.85245800  0.22092650  0.00033650  1
  Sr  Sr20  1  0.86975932  0.05910949  0.63425798  1
  Fe  Fe21  1  0.34395746  0.78786232  0.19229240  1
  Fe  Fe22  1  0.19560706  0.49653315  0.20995209  1
  Fe  Fe23  1  0.06027448  0.21698295  0.19182990  1
  Fe  Fe24  1  0.09010694  0.07489485  0.79004791  1
  Fe  Fe25  1  0.50907450  0.92561268  0.80778677  1
  Fe  Fe26  1  0.37517361  0.64596293  0.78993534  1
  Fe  Fe27  1  0.22543952  0.35444605  0.80817010  1
  Fe  Fe28  1  0.62972030  0.35981802  0.19425305  1
  Fe  Fe29  1  0.49020848  0.07313729  0.19367660  1
  Fe  Fe30  1  0.77663950  0.64581632  0.19221323  1
  Fe  Fe31  1  0.91054039  0.92546507  0.21006466  1
  Fe  Fe32  1  0.65599370  0.21161098  0.80574695  1
  Fe  Fe33  1  0.79550552  0.49829071  0.80632340  1
  Fe  Fe34  1  0.94175754  0.78356568  0.80770760  1
  O  O35  1  0.13022309  0.86694123  0.17901318  1
  O  O36  1  0.00857734  0.92618265  0.82098884  1
  O  O37  1  0.03104607  0.85394183  0.61517407  1
  O  O38  1  0.41778513  0.93253421  0.19116212  1
  O  O39  1  0.25466893  0.71748717  0.38482593  1
  O  O40  1  0.11472631  0.43136900  0.39808097  1
  O  O41  1  0.28359476  0.99464918  0.82095893  1
  O  O42  1  0.01200664  0.42501999  0.80878406  1
  O  O43  1  0.43194833  0.85769359  0.99978210  1
  O  O44  1  0.13965606  0.36997103  0.18058759  1
  O  O45  1  0.14285700  0.28571400  0.00000000  1
  O  O46  1  0.27713766  0.64524535  0.17901116  1
  O  O47  1  0.15549091  0.70448677  0.82098682  1
  O  O48  1  0.17098869  0.14006000  0.60191903  1
  O  O49  1  0.27370736  0.14640801  0.19121594  1
  O  O50  1  0.58551350  0.99385623  0.61546705  1
  O  O51  1  0.43074460  0.77322473  0.82021033  1
  O  O52  1  0.45394256  0.71299195  0.60173242  1
  O  O53  1  0.14605794  0.20145697  0.81941241  1
  O  O54  1  0.56033686  0.71667198  0.19190087  1
  O  O55  1  0.29424208  0.49853452  0.82005910  1
  O  O56  1  0.41532114  0.43868141  0.17990050  1
  O  O57  1  0.30916965  0.42387256  0.61541150  1
  O  O58  1  0.85496940  0.79820427  0.17978967  1
  O  O59  1  0.70020050  0.57757277  0.38453295  1
  O  O60  1  0.56148485  0.21748329  0.19117802  1
  O  O61  1  0.54392808  0.29247137  0.38767908  1
  O  O62  1  0.41156731  0.00293026  0.38637006  1
  O  O63  1  0.56833877  0.14368938  0.00016645  1
  O  O64  1  0.43807706  0.28337282  0.80858229  1
  O  O65  1  0.70367914  0.50210282  0.19133648  1
  O  O66  1  0.71737523  0.42773962  0.99983355  1
  O  O67  1  0.85376667  0.71373441  0.00021790  1
  O  O68  1  0.56869086  0.56658702  0.82047353  1
  O  O69  1  0.72537714  0.85475702  0.80809913  1
  O  O70  1  0.83177144  0.85843605  0.39826758  1
  O  O71  1  0.72422915  0.35394471  0.80882198  1
  O  O72  1  0.87414669  0.56849874  0.61362994  1
  O  O73  1  0.74178692  0.27895763  0.61232092  1
  O  O74  1  0.00211924  0.57677882  0.17904107  1
  O  O75  1  0.71702314  0.00484198  0.17952647  1
  O  O76  1  0.86792887  0.63889379  0.80883788  1
  O  O77  1  0.58203486  0.06932518  0.80866352  1
  O  O78  1  0.84763694  0.28805618  0.19141771  1
  O  O79  1  0.97654435  0.14755544  0.38458850  1
  O  O80  1  0.99147192  0.07289448  0.17994090  1
  O  O81  1  0.87039286  0.13274659  0.82009950  1
