# generated using pymatgen
data_TiNb3(PO4)6
_symmetry_space_group_name_H-M   'P 1'
_cell_length_a   8.98233729
_cell_length_b   8.98233730
_cell_length_c   8.98233760
_cell_angle_alpha   58.63905427
_cell_angle_beta   58.63905628
_cell_angle_gamma   58.63905286
_symmetry_Int_Tables_number   1
_chemical_formula_structural   TiNb3(PO4)6
_chemical_formula_sum   'Ti1 Nb3 P6 O24'
_cell_volume   496.51033883
_cell_formula_units_Z   1
loop_
 _symmetry_equiv_pos_site_id
 _symmetry_equiv_pos_as_xyz
  1  'x, y, z'
loop_
 _atom_site_type_symbol
 _atom_site_label
 _atom_site_symmetry_multiplicity
 _atom_site_fract_x
 _atom_site_fract_y
 _atom_site_fract_z
 _atom_site_occupancy
  Ti  Ti0  1  0.85845463  0.85845463  0.85845463  1
  Nb  Nb1  1  0.14106903  0.14106903  0.14106903  1
  Nb  Nb2  1  0.35850751  0.35850751  0.35850751  1
  Nb  Nb3  1  0.64066454  0.64066454  0.64066454  1
  P  P4  1  0.03326283  0.75062583  0.46997785  1
  P  P5  1  0.46997785  0.03326283  0.75062583  1
  P  P6  1  0.75062583  0.46997785  0.03326283  1
  P  P7  1  0.24438614  0.53948980  0.96441861  1
  P  P8  1  0.53948980  0.96441861  0.24438614  1
  P  P9  1  0.96441861  0.24438614  0.53948980  1
  O  O10  1  0.13224845  0.28063280  0.50463562  1
  O  O11  1  0.28063280  0.50463562  0.13224845  1
  O  O12  1  0.06219044  0.91930782  0.28980068  1
  O  O13  1  0.50463562  0.13224845  0.28063280  1
  O  O14  1  0.21043373  0.58066204  0.43767509  1
  O  O15  1  0.00279334  0.78135702  0.63635190  1
  O  O16  1  0.28980068  0.06219044  0.91930782  1
  O  O17  1  0.43767509  0.21043373  0.58066204  1
  O  O18  1  0.58066204  0.43767509  0.21043373  1
  O  O19  1  0.21914384  0.36667143  0.99565293  1
  O  O20  1  0.07651888  0.71382848  0.93622843  1
  O  O21  1  0.36667143  0.99565293  0.21914384  1
  O  O22  1  0.63635190  0.00279334  0.78135702  1
  O  O23  1  0.91930782  0.28980068  0.06219044  1
  O  O24  1  0.78135702  0.63635190  0.00279334  1
  O  O25  1  0.41885266  0.56333442  0.78904292  1
  O  O26  1  0.56333442  0.78904292  0.41885266  1
  O  O27  1  0.71382848  0.93622843  0.07651888  1
  O  O28  1  0.99565293  0.21914384  0.36667143  1
  O  O29  1  0.78904292  0.41885266  0.56333442  1
  O  O30  1  0.49686755  0.86613013  0.71878261  1
  O  O31  1  0.93622843  0.07651888  0.71382848  1
  O  O32  1  0.71878261  0.49686755  0.86613013  1
  O  O33  1  0.86613013  0.71878261  0.49686755  1
