# generated using pymatgen
data_LiTi3MnCr(PO4)6
_symmetry_space_group_name_H-M   'P 1'
_cell_length_a   8.62920595
_cell_length_b   8.62920595
_cell_length_c   8.62920621
_cell_angle_alpha   59.92283916
_cell_angle_beta   59.92283916
_cell_angle_gamma   59.92284075
_symmetry_Int_Tables_number   1
_chemical_formula_structural   LiTi3MnCr(PO4)6
_chemical_formula_sum   'Li1 Ti3 Mn1 Cr1 P6 O24'
_cell_volume   453.56206257
_cell_formula_units_Z   1
loop_
 _symmetry_equiv_pos_site_id
 _symmetry_equiv_pos_as_xyz
  1  'x, y, z'
loop_
 _atom_site_type_symbol
 _atom_site_label
 _atom_site_symmetry_multiplicity
 _atom_site_fract_x
 _atom_site_fract_y
 _atom_site_fract_z
 _atom_site_occupancy
  Li  Li0  1  0.99975996  0.99975996  0.99975996  1
  Ti  Ti1  1  0.14072041  0.14072041  0.14072041  1
  Ti  Ti2  1  0.35512816  0.35512816  0.35512816  1
  Ti  Ti3  1  0.85814481  0.85814481  0.85814481  1
  Mn  Mn4  1  0.50064320  0.50064320  0.50064320  1
  Cr  Cr5  1  0.64306311  0.64306311  0.64306311  1
  P  P6  1  0.03956103  0.75016313  0.46000635  1
  P  P7  1  0.54153304  0.95728501  0.24922669  1
  P  P8  1  0.24922669  0.54153304  0.95728501  1
  P  P9  1  0.75016313  0.46000635  0.03956103  1
  P  P10  1  0.46000635  0.03956103  0.75016313  1
  P  P11  1  0.95728501  0.24922669  0.54153304  1
  O  O12  1  0.06176815  0.91563748  0.26847066  1
  O  O13  1  0.99986964  0.80624560  0.62453059  1
  O  O14  1  0.08446501  0.73218280  0.94343614  1
  O  O15  1  0.49355725  0.88276742  0.69316105  1
  O  O16  1  0.23542922  0.58474316  0.44353981  1
  O  O17  1  0.55490150  0.76539050  0.41462424  1
  O  O18  1  0.73218280  0.94343614  0.08446501  1
  O  O19  1  0.00175687  0.19283373  0.37687868  1
  O  O20  1  0.30800611  0.49868971  0.12187876  1
  O  O21  1  0.19283373  0.37687868  0.00175687  1
  O  O22  1  0.12187876  0.30800611  0.49868971  1
  O  O23  1  0.41462424  0.55490150  0.76539050  1
  O  O24  1  0.58474316  0.44353981  0.23542922  1
  O  O25  1  0.88276742  0.69316105  0.49355725  1
  O  O26  1  0.80624560  0.62453059  0.99986964  1
  O  O27  1  0.69316105  0.49355725  0.88276742  1
  O  O28  1  0.26847066  0.06176815  0.91563748  1
  O  O29  1  0.44353981  0.23542922  0.58474316  1
  O  O30  1  0.76539050  0.41462424  0.55490150  1
  O  O31  1  0.49868971  0.12187876  0.30800611  1
  O  O32  1  0.37687868  0.00175687  0.19283373  1
  O  O33  1  0.62453059  0.99986964  0.80624560  1
  O  O34  1  0.91563748  0.26847066  0.06176815  1
  O  O35  1  0.94343614  0.08446501  0.73218280  1
