# generated using pymatgen
data_Dy29Y3O48
_symmetry_space_group_name_H-M   'P 1'
_cell_length_a   9.24480788
_cell_length_b   9.24379677
_cell_length_c   15.09416606
_cell_angle_alpha   90.00126675
_cell_angle_beta   90.00760999
_cell_angle_gamma   109.47139384
_symmetry_Int_Tables_number   1
_chemical_formula_structural   Dy29Y3O48
_chemical_formula_sum   'Dy29 Y3 O48'
_cell_volume   1216.13187608
_cell_formula_units_Z   1
loop_
 _symmetry_equiv_pos_site_id
 _symmetry_equiv_pos_as_xyz
  1  'x, y, z'
loop_
 _atom_site_type_symbol
 _atom_site_label
 _atom_site_symmetry_multiplicity
 _atom_site_fract_x
 _atom_site_fract_y
 _atom_site_fract_z
 _atom_site_occupancy
  Dy  Dy0  1  0.90777871  0.15780656  0.37505825  1
  Dy  Dy1  1  0.59214857  0.34227783  0.12509894  1
  Dy  Dy2  1  0.48345091  0.01635212  0.26650571  1
  Dy  Dy3  1  0.73361819  0.76615708  0.01638096  1
  Dy  Dy4  1  0.25011340  0.25005253  0.25007019  1
  Dy  Dy5  1  0.74994447  0.74986978  0.25004507  1
  Dy  Dy6  1  0.00007051  0.50009145  0.99996618  1
  Dy  Dy7  1  0.50007120  0.00009042  0.49996775  1
  Dy  Dy8  1  0.39136032  0.60851718  0.14141888  1
  Dy  Dy9  1  0.89140020  0.10860453  0.64137119  1
  Dy  Dy10  1  0.64141340  0.35857922  0.39138650  1
  Dy  Dy11  1  0.01649607  0.48373582  0.23366973  1
  Dy  Dy12  1  0.76653961  0.73359619  0.48355673  1
  Dy  Dy13  1  0.40787346  0.65787349  0.37492452  1
  Dy  Dy14  1  0.09219744  0.84208511  0.12505762  1
  Dy  Dy15  1  0.59229837  0.34213791  0.62501505  1
  Dy  Dy16  1  0.90797052  0.15791921  0.87488318  1
  Dy  Dy17  1  0.98344534  0.51633044  0.76643731  1
  Dy  Dy18  1  0.23357731  0.26627227  0.51638032  1
  Dy  Dy19  1  0.10860304  0.89138620  0.35863058  1
  Dy  Dy20  1  0.24997306  0.24982649  0.75001136  1
  Dy  Dy21  1  0.75011112  0.75008350  0.75003864  1
  Dy  Dy22  1  0.99988602  0.49995038  0.49999422  1
  Dy  Dy23  1  0.60864604  0.39148068  0.85858149  1
  Dy  Dy24  1  0.51649053  0.98371376  0.73360441  1
  Dy  Dy25  1  0.26649244  0.23371750  0.98355468  1
  Dy  Dy26  1  0.09206861  0.84215098  0.62502537  1
  Dy  Dy27  1  0.40770672  0.65769751  0.87498896  1
  Dy  Dy28  1  0.14126981  0.85853699  0.89134689  1
  Y  Y29  1  0.85879129  0.14142663  0.10868573  1
  Y  Y30  1  0.49987810  0.99995305  0.00000004  1
  Y  Y31  1  0.35863617  0.64138389  0.60864474  1
  O  O32  1  0.60364418  0.09290681  0.13559774  1
  O  O33  1  0.84899507  0.39184097  0.11970765  1
  O  O34  1  0.64140992  0.59894594  0.13038036  1
  O  O35  1  0.23981994  0.00052194  0.22878017  1
  O  O36  1  0.65104238  0.10857842  0.38031848  1
  O  O37  1  0.34281812  0.35397081  0.11469925  1
  O  O38  1  0.03752117  0.26675580  0.00530007  1
  O  O39  1  0.89592840  0.40710096  0.36464215  1
  O  O40  1  0.98382641  0.71306545  0.25565972  1
  O  O41  1  0.87522122  0.90625140  0.13596119  1
  O  O42  1  0.47316013  0.74445499  0.01560198  1
  O  O43  1  0.97317870  0.24492828  0.51566284  1
  O  O44  1  0.50492498  0.27680624  0.26577276  1
  O  O45  1  0.15668397  0.62532310  0.11410576  1
  O  O46  1  0.65666432  0.12530060  0.61408072  1
  O  O47  1  0.62473169  0.59330453  0.36408200  1
  O  O48  1  0.99522410  0.22346287  0.23449372  1
  O  O49  1  0.15714425  0.14592309  0.38539984  1
  O  O50  1  0.46309158  0.23381262  0.49442727  1
  O  O51  1  0.51620273  0.78692524  0.24441056  1
  O  O52  1  0.25007344  0.98993647  0.02118694  1
  O  O53  1  0.75051327  0.48984041  0.52120770  1
  O  O54  1  0.26017884  0.49954102  0.27123376  1
  O  O55  1  0.85858516  0.90102072  0.36965697  1
  O  O56  1  0.14136248  0.09894113  0.63030468  1
  O  O57  1  0.73982715  0.50055389  0.72875720  1
  O  O58  1  0.24932103  0.50996450  0.47858514  1
  O  O59  1  0.74976200  0.00987312  0.97861356  1
  O  O60  1  0.84286551  0.85399255  0.61464173  1
  O  O61  1  0.53747603  0.76667175  0.50530713  1
  O  O62  1  0.48386590  0.21306905  0.75563523  1
  O  O63  1  0.34332022  0.87467835  0.38594835  1
  O  O64  1  0.37524633  0.40628590  0.63590964  1
  O  O65  1  0.00494197  0.77677190  0.76570959  1
  O  O66  1  0.84329539  0.37465351  0.88592507  1
  O  O67  1  0.12475887  0.09333829  0.86402816  1
  O  O68  1  0.02687613  0.75505722  0.48434135  1
  O  O69  1  0.49524083  0.72342729  0.73442708  1
  O  O70  1  0.52689393  0.25553812  0.98440569  1
  O  O71  1  0.65719186  0.64595505  0.88534230  1
  O  O72  1  0.96303683  0.73371770  0.99443356  1
  O  O73  1  0.10332629  0.59266470  0.63539425  1
  O  O74  1  0.01623150  0.28692157  0.74438566  1
  O  O75  1  0.34892849  0.89178130  0.61968731  1
  O  O76  1  0.76018416  0.99956532  0.77121304  1
  O  O77  1  0.35854069  0.40101815  0.86958276  1
  O  O78  1  0.15097802  0.60851693  0.88029751  1
  O  O79  1  0.39562548  0.90686632  0.86444923  1
