# generated using pymatgen
data_Li6Ti7Cr5O24
_symmetry_space_group_name_H-M   'P 1'
_cell_length_a   5.97691104
_cell_length_b   5.94868692
_cell_length_c   13.33749999
_cell_angle_alpha   103.04419271
_cell_angle_beta   103.18631514
_cell_angle_gamma   89.83365340
_symmetry_Int_Tables_number   1
_chemical_formula_structural   Li6Ti7Cr5O24
_chemical_formula_sum   'Li6 Ti7 Cr5 O24'
_cell_volume   449.20420772
_cell_formula_units_Z   1
loop_
 _symmetry_equiv_pos_site_id
 _symmetry_equiv_pos_as_xyz
  1  'x, y, z'
loop_
 _atom_site_type_symbol
 _atom_site_label
 _atom_site_symmetry_multiplicity
 _atom_site_fract_x
 _atom_site_fract_y
 _atom_site_fract_z
 _atom_site_occupancy
  Li  Li0  1  0.99954187  0.00065381  0.00085105  1
  Li  Li1  1  0.58379113  0.08267919  0.16581595  1
  Li  Li2  1  0.66671392  0.66851222  0.33393213  1
  Li  Li3  1  0.25265172  0.75050712  0.50045379  1
  Li  Li4  1  0.33068128  0.33282688  0.66621321  1
  Li  Li5  1  0.91662008  0.41482078  0.83273387  1
  Ti  Ti6  1  0.12128627  0.87281043  0.24713919  1
  Ti  Ti7  1  0.12395502  0.37526160  0.24857386  1
  Ti  Ti8  1  0.45916102  0.20312385  0.41760641  1
  Ti  Ti9  1  0.79166700  0.54166700  0.58333300  1
  Ti  Ti10  1  0.12417298  0.88020915  0.74906059  1
  Ti  Ti11  1  0.46204673  0.21052257  0.91952681  1
  Ti  Ti12  1  0.45937798  0.70807240  0.91809314  1
  Cr  Cr13  1  0.29166700  0.54166700  0.08333300  1
  Cr  Cr14  1  0.79166700  0.54166700  0.08333300  1
  Cr  Cr15  1  0.95801651  0.21035613  0.41664434  1
  Cr  Cr16  1  0.79166700  0.04166700  0.58333300  1
  Cr  Cr17  1  0.62531649  0.87297687  0.75002166  1
  O  O18  1  0.53683197  0.30793263  0.07278803  1
  O  O19  1  0.53569709  0.76453442  0.07247237  1
  O  O20  1  0.04763591  0.31879858  0.09419463  1
  O  O21  1  0.04650103  0.77540137  0.09387897  1
  O  O22  1  0.89786174  0.62249029  0.24389431  1
  O  O23  1  0.34416109  0.62205461  0.24373005  1
  O  O24  1  0.35470405  0.12871657  0.25849631  1
  O  O25  1  0.90608134  0.12848680  0.25603341  1
  O  O26  1  0.20890170  0.97851350  0.40710822  1
  O  O27  1  0.20895244  0.42911694  0.40641002  1
  O  O28  1  0.70726889  0.44024283  0.42609925  1
  O  O29  1  0.70758132  0.98995435  0.42360043  1
  O  O30  1  0.55928125  0.29201575  0.57424886  1
  O  O31  1  0.01017588  0.29296762  0.57554620  1
  O  O32  1  0.02405175  0.79131725  0.59241714  1
  O  O33  1  0.57315812  0.79036638  0.59111980  1
  O  O34  1  0.87606511  0.64309017  0.74056775  1
  O  O35  1  0.87575168  0.09337865  0.74306657  1
  O  O36  1  0.37438056  0.65421606  0.76025598  1
  O  O37  1  0.37443130  0.10481950  0.75955878  1
  O  O38  1  0.67725166  0.95484620  0.91063359  1
  O  O39  1  0.22862895  0.95461643  0.90816969  1
  O  O40  1  0.68547226  0.46084271  0.92277269  1
  O  O41  1  0.23917191  0.46127839  0.92293695  1
