# generated using pymatgen
data_Li3Fe(BO3)2
_symmetry_space_group_name_H-M   'P 1'
_cell_length_a   5.19323695
_cell_length_b   8.91462804
_cell_length_c   9.83789028
_cell_angle_alpha   90.00000000
_cell_angle_beta   91.03898161
_cell_angle_gamma   90.00000000
_symmetry_Int_Tables_number   1
_chemical_formula_structural   Li3Fe(BO3)2
_chemical_formula_sum   'Li12 Fe4 B8 O24'
_cell_volume   455.37788088
_cell_formula_units_Z   4
loop_
 _symmetry_equiv_pos_site_id
 _symmetry_equiv_pos_as_xyz
  1  'x, y, z'
loop_
 _atom_site_type_symbol
 _atom_site_label
 _atom_site_symmetry_multiplicity
 _atom_site_fract_x
 _atom_site_fract_y
 _atom_site_fract_z
 _atom_site_occupancy
  Li  Li0  1  0.15694311  0.97604746  0.66731765  1
  Li  Li1  1  0.16924067  0.65812436  0.61971910  1
  Li  Li2  1  0.17609276  0.98794216  0.10133672  1
  Li  Li3  1  0.33075933  0.15812436  0.88028090  1
  Li  Li4  1  0.32390724  0.48794216  0.39866328  1
  Li  Li5  1  0.34305689  0.47604746  0.83268235  1
  Li  Li6  1  0.65694311  0.52395254  0.16731765  1
  Li  Li7  1  0.67609276  0.51205784  0.60133672  1
  Li  Li8  1  0.66924067  0.84187564  0.11971910  1
  Li  Li9  1  0.82390724  0.01205784  0.89866328  1
  Li  Li10  1  0.83075933  0.34187564  0.38028090  1
  Li  Li11  1  0.84305689  0.02395254  0.33268235  1
  Fe  Fe12  1  0.15072260  0.32684164  0.12352229  1
  Fe  Fe13  1  0.34927740  0.82684164  0.37647771  1
  Fe  Fe14  1  0.65072260  0.17315836  0.62352229  1
  Fe  Fe15  1  0.84927740  0.67315836  0.87647771  1
  B  B16  1  0.16744650  0.32333836  0.62046034  1
  B  B17  1  0.16353148  0.66441633  0.12990281  1
  B  B18  1  0.33255350  0.82333836  0.87953966  1
  B  B19  1  0.33646852  0.16441633  0.37009719  1
  B  B20  1  0.66353148  0.83558367  0.62990281  1
  B  B21  1  0.66744650  0.17666164  0.12046034  1
  B  B22  1  0.83646852  0.33558367  0.87009719  1
  B  B23  1  0.83255350  0.67666164  0.37953966  1
  O  O24  1  0.09205948  0.32789827  0.91632034  1
  O  O25  1  0.09718856  0.66770851  0.40728455  1
  O  O26  1  0.18372889  0.95033005  0.88034025  1
  O  O27  1  0.21235921  0.02656050  0.36052840  1
  O  O28  1  0.20179265  0.29294753  0.33097797  1
  O  O29  1  0.22306076  0.68281040  0.85042020  1
  O  O30  1  0.27693924  0.18281040  0.64957980  1
  O  O31  1  0.29820735  0.79294753  0.16902203  1
  O  O32  1  0.28764079  0.52656050  0.13947160  1
  O  O33  1  0.31627111  0.45033005  0.61965975  1
  O  O34  1  0.40794052  0.82789827  0.58367966  1
  O  O35  1  0.40281144  0.16770851  0.09271545  1
  O  O36  1  0.59718856  0.83229149  0.90728455  1
  O  O37  1  0.59205948  0.17210173  0.41632034  1
  O  O38  1  0.68372889  0.54966995  0.38034025  1
  O  O39  1  0.71235921  0.47343950  0.86052840  1
  O  O40  1  0.70179265  0.20705247  0.83097797  1
  O  O41  1  0.72306076  0.81718960  0.35042020  1
  O  O42  1  0.77693924  0.31718960  0.14957980  1
  O  O43  1  0.79820735  0.70705247  0.66902203  1
  O  O44  1  0.78764079  0.97343950  0.63947160  1
  O  O45  1  0.81627111  0.04966995  0.11965975  1
  O  O46  1  0.90281144  0.33229149  0.59271545  1
  O  O47  1  0.90794052  0.67210173  0.08367966  1
