# generated using pymatgen
data_Sr3W2O9
_symmetry_space_group_name_H-M   'P 1'
_cell_length_a   9.14778069
_cell_length_b   16.58608422
_cell_length_c   8.16003355
_cell_angle_alpha   90.00000000
_cell_angle_beta   90.00000000
_cell_angle_gamma   90.00000000
_symmetry_Int_Tables_number   1
_chemical_formula_structural   Sr3W2O9
_chemical_formula_sum   'Sr12 W8 O36'
_cell_volume   1238.08811576
_cell_formula_units_Z   4
loop_
 _symmetry_equiv_pos_site_id
 _symmetry_equiv_pos_as_xyz
  1  'x, y, z'
loop_
 _atom_site_type_symbol
 _atom_site_label
 _atom_site_symmetry_multiplicity
 _atom_site_fract_x
 _atom_site_fract_y
 _atom_site_fract_z
 _atom_site_occupancy
  Sr  Sr0  1  0.00000000  0.00000000  0.00000000  1
  Sr  Sr1  1  0.00000000  0.00000000  0.50000000  1
  Sr  Sr2  1  0.22017333  0.14456365  0.75000000  1
  Sr  Sr3  1  0.18395413  0.41879163  0.25000000  1
  Sr  Sr4  1  0.31604587  0.91879163  0.75000000  1
  Sr  Sr5  1  0.27982667  0.64456365  0.25000000  1
  Sr  Sr6  1  0.50000000  0.50000000  0.00000000  1
  Sr  Sr7  1  0.50000000  0.50000000  0.50000000  1
  Sr  Sr8  1  0.72017333  0.35543635  0.75000000  1
  Sr  Sr9  1  0.68395413  0.08120837  0.25000000  1
  Sr  Sr10  1  0.81604587  0.58120837  0.75000000  1
  Sr  Sr11  1  0.77982667  0.85543635  0.25000000  1
  W  W12  1  0.15486420  0.39754215  0.75000000  1
  W  W13  1  0.25545309  0.66661936  0.75000000  1
  W  W14  1  0.24454691  0.16661936  0.25000000  1
  W  W15  1  0.34513580  0.89754215  0.25000000  1
  W  W16  1  0.65486420  0.10245785  0.75000000  1
  W  W17  1  0.75545309  0.83338064  0.75000000  1
  W  W18  1  0.74454691  0.33338064  0.25000000  1
  W  W19  1  0.84513580  0.60245785  0.25000000  1
  O  O20  1  0.12378298  0.01580891  0.75000000  1
  O  O21  1  0.07812765  0.61938447  0.75000000  1
  O  O22  1  0.04022727  0.57992429  0.25000000  1
  O  O23  1  0.14742461  0.13515271  0.06388587  1
  O  O24  1  0.14742461  0.13515271  0.43611413  1
  O  O25  1  0.17714346  0.28979368  0.75000000  1
  O  O26  1  0.23153479  0.77502968  0.75000000  1
  O  O27  1  0.24210757  0.43613546  0.93459991  1
  O  O28  1  0.24210757  0.43613546  0.56540009  1
  O  O29  1  0.25789243  0.93613546  0.06540009  1
  O  O30  1  0.25789243  0.93613546  0.43459991  1
  O  O31  1  0.26846521  0.27502968  0.25000000  1
  O  O32  1  0.32285654  0.78979368  0.25000000  1
  O  O33  1  0.35257539  0.63515271  0.56388587  1
  O  O34  1  0.35257539  0.63515271  0.93611413  1
  O  O35  1  0.45977273  0.07992429  0.75000000  1
  O  O36  1  0.42187235  0.11938447  0.25000000  1
  O  O37  1  0.37621702  0.51580891  0.25000000  1
  O  O38  1  0.62378298  0.48419109  0.75000000  1
  O  O39  1  0.57812765  0.88061553  0.75000000  1
  O  O40  1  0.54022727  0.92007571  0.25000000  1
  O  O41  1  0.64742461  0.36484729  0.06388587  1
  O  O42  1  0.64742461  0.36484729  0.43611413  1
  O  O43  1  0.67714346  0.21020632  0.75000000  1
  O  O44  1  0.73153479  0.72497032  0.75000000  1
  O  O45  1  0.74210757  0.06386454  0.56540009  1
  O  O46  1  0.74210757  0.06386454  0.93459991  1
  O  O47  1  0.75789243  0.56386454  0.06540009  1
  O  O48  1  0.75789243  0.56386454  0.43459991  1
  O  O49  1  0.76846521  0.22497032  0.25000000  1
  O  O50  1  0.82285654  0.71020632  0.25000000  1
  O  O51  1  0.85257539  0.86484729  0.56388587  1
  O  O52  1  0.85257539  0.86484729  0.93611413  1
  O  O53  1  0.95977273  0.42007571  0.75000000  1
  O  O54  1  0.92187235  0.38061553  0.25000000  1
  O  O55  1  0.87621702  0.98419109  0.25000000  1
