# generated using pymatgen
data_Li5Mn5(SeO3)8
_symmetry_space_group_name_H-M   'P 1'
_cell_length_a   13.89879989
_cell_length_b   8.50256868
_cell_length_c   10.64017680
_cell_angle_alpha   73.70695649
_cell_angle_beta   98.05971088
_cell_angle_gamma   97.84941109
_symmetry_Int_Tables_number   1
_chemical_formula_structural   Li5Mn5(SeO3)8
_chemical_formula_sum   'Li10 Mn10 Se16 O48'
_cell_volume   1188.71747182
_cell_formula_units_Z   2
loop_
 _symmetry_equiv_pos_site_id
 _symmetry_equiv_pos_as_xyz
  1  'x, y, z'
loop_
 _atom_site_type_symbol
 _atom_site_label
 _atom_site_symmetry_multiplicity
 _atom_site_fract_x
 _atom_site_fract_y
 _atom_site_fract_z
 _atom_site_occupancy
  Li  Li0  1  0.12490659  0.66775430  0.07173221  1
  Li  Li1  1  0.17600555  0.72140482  0.58442079  1
  Li  Li2  1  0.32399445  0.77859518  0.41557921  1
  Li  Li3  1  0.52877087  0.15068501  0.33032154  1
  Li  Li4  1  0.37509341  0.83224570  0.92826679  1
  Li  Li5  1  0.62255153  0.17005218  0.07664495  1
  Li  Li6  1  0.67454849  0.22003557  0.58178043  1
  Li  Li7  1  0.82545151  0.27996443  0.41821957  1
  Li  Li8  1  0.87744847  0.32994782  0.92335505  1
  Li  Li9  1  0.97122913  0.34931499  0.66967846  1
  Mn  Mn10  1  0.99954442  0.00060392  0.99819031  1
  Mn  Mn11  1  0.99879494  0.00063040  0.50168848  1
  Mn  Mn12  1  0.03049344  0.31404268  0.22029708  1
  Mn  Mn13  1  0.02895892  0.65122280  0.33471559  1
  Mn  Mn14  1  0.46950656  0.18595732  0.77970292  1
  Mn  Mn15  1  0.50045558  0.49939608  0.00180969  1
  Mn  Mn16  1  0.50120506  0.49936960  0.49831152  1
  Mn  Mn17  1  0.47104108  0.84877720  0.66528441  1
  Mn  Mn18  1  0.52999565  0.81669037  0.22260648  1
  Mn  Mn19  1  0.97000435  0.68330963  0.77739352  1
  Se  Se20  1  0.14382044  0.35437925  0.52594356  1
  Se  Se21  1  0.13083412  0.37704866  0.93177110  1
  Se  Se22  1  0.36916588  0.12295134  0.06822890  1
  Se  Se23  1  0.35617956  0.14562075  0.47405644  1
  Se  Se24  1  0.16263408  0.90379531  0.79607532  1
  Se  Se25  1  0.15944565  0.98210299  0.26302087  1
  Se  Se26  1  0.34055435  0.51789701  0.73697913  1
  Se  Se27  1  0.33736592  0.59620469  0.20392468  1
  Se  Se28  1  0.66287733  0.40308448  0.79619954  1
  Se  Se29  1  0.65812516  0.47916127  0.26419993  1
  Se  Se30  1  0.84187484  0.02083873  0.73580007  1
  Se  Se31  1  0.83712267  0.09691552  0.20380046  1
  Se  Se32  1  0.64501884  0.85834342  0.52067750  1
  Se  Se33  1  0.63301936  0.87659108  0.93312752  1
  Se  Se34  1  0.86698064  0.62340892  0.06687248  1
  Se  Se35  1  0.85498116  0.64165658  0.47932250  1
  O  O36  1  0.04905796  0.20707756  0.57370420  1
  O  O37  1  0.10189584  0.09401822  0.33674976  1
  O  O38  1  0.01890725  0.43113210  0.85199857  1
  O  O39  1  0.11598227  0.16045947  0.97913513  1
  O  O40  1  0.10818879  0.44433401  0.35857563  1
  O  O41  1  0.13352730  0.42288564  0.07973074  1
  O  O42  1  0.11395523  0.49861888  0.59354557  1
  O  O43  1  0.06107726  0.88426895  0.17599770  1
  O  O44  1  0.07108383  0.82300466  0.90455079  1
  O  O45  1  0.09641480  0.83688958  0.66212031  1
  O  O46  1  0.38604477  0.00138112  0.40645443  1
  O  O47  1  0.36647270  0.07711436  0.92026926  1
  O  O48  1  0.39181121  0.05566599  0.64142437  1
  O  O49  1  0.17468297  0.80559491  0.38821876  1
  O  O50  1  0.38401773  0.33954053  0.02086487  1
  O  O51  1  0.25632043  0.73754447  0.15081171  1
  O  O52  1  0.48109275  0.06886790  0.14800143  1
  O  O53  1  0.24367957  0.76245553  0.84918829  1
  O  O54  1  0.39810416  0.40598178  0.66325024  1
  O  O55  1  0.45094204  0.29292244  0.42629580  1
  O  O56  1  0.32531703  0.69440509  0.61178124  1
  O  O57  1  0.40358520  0.66311042  0.33787969  1
  O  O58  1  0.42891617  0.67699534  0.09544921  1
  O  O59  1  0.43892274  0.61573105  0.82400230  1
  O  O60  1  0.56082255  0.38362848  0.17581821  1
  O  O61  1  0.57074266  0.32383651  0.90435892  1
  O  O62  1  0.59558291  0.33638746  0.66244790  1
  O  O63  1  0.67846346  0.30937653  0.39001167  1
  O  O64  1  0.54883449  0.70754372  0.57311920  1
  O  O65  1  0.60028347  0.59440838  0.33748219  1
  O  O66  1  0.75681921  0.23843621  0.14986289  1
  O  O67  1  0.51911938  0.92949956  0.85020956  1
  O  O68  1  0.74318079  0.26156379  0.85013711  1
  O  O69  1  0.61672090  0.66140494  0.97652459  1
  O  O70  1  0.82153654  0.19062347  0.60998833  1
  O  O71  1  0.60836235  0.94728887  0.35890901  1
  O  O72  1  0.63266294  0.92325572  0.07878975  1
  O  O73  1  0.61215448  0.99161783  0.59951158  1
  O  O74  1  0.90441709  0.16361254  0.33755210  1
  O  O75  1  0.92925734  0.17616349  0.09564108  1
  O  O76  1  0.93917745  0.11637152  0.82418179  1
  O  O77  1  0.88784552  0.50838217  0.40048842  1
  O  O78  1  0.86733706  0.57674428  0.92121025  1
  O  O79  1  0.89163765  0.55271113  0.64109099  1
  O  O80  1  0.88327910  0.83859506  0.02347541  1
  O  O81  1  0.98088062  0.57050044  0.14979044  1
  O  O82  1  0.89971653  0.90559162  0.66251781  1
  O  O83  1  0.95116551  0.79245628  0.42688080  1
