# generated using pymatgen
data_Li2Ge2O5
_symmetry_space_group_name_H-M   'P 1'
_cell_length_a   5.04363269
_cell_length_b   6.04739878
_cell_length_c   8.30791734
_cell_angle_alpha   111.34322160
_cell_angle_beta   89.99906025
_cell_angle_gamma   90.00258194
_symmetry_Int_Tables_number   1
_chemical_formula_structural   Li2Ge2O5
_chemical_formula_sum   'Li4 Ge4 O10'
_cell_volume   236.01975621
_cell_formula_units_Z   2
loop_
 _symmetry_equiv_pos_site_id
 _symmetry_equiv_pos_as_xyz
  1  'x, y, z'
loop_
 _atom_site_type_symbol
 _atom_site_label
 _atom_site_symmetry_multiplicity
 _atom_site_fract_x
 _atom_site_fract_y
 _atom_site_fract_z
 _atom_site_occupancy
  Li  Li0  1  0.60552939  0.70531378  0.11225532  1
  Li  Li1  1  0.10552939  0.59305846  0.88774468  1
  Li  Li2  1  0.10556781  0.40309044  0.11220085  1
  Li  Li3  1  0.60556781  0.29088959  0.88779915  1
  O  O4  1  0.49374347  0.40394811  0.13421788  1
  O  O5  1  0.99374347  0.26973023  0.86578212  1
  O  O6  1  0.50531210  0.49813319  0.50000032  1
  O  O7  1  0.49368724  0.59231374  0.86580029  1
  O  O8  1  0.00531210  0.99813287  0.49999968  1
  O  O9  1  0.94942198  0.75177822  0.73058680  1
  O  O10  1  0.44942198  0.02119142  0.26941320  1
  O  O11  1  0.44938210  0.97502252  0.73060928  1
  O  O12  1  0.94938210  0.24441324  0.26939072  1
  O  O13  1  0.99368724  0.72651345  0.13419971  1
  Ge  Ge14  1  0.09868433  0.98438341  0.29238824  1
  Ge  Ge15  1  0.09867156  0.01183137  0.70757060  1
  Ge  Ge16  1  0.59867156  0.30426077  0.29242940  1
  Ge  Ge17  1  0.59868433  0.69199517  0.70761176  1
