# generated using pymatgen
data_Ag2GePbS4
_symmetry_space_group_name_H-M   'P 1'
_cell_length_a   6.29483673
_cell_length_b   6.29483673
_cell_length_c   10.28345676
_cell_angle_alpha   90.00000000
_cell_angle_beta   90.00000000
_cell_angle_gamma   66.70209154
_symmetry_Int_Tables_number   1
_chemical_formula_structural   Ag2GePbS4
_chemical_formula_sum   'Ag4 Ge2 Pb2 S8'
_cell_volume   374.25593901
_cell_formula_units_Z   2
loop_
 _symmetry_equiv_pos_site_id
 _symmetry_equiv_pos_as_xyz
  1  'x, y, z'
loop_
 _atom_site_type_symbol
 _atom_site_label
 _atom_site_symmetry_multiplicity
 _atom_site_fract_x
 _atom_site_fract_y
 _atom_site_fract_z
 _atom_site_occupancy
  Ag  Ag0  1  0.35659469  0.41010178  0.09972850  1
  Ag  Ag1  1  0.35659469  0.41010178  0.40027250  1
  Ag  Ag2  1  0.58989822  0.64340531  0.59972850  1
  Ag  Ag3  1  0.58989822  0.64340531  0.90027150  1
  Ge  Ge4  1  0.72577632  0.67540607  0.25000000  1
  Ge  Ge5  1  0.32459493  0.27422468  0.75000000  1
  Pb  Pb6  1  0.98610632  0.01389268  0.00000000  1
  Pb  Pb7  1  0.98610632  0.01389268  0.50000000  1
  S  S8  1  0.90717546  0.48888683  0.06874754  1
  S  S9  1  0.73850767  0.02589632  0.25000000  1
  S  S10  1  0.35151346  0.72607278  0.25000000  1
  S  S11  1  0.90717546  0.48888683  0.43125346  1
  S  S12  1  0.51111317  0.09282354  0.56874754  1
  S  S13  1  0.97410368  0.26149233  0.75000000  1
  S  S14  1  0.27392622  0.64848554  0.75000000  1
  S  S15  1  0.51111317  0.09282354  0.93125246  1
