# generated using pymatgen
data_Sc2IrRh
_symmetry_space_group_name_H-M   'P 1'
_cell_length_a   4.57567260
_cell_length_b   4.57567585
_cell_length_c   4.57567619
_cell_angle_alpha   59.99997684
_cell_angle_beta   59.99982256
_cell_angle_gamma   59.99971066
_symmetry_Int_Tables_number   1
_chemical_formula_structural   Sc2IrRh
_chemical_formula_sum   'Sc2 Ir1 Rh1'
_cell_volume   67.74057362
_cell_formula_units_Z   1
loop_
 _symmetry_equiv_pos_site_id
 _symmetry_equiv_pos_as_xyz
  1  'x, y, z'
loop_
 _atom_site_type_symbol
 _atom_site_label
 _atom_site_symmetry_multiplicity
 _atom_site_fract_x
 _atom_site_fract_y
 _atom_site_fract_z
 _atom_site_occupancy
  Sc  Sc0  1  0.00000023  0.99999895  0.00000015  1
  Sc  Sc1  1  0.50000067  0.49999956  0.50000072  1
  Ir  Ir2  1  0.24999995  0.25000111  0.25000053  1
  Rh  Rh3  1  0.74999815  0.74999938  0.74999760  1
