# generated using pymatgen
data_Zn5Co19O32
_symmetry_space_group_name_H-M   'P 1'
_cell_length_a   5.77483012
_cell_length_b   5.77483012
_cell_length_c   19.15135413
_cell_angle_alpha   98.67144926
_cell_angle_beta   90.00000000
_cell_angle_gamma   120.00000000
_symmetry_Int_Tables_number   1
_chemical_formula_structural   Zn5Co19O32
_chemical_formula_sum   'Zn5 Co19 O32'
_cell_volume   544.65993965
_cell_formula_units_Z   1
loop_
 _symmetry_equiv_pos_site_id
 _symmetry_equiv_pos_as_xyz
  1  'x, y, z'
loop_
 _atom_site_type_symbol
 _atom_site_label
 _atom_site_symmetry_multiplicity
 _atom_site_fract_x
 _atom_site_fract_y
 _atom_site_fract_z
 _atom_site_occupancy
  Zn  Zn0  1  0.00002176  0.00004352  0.00006528  1
  Zn  Zn1  1  0.68749344  0.37498789  0.06248133  1
  Zn  Zn2  1  0.74999594  0.49999087  0.24998681  1
  Zn  Zn3  1  0.18751521  0.37502942  0.56254464  1
  Zn  Zn4  1  0.24996609  0.49993218  0.74989727  1
  Co  Co5  1  0.34375444  0.68750888  0.03126333  1
  Co  Co6  1  0.21889515  0.93748368  0.15637883  1
  Co  Co7  1  0.21889515  0.43779030  0.15637883  1
  Co  Co8  1  0.71858853  0.93748368  0.15637883  1
  Co  Co9  1  0.43747133  0.87494365  0.31241498  1
  Co  Co10  1  0.09378411  0.18756823  0.28135234  1
  Co  Co11  1  0.21874336  0.93749911  0.65625486  1
  Co  Co12  1  0.96874352  0.93748704  0.40624987  1
  Co  Co13  1  0.46876183  0.43750535  0.40624987  1
  Co  Co14  1  0.71875575  0.93749911  0.65625486  1
  Co  Co15  1  0.84373261  0.68746422  0.53119683  1
  Co  Co16  1  0.96874352  0.43750535  0.40624987  1
  Co  Co17  1  0.50002901  0.00005902  0.50008804  1
  Co  Co18  1  0.71875575  0.43751051  0.65625486  1
  Co  Co19  1  0.46873600  0.93747200  0.90608866  1
  Co  Co20  1  0.93750141  0.87500282  0.81250423  1
  Co  Co21  1  0.59375895  0.18751889  0.78127784  1
  Co  Co22  1  0.46873600  0.43735266  0.90608866  1
  Co  Co23  1  0.96861666  0.43735266  0.90608866  1
  O  O24  1  0.07074649  0.58408149  0.09741649  1
  O  O25  1  0.40284058  0.80568117  0.20852175  1
  O  O26  1  0.51333500  0.58408149  0.09741649  1
  O  O27  1  0.03485463  0.06970926  0.10456390  1
  O  O28  1  0.36701373  0.29112409  0.21523345  1
  O  O29  1  0.92411036  0.84821972  0.21523345  1
  O  O30  1  0.11835989  0.79185751  0.46535612  1
  O  O31  1  0.26401819  0.52803638  0.34714612  1
  O  O32  1  0.51333500  0.02667000  0.09741649  1
  O  O33  1  0.15264472  0.30528845  0.45793317  1
  O  O34  1  0.26401819  0.08312793  0.34714612  1
  O  O35  1  0.01335681  0.58402792  0.59738473  1
  O  O36  1  0.67349761  0.79185751  0.46535612  1
  O  O37  1  0.78485897  0.56971794  0.35457691  1
  O  O38  1  0.92411036  0.29112409  0.21523345  1
  O  O39  1  0.67349761  0.34699523  0.46535612  1
  O  O40  1  0.42414370  0.84828840  0.71511723  1
  O  O41  1  0.57067010  0.58402792  0.59738473  1
  O  O42  1  0.01335681  0.02671463  0.59738473  1
  O  O43  1  0.81910974  0.08312793  0.34714612  1
  O  O44  1  0.90283691  0.80567382  0.70850973  1
  O  O45  1  0.17412361  0.79100820  0.96513081  1
  O  O46  1  0.53467373  0.06934647  0.60402020  1
  O  O47  1  0.42414370  0.29097253  0.71511723  1
  O  O48  1  0.28478764  0.56957629  0.85436393  1
  O  O49  1  0.61688458  0.79100820  0.96513081  1
  O  O50  1  0.17412361  0.34824622  0.96513081  1
  O  O51  1  0.86682883  0.29097253  0.71511723  1
  O  O52  1  0.31915524  0.08313297  0.84711070  1
  O  O53  1  0.76397773  0.52795547  0.84711070  1
  O  O54  1  0.65261062  0.30522125  0.95783087  1
  O  O55  1  0.76397773  0.08313297  0.84711070  1
