# generated using pymatgen
data_Li2VCrP2(O4F)2
_symmetry_space_group_name_H-M   'P 1'
_cell_length_a   5.22180394
_cell_length_b   10.74621852
_cell_length_c   7.35667288
_cell_angle_alpha   73.05348563
_cell_angle_beta   71.40148842
_cell_angle_gamma   97.85878098
_symmetry_Int_Tables_number   1
_chemical_formula_structural   Li2VCrP2(O4F)2
_chemical_formula_sum   'Li4 V2 Cr2 P4 O16 F4'
_cell_volume   362.05804899
_cell_formula_units_Z   2
loop_
 _symmetry_equiv_pos_site_id
 _symmetry_equiv_pos_as_xyz
  1  'x, y, z'
loop_
 _atom_site_type_symbol
 _atom_site_label
 _atom_site_symmetry_multiplicity
 _atom_site_fract_x
 _atom_site_fract_y
 _atom_site_fract_z
 _atom_site_occupancy
  Li  Li0  1  0.26998427  0.80793644  0.81222090  1
  Li  Li1  1  0.27046289  0.30728698  0.81052503  1
  Li  Li2  1  0.72953711  0.69271302  0.18947497  1
  Li  Li3  1  0.73001573  0.19206356  0.18777910  1
  V  V4  1  0.00000000  0.50000000  0.00000000  1
  V  V5  1  0.00000000  0.00000000  0.50000000  1
  Cr  Cr6  1  0.00000000  0.00000000  0.00000000  1
  Cr  Cr7  1  0.00000000  0.50000000  0.50000000  1
  P  P8  1  0.32334237  0.82046732  0.23726996  1
  P  P9  1  0.32199898  0.32070431  0.23879601  1
  P  P10  1  0.67800102  0.67929569  0.76120399  1
  P  P11  1  0.67665763  0.17953268  0.76273004  1
  O  O12  1  0.12597924  0.83315974  0.11307855  1
  O  O13  1  0.12905737  0.33275427  0.11158303  1
  O  O14  1  0.25311695  0.89314732  0.39137137  1
  O  O15  1  0.30711658  0.66997083  0.34220112  1
  O  O16  1  0.25171368  0.39320941  0.39147794  1
  O  O17  1  0.30823873  0.17052253  0.34447182  1
  O  O18  1  0.63206623  0.87593149  0.08411891  1
  O  O19  1  0.63206125  0.37617069  0.08552122  1
  O  O20  1  0.36793875  0.62382931  0.91447878  1
  O  O21  1  0.36793377  0.12406851  0.91588109  1
  O  O22  1  0.69176127  0.82947747  0.65552818  1
  O  O23  1  0.74828632  0.60679059  0.60852206  1
  O  O24  1  0.69288342  0.33002917  0.65779888  1
  O  O25  1  0.74688305  0.10685268  0.60862863  1
  O  O26  1  0.87094263  0.66724573  0.88841697  1
  O  O27  1  0.87402076  0.16684026  0.88692145  1
  F  F28  1  0.12879825  0.96411261  0.74145634  1
  F  F29  1  0.12878045  0.46431964  0.73219435  1
  F  F30  1  0.87121955  0.53568036  0.26780565  1
  F  F31  1  0.87120175  0.03588739  0.25854366  1
