# generated using pymatgen
data_B12H21C4S2I
_symmetry_space_group_name_H-M   'P 1'
_cell_length_a   9.83246250
_cell_length_b   14.10152981
_cell_length_c   13.27335276
_cell_angle_alpha   90.00000000
_cell_angle_beta   108.94954292
_cell_angle_gamma   90.00000000
_symmetry_Int_Tables_number   1
_chemical_formula_structural   B12H21C4S2I
_chemical_formula_sum   'B48 H84 C16 S8 I4'
_cell_volume   1740.64710753
_cell_formula_units_Z   4
loop_
 _symmetry_equiv_pos_site_id
 _symmetry_equiv_pos_as_xyz
  1  'x, y, z'
loop_
 _atom_site_type_symbol
 _atom_site_label
 _atom_site_symmetry_multiplicity
 _atom_site_fract_x
 _atom_site_fract_y
 _atom_site_fract_z
 _atom_site_occupancy
  B  B0  1  0.04628411  0.81134929  0.73226911  1
  B  B1  1  0.03211457  0.11820299  0.38479214  1
  B  B2  1  0.00573474  0.06977205  0.25673295  1
  B  B3  1  0.08806696  0.23738515  0.37911529  1
  B  B4  1  0.03788771  0.15697800  0.17134922  1
  B  B5  1  0.08998997  0.26261911  0.24827441  1
  B  B6  1  0.16546722  0.04357007  0.36106970  1
  B  B7  1  0.21827453  0.14900850  0.43803671  1
  B  B8  1  0.16922621  0.06717050  0.22876593  1
  B  B9  1  0.25337904  0.23871961  0.35294698  1
  B  B10  1  0.45371589  0.31134929  0.76773089  1
  B  B11  1  0.22260346  0.18813364  0.22399101  1
  B  B12  1  0.20244596  0.61891105  0.15988551  1
  B  B13  1  0.53211457  0.38179701  0.88479214  1
  B  B14  1  0.29755404  0.11891105  0.34011449  1
  B  B15  1  0.27739654  0.68813364  0.27600899  1
  B  B16  1  0.50573474  0.43022795  0.75673295  1
  B  B17  1  0.24662096  0.73871961  0.14705302  1
  B  B18  1  0.58806696  0.26261485  0.87911529  1
  B  B19  1  0.33077379  0.56717050  0.27123407  1
  B  B20  1  0.53788771  0.34302200  0.67134922  1
  B  B21  1  0.28172547  0.64900850  0.06196329  1
  B  B22  1  0.58998997  0.23738089  0.74827441  1
  B  B23  1  0.33453278  0.54357007  0.13893030  1
  B  B24  1  0.66546722  0.45642993  0.86106970  1
  B  B25  1  0.41001003  0.76261911  0.25172559  1
  B  B26  1  0.71827453  0.35099150  0.93803671  1
  B  B27  1  0.46211229  0.65697800  0.32865078  1
  B  B28  1  0.66922621  0.43282950  0.72876593  1
  B  B29  1  0.41193304  0.73738515  0.12088471  1
  B  B30  1  0.75337904  0.26128039  0.85294698  1
  B  B31  1  0.49426526  0.56977205  0.24326705  1
  B  B32  1  0.72260346  0.31186636  0.72399101  1
  B  B33  1  0.70244596  0.88108895  0.65988551  1
  B  B34  1  0.46788543  0.61820299  0.11520786  1
  B  B35  1  0.79755404  0.38108895  0.84011449  1
  B  B36  1  0.77739654  0.81186636  0.77600899  1
  B  B37  1  0.54628411  0.68865071  0.23226911  1
  B  B38  1  0.74662096  0.76128039  0.64705302  1
  B  B39  1  0.83077379  0.93282950  0.77123407  1
  B  B40  1  0.78172547  0.85099150  0.56196329  1
  B  B41  1  0.83453278  0.95642993  0.63893030  1
  B  B42  1  0.91001003  0.73738089  0.75172559  1
  B  B43  1  0.96211229  0.84302200  0.82865078  1
  B  B44  1  0.91193304  0.76261485  0.62088471  1
  B  B45  1  0.99426526  0.93022795  0.74326705  1
  B  B46  1  0.96788543  0.88179701  0.61520786  1
  B  B47  1  0.95371589  0.18865071  0.26773089  1
  H  H48  1  0.02662777  0.84280795  0.92212104  1
  H  H49  1  0.02050930  0.07149491  0.91966627  1
  H  H50  1  0.07107697  0.26760005  0.90197300  1
  H  H51  1  0.01288541  0.36895026  0.72108445  1
  H  H52  1  0.17046853  0.99378952  0.98180973  1
  H  H53  1  0.20428787  0.11464021  0.95769212  1
  H  H54  1  0.21354871  0.35031799  0.96665779  1
  H  H55  1  0.03627105  0.90699081  0.55986840  1
  H  H56  1  0.21545728  0.64676888  0.96879689  1
  H  H57  1  0.08729230  0.11590846  0.64320854  1
  H  H58  1  0.15399965  0.45073095  0.78903454  1
  H  H59  1  0.15897357  0.18489384  0.76139404  1
  H  H60  1  0.17015005  0.78873721  0.75860514  1
  H  H61  1  0.02098263  0.50520111  0.28277799  1
  H  H62  1  0.02645955  0.85588271  0.27850170  1
  H  H63  1  0.06353897  0.34050945  0.21082817  1
  H  H64  1  0.32984995  0.28873721  0.74139486  1
  H  H65  1  0.19464876  0.96691891  0.40056234  1
  H  H66  1  0.34102643  0.68489384  0.73860596  1
  H  H67  1  0.34600035  0.95073095  0.71096546  1
  H  H68  1  0.41270770  0.61590846  0.85679146  1
  H  H69  1  0.28454272  0.14676888  0.53120311  1
  H  H70  1  0.46372995  0.40699081  0.94013160  1
  H  H71  1  0.28645129  0.85031799  0.53334221  1
  H  H72  1  0.29571213  0.61464021  0.54230788  1
  H  H73  1  0.20885422  0.71139570  0.33201201  1
  H  H74  1  0.08149484  0.31939929  0.02791995  1
  H  H75  1  0.32953147  0.49378952  0.51819027  1
  H  H76  1  0.15700830  0.79800953  0.11119985  1
  H  H77  1  0.19840038  0.00598964  0.17664819  1
  H  H78  1  0.48711459  0.86895026  0.77891555  1
  H  H79  1  0.30159962  0.50598964  0.32335181  1
  H  H80  1  0.42892303  0.76760005  0.59802700  1
  H  H81  1  0.34299170  0.29800953  0.38880015  1
  H  H82  1  0.52098263  0.99479889  0.78277799  1
  H  H83  1  0.52645955  0.64411729  0.77850170  1
  H  H84  1  0.41850516  0.81939929  0.47208005  1
  H  H85  1  0.29114578  0.21139570  0.16798799  1
  H  H86  1  0.47949070  0.57149491  0.58033373  1
  H  H87  1  0.47337223  0.34280795  0.57787896  1
  H  H88  1  0.56353897  0.15949055  0.71082817  1
  H  H89  1  0.30535124  0.46691891  0.09943766  1
  H  H90  1  0.69464876  0.53308109  0.90056234  1
  H  H91  1  0.43646103  0.84050945  0.28917183  1
  H  H92  1  0.52662777  0.65719205  0.42212104  1
  H  H93  1  0.52050930  0.42850509  0.41966627  1
  H  H94  1  0.70885422  0.78860430  0.83201201  1
  H  H95  1  0.58149484  0.18060071  0.52791995  1
  H  H96  1  0.47354045  0.35588271  0.22149830  1
  H  H97  1  0.47901737  0.00520111  0.21722201  1
  H  H98  1  0.65700830  0.70199047  0.61119985  1
  H  H99  1  0.57107697  0.23239995  0.40197300  1
  H  H100  1  0.69840038  0.49401036  0.67664819  1
  H  H101  1  0.51288541  0.13104974  0.22108445  1
  H  H102  1  0.80159962  0.99401036  0.82335181  1
  H  H103  1  0.84299170  0.20199047  0.88880015  1
  H  H104  1  0.67046853  0.50621048  0.48180973  1
  H  H105  1  0.91850516  0.68060071  0.97208005  1
  H  H106  1  0.79114578  0.28860430  0.66798799  1
  H  H107  1  0.70428787  0.38535979  0.45769212  1
  H  H108  1  0.71354871  0.14968201  0.46665779  1
  H  H109  1  0.53627005  0.59300919  0.05986840  1
  H  H110  1  0.71545728  0.85323112  0.46879689  1
  H  H111  1  0.58729230  0.38409154  0.14320854  1
  H  H112  1  0.65399965  0.04926905  0.28903454  1
  H  H113  1  0.65897357  0.31510616  0.26139404  1
  H  H114  1  0.80535124  0.03308109  0.59943766  1
  H  H115  1  0.67015005  0.71126279  0.25860514  1
  H  H116  1  0.93646103  0.65949055  0.78917183  1
  H  H117  1  0.97354045  0.14411729  0.72149830  1
  H  H118  1  0.97901737  0.49479889  0.71722201  1
  H  H119  1  0.82984995  0.21126279  0.24139486  1
  H  H120  1  0.84102643  0.81510616  0.23860596  1
  H  H121  1  0.84600035  0.54926905  0.21096546  1
  H  H122  1  0.91270770  0.88409154  0.35679146  1
  H  H123  1  0.78454272  0.35323112  0.03120311  1
  H  H124  1  0.96372995  0.09300919  0.44013160  1
  H  H125  1  0.78645129  0.64968201  0.03334221  1
  H  H126  1  0.79571213  0.88535979  0.04230788  1
  H  H127  1  0.82953147  0.00621048  0.01819027  1
  H  H128  1  0.98711459  0.63104974  0.27891555  1
  H  H129  1  0.92892303  0.73239995  0.09802700  1
  H  H130  1  0.97949070  0.92850509  0.08033373  1
  H  H131  1  0.97337223  0.15719205  0.07787896  1
  C  C132  1  0.10088415  0.33101718  0.95208348  1
  C  C133  1  0.03866664  0.43584945  0.76545351  1
  C  C134  1  0.13211518  0.05413550  0.92801357  1
  C  C135  1  0.08340660  0.12786076  0.72392958  1
  C  C136  1  0.41659340  0.62786076  0.77607042  1
  C  C137  1  0.36788382  0.55413550  0.57198643  1
  C  C138  1  0.46133336  0.93584945  0.73454649  1
  C  C139  1  0.39911585  0.83101718  0.54791652  1
  C  C140  1  0.60088415  0.16898282  0.45208348  1
  C  C141  1  0.53866664  0.06415055  0.26545351  1
  C  C142  1  0.63211518  0.44586450  0.42801357  1
  C  C143  1  0.58340660  0.37213924  0.22392958  1
  C  C144  1  0.91659340  0.87213924  0.27607042  1
  C  C145  1  0.86788482  0.94586450  0.07198643  1
  C  C146  1  0.96133336  0.56415055  0.23454649  1
  C  C147  1  0.89911585  0.66898282  0.04791652  1
  S  S148  1  0.14470109  0.02100128  0.80005368  1
  S  S149  1  0.00978545  0.57112745  0.11504810  1
  S  S150  1  0.35529891  0.52100128  0.69994632  1
  S  S151  1  0.50978545  0.92887255  0.61504810  1
  S  S152  1  0.49021455  0.07112745  0.38495190  1
  S  S153  1  0.64470109  0.47899872  0.30005368  1
  S  S154  1  0.99021455  0.42887255  0.88495190  1
  S  S155  1  0.85529891  0.97899872  0.19994632  1
  I  I156  1  0.03493497  0.34965188  0.47732592  1
  I  I157  1  0.53493497  0.15034812  0.97732592  1
  I  I158  1  0.46506503  0.84965188  0.02267408  1
  I  I159  1  0.96506503  0.65034812  0.52267408  1
