# generated using pymatgen
data_Li8MnFe7(PO4)8
_symmetry_space_group_name_H-M   'P 1'
_cell_length_a   7.72671401
_cell_length_b   10.44413153
_cell_length_c   7.72671401
_cell_angle_alpha   90.00097037
_cell_angle_beta   104.04385552
_cell_angle_gamma   90.00097037
_symmetry_Int_Tables_number   1
_chemical_formula_structural   Li8MnFe7(PO4)8
_chemical_formula_sum   'Li8 Mn1 Fe7 P8 O32'
_cell_volume   604.89933976
_cell_formula_units_Z   1
loop_
 _symmetry_equiv_pos_site_id
 _symmetry_equiv_pos_as_xyz
  1  'x, y, z'
loop_
 _atom_site_type_symbol
 _atom_site_label
 _atom_site_symmetry_multiplicity
 _atom_site_fract_x
 _atom_site_fract_y
 _atom_site_fract_z
 _atom_site_occupancy
  Li  Li0  1  0.99996809  0.00007361  0.00006674  1
  Li  Li1  1  0.49996750  0.49964165  0.99972246  1
  Li  Li2  1  0.24972246  0.49964165  0.24996750  1
  Li  Li3  1  0.00046248  0.49970676  0.49971848  1
  Li  Li4  1  0.75002070  0.00071597  0.24951740  1
  Li  Li5  1  0.25006674  0.00007361  0.74996809  1
  Li  Li6  1  0.49951740  0.00071597  0.50002070  1
  Li  Li7  1  0.74971848  0.49970676  0.75046248  1
  Mn  Mn8  1  0.63756568  0.71793711  0.38756568  1
  Fe  Fe9  1  0.36136267  0.21823470  0.11136267  1
  Fe  Fe10  1  0.13818434  0.78194017  0.38829664  1
  Fe  Fe11  1  0.86198614  0.28185837  0.11152516  1
  Fe  Fe12  1  0.36152516  0.28185837  0.61198614  1
  Fe  Fe13  1  0.13806137  0.71813580  0.88806137  1
  Fe  Fe14  1  0.86155259  0.21804277  0.61155259  1
  Fe  Fe15  1  0.63829664  0.78194017  0.88818434  1
  P  P16  1  0.08387229  0.09490503  0.33400272  1
  P  P17  1  0.41454437  0.90659515  0.16454437  1
  P  P18  1  0.58376671  0.40426305  0.33376671  1
  P  P19  1  0.08373775  0.40503374  0.83373775  1
  P  P20  1  0.41585756  0.59438244  0.66800538  1
  P  P21  1  0.91800538  0.59438244  0.16585756  1
  P  P22  1  0.58400272  0.09490503  0.83387229  1
  P  P23  1  0.91671462  0.90582159  0.66671462  1
  O  O24  1  0.08604795  0.66453834  0.12980662  1
  O  O25  1  0.25312306  0.90394244  0.00312306  1
  O  O26  1  0.11849757  0.16540899  0.16551320  1
  O  O27  1  0.02172737  0.95698421  0.27195995  1
  O  O28  1  0.47777029  0.04400751  0.22777029  1
  O  O29  1  0.37923398  0.83610525  0.33269781  1
  O  O30  1  0.58269781  0.83610525  0.12923398  1
  O  O31  1  0.08458152  0.83482312  0.63160715  1
  O  O32  1  0.24537518  0.09724795  0.49548426  1
  O  O33  1  0.75493760  0.59741751  0.00587066  1
  O  O34  1  0.25587066  0.59741751  0.50493760  1
  O  O35  1  0.61872522  0.33392409  0.16539187  1
  O  O36  1  0.11835736  0.33441734  0.66520185  1
  O  O37  1  0.41539187  0.33392409  0.36872522  1
  O  O38  1  0.02160049  0.54292852  0.77160049  1
  O  O39  1  0.52102814  0.54192977  0.27102814  1
  O  O40  1  0.47717529  0.45605528  0.72883272  1
  O  O41  1  0.97883272  0.45605528  0.22717529  1
  O  O42  1  0.88712899  0.66464536  0.33560497  1
  O  O43  1  0.58560497  0.66464536  0.63712899  1
  O  O44  1  0.37980662  0.66453834  0.83604795  1
  O  O45  1  0.24524058  0.40252639  0.99524058  1
  O  O46  1  0.74507872  0.40287472  0.49507872  1
  O  O47  1  0.75529966  0.90341582  0.50529966  1
  O  O48  1  0.91536573  0.16551622  0.36869539  1
  O  O49  1  0.61869539  0.16551622  0.66536573  1
  O  O50  1  0.41551320  0.16540899  0.86849757  1
  O  O51  1  0.52195995  0.95698421  0.77172737  1
  O  O52  1  0.97855898  0.04369661  0.72855898  1
  O  O53  1  0.88160715  0.83482312  0.83458152  1
  O  O54  1  0.74548426  0.09724795  0.99537518  1
  O  O55  1  0.91520185  0.33441734  0.86835736  1
