# generated using pymatgen
data_PaTe2Au
_symmetry_space_group_name_H-M   'P 1'
_cell_length_a   5.24922779
_cell_length_b   5.24918132
_cell_length_c   5.24916353
_cell_angle_alpha   60.02400476
_cell_angle_beta   60.02185311
_cell_angle_gamma   60.02247834
_symmetry_Int_Tables_number   1
_chemical_formula_structural   PaTe2Au
_chemical_formula_sum   'Pa1 Te2 Au1'
_cell_volume   102.32607147
_cell_formula_units_Z   1
loop_
 _symmetry_equiv_pos_site_id
 _symmetry_equiv_pos_as_xyz
  1  'x, y, z'
loop_
 _atom_site_type_symbol
 _atom_site_label
 _atom_site_symmetry_multiplicity
 _atom_site_fract_x
 _atom_site_fract_y
 _atom_site_fract_z
 _atom_site_occupancy
  Pa  Pa0  1  0.75000138  0.75000118  0.74999957  1
  Te  Te1  1  0.00008614  0.00008236  0.00008434  1
  Te  Te2  1  0.49991414  0.49991591  0.49991658  1
  Au  Au3  1  0.24999835  0.25000056  0.24999950  1
