# generated using pymatgen
data_GeWO4
_symmetry_space_group_name_H-M   'P 1'
_cell_length_a   5.58492107
_cell_length_b   11.70342712
_cell_length_c   5.05512857
_cell_angle_alpha   90.00000000
_cell_angle_beta   90.00000000
_cell_angle_gamma   90.00000000
_symmetry_Int_Tables_number   1
_chemical_formula_structural   GeWO4
_chemical_formula_sum   'Ge4 W4 O16'
_cell_volume   330.41693667
_cell_formula_units_Z   4
loop_
 _symmetry_equiv_pos_site_id
 _symmetry_equiv_pos_as_xyz
  1  'x, y, z'
loop_
 _atom_site_type_symbol
 _atom_site_label
 _atom_site_symmetry_multiplicity
 _atom_site_fract_x
 _atom_site_fract_y
 _atom_site_fract_z
 _atom_site_occupancy
  Ge  Ge0  1  0.25000000  0.00000000  0.17043129  1
  Ge  Ge1  1  0.25000000  0.50000000  0.32956871  1
  Ge  Ge2  1  0.75000000  0.00000000  0.82956871  1
  Ge  Ge3  1  0.75000000  0.50000000  0.67043129  1
  W  W4  1  0.14112712  0.25000000  0.75000000  1
  W  W5  1  0.35887288  0.75000000  0.75000000  1
  W  W6  1  0.64112712  0.25000000  0.25000000  1
  W  W7  1  0.85887288  0.75000000  0.25000000  1
  O  O8  1  0.10108480  0.09850386  0.89986367  1
  O  O9  1  0.10108480  0.40149614  0.60013633  1
  O  O10  1  0.12963520  0.79620205  0.49906946  1
  O  O11  1  0.12963520  0.70379795  0.00093054  1
  O  O12  1  0.37036480  0.20379795  0.49906946  1
  O  O13  1  0.37036480  0.29620205  0.00093054  1
  O  O14  1  0.39891520  0.59850386  0.60013633  1
  O  O15  1  0.39891520  0.90149614  0.89986367  1
  O  O16  1  0.60108480  0.09850386  0.10013633  1
  O  O17  1  0.60108480  0.40149614  0.39986367  1
  O  O18  1  0.62963520  0.70379795  0.99906946  1
  O  O19  1  0.62963520  0.79620205  0.50093054  1
  O  O20  1  0.87036480  0.20379795  0.50093054  1
  O  O21  1  0.87036480  0.29620205  0.99906946  1
  O  O22  1  0.89891520  0.59850386  0.39986367  1
  O  O23  1  0.89891520  0.90149614  0.10013633  1
