# generated using pymatgen
data_V4GeS8
_symmetry_space_group_name_H-M   'P 1'
_cell_length_a   6.84948942
_cell_length_b   6.86152872
_cell_length_c   6.86152872
_cell_angle_alpha   59.88673218
_cell_angle_beta   60.05802960
_cell_angle_gamma   60.05802960
_symmetry_Int_Tables_number   1
_chemical_formula_structural   V4GeS8
_chemical_formula_sum   'V4 Ge1 S8'
_cell_volume   228.02976988
_cell_formula_units_Z   1
loop_
 _symmetry_equiv_pos_site_id
 _symmetry_equiv_pos_as_xyz
  1  'x, y, z'
loop_
 _atom_site_type_symbol
 _atom_site_label
 _atom_site_symmetry_multiplicity
 _atom_site_fract_x
 _atom_site_fract_y
 _atom_site_fract_z
 _atom_site_occupancy
  V  V0  1  0.39807848  0.81080323  0.39303981  1
  V  V1  1  0.39807848  0.39303981  0.81080323  1
  V  V2  1  0.81074098  0.39733721  0.39733721  1
  V  V3  1  0.39458460  0.39733721  0.39733721  1
  Ge  Ge4  1  0.00142203  0.99857797  0.99857797  1
  S  S5  1  0.62371708  0.63180609  0.63180609  1
  S  S6  1  0.11267074  0.63180609  0.63180609  1
  S  S7  1  0.13725288  0.13564793  0.13564793  1
  S  S8  1  0.59145126  0.13564793  0.13564793  1
  S  S9  1  0.63234357  0.62375541  0.11155745  1
  S  S10  1  0.63234357  0.11155745  0.62375541  1
  S  S11  1  0.13680816  0.13764991  0.58873376  1
  S  S12  1  0.13680816  0.58873376  0.13764991  1
