# generated using pymatgen
data_Tb2MgGe2
_symmetry_space_group_name_H-M   'P 1'
_cell_length_a   4.27890779
_cell_length_b   7.29472603
_cell_length_c   7.29472603
_cell_angle_alpha   90.00000000
_cell_angle_beta   90.00000000
_cell_angle_gamma   90.00000000
_symmetry_Int_Tables_number   1
_chemical_formula_structural   Tb2MgGe2
_chemical_formula_sum   'Tb4 Mg2 Ge4'
_cell_volume   227.69363941
_cell_formula_units_Z   2
loop_
 _symmetry_equiv_pos_site_id
 _symmetry_equiv_pos_as_xyz
  1  'x, y, z'
loop_
 _atom_site_type_symbol
 _atom_site_label
 _atom_site_symmetry_multiplicity
 _atom_site_fract_x
 _atom_site_fract_y
 _atom_site_fract_z
 _atom_site_occupancy
  Tb  Tb0  1  0.50000000  0.17768659  0.67768659  1
  Tb  Tb1  1  0.50000000  0.82231341  0.32231341  1
  Tb  Tb2  1  0.50000000  0.32231341  0.17768659  1
  Tb  Tb3  1  0.50000000  0.67768659  0.82231341  1
  Mg  Mg4  1  0.00000000  0.50000000  0.50000000  1
  Mg  Mg5  1  -0.00000000  0.00000000  0.00000000  1
  Ge  Ge6  1  0.00000000  0.37645488  0.87645488  1
  Ge  Ge7  1  -0.00000000  0.62354512  0.12354512  1
  Ge  Ge8  1  -0.00000000  0.12354512  0.37645488  1
  Ge  Ge9  1  0.00000000  0.87645488  0.62354512  1
