# generated using pymatgen
data_SiH8
_symmetry_space_group_name_H-M   'P 1'
_cell_length_a   5.11915187
_cell_length_b   5.11915187
_cell_length_c   5.11915187
_cell_angle_alpha   119.33999129
_cell_angle_beta   119.33999129
_cell_angle_gamma   91.14702133
_symmetry_Int_Tables_number   1
_chemical_formula_structural   SiH8
_chemical_formula_sum   'Si1 H8'
_cell_volume   95.78465102
_cell_formula_units_Z   1
loop_
 _symmetry_equiv_pos_site_id
 _symmetry_equiv_pos_as_xyz
  1  'x, y, z'
loop_
 _atom_site_type_symbol
 _atom_site_label
 _atom_site_symmetry_multiplicity
 _atom_site_fract_x
 _atom_site_fract_y
 _atom_site_fract_z
 _atom_site_occupancy
  Si  Si0  1  -0.00000000  0.00000000  0.00000000  1
  H  H1  1  0.44738713  0.44738713  0.00000000  1
  H  H2  1  0.55261187  0.55261187  0.00000000  1
  H  H3  1  0.69769704  0.19769504  0.50000200  1
  H  H4  1  0.80230696  0.30230496  0.50000200  1
  H  H5  1  0.11882670  0.35561728  0.23679059  1
  H  H6  1  0.11882670  0.88203811  0.76321141  1
  H  H7  1  0.64438272  0.88117530  0.76321141  1
  H  H8  1  0.11796389  0.88117530  0.23679259  1
