# generated using pymatgen
data_TmCuPbSe3
_symmetry_space_group_name_H-M   'P 1'
_cell_length_a   10.54784182
_cell_length_b   4.04704302
_cell_length_c   7.09205209
_cell_angle_alpha   73.42329042
_cell_angle_beta   89.53491429
_cell_angle_gamma   89.99829370
_symmetry_Int_Tables_number   1
_chemical_formula_structural   TmCuPbSe3
_chemical_formula_sum   'Tm2 Cu2 Pb2 Se6'
_cell_volume   290.14969005
_cell_formula_units_Z   2
loop_
 _symmetry_equiv_pos_site_id
 _symmetry_equiv_pos_as_xyz
  1  'x, y, z'
loop_
 _atom_site_type_symbol
 _atom_site_label
 _atom_site_symmetry_multiplicity
 _atom_site_fract_x
 _atom_site_fract_y
 _atom_site_fract_z
 _atom_site_occupancy
  Tm  Tm0  1  0.50256067  0.49757841  0.50484002  1
  Tm  Tm1  1  0.00464948  0.49918088  0.50165325  1
  Cu  Cu2  1  0.75477604  0.03234106  0.43542616  1
  Cu  Cu3  1  0.25447759  0.96774056  0.56444704  1
  Pb  Pb4  1  0.24344389  0.25551904  0.98893300  1
  Pb  Pb5  1  0.74857344  0.74274738  0.01447869  1
  Se  Se6  1  0.56815786  0.13961536  0.22060012  1
  Se  Se7  1  0.94324713  0.14002062  0.21991267  1
  Se  Se8  1  0.06644871  0.85862302  0.78307702  1
  Se  Se9  1  0.43863913  0.85799687  0.78398991  1
  Se  Se10  1  0.75299194  0.42199045  0.65604599  1
  Se  Se11  1  0.25467013  0.57769736  0.34453813  1
