# generated using pymatgen
data_RbBaTaS4
_symmetry_space_group_name_H-M   'P 1'
_cell_length_a   9.46771359
_cell_length_b   7.11535316
_cell_length_c   12.64334592
_cell_angle_alpha   90.00000000
_cell_angle_beta   90.00000000
_cell_angle_gamma   90.00000000
_symmetry_Int_Tables_number   1
_chemical_formula_structural   RbBaTaS4
_chemical_formula_sum   'Rb4 Ba4 Ta4 S16'
_cell_volume   851.73323191
_cell_formula_units_Z   4
loop_
 _symmetry_equiv_pos_site_id
 _symmetry_equiv_pos_as_xyz
  1  'x, y, z'
loop_
 _atom_site_type_symbol
 _atom_site_label
 _atom_site_symmetry_multiplicity
 _atom_site_fract_x
 _atom_site_fract_y
 _atom_site_fract_z
 _atom_site_occupancy
  Rb  Rb0  1  0.36298640  0.25000000  0.08840037  1
  Rb  Rb1  1  0.13701360  0.74999900  0.58840037  1
  Rb  Rb2  1  0.86298640  0.25000000  0.41159963  1
  Rb  Rb3  1  0.63701360  0.74999900  0.91159963  1
  Ba  Ba4  1  0.02017298  0.25000000  0.82520447  1
  Ba  Ba5  1  0.47982702  0.74999900  0.32520447  1
  Ba  Ba6  1  0.52017198  0.25000000  0.67479553  1
  Ba  Ba7  1  0.97982702  0.74999900  0.17479453  1
  Ta  Ta8  1  0.26951044  0.25000000  0.42124183  1
  Ta  Ta9  1  0.23048956  0.74999900  0.92124083  1
  Ta  Ta10  1  0.76951044  0.25000000  0.07875917  1
  Ta  Ta11  1  0.73048956  0.74999900  0.57875817  1
  S  S12  1  0.19406460  0.25000000  0.59293099  1
  S  S13  1  0.30593540  0.74999900  0.09293099  1
  S  S14  1  0.69406460  0.25000000  0.90706901  1
  S  S15  1  0.80593540  0.74999900  0.40706801  1
  S  S16  1  0.01046539  0.25000000  0.08452979  1
  S  S17  1  0.48953461  0.74999900  0.58452979  1
  S  S18  1  0.51046539  0.25000000  0.41547021  1
  S  S19  1  0.98953461  0.74999900  0.91547021  1
  S  S20  1  0.18432667  0.50830487  0.33745021  1
  S  S21  1  0.31567333  0.49169413  0.83745021  1
  S  S22  1  0.68432667  0.99169513  0.16254979  1
  S  S23  1  0.81567333  0.00830587  0.66254879  1
  S  S24  1  0.81567333  0.49169413  0.66254879  1
  S  S25  1  0.68432667  0.50830487  0.16254979  1
  S  S26  1  0.31567333  0.00830587  0.83745021  1
  S  S27  1  0.18432667  0.99169513  0.33745021  1
