# generated using pymatgen
data_Hf(VH2)2
_symmetry_space_group_name_H-M   'P 1'
_cell_length_a   5.49184035
_cell_length_b   5.39937851
_cell_length_c   5.39937851
_cell_angle_alpha   90.00000000
_cell_angle_beta   119.44460164
_cell_angle_gamma   119.44460152
_symmetry_Int_Tables_number   1
_chemical_formula_structural   Hf(VH2)2
_chemical_formula_sum   'Hf2 V4 H8'
_cell_volume   115.08598616
_cell_formula_units_Z   2
loop_
 _symmetry_equiv_pos_site_id
 _symmetry_equiv_pos_as_xyz
  1  'x, y, z'
loop_
 _atom_site_type_symbol
 _atom_site_label
 _atom_site_symmetry_multiplicity
 _atom_site_fract_x
 _atom_site_fract_y
 _atom_site_fract_z
 _atom_site_occupancy
  Hf  Hf0  1  0.75000000  0.87499900  0.12499900  1
  Hf  Hf1  1  0.25000100  0.12500000  0.87500000  1
  V  V2  1  0.00000000  0.49999900  0.00000100  1
  V  V3  1  -0.00000000  0.49999900  0.49999900  1
  V  V4  1  0.49999900  0.50000000  0.50000000  1
  V  V5  1  0.49999900  0.99999900  0.50000000  1
  H  H6  1  0.37227238  0.50486318  0.11848070  1
  H  H7  1  0.12772962  0.88152030  0.13259180  1
  H  H8  1  0.62772862  0.13259080  0.24620932  1
  H  H9  1  0.12772962  0.24620832  0.49513782  1
  H  H10  1  0.87227138  0.75379168  0.50486218  1
  H  H11  1  0.37227238  0.86740920  0.75379268  1
  H  H12  1  0.87227138  0.11847970  0.86740820  1
  H  H13  1  0.62772862  0.49513782  0.88152030  1
