# generated using pymatgen
data_TaTl(CuS2)2
_symmetry_space_group_name_H-M   'P 1'
_cell_length_a   5.57753090
_cell_length_b   7.51630670
_cell_length_c   9.81807216
_cell_angle_alpha   90.00000000
_cell_angle_beta   106.50171815
_cell_angle_gamma   90.00000000
_symmetry_Int_Tables_number   1
_chemical_formula_structural   TaTl(CuS2)2
_chemical_formula_sum   'Ta2 Tl2 Cu4 S8'
_cell_volume   394.64427217
_cell_formula_units_Z   2
loop_
 _symmetry_equiv_pos_site_id
 _symmetry_equiv_pos_as_xyz
  1  'x, y, z'
loop_
 _atom_site_type_symbol
 _atom_site_label
 _atom_site_symmetry_multiplicity
 _atom_site_fract_x
 _atom_site_fract_y
 _atom_site_fract_z
 _atom_site_occupancy
  S  S0  1  0.63489456  0.49825255  0.79173078  1
  S  S1  1  0.84316378  0.50174745  0.20826922  1
  S  S2  1  0.63489456  0.00174745  0.79173078  1
  S  S3  1  0.84316378  0.99825255  0.20826922  1
  S  S4  1  0.03863684  0.25000000  0.58942354  1
  S  S5  1  0.26560112  0.75000000  0.01363555  1
  S  S6  1  0.25196557  0.25000000  0.98636445  1
  S  S7  1  0.44921330  0.75000000  0.41057646  1
  Cu  Cu8  1  0.10070759  0.75000000  0.20977791  1
  Cu  Cu9  1  0.51151615  0.00000000  0.00000000  1
  Cu  Cu10  1  0.89092968  0.25000000  0.79022209  1
  Cu  Cu11  1  0.51151615  0.50000000  0.00000000  1
  Ta  Ta12  1  0.38593804  0.25000000  0.78166393  1
  Ta  Ta13  1  0.60427410  0.75000000  0.21833607  1
  Tl  Tl14  1  0.51131266  0.25000000  0.36304053  1
  Tl  Tl15  1  0.14827213  0.75000000  0.63695947  1
