# generated using pymatgen
data_Na
_symmetry_space_group_name_H-M   'P 1'
_cell_length_a   3.75653791
_cell_length_b   3.75653803
_cell_length_c   9.26383795
_cell_angle_alpha   78.30201957
_cell_angle_beta   78.30201281
_cell_angle_gamma   60.00000113
_symmetry_Int_Tables_number   1
_chemical_formula_structural   Na
_chemical_formula_sum   Na3
_cell_volume   110.06679972
_cell_formula_units_Z   3
loop_
 _symmetry_equiv_pos_site_id
 _symmetry_equiv_pos_as_xyz
  1  'x, y, z'
loop_
 _atom_site_type_symbol
 _atom_site_label
 _atom_site_symmetry_multiplicity
 _atom_site_fract_x
 _atom_site_fract_y
 _atom_site_fract_z
 _atom_site_occupancy
  Na  Na0  1  -0.00000000  -0.00000000  -0.00000000  1
  Na  Na1  1  0.77779726  0.77779726  0.66660821  1
  Na  Na2  1  0.22220274  0.22220274  0.33339179  1
