# generated using pymatgen
data_TiP3WO12
_symmetry_space_group_name_H-M   'P 1'
_cell_length_a   8.85195679
_cell_length_b   8.85195619
_cell_length_c   8.85195687
_cell_angle_alpha   59.06029795
_cell_angle_beta   59.06029835
_cell_angle_gamma   59.06030143
_symmetry_Int_Tables_number   1
_chemical_formula_structural   TiP3WO12
_chemical_formula_sum   'Ti2 P6 W2 O24'
_cell_volume   479.94985030
_cell_formula_units_Z   2
loop_
 _symmetry_equiv_pos_site_id
 _symmetry_equiv_pos_as_xyz
  1  'x, y, z'
loop_
 _atom_site_type_symbol
 _atom_site_label
 _atom_site_symmetry_multiplicity
 _atom_site_fract_x
 _atom_site_fract_y
 _atom_site_fract_z
 _atom_site_occupancy
  Ti  Ti0  1  0.13950840  0.13950840  0.13950840  1
  Ti  Ti1  1  0.63950840  0.63950840  0.63950840  1
  P  P2  1  0.03197135  0.46361714  0.75141426  1
  P  P3  1  0.46361714  0.75141426  0.03197135  1
  P  P4  1  0.75141426  0.03197135  0.46361714  1
  P  P5  1  0.25141426  0.96361714  0.53197135  1
  P  P6  1  0.53197135  0.25141426  0.96361714  1
  P  P7  1  0.96361714  0.53197135  0.25141426  1
  W  W8  1  0.35839175  0.35839175  0.35839175  1
  W  W9  1  0.85839175  0.85839175  0.85839175  1
  O  O10  1  0.13319079  0.50973975  0.28165293  1
  O  O11  1  0.28165293  0.13319079  0.50973975  1
  O  O12  1  0.06210492  0.28702786  0.92142019  1
  O  O13  1  0.50973975  0.28165293  0.13319079  1
  O  O14  1  0.00973975  0.63319079  0.78165293  1
  O  O15  1  0.21326817  0.44082109  0.57909663  1
  O  O16  1  0.28702786  0.92142019  0.06210492  1
  O  O17  1  0.44082109  0.57909663  0.21326817  1
  O  O18  1  0.21409322  0.00055185  0.36387269  1
  O  O19  1  0.57909663  0.21326817  0.44082109  1
  O  O20  1  0.07909663  0.94082109  0.71326817  1
  O  O21  1  0.36387269  0.21409322  0.00055185  1
  O  O22  1  0.63319079  0.78165293  0.00973975  1
  O  O23  1  0.92142019  0.06210492  0.28702786  1
  O  O24  1  0.42142019  0.78702786  0.56210492  1
  O  O25  1  0.78165293  0.00973975  0.63319079  1
  O  O26  1  0.56210492  0.42142019  0.78702786  1
  O  O27  1  0.71326817  0.07909663  0.94082109  1
  O  O28  1  0.78702786  0.56210492  0.42142019  1
  O  O29  1  0.00055185  0.36387269  0.21409322  1
  O  O30  1  0.50055185  0.71409322  0.86387269  1
  O  O31  1  0.94082109  0.71326817  0.07909663  1
  O  O32  1  0.71409322  0.86387269  0.50055185  1
  O  O33  1  0.86387269  0.50055185  0.71409322  1
