# generated using pymatgen
data_CaLa(FeO3)2
_symmetry_space_group_name_H-M   'P 1'
_cell_length_a   5.52313035
_cell_length_b   5.52087120
_cell_length_c   7.81248598
_cell_angle_alpha   89.98708135
_cell_angle_beta   90.00492293
_cell_angle_gamma   89.97753439
_symmetry_Int_Tables_number   1
_chemical_formula_structural   CaLa(FeO3)2
_chemical_formula_sum   'Ca2 La2 Fe4 O12'
_cell_volume   238.22213564
_cell_formula_units_Z   2
loop_
 _symmetry_equiv_pos_site_id
 _symmetry_equiv_pos_as_xyz
  1  'x, y, z'
loop_
 _atom_site_type_symbol
 _atom_site_label
 _atom_site_symmetry_multiplicity
 _atom_site_fract_x
 _atom_site_fract_y
 _atom_site_fract_z
 _atom_site_occupancy
  Ca  Ca0  1  0.53637592  0.50956402  0.25002641  1
  Ca  Ca1  1  0.96352454  0.00968670  0.75005350  1
  La  La2  1  0.02764630  0.99371832  0.24995941  1
  La  La3  1  0.47245977  0.49379872  0.74999755  1
  Fe  Fe4  1  0.50006544  0.99961648  0.49928663  1
  Fe  Fe5  1  -0.00002525  0.49955751  0.99930049  1
  Fe  Fe6  1  0.50028865  0.99963835  0.00060863  1
  Fe  Fe7  1  -0.00025574  0.49957245  0.50059436  1
  O  O8  1  0.01352593  0.57912233  0.75016697  1
  O  O9  1  0.21727664  0.21692056  0.95813994  1
  O  O10  1  0.21721657  0.21723974  0.54188578  1
  O  O11  1  0.28247761  0.71703736  0.04184630  1
  O  O12  1  0.28263167  0.71699574  0.45817088  1
  O  O13  1  0.48643220  0.07911175  0.25017718  1
  O  O14  1  0.51669700  0.92865171  0.74986865  1
  O  O15  1  0.72201149  0.27787336  0.53847955  1
  O  O16  1  0.72184627  0.27772975  0.96153546  1
  O  O17  1  0.77843805  0.77749291  0.46152765  1
  O  O18  1  0.77806763  0.77793222  0.03849023  1
  O  O19  1  0.98329932  0.42873902  0.24988243  1
