# generated using pymatgen
data_YCu7O12
_symmetry_space_group_name_H-M   'P 1'
_cell_length_a   6.33456045
_cell_length_b   6.33415115
_cell_length_c   6.33419792
_cell_angle_alpha   109.42405160
_cell_angle_beta   109.51765865
_cell_angle_gamma   109.49000148
_symmetry_Int_Tables_number   1
_chemical_formula_structural   YCu7O12
_chemical_formula_sum   'Y1 Cu7 O12'
_cell_volume   195.60395705
_cell_formula_units_Z   1
loop_
 _symmetry_equiv_pos_site_id
 _symmetry_equiv_pos_as_xyz
  1  'x, y, z'
loop_
 _atom_site_type_symbol
 _atom_site_label
 _atom_site_symmetry_multiplicity
 _atom_site_fract_x
 _atom_site_fract_y
 _atom_site_fract_z
 _atom_site_occupancy
  Y  Y0  1  0.99999634  0.99999165  0.00002851  1
  Cu  Cu1  1  0.49999133  0.00000548  0.99998975  1
  Cu  Cu2  1  0.00001080  0.00001537  0.50001528  1
  Cu  Cu3  1  0.00000879  0.50000103  -0.00000033  1
  Cu  Cu4  1  0.49999978  0.50000366  0.49999283  1
  Cu  Cu5  1  0.49999894  -0.00000180  0.49999657  1
  Cu  Cu6  1  0.50000674  0.50000945  0.00000033  1
  Cu  Cu7  1  0.00000070  0.50000432  0.49999518  1
  O  O8  1  0.83120824  0.30573787  0.13688012  1
  O  O9  1  0.16879567  0.69426534  0.86312155  1
  O  O10  1  0.83083667  0.69397283  0.52530189  1
  O  O11  1  0.30576875  0.47455908  0.16890762  1
  O  O12  1  0.47452191  0.16908008  0.30574621  1
  O  O13  1  0.13676051  0.83081929  0.30522863  1
  O  O14  1  0.69419685  0.86302238  0.16868504  1
  O  O15  1  0.52546116  0.83091098  0.69424475  1
  O  O16  1  0.16916069  0.30603527  0.47469596  1
  O  O17  1  0.69422120  0.52544381  0.83107986  1
  O  O18  1  0.86324706  0.16917642  0.69478896  1
  O  O19  1  0.30580585  0.13694948  0.83130127  1
