# generated using pymatgen
data_MgCo(PO3)4
_symmetry_space_group_name_H-M   'P 1'
_cell_length_a   7.28898899
_cell_length_b   7.29038379
_cell_length_c   9.85212177
_cell_angle_alpha   98.59445165
_cell_angle_beta   109.84699933
_cell_angle_gamma   109.76936966
_symmetry_Int_Tables_number   1
_chemical_formula_structural   MgCo(PO3)4
_chemical_formula_sum   'Mg2 Co2 P8 O24'
_cell_volume   442.28093663
_cell_formula_units_Z   2
loop_
 _symmetry_equiv_pos_site_id
 _symmetry_equiv_pos_as_xyz
  1  'x, y, z'
loop_
 _atom_site_type_symbol
 _atom_site_label
 _atom_site_symmetry_multiplicity
 _atom_site_fract_x
 _atom_site_fract_y
 _atom_site_fract_z
 _atom_site_occupancy
  Mg  Mg0  1  0.70295421  0.95460227  0.74975046  1
  Mg  Mg1  1  0.29766497  0.04780478  0.24964871  1
  Co  Co2  1  0.49903536  0.50065636  0.49957635  1
  Co  Co3  1  0.49878938  0.00059467  0.99884491  1
  P  P4  1  0.51008095  0.31714605  0.80543214  1
  P  P5  1  0.00841859  0.70593952  0.69324932  1
  P  P6  1  0.48962385  0.68746178  0.19559411  1
  P  P7  1  0.99010466  0.29458563  0.30386291  1
  P  P8  1  0.76917544  0.73323175  0.02380082  1
  P  P9  1  0.20785382  0.74572365  0.47578630  1
  P  P10  1  0.23085382  0.27040954  0.97717296  1
  P  P11  1  0.79117866  0.25502808  0.52217716  1
  O  O12  1  0.31700575  0.31647572  0.84963384  1
  O  O13  1  0.96321120  0.46864459  0.64990069  1
  O  O14  1  0.68361544  0.68933131  0.15212235  1
  O  O15  1  0.03645928  0.53228768  0.34705217  1
  O  O16  1  0.72045641  0.50625376  0.93562820  1
  O  O17  1  0.06724319  0.78492458  0.56257501  1
  O  O18  1  0.27979387  0.49667244  0.06668164  1
  O  O19  1  0.92979993  0.21500071  0.43395188  1
  O  O20  1  0.46201178  0.35104543  0.65510406  1
  O  O21  1  0.19260177  0.80879829  0.84349788  1
  O  O22  1  0.53738171  0.65576654  0.34660613  1
  O  O23  1  0.80617231  0.19166826  0.15354629  1
  O  O24  1  0.54607445  0.12724115  0.82479357  1
  O  O25  1  0.79919425  0.72279541  0.67371536  1
  O  O26  1  0.45221051  0.87606478  0.17395742  1
  O  O27  1  0.19970965  0.27790330  0.32438555  1
  O  O28  1  0.63276600  0.81559086  0.91758311  1
  O  O29  1  0.39533155  0.71504388  0.58286224  1
  O  O30  1  0.36708569  0.18666540  0.08207119  1
  O  O31  1  0.60285228  0.28590693  0.41630302  1
  O  O32  1  0.00444106  0.84992285  0.09783947  1
  O  O33  1  0.25252550  0.90737321  0.40226563  1
  O  O34  1  0.99549585  0.15373540  0.90276814  1
  O  O35  1  0.74810987  0.09428942  0.59671097  1
