# generated using pymatgen
data_Li2MnBO4
_symmetry_space_group_name_H-M   'P 1'
_cell_length_a   6.02104244
_cell_length_b   10.23356382
_cell_length_c   4.96999047
_cell_angle_alpha   90.00000000
_cell_angle_beta   90.00000000
_cell_angle_gamma   90.00000000
_symmetry_Int_Tables_number   1
_chemical_formula_structural   Li2MnBO4
_chemical_formula_sum   'Li8 Mn4 B4 O16'
_cell_volume   306.23452149
_cell_formula_units_Z   4
loop_
 _symmetry_equiv_pos_site_id
 _symmetry_equiv_pos_as_xyz
  1  'x, y, z'
loop_
 _atom_site_type_symbol
 _atom_site_label
 _atom_site_symmetry_multiplicity
 _atom_site_fract_x
 _atom_site_fract_y
 _atom_site_fract_z
 _atom_site_occupancy
  Li  Li0  1  0.99281157  0.32444476  0.23794570  1
  Li  Li1  1  0.99281157  0.82444476  0.26205430  1
  Li  Li2  1  0.50718843  0.32444476  0.23794570  1
  Li  Li3  1  0.50718843  0.82444476  0.26205430  1
  Li  Li4  1  0.49281157  0.17555524  0.73794570  1
  Li  Li5  1  0.49281157  0.67555524  0.76205430  1
  Li  Li6  1  0.00718843  0.67555524  0.76205430  1
  Li  Li7  1  0.00718843  0.17555524  0.73794570  1
  Mn  Mn8  1  0.25000000  0.43319848  0.83033110  1
  Mn  Mn9  1  0.25000000  0.93319848  0.66966890  1
  Mn  Mn10  1  0.75000000  0.06680152  0.33033110  1
  Mn  Mn11  1  0.75000000  0.56680152  0.16966890  1
  B  B12  1  0.25000000  0.07198254  0.20313716  1
  B  B13  1  0.25000000  0.57198254  0.29686284  1
  B  B14  1  0.75000000  0.42801746  0.70313716  1
  B  B15  1  0.75000000  0.92801746  0.79686284  1
  O  O16  1  0.04795345  0.13826602  0.32080944  1
  O  O17  1  0.04795345  0.63826602  0.17919056  1
  O  O18  1  0.25000000  0.08205575  0.90928820  1
  O  O19  1  0.25000000  0.43067413  0.22039852  1
  O  O20  1  0.25000000  0.93067413  0.27960148  1
  O  O21  1  0.25000000  0.58205575  0.59071180  1
  O  O22  1  0.45204655  0.13826602  0.32080944  1
  O  O23  1  0.45204655  0.63826602  0.17919056  1
  O  O24  1  0.54795345  0.86173398  0.67919056  1
  O  O25  1  0.54795345  0.36173398  0.82080944  1
  O  O26  1  0.75000000  0.06932587  0.72039852  1
  O  O27  1  0.75000000  0.41794425  0.40928820  1
  O  O28  1  0.75000000  0.56932587  0.77960148  1
  O  O29  1  0.75000000  0.91794425  0.09071180  1
  O  O30  1  0.95204655  0.36173398  0.82080944  1
  O  O31  1  0.95204655  0.86173398  0.67919056  1
