# generated using pymatgen
data_Al2GeO6
_symmetry_space_group_name_H-M   'P 1'
_cell_length_a   4.74459115
_cell_length_b   8.72664310
_cell_length_c   9.38465359
_cell_angle_alpha   90.00000000
_cell_angle_beta   90.00000000
_cell_angle_gamma   90.00000000
_symmetry_Int_Tables_number   1
_chemical_formula_structural   Al2GeO6
_chemical_formula_sum   'Al8 Ge4 O24'
_cell_volume   388.56551586
_cell_formula_units_Z   4
loop_
 _symmetry_equiv_pos_site_id
 _symmetry_equiv_pos_as_xyz
  1  'x, y, z'
loop_
 _atom_site_type_symbol
 _atom_site_label
 _atom_site_symmetry_multiplicity
 _atom_site_fract_x
 _atom_site_fract_y
 _atom_site_fract_z
 _atom_site_occupancy
  Al  Al0  1  0.40119314  0.91914937  0.37263961  1
  Al  Al1  1  0.09880686  0.58085063  0.87263961  1
  Al  Al2  1  0.59880686  0.41914937  0.62736039  1
  Al  Al3  1  0.90119314  0.08085063  0.12736039  1
  Al  Al4  1  0.59880686  0.08085063  0.62736039  1
  Al  Al5  1  0.90119314  0.41914937  0.12736039  1
  Al  Al6  1  0.40119314  0.58085063  0.37263961  1
  Al  Al7  1  0.09880686  0.91914937  0.87263961  1
  Ge  Ge8  1  0.90080240  0.75000000  0.56417879  1
  Ge  Ge9  1  0.59919760  0.75000000  0.06417879  1
  Ge  Ge10  1  0.09919760  0.25000000  0.43582121  1
  Ge  Ge11  1  0.40080240  0.25000000  0.93582121  1
  O  O12  1  0.21708637  0.75000000  0.46324983  1
  O  O13  1  0.28291363  0.75000000  0.96324983  1
  O  O14  1  0.78291363  0.25000000  0.53675017  1
  O  O15  1  0.71708637  0.25000000  0.03675017  1
  O  O16  1  0.53490651  0.75000000  0.25185785  1
  O  O17  1  0.96509349  0.75000000  0.75185785  1
  O  O18  1  0.46509349  0.25000000  0.74814215  1
  O  O19  1  0.03490651  0.25000000  0.24814215  1
  O  O20  1  0.70251356  0.91271630  0.51037604  1
  O  O21  1  0.79748644  0.58728370  0.01037604  1
  O  O22  1  0.29748644  0.41271630  0.48962396  1
  O  O23  1  0.20251356  0.08728370  0.98962396  1
  O  O24  1  0.29748644  0.08728370  0.48962396  1
  O  O25  1  0.20251356  0.41271630  0.98962396  1
  O  O26  1  0.70251356  0.58728370  0.51037604  1
  O  O27  1  0.79748644  0.91271630  0.01037604  1
  O  O28  1  0.11101813  0.95907994  0.24691372  1
  O  O29  1  0.38898187  0.54092006  0.74691372  1
  O  O30  1  0.88898187  0.45907994  0.75308628  1
  O  O31  1  0.61101813  0.04092006  0.25308628  1
  O  O32  1  0.88898187  0.04092006  0.75308628  1
  O  O33  1  0.61101813  0.45907994  0.25308628  1
  O  O34  1  0.11101813  0.54092006  0.24691372  1
  O  O35  1  0.38898187  0.95907994  0.74691372  1
