# generated using pymatgen
data_LiZn6Fe17O32
_symmetry_space_group_name_H-M   'P 1'
_cell_length_a   6.05440462
_cell_length_b   6.04746279
_cell_length_c   19.94384868
_cell_angle_alpha   98.90845086
_cell_angle_beta   98.73045746
_cell_angle_gamma   59.96202082
_symmetry_Int_Tables_number   1
_chemical_formula_structural   LiZn6Fe17O32
_chemical_formula_sum   'Li1 Zn6 Fe17 O32'
_cell_volume   622.16196519
_cell_formula_units_Z   1
loop_
 _symmetry_equiv_pos_site_id
 _symmetry_equiv_pos_as_xyz
  1  'x, y, z'
loop_
 _atom_site_type_symbol
 _atom_site_label
 _atom_site_symmetry_multiplicity
 _atom_site_fract_x
 _atom_site_fract_y
 _atom_site_fract_z
 _atom_site_occupancy
  Li  Li0  1  0.93694048  0.93695823  0.81083819  1
  Zn  Zn1  1  0.34216203  0.34540011  0.02972417  1
  Zn  Zn2  1  0.21891202  0.71800895  0.15583199  1
  Zn  Zn3  1  0.84481077  0.84337592  0.53299747  1
  Zn  Zn4  1  0.96882121  0.46913232  0.40677375  1
  Zn  Zn5  1  0.09394387  0.09349742  0.28138616  1
  Zn  Zn6  1  0.72115905  0.21602091  0.65833800  1
  Fe  Fe7  1  0.69276917  0.68001203  0.06555038  1
  Fe  Fe8  1  0.74468798  0.75895315  0.24832911  1
  Fe  Fe9  1  0.99797546  0.00040552  0.99635545  1
  Fe  Fe10  1  0.46939096  0.96848404  0.40676605  1
  Fe  Fe11  1  0.96889204  0.96848404  0.40676605  1
  Fe  Fe12  1  0.71878956  0.21832126  0.15588953  1
  Fe  Fe13  1  0.21877871  0.21832126  0.15588953  1
  Fe  Fe14  1  0.44272366  0.42911199  0.31455931  1
  Fe  Fe15  1  0.49584041  0.50885950  0.50053932  1
  Fe  Fe16  1  0.72302019  0.72104552  0.65855328  1
  Fe  Fe17  1  0.21448757  0.72104552  0.65855328  1
  Fe  Fe18  1  0.19313667  0.17719379  0.56346712  1
  Fe  Fe19  1  0.46991713  0.96392158  0.90375485  1
  Fe  Fe20  1  0.59320520  0.59737388  0.78378328  1
  Fe  Fe21  1  0.24530594  0.25896087  0.74957276  1
  Fe  Fe22  1  0.96100195  0.47194695  0.90324671  1
  Fe  Fe23  1  0.47029781  0.47194695  0.90324671  1
  O  O24  1  0.90349341  0.92099472  0.21460572  1
  O  O25  1  0.39011758  0.92099472  0.21460572  1
  O  O26  1  0.53335120  0.51349301  0.09583367  1
  O  O27  1  0.04898947  0.51349301  0.09583367  1
  O  O28  1  0.52594385  0.04473298  0.09662068  1
  O  O29  1  0.27698496  0.79333822  0.34730814  1
  O  O30  1  0.41018734  0.39386866  0.21424433  1
  O  O31  1  0.77758780  0.79243606  0.34761166  1
  O  O32  1  0.90974908  0.39441973  0.21391689  1
  O  O33  1  0.02685842  0.04227446  0.09599031  1
  O  O34  1  0.65340560  0.67198212  0.46624004  1
  O  O35  1  0.14085332  0.67198212  0.46624004  1
  O  O36  1  0.28395725  0.26488084  0.34649539  1
  O  O37  1  0.79765730  0.26488084  0.34649539  1
  O  O38  1  0.90881439  0.89203115  0.70965992  1
  O  O39  1  0.15950405  0.14464910  0.46365621  1
  O  O40  1  0.03098990  0.53682602  0.59880481  1
  O  O41  1  0.53027266  0.53961252  0.60015683  1
  O  O42  1  0.66044045  0.14443346  0.46531436  1
  O  O43  1  0.41691247  0.88690961  0.72073455  1
  O  O44  1  0.41068576  0.43001184  0.72224671  1
  O  O45  1  0.88154911  0.43001184  0.72224671  1
  O  O46  1  0.03806590  0.01588211  0.59752061  1
  O  O47  1  0.76263700  0.76394590  0.84568936  1
  O  O48  1  0.31910546  0.76394590  0.84568936  1
  O  O49  1  0.54357260  0.01588211  0.59752061  1
  O  O50  1  0.76127605  0.32227130  0.84482341  1
  O  O51  1  0.65576923  0.65389166  0.96543012  1
  O  O52  1  0.28303827  0.28320069  0.84927724  1
  O  O53  1  0.16124590  0.64121736  0.96370816  1
  O  O54  1  0.64012000  0.16236410  0.96238246  1
  O  O55  1  0.15989836  0.16236410  0.96238246  1
