# generated using pymatgen
data_Np2Te3
_symmetry_space_group_name_H-M   'P 1'
_cell_length_a   24.12882546
_cell_length_b   9.26085137
_cell_length_c   9.26085176
_cell_angle_alpha   90.00000000
_cell_angle_beta   54.85042318
_cell_angle_gamma   54.85042245
_symmetry_Int_Tables_number   1
_chemical_formula_structural   Np2Te3
_chemical_formula_sum   'Np16 Te24'
_cell_volume   1201.49868774
_cell_formula_units_Z   8
loop_
 _symmetry_equiv_pos_site_id
 _symmetry_equiv_pos_as_xyz
  1  'x, y, z'
loop_
 _atom_site_type_symbol
 _atom_site_label
 _atom_site_symmetry_multiplicity
 _atom_site_fract_x
 _atom_site_fract_y
 _atom_site_fract_z
 _atom_site_occupancy
  Np  Np0  1  -0.00027309  0.12259539  0.75297932  1
  Np  Np1  1  0.08124615  0.62813028  0.37813028  1
  Np  Np2  1  0.16666700  0.25000000  0.63005895  1
  Np  Np3  1  0.33360609  0.37740461  0.25216004  1
  Np  Np4  1  0.25208685  0.87186972  0.12186972  1
  Np  Np5  1  0.33360609  0.12177611  0.74702068  1
  Np  Np6  1  0.16666700  0.75000000  0.86994105  1
  Np  Np7  1  0.49972691  0.25297932  0.62259539  1
  Np  Np8  1  0.58124615  0.87813028  0.12813028  1
  Np  Np9  1  0.66666700  0.36994105  0.25000000  1
  Np  Np10  1  0.66666700  0.13005895  0.75000000  1
  Np  Np11  1  0.49972691  0.74783996  0.87822389  1
  Np  Np12  1  0.75208685  0.62186972  0.37186972  1
  Np  Np13  1  0.83360609  0.24702068  0.62177611  1
  Np  Np14  1  -0.00027309  0.37822389  0.24783996  1
  Np  Np15  1  0.83360609  0.75216004  0.87740461  1
  Te  Te16  1  0.05054672  0.00047417  0.34735873  1
  Te  Te17  1  0.11863777  0.49654296  0.99783109  1
  Te  Te18  1  0.05054672  0.34788468  0.50100011  1
  Te  Te19  1  0.28278628  0.15211532  0.15264127  1
  Te  Te20  1  0.28278628  0.49952583  0.99899989  1
  Te  Te21  1  0.11863777  0.64754274  0.64625461  1
  Te  Te22  1  0.38474079  0.99820293  0.34508656  1
  Te  Te23  1  0.21469523  0.85245726  0.50216891  1
  Te  Te24  1  0.44859321  0.49930794  0.00179707  1
  Te  Te25  1  0.38474079  0.34757569  0.50069206  1
  Te  Te26  1  0.21469523  0.00345704  0.85374539  1
  Te  Te27  1  0.61863777  0.14625461  0.14754274  1
  Te  Te28  1  0.61863777  0.49783109  0.99654296  1
  Te  Te29  1  0.44859321  0.65491344  0.65242431  1
  Te  Te30  1  0.71469523  0.00216891  0.35245726  1
  Te  Te31  1  0.55054672  0.84735873  0.50047417  1
  Te  Te32  1  0.78278628  0.49899989  0.99952583  1
  Te  Te33  1  0.71469523  0.35374539  0.50345704  1
  Te  Te34  1  0.55054672  0.00100011  0.84788468  1
  Te  Te35  1  0.94859321  0.15242431  0.15491344  1
  Te  Te36  1  0.94859321  0.50179707  0.99930794  1
  Te  Te37  1  0.78278628  0.65264127  0.65211532  1
  Te  Te38  1  0.88474079  0.84508656  0.49820293  1
  Te  Te39  1  0.88474079  0.00069206  0.84757569  1
