# generated using pymatgen
data_Cr5Sb3O16
_symmetry_space_group_name_H-M   'P 1'
_cell_length_a   6.06366807
_cell_length_b   6.09209572
_cell_length_c   9.07855714
_cell_angle_alpha   89.99606573
_cell_angle_beta   90.14751698
_cell_angle_gamma   120.15735904
_symmetry_Int_Tables_number   1
_chemical_formula_structural   Cr5Sb3O16
_chemical_formula_sum   'Cr5 Sb3 O16'
_cell_volume   289.97255765
_cell_formula_units_Z   1
loop_
 _symmetry_equiv_pos_site_id
 _symmetry_equiv_pos_as_xyz
  1  'x, y, z'
loop_
 _atom_site_type_symbol
 _atom_site_label
 _atom_site_symmetry_multiplicity
 _atom_site_fract_x
 _atom_site_fract_y
 _atom_site_fract_z
 _atom_site_occupancy
  Cr  Cr0  1  0.16655121  0.83387579  0.20619308  1
  Cr  Cr1  1  0.31805779  0.65898948  0.48368227  1
  Cr  Cr2  1  0.16667533  0.33277578  0.20618112  1
  Cr  Cr3  1  0.33826365  0.16914440  0.70943979  1
  Cr  Cr4  1  0.66063358  0.33032444  0.99032869  1
  Sb  Sb5  1  0.66320688  0.83164719  0.21118938  1
  Sb  Sb6  1  0.83548476  0.66634788  0.71133794  1
  Sb  Sb7  1  0.83546496  0.16916367  0.71134609  1
  O  O8  1  0.16033398  0.82862695  0.60336712  1
  O  O9  1  0.05903721  0.52946455  0.32888383  1
  O  O10  1  0.33612453  0.66806336  0.09544749  1
  O  O11  1  0.00068110  0.00033090  0.31279077  1
  O  O12  1  0.00158237  0.00080880  0.82183911  1
  O  O13  1  0.16031114  0.33170708  0.60337341  1
  O  O14  1  0.46801840  0.94851694  0.34058311  1
  O  O15  1  0.46803422  0.51942974  0.34055961  1
  O  O16  1  0.33852015  0.16930186  0.11192781  1
  O  O17  1  0.66555115  0.83278907  0.60161075  1
  O  O18  1  0.52667301  0.47840706  0.83897901  1
  O  O19  1  0.52667608  0.04830413  0.83899582  1
  O  O20  1  0.67234553  0.33619508  0.59308695  1
  O  O21  1  0.83657065  0.66500979  0.10432072  1
  O  O22  1  0.95853242  0.47928467  0.84591009  1
  O  O23  1  0.83666989  0.17169139  0.10434606  1
