# generated using pymatgen
data_La2Th8O19
_symmetry_space_group_name_H-M   'P 1'
_cell_length_a   4.08125245
_cell_length_b   39.41435959
_cell_length_c   37.72099809
_cell_angle_alpha   5.07255944
_cell_angle_beta   57.24878110
_cell_angle_gamma   58.81856910
_symmetry_Int_Tables_number   1
_chemical_formula_structural   La2Th8O19
_chemical_formula_sum   'La2 Th8 O19'
_cell_volume   432.62138741
_cell_formula_units_Z   1
loop_
 _symmetry_equiv_pos_site_id
 _symmetry_equiv_pos_as_xyz
  1  'x, y, z'
loop_
 _atom_site_type_symbol
 _atom_site_label
 _atom_site_symmetry_multiplicity
 _atom_site_fract_x
 _atom_site_fract_y
 _atom_site_fract_z
 _atom_site_occupancy
  La  La0  1  0.02437573  0.01950106  0.97562461  1
  La  La1  1  0.97249985  0.07797821  0.02752476  1
  Th  Th2  1  0.99295091  0.19436734  0.00704023  1
  Th  Th3  1  -0.00229139  0.29818053  0.00227548  1
  Th  Th4  1  -0.00248743  0.39800419  0.00249405  1
  Th  Th5  1  -0.00250869  0.49799443  0.00250614  1
  Th  Th6  1  0.99729988  0.59785199  0.00268637  1
  Th  Th7  1  0.99696421  0.69756601  0.00304203  1
  Th  Th8  1  0.99770518  0.79817722  0.00227972  1
  Th  Th9  1  -0.00442472  0.89646735  0.00441833  1
  O  O10  1  0.24793419  -0.00166441  0.25207899  1
  O  O11  1  0.24443460  0.09556013  0.25554865  1
  O  O12  1  0.24533733  0.19625457  0.25468118  1
  O  O13  1  0.24501275  0.29603274  0.25495712  1
  O  O14  1  0.24451672  0.39561297  0.25548543  1
  O  O15  1  0.24586051  0.49669918  0.25412756  1
  O  O16  1  0.24088295  0.59273050  0.25908872  1
  O  O17  1  0.25890040  0.70710708  0.24112006  1
  O  O18  1  0.75964351  0.10773333  0.74033593  1
  O  O19  1  0.74781863  0.19826079  0.75217764  1
  O  O20  1  0.76498029  0.31198570  0.73501634  1
  O  O21  1  0.23070517  0.88453829  0.26932519  1
  O  O22  1  0.76698579  0.41357641  0.73302615  1
  O  O23  1  0.75117381  0.50092790  0.74883604  1
  O  O24  1  0.75855268  0.60684466  0.74144414  1
  O  O25  1  0.75700665  0.70558696  0.74301628  1
  O  O26  1  0.75710487  0.80568458  0.74289160  1
  O  O27  1  0.75710674  0.90567689  0.74290638  1
  O  O28  1  0.75595890  0.00476339  0.74404485  1
