# generated using pymatgen
data_KCuIO6
_symmetry_space_group_name_H-M   'P 1'
_cell_length_a   5.15450105
_cell_length_b   5.15450103
_cell_length_c   6.19822123
_cell_angle_alpha   90.00000000
_cell_angle_beta   90.00000000
_cell_angle_gamma   120.00000684
_symmetry_Int_Tables_number   1
_chemical_formula_structural   KCuIO6
_chemical_formula_sum   'K1 Cu1 I1 O6'
_cell_volume   142.61688233
_cell_formula_units_Z   1
loop_
 _symmetry_equiv_pos_site_id
 _symmetry_equiv_pos_as_xyz
  1  'x, y, z'
loop_
 _atom_site_type_symbol
 _atom_site_label
 _atom_site_symmetry_multiplicity
 _atom_site_fract_x
 _atom_site_fract_y
 _atom_site_fract_z
 _atom_site_occupancy
  K  K0  1  0.00000000  0.00000000  0.00003621  1
  Cu  Cu1  1  0.33333300  0.66666700  0.49999894  1
  I  I2  1  0.66666700  0.33333300  0.50001200  1
  O  O3  1  0.38543378  0.00964844  0.67558305  1
  O  O4  1  0.99035156  0.37578535  0.67558305  1
  O  O5  1  0.62421465  0.61456622  0.67558305  1
  O  O6  1  0.99034568  0.61454302  0.32440190  1
  O  O7  1  0.62419734  0.00965432  0.32440190  1
  O  O8  1  0.38545698  0.37580266  0.32440190  1
