# generated using pymatgen
data_K6ZnSe4
_symmetry_space_group_name_H-M   'P 1'
_cell_length_a   7.98102123
_cell_length_b   10.30114830
_cell_length_c   10.30108060
_cell_angle_alpha   120.00001059
_cell_angle_beta   89.99985267
_cell_angle_gamma   89.99999549
_symmetry_Int_Tables_number   1
_chemical_formula_structural   K6ZnSe4
_chemical_formula_sum   'K12 Zn2 Se8'
_cell_volume   733.42798331
_cell_formula_units_Z   2
loop_
 _symmetry_equiv_pos_site_id
 _symmetry_equiv_pos_as_xyz
  1  'x, y, z'
loop_
 _atom_site_type_symbol
 _atom_site_label
 _atom_site_symmetry_multiplicity
 _atom_site_fract_x
 _atom_site_fract_y
 _atom_site_fract_z
 _atom_site_occupancy
  K  K0  1  0.95323633  0.14704251  0.85296089  1
  K  K1  1  0.95324180  0.70590879  0.85295631  1
  K  K2  1  0.95324003  0.14704657  0.29409832  1
  K  K3  1  0.45323977  0.85295639  0.14704722  1
  K  K4  1  0.45324038  0.29409148  0.14704939  1
  K  K5  1  0.45323978  0.85295140  0.70591001  1
  K  K6  1  0.13449336  0.52692155  0.47308184  1
  K  K7  1  0.13449061  0.94615658  0.47307684  1
  K  K8  1  0.13448807  0.52692494  0.05384720  1
  K  K9  1  0.63449091  0.47307692  0.52692561  1
  K  K10  1  0.63449242  0.05384467  0.52692111  1
  K  K11  1  0.63449116  0.47308064  0.94616197  1
  Zn  Zn12  1  0.24972732  0.33333318  0.66670170  1
  Zn  Zn13  1  0.74973065  0.66666625  0.33333417  1
  Se  Se14  1  0.92918152  0.33333106  0.66669967  1
  Se  Se15  1  0.42918048  0.66666695  0.33333381  1
  Se  Se16  1  0.34940377  0.19670178  0.80330216  1
  Se  Se17  1  0.34939922  0.60659056  0.80329755  1
  Se  Se18  1  0.34939509  0.19670808  0.39342005  1
  Se  Se19  1  0.84939906  0.80329620  0.19670718  1
  Se  Se20  1  0.84939922  0.39341030  0.19670830  1
  Se  Se21  1  0.84939905  0.80329320  0.60659071  1
