# generated using pymatgen
data_Rb5NdHf(MoO4)6
_symmetry_space_group_name_H-M   'P 1'
_cell_length_a   14.74979365
_cell_length_b   14.74979383
_cell_length_c   14.74979389
_cell_angle_alpha   43.98461917
_cell_angle_beta   43.98461842
_cell_angle_gamma   43.98461951
_symmetry_Int_Tables_number   1
_chemical_formula_structural   Rb5NdHf(MoO4)6
_chemical_formula_sum   'Rb10 Nd2 Hf2 Mo12 O48'
_cell_volume   1405.59639815
_cell_formula_units_Z   2
loop_
 _symmetry_equiv_pos_site_id
 _symmetry_equiv_pos_as_xyz
  1  'x, y, z'
loop_
 _atom_site_type_symbol
 _atom_site_label
 _atom_site_symmetry_multiplicity
 _atom_site_fract_x
 _atom_site_fract_y
 _atom_site_fract_z
 _atom_site_occupancy
  Rb  Rb0  1  0.64657993  0.64657993  0.64657993  1
  Rb  Rb1  1  0.36115385  0.13884615  0.75000000  1
  Rb  Rb2  1  0.75000000  0.36115385  0.13884615  1
  Rb  Rb3  1  0.13884615  0.75000000  0.36115385  1
  Rb  Rb4  1  0.85342007  0.85342007  0.85342007  1
  Rb  Rb5  1  0.14657993  0.14657993  0.14657993  1
  Rb  Rb6  1  0.86115385  0.25000000  0.63884615  1
  Rb  Rb7  1  0.25000000  0.63884615  0.86115385  1
  Rb  Rb8  1  0.63884615  0.86115385  0.25000000  1
  Rb  Rb9  1  0.35342007  0.35342007  0.35342007  1
  Nd  Nd10  1  -0.00000000  -0.00000000  0.00000000  1
  Nd  Nd11  1  0.50000000  0.50000000  0.50000000  1
  Hf  Hf12  1  0.25000000  0.25000000  0.25000000  1
  Hf  Hf13  1  0.75000000  0.75000000  0.75000000  1
  Mo  Mo14  1  0.23966141  0.89057708  0.47204198  1
  Mo  Mo15  1  0.47204198  0.23966141  0.89057708  1
  Mo  Mo16  1  0.89057708  0.47204198  0.23966141  1
  Mo  Mo17  1  0.60942292  0.26033859  0.02795802  1
  Mo  Mo18  1  0.02795802  0.60942292  0.26033859  1
  Mo  Mo19  1  0.73966141  0.97204198  0.39057708  1
  Mo  Mo20  1  0.26033859  0.02795802  0.60942292  1
  Mo  Mo21  1  0.97204198  0.39057708  0.73966141  1
  Mo  Mo22  1  0.39057708  0.73966141  0.97204198  1
  Mo  Mo23  1  0.10942292  0.52795802  0.76033859  1
  Mo  Mo24  1  0.52795802  0.76033859  0.10942292  1
  Mo  Mo25  1  0.76033859  0.10942292  0.52795802  1
  O  O26  1  0.16125207  0.88389152  0.42806843  1
  O  O27  1  0.42806843  0.16125207  0.88389152  1
  O  O28  1  0.11467815  0.91160995  0.63410974  1
  O  O29  1  0.39278911  0.71928178  0.49911811  1
  O  O30  1  0.29590960  0.04258316  0.32026387  1
  O  O31  1  0.32026387  0.29590960  0.04258316  1
  O  O32  1  0.49911811  0.39278911  0.71928178  1
  O  O33  1  0.88389152  0.42806843  0.16125207  1
  O  O34  1  0.71928178  0.49911811  0.39278911  1
  O  O35  1  0.63410974  0.11467815  0.91160995  1
  O  O36  1  0.91160995  0.63410974  0.11467815  1
  O  O37  1  0.04258316  0.32026387  0.29590960  1
  O  O38  1  0.45741684  0.20409040  0.17973613  1
  O  O39  1  0.58839005  0.38532185  0.86589026  1
  O  O40  1  0.86589026  0.58839005  0.38532185  1
  O  O41  1  0.78071822  0.10721089  0.00088189  1
  O  O42  1  0.66125207  0.92806843  0.38389152  1
  O  O43  1  0.61610848  0.33874793  0.07193157  1
  O  O44  1  0.00088189  0.78071822  0.10721089  1
  O  O45  1  0.17973613  0.45741684  0.20409040  1
  O  O46  1  0.20409040  0.17973613  0.45741684  1
  O  O47  1  0.10721089  0.00088189  0.78071822  1
  O  O48  1  0.92806843  0.38389152  0.66125207  1
  O  O49  1  0.38532185  0.86589026  0.58839005  1
  O  O50  1  0.61467815  0.13410974  0.41160995  1
  O  O51  1  0.07193157  0.61610848  0.33874793  1
  O  O52  1  0.89278911  0.99911811  0.21928178  1
  O  O53  1  0.79590960  0.82026387  0.54258316  1
  O  O54  1  0.82026387  0.54258316  0.79590960  1
  O  O55  1  0.99911811  0.21928178  0.89278911  1
  O  O56  1  0.38389152  0.66125207  0.92806843  1
  O  O57  1  0.33874793  0.07193157  0.61610848  1
  O  O58  1  0.21928178  0.89278911  0.99911811  1
  O  O59  1  0.13410974  0.41160995  0.61467815  1
  O  O60  1  0.41160995  0.61467815  0.13410974  1
  O  O61  1  0.54258316  0.79590960  0.82026387  1
  O  O62  1  0.95741684  0.67973613  0.70409040  1
  O  O63  1  0.08839005  0.36589026  0.88532185  1
  O  O64  1  0.36589026  0.88532185  0.08839005  1
  O  O65  1  0.28071822  0.50088189  0.60721089  1
  O  O66  1  0.11610848  0.57193157  0.83874793  1
  O  O67  1  0.50088189  0.60721089  0.28071822  1
  O  O68  1  0.67973613  0.70409040  0.95741684  1
  O  O69  1  0.70409040  0.95741684  0.67973613  1
  O  O70  1  0.60721089  0.28071822  0.50088189  1
  O  O71  1  0.88532185  0.08839005  0.36589026  1
  O  O72  1  0.57193157  0.83874793  0.11610848  1
  O  O73  1  0.83874793  0.11610848  0.57193157  1
