# generated using pymatgen
data_Na2Al2Si3(HO3)4
_symmetry_space_group_name_H-M   'P 1'
_cell_length_a   6.65130878
_cell_length_b   9.86491468
_cell_length_c   10.00562015
_cell_angle_alpha   83.56642266
_cell_angle_beta   70.58678716
_cell_angle_gamma   70.29852912
_symmetry_Int_Tables_number   1
_chemical_formula_structural   Na2Al2Si3(HO3)4
_chemical_formula_sum   'Na4 Al4 Si6 H8 O24'
_cell_volume   582.94306862
_cell_formula_units_Z   2
loop_
 _symmetry_equiv_pos_site_id
 _symmetry_equiv_pos_as_xyz
  1  'x, y, z'
loop_
 _atom_site_type_symbol
 _atom_site_label
 _atom_site_symmetry_multiplicity
 _atom_site_fract_x
 _atom_site_fract_y
 _atom_site_fract_z
 _atom_site_occupancy
  Na  Na0  1  0.17964238  0.93935461  0.43699762  1
  Na  Na1  1  0.55599461  0.06064539  0.56300238  1
  Na  Na2  1  0.86899699  0.56064539  0.93699762  1
  Na  Na3  1  0.36664000  0.43935461  0.06300238  1
  Al  Al4  1  0.42057982  0.57677991  0.31390460  1
  Al  Al5  1  0.31126433  0.42322009  0.68609540  1
  Al  Al6  1  0.74735973  0.92322009  0.81390460  1
  Al  Al7  1  0.48448442  0.07677991  0.18609540  1
  Si  Si8  1  0.75054591  0.50000000  0.50000000  1
  Si  Si9  1  0.00054591  -0.00000000  -0.00000000  1
  Si  Si10  1  0.43014255  0.80834764  0.07911611  1
  Si  Si11  1  0.31760630  0.19165236  0.92088389  1
  Si  Si12  1  0.98849019  0.69165236  0.57911611  1
  Si  Si13  1  0.25925866  0.30834764  0.42088389  1
  H  H14  1  0.88185669  0.60334734  0.21004399  1
  H  H15  1  0.69524801  0.39665266  0.78995601  1
  H  H16  1  0.23520403  0.89665266  0.71004399  1
  H  H17  1  0.84190068  0.10334734  0.28995601  1
  H  H18  1  0.01973840  0.70511571  0.11920956  1
  H  H19  1  0.84406368  0.29488429  0.88079044  1
  H  H20  1  0.47485412  0.79488429  0.61920956  1
  H  H21  1  0.88894797  0.20511571  0.38079044  1
  O  O22  1  0.66341188  0.54667215  0.36258007  1
  O  O23  1  0.57266410  0.45332785  0.63741993  1
  O  O24  1  0.96008403  0.95332785  0.86258007  1
  O  O25  1  0.77599196  0.04667215  0.13741993  1
  O  O26  1  0.46883924  0.64374993  0.13935352  1
  O  O27  1  0.25194269  0.35625007  0.86064648  1
  O  O28  1  0.86258917  0.85625007  0.63935352  1
  O  O29  1  0.35819276  0.14374993  0.36064648  1
  O  O30  1  0.18589317  0.69797740  0.43157825  1
  O  O31  1  0.31544883  0.30202260  0.56842175  1
  O  O32  1  0.63387057  0.80202260  0.93157825  1
  O  O33  1  0.36747142  0.19797740  0.06842175  1
  O  O34  1  0.42066384  0.91562378  0.19543056  1
  O  O35  1  0.53171818  0.08437622  0.80456944  1
  O  O36  1  0.08628762  0.58437622  0.69543056  1
  O  O37  1  0.36609440  0.41562378  0.30456944  1
  O  O38  1  0.18631612  0.86083303  0.04630549  1
  O  O39  1  0.09345464  0.13916697  0.95369451  1
  O  O40  1  0.79714915  0.63916697  0.54630549  1
  O  O41  1  0.98262161  0.36083303  0.45369451  1
  O  O42  1  0.99678107  0.61178427  0.11941821  1
  O  O43  1  0.72798356  0.38821573  0.88058179  1
  O  O44  1  0.35856535  0.88821573  0.61941821  1
  O  O45  1  0.86619928  0.11178427  0.38058179  1
