# generated using pymatgen
data_GeH4
_symmetry_space_group_name_H-M   'P 1'
_cell_length_a   7.90887618
_cell_length_b   8.73282127
_cell_length_c   4.84417511
_cell_angle_alpha   90.00000000
_cell_angle_beta   90.00000000
_cell_angle_gamma   90.00000000
_symmetry_Int_Tables_number   1
_chemical_formula_structural   GeH4
_chemical_formula_sum   'Ge4 H16'
_cell_volume   334.57168379
_cell_formula_units_Z   4
loop_
 _symmetry_equiv_pos_site_id
 _symmetry_equiv_pos_as_xyz
  1  'x, y, z'
loop_
 _atom_site_type_symbol
 _atom_site_label
 _atom_site_symmetry_multiplicity
 _atom_site_fract_x
 _atom_site_fract_y
 _atom_site_fract_z
 _atom_site_occupancy
  Ge  Ge0  1  0.50843795  0.85614161  0.14860917  1
  Ge  Ge1  1  0.99156205  0.14385839  0.64860917  1
  Ge  Ge2  1  0.00843795  0.64385839  0.85139083  1
  Ge  Ge3  1  0.49156205  0.35614161  0.35139083  1
  H  H4  1  0.37483681  0.82326451  0.36953982  1
  H  H5  1  0.12516319  0.17673549  0.86953982  1
  H  H6  1  0.87483681  0.67673549  0.63046018  1
  H  H7  1  0.62516319  0.32326451  0.13046018  1
  H  H8  1  0.67310616  0.90281535  0.29150422  1
  H  H9  1  0.82689384  0.09718465  0.79150422  1
  H  H10  1  0.17310616  0.59718465  0.70849578  1
  H  H11  1  0.32689384  0.40281535  0.20849578  1
  H  H12  1  0.53796273  0.71093999  0.97725119  1
  H  H13  1  0.96203727  0.28906001  0.47725119  1
  H  H14  1  0.03796273  0.78906001  0.02274881  1
  H  H15  1  0.46203727  0.21093999  0.52274881  1
  H  H16  1  0.45144630  0.98641018  0.95818071  1
  H  H17  1  0.04855370  0.01358982  0.45818071  1
  H  H18  1  0.95144630  0.51358982  0.04181929  1
  H  H19  1  0.54855370  0.48641018  0.54181929  1
