# generated using pymatgen
data_Li4MnV3O8
_symmetry_space_group_name_H-M   'P 1'
_cell_length_a   5.72403503
_cell_length_b   6.58227726
_cell_length_c   5.09919937
_cell_angle_alpha   90.07466635
_cell_angle_beta   89.99949232
_cell_angle_gamma   89.16411452
_symmetry_Int_Tables_number   1
_chemical_formula_structural   Li4MnV3O8
_chemical_formula_sum   'Li4 Mn1 V3 O8'
_cell_volume   192.10287257
_cell_formula_units_Z   1
loop_
 _symmetry_equiv_pos_site_id
 _symmetry_equiv_pos_as_xyz
  1  'x, y, z'
loop_
 _atom_site_type_symbol
 _atom_site_label
 _atom_site_symmetry_multiplicity
 _atom_site_fract_x
 _atom_site_fract_y
 _atom_site_fract_z
 _atom_site_occupancy
  Li  Li0  1  0.07973706  0.62375563  0.99116259  1
  Li  Li1  1  0.40941841  0.12695159  0.49398054  1
  Li  Li2  1  0.58471740  0.87862756  0.98968559  1
  Li  Li3  1  0.92273933  0.37256777  0.49659143  1
  Mn  Mn4  1  0.91443881  0.87429734  0.49731072  1
  V  V5  1  0.08423228  0.12405310  0.00165365  1
  V  V6  1  0.40993560  0.63114158  0.48989066  1
  V  V7  1  0.58770014  0.37143734  0.99109754  1
  O  O8  1  0.08232744  0.12699192  0.37643163  1
  O  O9  1  0.11074909  0.61406168  0.39274843  1
  O  O10  1  0.41322381  0.13850961  0.88990792  1
  O  O11  1  0.42759600  0.61620835  0.85791592  1
  O  O12  1  0.57320658  0.39661970  0.37659716  1
  O  O13  1  0.56672213  0.85365985  0.39128752  1
  O  O14  1  0.90886873  0.36812014  0.88955517  1
  O  O15  1  0.92438716  0.88299484  0.90058254  1
