# generated using pymatgen
data_Sm5Pb3
_symmetry_space_group_name_H-M   'P 1'
_cell_length_a   9.26075238
_cell_length_b   9.26075275
_cell_length_c   6.80664270
_cell_angle_alpha   90.00000000
_cell_angle_beta   90.00000000
_cell_angle_gamma   119.99221323
_symmetry_Int_Tables_number   1
_chemical_formula_structural   Sm5Pb3
_chemical_formula_sum   'Sm10 Pb6'
_cell_volume   505.58038715
_cell_formula_units_Z   2
loop_
 _symmetry_equiv_pos_site_id
 _symmetry_equiv_pos_as_xyz
  1  'x, y, z'
loop_
 _atom_site_type_symbol
 _atom_site_label
 _atom_site_symmetry_multiplicity
 _atom_site_fract_x
 _atom_site_fract_y
 _atom_site_fract_z
 _atom_site_occupancy
  Sm  Sm0  1  0.66667766  0.33339234  0.50000010  1
  Sm  Sm1  1  0.33339234  0.66667766  0.50000010  1
  Sm  Sm2  1  0.33332234  0.66660766  0.00000010  1
  Sm  Sm3  1  0.66660766  0.33332234  0.00000010  1
  Sm  Sm4  1  0.76052808  0.76052808  0.24999715  1
  Sm  Sm5  1  0.23944827  0.99999596  0.25000116  1
  Sm  Sm6  1  0.99999596  0.23944827  0.25000116  1
  Sm  Sm7  1  0.23947192  0.23947192  0.74999715  1
  Sm  Sm8  1  0.76055173  0.00000404  0.75000116  1
  Sm  Sm9  1  0.00000404  0.76055173  0.75000116  1
  Pb  Pb10  1  0.39451411  0.39451411  0.25000534  1
  Pb  Pb11  1  0.60549646  0.00005316  0.24999749  1
  Pb  Pb12  1  0.00005316  0.60549646  0.24999749  1
  Pb  Pb13  1  0.60548589  0.60548589  0.75000534  1
  Pb  Pb14  1  0.39450354  0.99994684  0.74999749  1
  Pb  Pb15  1  0.99994684  0.39450354  0.74999749  1
