# generated using pymatgen
data_NF2
_symmetry_space_group_name_H-M   'P 1'
_cell_length_a   8.44712586
_cell_length_b   8.01923823
_cell_length_c   3.37951076
_cell_angle_alpha   102.03677789
_cell_angle_beta   78.36807044
_cell_angle_gamma   86.30618962
_symmetry_Int_Tables_number   1
_chemical_formula_structural   NF2
_chemical_formula_sum   'N4 F8'
_cell_volume   217.93638142
_cell_formula_units_Z   4
loop_
 _symmetry_equiv_pos_site_id
 _symmetry_equiv_pos_as_xyz
  1  'x, y, z'
loop_
 _atom_site_type_symbol
 _atom_site_label
 _atom_site_symmetry_multiplicity
 _atom_site_fract_x
 _atom_site_fract_y
 _atom_site_fract_z
 _atom_site_occupancy
  N  N0  1  0.80156321  0.28598898  0.60207766  1
  N  N1  1  0.73119667  0.80583892  0.59258140  1
  N  N2  1  0.19415744  0.71627158  0.40011663  1
  N  N3  1  0.26902680  0.19462026  0.41763740  1
  F  F4  1  0.72430618  0.44544865  0.82456590  1
  F  F5  1  0.73772051  0.96082048  0.85797002  1
  F  F6  1  0.27963526  0.56381179  0.15647538  1
  F  F7  1  0.25944396  0.04153265  0.14862131  1
  F  F8  1  0.94547868  0.32434618  0.37882957  1
  F  F9  1  0.05646820  0.66382554  0.61779863  1
  F  F10  1  0.43422746  0.19560083  0.39877693  1
  F  F11  1  0.56677663  0.80189414  0.60455017  1
