# generated using pymatgen
data_NiH12(ClO6)2
_symmetry_space_group_name_H-M   'P 1'
_cell_length_a   10.64069379
_cell_length_b   10.64069379
_cell_length_c   10.64069379
_cell_angle_alpha   90.00000000
_cell_angle_beta   90.00000000
_cell_angle_gamma   90.00000000
_symmetry_Int_Tables_number   1
_chemical_formula_structural   NiH12(ClO6)2
_chemical_formula_sum   'Ni4 H48 Cl8 O48'
_cell_volume   1204.78579043
_cell_formula_units_Z   4
loop_
 _symmetry_equiv_pos_site_id
 _symmetry_equiv_pos_as_xyz
  1  'x, y, z'
loop_
 _atom_site_type_symbol
 _atom_site_label
 _atom_site_symmetry_multiplicity
 _atom_site_fract_x
 _atom_site_fract_y
 _atom_site_fract_z
 _atom_site_occupancy
  Ni  Ni0  1  0.50000000  0.50000000  -0.00000000  1
  Ni  Ni1  1  0.50000000  -0.00000000  0.50000000  1
  Ni  Ni2  1  0.00000000  0.50000000  0.50000000  1
  Ni  Ni3  1  0.00000000  -0.00000000  -0.00000000  1
  H  H4  1  0.26037902  0.56312561  0.04367715  1
  H  H5  1  0.73962098  0.06312561  0.45632285  1
  H  H6  1  0.23962098  0.43687439  0.54367715  1
  H  H7  1  0.76037902  0.93687439  0.95632285  1
  H  H8  1  0.04367715  0.26037902  0.56312561  1
  H  H9  1  0.45632285  0.73962098  0.06312561  1
  H  H10  1  0.54367715  0.23962098  0.43687439  1
  H  H11  1  0.95632285  0.76037902  0.93687439  1
  H  H12  1  0.56312561  0.04367715  0.26037902  1
  H  H13  1  0.06312561  0.45632285  0.73962098  1
  H  H14  1  0.43687439  0.54367715  0.23962098  1
  H  H15  1  0.93687439  0.95632285  0.76037902  1
  H  H16  1  0.73962098  0.43687439  0.95632285  1
  H  H17  1  0.26037902  0.93687439  0.54367715  1
  H  H18  1  0.76037902  0.56312561  0.45632285  1
  H  H19  1  0.23962098  0.06312561  0.04367715  1
  H  H20  1  0.95632285  0.73962098  0.43687439  1
  H  H21  1  0.54367715  0.26037902  0.93687439  1
  H  H22  1  0.45632285  0.76037902  0.56312561  1
  H  H23  1  0.04367715  0.23962098  0.06312561  1
  H  H24  1  0.43687439  0.95632285  0.73962098  1
  H  H25  1  0.93687439  0.54367715  0.26037902  1
  H  H26  1  0.56312561  0.45632285  0.76037902  1
  H  H27  1  0.06312561  0.04367715  0.23962098  1
  H  H28  1  0.26447210  0.45329834  0.94120390  1
  H  H29  1  0.73552790  0.95329834  0.55879610  1
  H  H30  1  0.23552790  0.54670166  0.44120390  1
  H  H31  1  0.76447210  0.04670166  0.05879610  1
  H  H32  1  0.94120390  0.26447210  0.45329834  1
  H  H33  1  0.55879610  0.73552790  0.95329834  1
  H  H34  1  0.44120390  0.23552790  0.54670166  1
  H  H35  1  0.05879610  0.76447210  0.04670166  1
  H  H36  1  0.45329834  0.94120390  0.26447210  1
  H  H37  1  0.95329834  0.55879610  0.73552790  1
  H  H38  1  0.54670166  0.44120390  0.23552790  1
  H  H39  1  0.04670166  0.05879610  0.76447210  1
  H  H40  1  0.73552790  0.54670166  0.05879610  1
  H  H41  1  0.26447210  0.04670166  0.44120390  1
  H  H42  1  0.76447210  0.45329834  0.55879610  1
  H  H43  1  0.23552790  0.95329834  0.94120390  1
  H  H44  1  0.05879610  0.73552790  0.54670166  1
  H  H45  1  0.44120390  0.26447210  0.04670166  1
  H  H46  1  0.55879610  0.76447210  0.45329834  1
  H  H47  1  0.94120390  0.23552790  0.95329834  1
  H  H48  1  0.54670166  0.05879610  0.73552790  1
  H  H49  1  0.04670166  0.44120390  0.26447210  1
  H  H50  1  0.45329834  0.55879610  0.76447210  1
  H  H51  1  0.95329834  0.94120390  0.23552790  1
  Cl  Cl52  1  0.25281847  0.74718153  0.24718153  1
  Cl  Cl53  1  0.74718153  0.24718153  0.25281847  1
  Cl  Cl54  1  0.24718153  0.25281847  0.74718153  1
  Cl  Cl55  1  0.75281847  0.75281847  0.75281847  1
  Cl  Cl56  1  0.74718153  0.25281847  0.75281847  1
  Cl  Cl57  1  0.25281847  0.75281847  0.74718153  1
  Cl  Cl58  1  0.75281847  0.74718153  0.25281847  1
  Cl  Cl59  1  0.24718153  0.24718153  0.24718153  1
  O  O60  1  0.34742030  0.67687383  0.67302360  1
  O  O61  1  0.65257970  0.17687383  0.82697640  1
  O  O62  1  0.15257970  0.32312617  0.17302360  1
  O  O63  1  0.84742030  0.82312617  0.32697640  1
  O  O64  1  0.67302360  0.34742030  0.67687383  1
  O  O65  1  0.82697640  0.65257970  0.17687383  1
  O  O66  1  0.17302360  0.15257970  0.32312617  1
  O  O67  1  0.32697640  0.84742030  0.82312617  1
  O  O68  1  0.67687383  0.67302360  0.34742030  1
  O  O69  1  0.17687383  0.82697640  0.65257970  1
  O  O70  1  0.32312617  0.17302360  0.15257970  1
  O  O71  1  0.82312617  0.32697640  0.84742030  1
  O  O72  1  0.65257970  0.32312617  0.32697640  1
  O  O73  1  0.34742030  0.82312617  0.17302360  1
  O  O74  1  0.84742030  0.67687383  0.82697640  1
  O  O75  1  0.15257970  0.17687383  0.67302360  1
  O  O76  1  0.32697640  0.65257970  0.32312617  1
  O  O77  1  0.17302360  0.34742030  0.82312617  1
  O  O78  1  0.82697640  0.84742030  0.67687383  1
  O  O79  1  0.67302360  0.15257970  0.17687383  1
  O  O80  1  0.32312617  0.32697640  0.65257970  1
  O  O81  1  0.82312617  0.17302360  0.34742030  1
  O  O82  1  0.67687383  0.82697640  0.84742030  1
  O  O83  1  0.17687383  0.67302360  0.15257970  1
  O  O84  1  0.30891124  0.52816437  0.97215960  1
  O  O85  1  0.69108876  0.02816437  0.52784040  1
  O  O86  1  0.19108876  0.47183563  0.47215960  1
  O  O87  1  0.80891124  0.97183563  0.02784040  1
  O  O88  1  0.97215960  0.30891124  0.52816437  1
  O  O89  1  0.52784040  0.69108876  0.02816437  1
  O  O90  1  0.47215960  0.19108876  0.47183563  1
  O  O91  1  0.02784040  0.80891124  0.97183563  1
  O  O92  1  0.52816437  0.97215960  0.30891124  1
  O  O93  1  0.02816437  0.52784040  0.69108876  1
  O  O94  1  0.47183563  0.47215960  0.19108876  1
  O  O95  1  0.97183563  0.02784040  0.80891124  1
  O  O96  1  0.69108876  0.47183563  0.02784040  1
  O  O97  1  0.30891124  0.97183563  0.47215960  1
  O  O98  1  0.80891124  0.52816437  0.52784040  1
  O  O99  1  0.19108876  0.02816437  0.97215960  1
  O  O100  1  0.02784040  0.69108876  0.47183563  1
  O  O101  1  0.47215960  0.30891124  0.97183563  1
  O  O102  1  0.52784040  0.80891124  0.52816437  1
  O  O103  1  0.97215960  0.19108876  0.02816437  1
  O  O104  1  0.47183563  0.02784040  0.69108876  1
  O  O105  1  0.97183563  0.47215960  0.30891124  1
  O  O106  1  0.52816437  0.52784040  0.80891124  1
  O  O107  1  0.02816437  0.97215960  0.19108876  1
