# generated using pymatgen
data_FeO
_symmetry_space_group_name_H-M   'P 1'
_cell_length_a   3.16648732
_cell_length_b   3.11078736
_cell_length_c   6.19264626
_cell_angle_alpha   60.08497836
_cell_angle_beta   59.24753084
_cell_angle_gamma   59.40592017
_symmetry_Int_Tables_number   1
_chemical_formula_structural   FeO
_chemical_formula_sum   'Fe2 O2'
_cell_volume   42.71541095
_cell_formula_units_Z   2
loop_
 _symmetry_equiv_pos_site_id
 _symmetry_equiv_pos_as_xyz
  1  'x, y, z'
loop_
 _atom_site_type_symbol
 _atom_site_label
 _atom_site_symmetry_multiplicity
 _atom_site_fract_x
 _atom_site_fract_y
 _atom_site_fract_z
 _atom_site_occupancy
  Fe  Fe0  1  -0.00000000  0.00000000  -0.00000000  1
  Fe  Fe1  1  -0.00000000  0.00000000  0.50000000  1
  O  O2  1  0.51895443  0.45710841  0.25249137  1
  O  O3  1  0.48104557  0.54289159  0.74750863  1
