# generated using pymatgen
data_Gd(CoB)4
_symmetry_space_group_name_H-M   'P 1'
_cell_length_a   5.01623193
_cell_length_b   5.01623193
_cell_length_c   6.99858682
_cell_angle_alpha   90.00000000
_cell_angle_beta   90.00000000
_cell_angle_gamma   90.00000000
_symmetry_Int_Tables_number   1
_chemical_formula_structural   Gd(CoB)4
_chemical_formula_sum   'Gd2 Co8 B8'
_cell_volume   176.10252017
_cell_formula_units_Z   2
loop_
 _symmetry_equiv_pos_site_id
 _symmetry_equiv_pos_as_xyz
  1  'x, y, z'
loop_
 _atom_site_type_symbol
 _atom_site_label
 _atom_site_symmetry_multiplicity
 _atom_site_fract_x
 _atom_site_fract_y
 _atom_site_fract_z
 _atom_site_occupancy
  Gd  Gd0  1  0.75000000  0.25000000  0.25000000  1
  Gd  Gd1  1  0.25000000  0.75000000  0.75000000  1
  Co  Co2  1  0.00431814  0.75000000  0.11292245  1
  Co  Co3  1  0.49568186  0.75000000  0.11292245  1
  Co  Co4  1  0.75000000  0.00431814  0.61292245  1
  Co  Co5  1  0.75000000  0.49568186  0.61292245  1
  Co  Co6  1  0.99568186  0.25000000  0.88707755  1
  Co  Co7  1  0.50431814  0.25000000  0.88707755  1
  Co  Co8  1  0.25000000  0.99568186  0.38707755  1
  Co  Co9  1  0.25000000  0.50431814  0.38707755  1
  B  B10  1  0.57551213  0.75000000  0.40812427  1
  B  B11  1  0.92448787  0.75000000  0.40812427  1
  B  B12  1  0.75000000  0.57551213  0.90812427  1
  B  B13  1  0.75000000  0.92448787  0.90812427  1
  B  B14  1  0.42448787  0.25000000  0.59187573  1
  B  B15  1  0.07551213  0.25000000  0.59187573  1
  B  B16  1  0.25000000  0.42448787  0.09187573  1
  B  B17  1  0.25000000  0.07551213  0.09187573  1
