# generated using pymatgen
data_BaNdFe2O5
_symmetry_space_group_name_H-M   'P 1'
_cell_length_a   4.03928482
_cell_length_b   7.82288383
_cell_length_c   8.02743574
_cell_angle_alpha   90.00000000
_cell_angle_beta   90.00000000
_cell_angle_gamma   90.00000000
_symmetry_Int_Tables_number   1
_chemical_formula_structural   BaNdFe2O5
_chemical_formula_sum   'Ba2 Nd2 Fe4 O10'
_cell_volume   253.65778522
_cell_formula_units_Z   2
loop_
 _symmetry_equiv_pos_site_id
 _symmetry_equiv_pos_as_xyz
  1  'x, y, z'
loop_
 _atom_site_type_symbol
 _atom_site_label
 _atom_site_symmetry_multiplicity
 _atom_site_fract_x
 _atom_site_fract_y
 _atom_site_fract_z
 _atom_site_occupancy
  Ba  Ba0  1  0.00000000  0.00331224  0.00268390  1
  Ba  Ba1  1  0.00000000  0.99668776  0.50268390  1
  Nd  Nd2  1  0.00000000  0.49832798  0.00256862  1
  Nd  Nd3  1  0.00000000  0.50167202  0.50256862  1
  Fe  Fe4  1  0.50000000  0.25630381  0.25466254  1
  Fe  Fe5  1  0.50000000  0.27255485  0.75161520  1
  Fe  Fe6  1  0.50000000  0.72744515  0.25161520  1
  Fe  Fe7  1  0.50000000  0.74369619  0.75466254  1
  O  O8  1  -0.00000000  0.69395684  0.75363543  1
  O  O9  1  0.50000000  0.30589009  0.00980255  1
  O  O10  1  -0.00000000  0.69185670  0.25275422  1
  O  O11  1  0.00000000  0.30814330  0.75275422  1
  O  O12  1  0.50000000  0.01192658  0.25561380  1
  O  O13  1  0.00000000  0.30604316  0.25363543  1
  O  O14  1  0.50000000  0.68619204  0.99746373  1
  O  O15  1  0.50000000  0.69410991  0.50980255  1
  O  O16  1  0.50000000  0.98807342  0.75561380  1
  O  O17  1  0.50000000  0.31380796  0.49746373  1
