# generated using pymatgen
data_K3V2(S2O9)2
_symmetry_space_group_name_H-M   'P 1'
_cell_length_a   9.18035260
_cell_length_b   10.09792861
_cell_length_c   18.69244093
_cell_angle_alpha   90.00000000
_cell_angle_beta   90.00000000
_cell_angle_gamma   90.02814675
_symmetry_Int_Tables_number   1
_chemical_formula_structural   K3V2(S2O9)2
_chemical_formula_sum   'K12 V8 S16 O72'
_cell_volume   1732.83664044
_cell_formula_units_Z   4
loop_
 _symmetry_equiv_pos_site_id
 _symmetry_equiv_pos_as_xyz
  1  'x, y, z'
loop_
 _atom_site_type_symbol
 _atom_site_label
 _atom_site_symmetry_multiplicity
 _atom_site_fract_x
 _atom_site_fract_y
 _atom_site_fract_z
 _atom_site_occupancy
  K  K0  1  0.91682520  0.14174716  0.61838373  1
  K  K1  1  0.08317480  0.85825284  0.11838373  1
  K  K2  1  0.91942558  0.61925203  0.61448735  1
  K  K3  1  0.08057442  0.38074797  0.11448735  1
  K  K4  1  0.75770848  0.12001475  0.99625962  1
  K  K5  1  0.24229152  0.87998525  0.49625962  1
  K  K6  1  0.74267008  0.63083073  0.00041685  1
  K  K7  1  0.25732992  0.36916927  0.50041685  1
  K  K8  1  0.58480657  0.11056988  0.38135590  1
  K  K9  1  0.41519343  0.88943012  0.88135590  1
  K  K10  1  0.57852928  0.62988161  0.37945382  1
  K  K11  1  0.42147072  0.37011839  0.87945382  1
  V  V12  1  0.04485935  0.12193739  0.81613409  1
  V  V13  1  0.95514065  0.87806261  0.31613409  1
  V  V14  1  0.45720307  0.62863566  0.17890294  1
  V  V15  1  0.54279693  0.37136434  0.67890294  1
  V  V16  1  0.03297191  0.62282331  0.81362945  1
  V  V17  1  0.96702809  0.37717669  0.31362945  1
  V  V18  1  0.46796776  0.13034833  0.18440065  1
  V  V19  1  0.53203224  0.86965167  0.68440065  1
  S  S20  1  0.63169235  0.62468123  0.78790005  1
  S  S21  1  0.36830765  0.37531877  0.28790005  1
  S  S22  1  0.63443191  0.12318599  0.78703393  1
  S  S23  1  0.36556809  0.87681401  0.28703393  1
  S  S24  1  0.13346101  0.87312243  0.70925203  1
  S  S25  1  0.86653899  0.12687757  0.20925203  1
  S  S26  1  0.13479685  0.37796041  0.70848285  1
  S  S27  1  0.86520315  0.62203959  0.20848285  1
  S  S28  1  0.49766817  0.11198675  0.57631952  1
  S  S29  1  0.50233183  0.88801325  0.07631952  1
  S  S30  1  0.49882312  0.62410400  0.57576397  1
  S  S31  1  0.50117688  0.37589600  0.07576397  1
  S  S32  1  0.99899670  0.37388418  0.91932026  1
  S  S33  1  0.00100330  0.62611582  0.41932026  1
  S  S34  1  0.99848650  0.86466717  0.92157564  1
  S  S35  1  0.00151350  0.13533283  0.42157564  1
  O  O36  1  0.21068631  0.11933562  0.84603522  1
  O  O37  1  0.78931369  0.88066438  0.34603522  1
  O  O38  1  0.19600319  0.62164067  0.84447699  1
  O  O39  1  0.80399681  0.37835933  0.34447699  1
  O  O40  1  0.04913284  0.02482763  0.37294876  1
  O  O41  1  0.95086716  0.97517237  0.87294876  1
  O  O42  1  0.05183189  0.52359022  0.36255816  1
  O  O43  1  0.94816811  0.47640978  0.86255816  1
  O  O44  1  0.04701327  0.27240138  0.74502595  1
  O  O45  1  0.95298673  0.72759862  0.24502595  1
  O  O46  1  0.03917659  0.76928097  0.74805952  1
  O  O47  1  0.96082341  0.23071903  0.24805952  1
  O  O48  1  0.94761277  0.24257191  0.88966454  1
  O  O49  1  0.05238723  0.75742809  0.38966454  1
  O  O50  1  0.94191704  0.73669076  0.88473432  1
  O  O51  1  0.05808296  0.26330924  0.38473432  1
  O  O52  1  0.06580388  0.00442093  0.72774845  1
  O  O53  1  0.93419612  0.99557907  0.22774845  1
  O  O54  1  0.06220235  0.51004594  0.72958236  1
  O  O55  1  0.93779765  0.48995406  0.22958236  1
  O  O56  1  0.78485198  0.11350150  0.76205746  1
  O  O57  1  0.21514802  0.88649850  0.26205746  1
  O  O58  1  0.78260116  0.62532347  0.76243576  1
  O  O59  1  0.21739884  0.37467653  0.26243576  1
  O  O60  1  0.69513240  0.86802541  0.65376760  1
  O  O61  1  0.30486760  0.13197459  0.15376760  1
  O  O62  1  0.70879120  0.37090827  0.64903884  1
  O  O63  1  0.29120880  0.62909173  0.14903884  1
  O  O64  1  0.54034833  0.01689994  0.75003421  1
  O  O65  1  0.45965167  0.98310006  0.25003421  1
  O  O66  1  0.54341335  0.52163840  0.75001967  1
  O  O67  1  0.45658665  0.47836160  0.25001967  1
  O  O68  1  0.44781188  0.72537221  0.63319021  1
  O  O69  1  0.55218812  0.27462779  0.13319021  1
  O  O70  1  0.44631947  0.22549149  0.62213688  1
  O  O71  1  0.55368053  0.77450851  0.12213688  1
  O  O72  1  0.44037507  0.98609729  0.61481097  1
  O  O73  1  0.55962493  0.01390271  0.11481097  1
  O  O74  1  0.44877627  0.49211477  0.60473265  1
  O  O75  1  0.55122373  0.50788523  0.10473265  1
  O  O76  1  0.44074638  0.24205870  0.26869053  1
  O  O77  1  0.55925362  0.75794130  0.76869053  1
  O  O78  1  0.43334689  0.74676622  0.26610484  1
  O  O79  1  0.56665311  0.25323378  0.76610484  1
  O  O80  1  0.28312894  0.86439428  0.73588969  1
  O  O81  1  0.71687106  0.13560572  0.23588969  1
  O  O82  1  0.28627313  0.37674868  0.73261743  1
  O  O83  1  0.71372687  0.62325132  0.23261743  1
  O  O84  1  0.61184961  0.60973943  0.86499444  1
  O  O85  1  0.38815039  0.39026057  0.36499444  1
  O  O86  1  0.61248116  0.10603679  0.86386989  1
  O  O87  1  0.38751884  0.89396321  0.36386989  1
  O  O88  1  0.11410244  0.85036664  0.63279353  1
  O  O89  1  0.88589756  0.14963336  0.13279353  1
  O  O90  1  0.11292125  0.36695688  0.63125445  1
  O  O91  1  0.88707875  0.63304312  0.13125445  1
  O  O92  1  0.42050428  0.11640924  0.50774443  1
  O  O93  1  0.57949572  0.88359076  0.00774443  1
  O  O94  1  0.41674759  0.65115082  0.51034604  1
  O  O95  1  0.58325241  0.34884918  0.01034604  1
  O  O96  1  0.65488928  0.10719109  0.56999772  1
  O  O97  1  0.34511072  0.89280891  0.06999772  1
  O  O98  1  0.65542255  0.63124998  0.56722251  1
  O  O99  1  0.34457745  0.36875002  0.06722251  1
  O  O100  1  0.91775614  0.40071623  0.98498532  1
  O  O101  1  0.08224386  0.59928377  0.48498532  1
  O  O102  1  0.91824167  0.87381833  0.98915695  1
  O  O103  1  0.08175833  0.12618167  0.48915695  1
  O  O104  1  0.15578291  0.37927974  0.92746267  1
  O  O105  1  0.84421709  0.62072026  0.42746267  1
  O  O106  1  0.15525325  0.85850558  0.93003842  1
  O  O107  1  0.84474675  0.14149442  0.43003842  1
