# generated using pymatgen
data_AcCu3
_symmetry_space_group_name_H-M   'P 1'
_cell_length_a   6.66412105
_cell_length_b   6.66412141
_cell_length_c   4.27050232
_cell_angle_alpha   90.00000000
_cell_angle_beta   90.00000000
_cell_angle_gamma   120.00000397
_symmetry_Int_Tables_number   1
_chemical_formula_structural   AcCu3
_chemical_formula_sum   'Ac2 Cu6'
_cell_volume   164.24620902
_cell_formula_units_Z   2
loop_
 _symmetry_equiv_pos_site_id
 _symmetry_equiv_pos_as_xyz
  1  'x, y, z'
loop_
 _atom_site_type_symbol
 _atom_site_label
 _atom_site_symmetry_multiplicity
 _atom_site_fract_x
 _atom_site_fract_y
 _atom_site_fract_z
 _atom_site_occupancy
  Ac  Ac0  1  0.33333400  0.66666700  0.75000100  1
  Ac  Ac1  1  0.66666600  0.33333400  0.25000200  1
  Cu  Cu2  1  0.12569036  0.25138173  0.25000200  1
  Cu  Cu3  1  0.74861727  0.87430864  0.25000200  1
  Cu  Cu4  1  0.12569236  0.87430864  0.25000200  1
  Cu  Cu5  1  0.87430764  0.74861727  0.75000100  1
  Cu  Cu6  1  0.25138273  0.12569136  0.75000100  1
  Cu  Cu7  1  0.87430864  0.12569136  0.75000100  1
