# generated using pymatgen
data_Li6Nb3Fe3O16
_symmetry_space_group_name_H-M   'P 1'
_cell_length_a   6.09030459
_cell_length_b   6.14538585
_cell_length_c   10.09495704
_cell_angle_alpha   89.97956476
_cell_angle_beta   90.82215728
_cell_angle_gamma   120.30127512
_symmetry_Int_Tables_number   1
_chemical_formula_structural   Li6Nb3Fe3O16
_chemical_formula_sum   'Li6 Nb3 Fe3 O16'
_cell_volume   326.16569794
_cell_formula_units_Z   1
loop_
 _symmetry_equiv_pos_site_id
 _symmetry_equiv_pos_as_xyz
  1  'x, y, z'
loop_
 _atom_site_type_symbol
 _atom_site_label
 _atom_site_symmetry_multiplicity
 _atom_site_fract_x
 _atom_site_fract_y
 _atom_site_fract_z
 _atom_site_occupancy
  Li  Li0  1  0.31761941  0.65882458  0.49899510  1
  Li  Li1  1  0.34242885  0.67116763  0.88954731  1
  Li  Li2  1  0.01029220  0.00522373  0.00496646  1
  Li  Li3  1  0.01779970  0.00903918  0.50075189  1
  Li  Li4  1  0.67300062  0.33652342  0.00634981  1
  Li  Li5  1  0.66504987  0.33250189  0.37601535  1
  Nb  Nb6  1  0.64323802  0.82163089  0.21905540  1
  Nb  Nb7  1  0.82735003  0.66091239  0.71382988  1
  Nb  Nb8  1  0.82737006  0.16649193  0.71383299  1
  Fe  Fe9  1  0.15754903  0.83184706  0.21714314  1
  Fe  Fe10  1  0.15758591  0.32576045  0.21708207  1
  Fe  Fe11  1  0.32989453  0.16495020  0.72004755  1
  O  O12  1  0.14847538  0.84518589  0.61242918  1
  O  O13  1  0.03799212  0.51892922  0.31050092  1
  O  O14  1  0.36692714  0.68345282  0.09085674  1
  O  O15  1  0.98252415  0.99121514  0.32211380  1
  O  O16  1  0.98800858  0.99396538  0.82294559  1
  O  O17  1  0.14852714  0.30347463  0.61242191  1
  O  O18  1  0.47471488  0.96805697  0.32121874  1
  O  O19  1  0.47467580  0.50657489  0.32122815  1
  O  O20  1  0.29957504  0.14983011  0.12361934  1
  O  O21  1  0.68906225  0.84460771  0.60455342  1
  O  O22  1  0.52170490  0.48942190  0.82271064  1
  O  O23  1  0.52166150  0.03213955  0.82266567  1
  O  O24  1  0.67945877  0.33980394  0.59954452  1
  O  O25  1  0.85999786  0.69789403  0.11104227  1
  O  O26  1  0.97749906  0.48869452  0.82139399  1
  O  O27  1  0.86001521  0.16218095  0.11097920  1
