# generated using pymatgen
data_K2MgMo2(H2O5)2
_symmetry_space_group_name_H-M   'P 1'
_cell_length_a   5.97885523
_cell_length_b   6.54495971
_cell_length_c   8.01381490
_cell_angle_alpha   110.71784966
_cell_angle_beta   96.22410766
_cell_angle_gamma   109.55752436
_symmetry_Int_Tables_number   1
_chemical_formula_structural   K2MgMo2(H2O5)2
_chemical_formula_sum   'K2 Mg1 Mo2 H4 O10'
_cell_volume   267.07926914
_cell_formula_units_Z   1
loop_
 _symmetry_equiv_pos_site_id
 _symmetry_equiv_pos_as_xyz
  1  'x, y, z'
loop_
 _atom_site_type_symbol
 _atom_site_label
 _atom_site_symmetry_multiplicity
 _atom_site_fract_x
 _atom_site_fract_y
 _atom_site_fract_z
 _atom_site_occupancy
  K  K0  1  0.33105595  0.70683740  0.25455501  1
  K  K1  1  0.66894405  0.29316260  0.74544499  1
  Mg  Mg2  1  -0.00000000  -0.00000000  0.00000000  1
  Mo  Mo3  1  0.33434142  0.66502434  0.76527291  1
  Mo  Mo4  1  0.66565858  0.33497566  0.23472709  1
  H  H5  1  0.91871505  0.85367132  0.28625130  1
  H  H6  1  0.08128495  0.14632868  0.71374870  1
  H  H7  1  0.11174793  0.11958593  0.37134533  1
  H  H8  1  0.88825207  0.88041407  0.62865467  1
  O  O9  1  0.36581190  0.81712670  0.62026359  1
  O  O10  1  0.63418810  0.18287330  0.37973641  1
  O  O11  1  0.23041184  0.34790018  0.63046291  1
  O  O12  1  0.76958816  0.65209982  0.36953709  1
  O  O13  1  0.63001224  0.76020633  0.91937538  1
  O  O14  1  0.36998776  0.23979367  0.08062462  1
  O  O15  1  0.11322040  0.71455522  0.89575211  1
  O  O16  1  0.88677960  0.28544478  0.10424789  1
  O  O17  1  0.04024616  0.97310685  0.25541225  1
  O  O18  1  0.95975384  0.02689315  0.74458775  1
