# generated using pymatgen
data_Ca2Mn3P3H6O17
_symmetry_space_group_name_H-M   'P 1'
_cell_length_a   8.86926634
_cell_length_b   13.47791152
_cell_length_c   11.30598268
_cell_angle_alpha   90.00000000
_cell_angle_beta   102.03086922
_cell_angle_gamma   90.00000000
_symmetry_Int_Tables_number   1
_chemical_formula_structural   Ca2Mn3P3H6O17
_chemical_formula_sum   'Ca8 Mn12 P12 H24 O68'
_cell_volume   1321.82270314
_cell_formula_units_Z   4
loop_
 _symmetry_equiv_pos_site_id
 _symmetry_equiv_pos_as_xyz
  1  'x, y, z'
loop_
 _atom_site_type_symbol
 _atom_site_label
 _atom_site_symmetry_multiplicity
 _atom_site_fract_x
 _atom_site_fract_y
 _atom_site_fract_z
 _atom_site_occupancy
  Ca  Ca0  1  0.33968761  0.12741013  0.06747762  1
  Ca  Ca1  1  0.66031239  0.62741013  0.43252238  1
  Ca  Ca2  1  0.66031239  0.87258987  0.93252238  1
  Ca  Ca3  1  0.33968761  0.37258987  0.56747762  1
  Ca  Ca4  1  0.66482880  0.37880917  0.85712086  1
  Ca  Ca5  1  0.33517120  0.87880917  0.64287914  1
  Ca  Ca6  1  0.33517120  0.62119083  0.14287914  1
  Ca  Ca7  1  0.66482880  0.12119083  0.35712086  1
  Mn  Mn8  1  0.00000000  0.50000000  0.50000000  1
  Mn  Mn9  1  0.00000000  -0.00000000  0.00000000  1
  Mn  Mn10  1  0.00000000  0.50000000  0.00000000  1
  Mn  Mn11  1  0.00000000  -0.00000000  0.50000000  1
  Mn  Mn12  1  0.01530685  0.36947291  0.73841313  1
  Mn  Mn13  1  0.98469315  0.86947291  0.76158687  1
  Mn  Mn14  1  0.98469315  0.63052709  0.26158687  1
  Mn  Mn15  1  0.01530685  0.13052709  0.23841313  1
  Mn  Mn16  1  0.01675082  0.26899549  0.99361291  1
  Mn  Mn17  1  0.98324918  0.76899549  0.50638709  1
  Mn  Mn18  1  0.98324918  0.73100451  0.00638709  1
  Mn  Mn19  1  0.01675082  0.23100451  0.49361291  1
  P  P20  1  0.29958696  0.39135015  0.94880284  1
  P  P21  1  0.70041304  0.89135015  0.55119716  1
  P  P22  1  0.70041304  0.60864985  0.05119716  1
  P  P23  1  0.29958696  0.10864985  0.44880284  1
  P  P24  1  0.08409462  0.38064700  0.27685335  1
  P  P25  1  0.91590538  0.88064700  0.22314665  1
  P  P26  1  0.91590538  0.61935300  0.72314665  1
  P  P27  1  0.08409462  0.11935300  0.77685335  1
  P  P28  1  0.72803649  0.35779380  0.52876540  1
  P  P29  1  0.27196351  0.85779380  0.97123460  1
  P  P30  1  0.27196351  0.64220620  0.47123460  1
  P  P31  1  0.72803649  0.14220620  0.02876540  1
  H  H32  1  0.44420173  0.53574462  0.74080975  1
  H  H33  1  0.55579827  0.03574462  0.75919025  1
  H  H34  1  0.55579827  0.46425538  0.25919025  1
  H  H35  1  0.44420173  0.96425538  0.24080975  1
  H  H36  1  0.59473055  0.53651968  0.68588395  1
  H  H37  1  0.40526945  0.03651968  0.81411605  1
  H  H38  1  0.40526945  0.46348032  0.31411605  1
  H  H39  1  0.59473055  0.96348032  0.18588395  1
  H  H40  1  0.54030638  0.21383170  0.71442167  1
  H  H41  1  0.45969362  0.71383170  0.78557833  1
  H  H42  1  0.45969362  0.78616830  0.28557833  1
  H  H43  1  0.54030638  0.28616830  0.21442167  1
  H  H44  1  0.40037351  0.23226522  0.77837330  1
  H  H45  1  0.59962649  0.73226522  0.72162670  1
  H  H46  1  0.59962649  0.76773478  0.22162670  1
  H  H47  1  0.40037351  0.26773478  0.27837330  1
  H  H48  1  0.75742041  0.13309249  0.70396112  1
  H  H49  1  0.24257959  0.63309249  0.79603888  1
  H  H50  1  0.24257959  0.86690751  0.29603888  1
  H  H51  1  0.75742041  0.36690751  0.20396112  1
  H  H52  1  0.60112558  0.11510942  0.60120660  1
  H  H53  1  0.39887442  0.61510942  0.89879340  1
  H  H54  1  0.39887442  0.88489058  0.39879340  1
  H  H55  1  0.60112558  0.38489058  0.10120660  1
  O  O56  1  0.47493125  0.38995701  0.96972374  1
  O  O57  1  0.52506875  0.88995701  0.53027626  1
  O  O58  1  0.52506875  0.61004299  0.03027626  1
  O  O59  1  0.47493125  0.11004299  0.46972374  1
  O  O60  1  0.24131956  0.29650332  0.00725680  1
  O  O61  1  0.75868044  0.79650332  0.49274320  1
  O  O62  1  0.75868044  0.70349668  0.99274320  1
  O  O63  1  0.24131956  0.20349668  0.50725680  1
  O  O64  1  0.23802479  0.48598560  0.00394821  1
  O  O65  1  0.76197521  0.98598560  0.49605179  1
  O  O66  1  0.76197521  0.51401440  0.99605179  1
  O  O67  1  0.23802479  0.01401440  0.50394821  1
  O  O68  1  0.23267461  0.38878516  0.80876835  1
  O  O69  1  0.76732539  0.88878516  0.69123165  1
  O  O70  1  0.76732539  0.61121484  0.19123165  1
  O  O71  1  0.23267461  0.11121484  0.30876835  1
  O  O72  1  0.25772605  0.38180576  0.33013095  1
  O  O73  1  0.74227395  0.88180576  0.16986905  1
  O  O74  1  0.74227395  0.61819424  0.66986905  1
  O  O75  1  0.25772605  0.11819424  0.83013095  1
  O  O76  1  0.00728606  0.28408866  0.30968964  1
  O  O77  1  0.99271394  0.78408866  0.19031036  1
  O  O78  1  0.99271394  0.71591134  0.69031036  1
  O  O79  1  0.00728606  0.21591134  0.80968964  1
  O  O80  1  0.03525020  0.39013319  0.13712508  1
  O  O81  1  0.96474980  0.89013319  0.36287492  1
  O  O82  1  0.96474980  0.60986681  0.86287492  1
  O  O83  1  0.03525020  0.10986681  0.63712508  1
  O  O84  1  0.00338664  0.47076580  0.32900881  1
  O  O85  1  0.99661336  0.97076580  0.17099119  1
  O  O86  1  0.99661336  0.52923420  0.67099119  1
  O  O87  1  0.00338664  0.02923420  0.82900881  1
  O  O88  1  0.55484689  0.35370449  0.49750341  1
  O  O89  1  0.44515311  0.85370449  0.00249659  1
  O  O90  1  0.44515311  0.64629551  0.50249659  1
  O  O91  1  0.55484689  0.14629551  0.99750341  1
  O  O92  1  0.79350638  0.26228298  0.47635815  1
  O  O93  1  0.20649362  0.76228298  0.02364185  1
  O  O94  1  0.20649362  0.73771702  0.52364185  1
  O  O95  1  0.79350638  0.23771702  0.97635815  1
  O  O96  1  0.79000832  0.35876760  0.66950243  1
  O  O97  1  0.20999168  0.85876760  0.83049757  1
  O  O98  1  0.20999168  0.64123240  0.33049757  1
  O  O99  1  0.79000832  0.14123240  0.16950243  1
  O  O100  1  0.78387981  0.45493144  0.47294513  1
  O  O101  1  0.21612019  0.95493144  0.02705487  1
  O  O102  1  0.21612019  0.54506856  0.52705487  1
  O  O103  1  0.78387981  0.04506856  0.97294513  1
  O  O104  1  0.95065318  0.38943365  0.89413409  1
  O  O105  1  0.04934682  0.88943365  0.60586591  1
  O  O106  1  0.04934682  0.61056635  0.10586591  1
  O  O107  1  0.95065318  0.11056635  0.39413409  1
  O  O108  1  0.07098021  0.35244962  0.58023840  1
  O  O109  1  0.92901979  0.85244962  0.91976160  1
  O  O110  1  0.92901979  0.64755038  0.41976160  1
  O  O111  1  0.07098021  0.14755038  0.08023840  1
  O  O112  1  0.51765331  0.49081571  0.71082364  1
  O  O113  1  0.48234669  0.99081571  0.78917636  1
  O  O114  1  0.48234669  0.50918429  0.28917636  1
  O  O115  1  0.51765331  0.00918429  0.21082364  1
  O  O116  1  0.47256675  0.26766348  0.73761096  1
  O  O117  1  0.52743325  0.76766348  0.76238904  1
  O  O118  1  0.52743325  0.73233652  0.26238904  1
  O  O119  1  0.47256675  0.23233652  0.23761096  1
  O  O120  1  0.64616092  0.12438973  0.68970919  1
  O  O121  1  0.35383908  0.62438973  0.81029081  1
  O  O122  1  0.35383908  0.87561027  0.31029081  1
  O  O123  1  0.64616092  0.37561027  0.18970919  1
