# generated using pymatgen
data_Mn2Co5O12
_symmetry_space_group_name_H-M   'P 1'
_cell_length_a   4.91033476
_cell_length_b   4.91033513
_cell_length_c   9.64720169
_cell_angle_alpha   84.09040581
_cell_angle_beta   95.90958867
_cell_angle_gamma   59.96407117
_symmetry_Int_Tables_number   1
_chemical_formula_structural   Mn2Co5O12
_chemical_formula_sum   'Mn2 Co5 O12'
_cell_volume   197.05069876
_cell_formula_units_Z   1
loop_
 _symmetry_equiv_pos_site_id
 _symmetry_equiv_pos_as_xyz
  1  'x, y, z'
loop_
 _atom_site_type_symbol
 _atom_site_label
 _atom_site_symmetry_multiplicity
 _atom_site_fract_x
 _atom_site_fract_y
 _atom_site_fract_z
 _atom_site_occupancy
  Mn  Mn0  1  0.23204844  0.23204844  0.75000000  1
  Mn  Mn1  1  0.75176321  0.75176321  0.25000000  1
  Co  Co2  1  0.08632964  0.08632964  0.25000000  1
  Co  Co3  1  0.01819588  0.54039098  0.97956597  1
  Co  Co4  1  0.54039098  0.01819588  0.52043403  1
  Co  Co5  1  0.42243337  0.42243337  0.25000000  1
  Co  Co6  1  0.57282065  0.57282065  0.75000000  1
  O  O7  1  0.94978722  0.24455134  0.87123380  1
  O  O8  1  0.24455134  0.94978722  0.62876620  1
  O  O9  1  0.14768931  0.36024586  0.35755566  1
  O  O10  1  0.36024586  0.14768931  0.14244434  1
  O  O11  1  0.28970027  0.51419433  0.86052610  1
  O  O12  1  0.51419433  0.28970027  0.63947390  1
  O  O13  1  0.46274530  0.72328056  0.35656251  1
  O  O14  1  0.72328056  0.46274530  0.14343749  1
  O  O15  1  0.59551884  0.84044679  0.85928995  1
  O  O16  1  0.84044679  0.59551884  0.64071005  1
  O  O17  1  0.78221658  0.04422043  0.36035766  1
  O  O18  1  0.04422043  0.78221658  0.13964234  1
