# generated using pymatgen
data_ErBr3
_symmetry_space_group_name_H-M   'P 1'
_cell_length_a   10.37228976
_cell_length_b   10.37230769
_cell_length_c   3.69192170
_cell_angle_alpha   90.00000000
_cell_angle_beta   90.00000000
_cell_angle_gamma   120.00003650
_symmetry_Int_Tables_number   1
_chemical_formula_structural   ErBr3
_chemical_formula_sum   'Er2 Br6'
_cell_volume   343.97983672
_cell_formula_units_Z   2
loop_
 _symmetry_equiv_pos_site_id
 _symmetry_equiv_pos_as_xyz
  1  'x, y, z'
loop_
 _atom_site_type_symbol
 _atom_site_label
 _atom_site_symmetry_multiplicity
 _atom_site_fract_x
 _atom_site_fract_y
 _atom_site_fract_z
 _atom_site_occupancy
  Er  Er0  1  0.33333400  0.66666800  0.74999900  1
  Er  Er1  1  0.66666800  0.33333400  0.25000100  1
  Br  Br2  1  0.21567654  0.43135209  0.25000100  1
  Br  Br3  1  0.56864891  0.78432446  0.25000100  1
  Br  Br4  1  0.21567554  0.78432346  0.25000100  1
  Br  Br5  1  0.78432346  0.56864991  0.74999900  1
  Br  Br6  1  0.43135009  0.21567454  0.74999900  1
  Br  Br7  1  0.78432346  0.21567454  0.74999900  1
