# generated using pymatgen
data_Er3Lu
_symmetry_space_group_name_H-M   'P 1'
_cell_length_a   7.10761790
_cell_length_b   7.10936147
_cell_length_c   5.56115019
_cell_angle_alpha   90.00789888
_cell_angle_beta   89.99022561
_cell_angle_gamma   120.00771397
_symmetry_Int_Tables_number   1
_chemical_formula_structural   Er3Lu
_chemical_formula_sum   'Er6 Lu2'
_cell_volume   243.34148507
_cell_formula_units_Z   2
loop_
 _symmetry_equiv_pos_site_id
 _symmetry_equiv_pos_as_xyz
  1  'x, y, z'
loop_
 _atom_site_type_symbol
 _atom_site_label
 _atom_site_symmetry_multiplicity
 _atom_site_fract_x
 _atom_site_fract_y
 _atom_site_fract_z
 _atom_site_occupancy
  Er  Er0  1  0.83302050  0.16699943  0.74999003  1
  Er  Er1  1  0.33399128  0.16693864  0.75000605  1
  Er  Er2  1  0.83302415  0.66603659  0.75006546  1
  Er  Er3  1  0.16694471  0.83304028  0.25001786  1
  Er  Er4  1  0.66604534  0.83295874  0.24994579  1
  Er  Er5  1  0.16698160  0.33398520  0.24996239  1
  Lu  Lu6  1  0.66668036  0.33341736  0.25005261  1
  Lu  Lu7  1  0.33331306  0.66662477  0.74996780  1
