# generated using pymatgen
data_Er3Tm
_symmetry_space_group_name_H-M   'P 1'
_cell_length_a   7.14454310
_cell_length_b   7.14454141
_cell_length_c   5.57591154
_cell_angle_alpha   90.00000000
_cell_angle_beta   90.00000000
_cell_angle_gamma   120.00000242
_symmetry_Int_Tables_number   1
_chemical_formula_structural   Er3Tm
_chemical_formula_sum   'Er6 Tm2'
_cell_volume   246.48773514
_cell_formula_units_Z   2
loop_
 _symmetry_equiv_pos_site_id
 _symmetry_equiv_pos_as_xyz
  1  'x, y, z'
loop_
 _atom_site_type_symbol
 _atom_site_label
 _atom_site_symmetry_multiplicity
 _atom_site_fract_x
 _atom_site_fract_y
 _atom_site_fract_z
 _atom_site_occupancy
  Er  Er0  1  0.16679492  0.33358884  0.25000000  1
  Er  Er1  1  0.66641016  0.83320508  0.25000000  1
  Er  Er2  1  0.16679492  0.83320508  0.25000000  1
  Er  Er3  1  0.83320408  0.66641016  0.75000000  1
  Er  Er4  1  0.33359084  0.16679592  0.75000000  1
  Er  Er5  1  0.83320508  0.16679592  0.75000000  1
  Tm  Tm6  1  0.33333300  0.66666700  0.75000000  1
  Tm  Tm7  1  0.66666600  0.33333300  0.25000000  1
