# generated using pymatgen
data_Hf2InNi2
_symmetry_space_group_name_H-M   'P 1'
_cell_length_a   7.20166607
_cell_length_b   7.20166607
_cell_length_c   6.55082028
_cell_angle_alpha   90.00000000
_cell_angle_beta   90.00000000
_cell_angle_gamma   90.00000000
_symmetry_Int_Tables_number   1
_chemical_formula_structural   Hf2InNi2
_chemical_formula_sum   'Hf8 In4 Ni8'
_cell_volume   339.75170490
_cell_formula_units_Z   4
loop_
 _symmetry_equiv_pos_site_id
 _symmetry_equiv_pos_as_xyz
  1  'x, y, z'
loop_
 _atom_site_type_symbol
 _atom_site_label
 _atom_site_symmetry_multiplicity
 _atom_site_fract_x
 _atom_site_fract_y
 _atom_site_fract_z
 _atom_site_occupancy
  Hf  Hf0  1  0.17455097  0.17455097  0.00000000  1
  Hf  Hf1  1  0.82545003  0.82545003  0.00000000  1
  Hf  Hf2  1  0.67454997  0.32544903  0.50000100  1
  Hf  Hf3  1  0.32544903  0.67454997  0.50000100  1
  Hf  Hf4  1  0.34201705  0.65798295  0.00000000  1
  Hf  Hf5  1  0.65798295  0.34201705  -0.00000000  1
  Hf  Hf6  1  0.84201705  0.84201705  0.50000100  1
  Hf  Hf7  1  0.15798395  0.15798395  0.50000100  1
  In  In8  1  0.00000000  0.50000000  0.25000000  1
  In  In9  1  0.50000000  0.00000000  0.25000000  1
  In  In10  1  0.50000000  0.00000000  0.75000000  1
  In  In11  1  0.00000000  0.50000000  0.75000000  1
  Ni  Ni12  1  0.37399601  0.37399601  0.27038577  1
  Ni  Ni13  1  0.62600499  0.62600499  0.27038577  1
  Ni  Ni14  1  0.87399601  0.12600499  0.22961623  1
  Ni  Ni15  1  0.12600499  0.87399601  0.22961623  1
  Ni  Ni16  1  0.62600499  0.62600499  0.72961423  1
  Ni  Ni17  1  0.37399601  0.37399601  0.72961423  1
  Ni  Ni18  1  0.87399601  0.12600499  0.77038477  1
  Ni  Ni19  1  0.12600499  0.87399601  0.77038477  1
