# generated using pymatgen
data_Li2NbVO4
_symmetry_space_group_name_H-M   'P 1'
_cell_length_a   6.08745313
_cell_length_b   6.08745355
_cell_length_c   6.33398143
_cell_angle_alpha   121.41869394
_cell_angle_beta   121.41869131
_cell_angle_gamma   89.33377481
_symmetry_Int_Tables_number   1
_chemical_formula_structural   Li2NbVO4
_chemical_formula_sum   'Li4 Nb2 V2 O8'
_cell_volume   159.66091291
_cell_formula_units_Z   2
loop_
 _symmetry_equiv_pos_site_id
 _symmetry_equiv_pos_as_xyz
  1  'x, y, z'
loop_
 _atom_site_type_symbol
 _atom_site_label
 _atom_site_symmetry_multiplicity
 _atom_site_fract_x
 _atom_site_fract_y
 _atom_site_fract_z
 _atom_site_occupancy
  Li  Li0  1  0.00000000  0.50000000  0.50000000  1
  Li  Li1  1  0.50000000  0.50000000  0.50000000  1
  Li  Li2  1  0.50000000  0.00000000  0.00000000  1
  Li  Li3  1  0.50000000  0.50000000  0.00000000  1
  Nb  Nb4  1  0.00000000  0.50000000  0.00000000  1
  Nb  Nb5  1  0.50000000  0.00000000  0.50000000  1
  V  V6  1  0.00000000  0.00000000  0.50000000  1
  V  V7  1  0.00000000  0.00000000  0.00000000  1
  O  O8  1  0.25030127  0.74834071  0.99697313  1
  O  O9  1  0.25998644  0.23378495  0.49735140  1
  O  O10  1  0.25165929  0.74969873  0.50302687  1
  O  O11  1  0.76621505  0.74001356  0.00264860  1
  O  O12  1  0.23378495  0.25998644  0.99735140  1
  O  O13  1  0.74834071  0.25030127  0.49697313  1
  O  O14  1  0.74001356  0.76621505  0.50264860  1
  O  O15  1  0.74969873  0.25165929  0.00302687  1
