# generated using pymatgen
data_Pm3Al
_symmetry_space_group_name_H-M   'P 1'
_cell_length_a   7.04033852
_cell_length_b   7.04033895
_cell_length_c   5.42227248
_cell_angle_alpha   90.00000000
_cell_angle_beta   90.00000000
_cell_angle_gamma   119.99999796
_symmetry_Int_Tables_number   1
_chemical_formula_structural   Pm3Al
_chemical_formula_sum   'Pm6 Al2'
_cell_volume   232.75503735
_cell_formula_units_Z   2
loop_
 _symmetry_equiv_pos_site_id
 _symmetry_equiv_pos_as_xyz
  1  'x, y, z'
loop_
 _atom_site_type_symbol
 _atom_site_label
 _atom_site_symmetry_multiplicity
 _atom_site_fract_x
 _atom_site_fract_y
 _atom_site_fract_z
 _atom_site_occupancy
  Pm  Pm0  1  0.35528056  0.17764078  0.75000100  1
  Pm  Pm1  1  0.82236022  0.64471844  0.75000100  1
  Pm  Pm2  1  0.17764078  0.82235922  0.25000100  1
  Pm  Pm3  1  0.64471844  0.82235922  0.25000100  1
  Pm  Pm4  1  0.17764078  0.35528056  0.25000100  1
  Pm  Pm5  1  0.82235822  0.17764078  0.75000100  1
  Al  Al6  1  0.66666700  0.33333400  0.25000100  1
  Al  Al7  1  0.33333400  0.66666700  0.75000100  1
