# generated using pymatgen
data_Tb2Ge5Rh3
_symmetry_space_group_name_H-M   'P 1'
_cell_length_a   5.95648076
_cell_length_b   8.38087767
_cell_length_c   8.38087767
_cell_angle_alpha   92.50723034
_cell_angle_beta   109.62564079
_cell_angle_gamma   109.62564079
_symmetry_Int_Tables_number   1
_chemical_formula_structural   Tb2Ge5Rh3
_chemical_formula_sum   'Tb4 Ge10 Rh6'
_cell_volume   365.35553974
_cell_formula_units_Z   2
loop_
 _symmetry_equiv_pos_site_id
 _symmetry_equiv_pos_as_xyz
  1  'x, y, z'
loop_
 _atom_site_type_symbol
 _atom_site_label
 _atom_site_symmetry_multiplicity
 _atom_site_fract_x
 _atom_site_fract_y
 _atom_site_fract_z
 _atom_site_occupancy
  Tb  Tb0  1  0.23289921  0.86520753  0.59271470  1
  Tb  Tb1  1  0.26710079  0.40728530  0.13479247  1
  Tb  Tb2  1  0.76710079  0.13479247  0.40728530  1
  Tb  Tb3  1  0.73289921  0.59271470  0.86520753  1
  Ge  Ge4  1  0.16646394  0.07006714  0.26282739  1
  Ge  Ge5  1  0.33353606  0.73717261  0.92993286  1
  Ge  Ge6  1  0.83353606  0.92993286  0.73717261  1
  Ge  Ge7  1  0.66646394  0.26282739  0.07006714  1
  Ge  Ge8  1  0.25000000  0.21307568  0.78692432  1
  Ge  Ge9  1  0.75000000  0.78692432  0.21307568  1
  Ge  Ge10  1  0.25000000  0.50718818  0.49281182  1
  Ge  Ge11  1  0.75000000  0.49281182  0.50718818  1
  Ge  Ge12  1  0.25000000  0.77771492  0.22228508  1
  Ge  Ge13  1  0.75000000  0.22228508  0.77771492  1
  Rh  Rh14  1  0.38303555  0.25507019  0.53975460  1
  Rh  Rh15  1  0.11696445  0.46024540  0.74492981  1
  Rh  Rh16  1  0.61696445  0.74492981  0.46024540  1
  Rh  Rh17  1  0.88303555  0.53975460  0.25507019  1
  Rh  Rh18  1  0.25000000  0.00158681  0.99841319  1
  Rh  Rh19  1  0.75000000  0.99841319  0.00158681  1
