# generated using pymatgen
data_SmGePd2
_symmetry_space_group_name_H-M   'P 1'
_cell_length_a   5.72777759
_cell_length_b   7.47864786
_cell_length_c   7.12562156
_cell_angle_alpha   90.00000000
_cell_angle_beta   90.00000000
_cell_angle_gamma   90.00000000
_symmetry_Int_Tables_number   1
_chemical_formula_structural   SmGePd2
_chemical_formula_sum   'Sm4 Ge4 Pd8'
_cell_volume   305.23335043
_cell_formula_units_Z   4
loop_
 _symmetry_equiv_pos_site_id
 _symmetry_equiv_pos_as_xyz
  1  'x, y, z'
loop_
 _atom_site_type_symbol
 _atom_site_label
 _atom_site_symmetry_multiplicity
 _atom_site_fract_x
 _atom_site_fract_y
 _atom_site_fract_z
 _atom_site_occupancy
  Sm  Sm0  1  0.85552824  0.52339726  0.25000000  1
  Sm  Sm1  1  0.64447176  0.02339726  0.25000000  1
  Sm  Sm2  1  0.14447176  0.47660274  0.75000000  1
  Sm  Sm3  1  0.35552824  0.97660274  0.75000000  1
  Ge  Ge4  1  0.14182392  0.87776438  0.25000000  1
  Ge  Ge5  1  0.35817608  0.37776438  0.25000000  1
  Ge  Ge6  1  0.85817608  0.12223562  0.75000000  1
  Ge  Ge7  1  0.64182392  0.62223562  0.75000000  1
  Pd  Pd8  1  0.41159558  0.68224943  0.05242384  1
  Pd  Pd9  1  0.08840442  0.18224943  0.44757616  1
  Pd  Pd10  1  0.58840442  0.31775057  0.55242384  1
  Pd  Pd11  1  0.91159558  0.81775057  0.94757616  1
  Pd  Pd12  1  0.58840442  0.31775057  0.94757616  1
  Pd  Pd13  1  0.91159558  0.81775057  0.55242384  1
  Pd  Pd14  1  0.41159558  0.68224943  0.44757616  1
  Pd  Pd15  1  0.08840442  0.18224943  0.05242384  1
