# generated using pymatgen
data_YTm3
_symmetry_space_group_name_H-M   'P 1'
_cell_length_a   7.16928719
_cell_length_b   7.16928673
_cell_length_c   5.58604354
_cell_angle_alpha   90.00000000
_cell_angle_beta   90.00000000
_cell_angle_gamma   120.00000206
_symmetry_Int_Tables_number   1
_chemical_formula_structural   YTm3
_chemical_formula_sum   'Y2 Tm6'
_cell_volume   248.64908605
_cell_formula_units_Z   2
loop_
 _symmetry_equiv_pos_site_id
 _symmetry_equiv_pos_as_xyz
  1  'x, y, z'
loop_
 _atom_site_type_symbol
 _atom_site_label
 _atom_site_symmetry_multiplicity
 _atom_site_fract_x
 _atom_site_fract_y
 _atom_site_fract_z
 _atom_site_occupancy
  Y  Y0  1  0.33333400  0.66666800  0.75000100  1
  Y  Y1  1  0.66666700  0.33333300  0.25000000  1
  Tm  Tm2  1  0.16565038  0.33130076  0.25000000  1
  Tm  Tm3  1  0.66869824  0.83434762  0.25000000  1
  Tm  Tm4  1  0.16565038  0.83434762  0.25000000  1
  Tm  Tm5  1  0.83434962  0.66870024  0.75000100  1
  Tm  Tm6  1  0.33130076  0.16565138  0.75000100  1
  Tm  Tm7  1  0.83435062  0.16565138  0.75000100  1
