# generated using pymatgen
data_GdB2Os
_symmetry_space_group_name_H-M   'P 1'
_cell_length_a   5.33806505
_cell_length_b   5.92155178
_cell_length_c   6.40848224
_cell_angle_alpha   90.00000000
_cell_angle_beta   90.00000000
_cell_angle_gamma   90.00000000
_symmetry_Int_Tables_number   1
_chemical_formula_structural   GdB2Os
_chemical_formula_sum   'Gd4 B8 Os4'
_cell_volume   202.56974349
_cell_formula_units_Z   4
loop_
 _symmetry_equiv_pos_site_id
 _symmetry_equiv_pos_as_xyz
  1  'x, y, z'
loop_
 _atom_site_type_symbol
 _atom_site_label
 _atom_site_symmetry_multiplicity
 _atom_site_fract_x
 _atom_site_fract_y
 _atom_site_fract_z
 _atom_site_occupancy
  Gd  Gd0  1  0.75000000  0.48996175  0.16281122  1
  Gd  Gd1  1  0.75000000  0.98996175  0.33718878  1
  Gd  Gd2  1  0.25000000  0.51003825  0.83718878  1
  Gd  Gd3  1  0.25000000  0.01003825  0.66281122  1
  B  B4  1  0.91767947  0.13349650  0.95960945  1
  B  B5  1  0.58232053  0.63349650  0.54039055  1
  B  B6  1  0.41767947  0.86650350  0.04039055  1
  B  B7  1  0.08232053  0.36650350  0.45960945  1
  B  B8  1  0.08232053  0.86650350  0.04039055  1
  B  B9  1  0.41767947  0.36650350  0.45960945  1
  B  B10  1  0.58232053  0.13349650  0.95960945  1
  B  B11  1  0.91767947  0.63349650  0.54039055  1
  Os  Os12  1  0.75000000  0.32225826  0.68376133  1
  Os  Os13  1  0.75000000  0.82225826  0.81623867  1
  Os  Os14  1  0.25000000  0.67774174  0.31623867  1
  Os  Os15  1  0.25000000  0.17774174  0.18376133  1
