# generated using pymatgen
data_Li3Ni2SbO6
_symmetry_space_group_name_H-M   'P 1'
_cell_length_a   15.44100887
_cell_length_b   9.98316874
_cell_length_c   9.98316886
_cell_angle_alpha   17.63782141
_cell_angle_beta   17.01650883
_cell_angle_gamma   17.01650557
_symmetry_Int_Tables_number   1
_chemical_formula_structural   Li3Ni2SbO6
_chemical_formula_sum   'Li3 Ni2 Sb1 O6'
_cell_volume   117.62418969
_cell_formula_units_Z   1
loop_
 _symmetry_equiv_pos_site_id
 _symmetry_equiv_pos_as_xyz
  1  'x, y, z'
loop_
 _atom_site_type_symbol
 _atom_site_label
 _atom_site_symmetry_multiplicity
 _atom_site_fract_x
 _atom_site_fract_y
 _atom_site_fract_z
 _atom_site_occupancy
  Li  Li0  1  0.16666700  0.50000000  0.50000000  1
  Li  Li1  1  0.51020337  0.47952675  0.47952675  1
  Li  Li2  1  0.82312963  0.52047325  0.52047325  1
  Ni  Ni3  1  0.97012824  0.02476160  0.02476160  1
  Ni  Ni4  1  0.36320476  0.97523840  0.97523840  1
  Sb  Sb5  1  0.66666700  0.00000000  0.00000000  1
  O  O6  1  0.26191602  0.24841579  0.24841579  1
  O  O7  1  0.56624629  0.26415066  0.26415066  1
  O  O8  1  0.07141698  0.75158421  0.75158421  1
  O  O9  1  0.88119560  0.28183034  0.28183034  1
  O  O10  1  0.45213840  0.71816966  0.71816966  1
  O  O11  1  0.76708671  0.73584934  0.73584934  1
