# generated using pymatgen
data_TiP2H2O9
_symmetry_space_group_name_H-M   'P 1'
_cell_length_a   5.24031221
_cell_length_b   6.39444928
_cell_length_c   23.52676713
_cell_angle_alpha   90.00000000
_cell_angle_beta   86.62973259
_cell_angle_gamma   90.00000000
_symmetry_Int_Tables_number   1
_chemical_formula_structural   TiP2H2O9
_chemical_formula_sum   'Ti4 P8 H8 O36'
_cell_volume   786.99285030
_cell_formula_units_Z   4
loop_
 _symmetry_equiv_pos_site_id
 _symmetry_equiv_pos_as_xyz
  1  'x, y, z'
loop_
 _atom_site_type_symbol
 _atom_site_label
 _atom_site_symmetry_multiplicity
 _atom_site_fract_x
 _atom_site_fract_y
 _atom_site_fract_z
 _atom_site_occupancy
  Ti  Ti0  1  0.27226287  0.21604541  0.93248801  1
  Ti  Ti1  1  0.72773713  0.71604541  0.06751199  1
  Ti  Ti2  1  0.75799977  0.21084080  0.43288380  1
  Ti  Ti3  1  0.24200023  0.71084080  0.56711620  1
  P  P4  1  0.24997093  0.71751267  0.97185171  1
  P  P5  1  0.75002907  0.21751267  0.02814829  1
  P  P6  1  0.20443976  0.81914041  0.15620310  1
  P  P7  1  0.79556024  0.31914041  0.84379690  1
  P  P8  1  0.23176642  0.21270501  0.52825520  1
  P  P9  1  0.76823358  0.71270501  0.47174480  1
  P  P10  1  0.71377237  0.82029433  0.65390467  1
  P  P11  1  0.28622763  0.32029433  0.34609533  1
  H  H12  1  0.32722560  0.23040850  0.70234679  1
  H  H13  1  0.67277440  0.73040850  0.29765321  1
  H  H14  1  0.04274415  0.26647618  0.68803403  1
  H  H15  1  0.95725585  0.76647618  0.31196597  1
  H  H16  1  0.84191889  0.26268576  0.20256247  1
  H  H17  1  0.15808111  0.76268576  0.79743753  1
  H  H18  1  0.54237280  0.26439593  0.20523016  1
  H  H19  1  0.45762720  0.76439593  0.79476984  1
  O  O20  1  0.26987031  0.52381191  0.93381894  1
  O  O21  1  0.73012969  0.02381191  0.06618106  1
  O  O22  1  0.46748781  0.71800303  0.01320184  1
  O  O23  1  0.53251219  0.21800303  0.98679816  1
  O  O24  1  0.27115387  0.91242872  0.93339721  1
  O  O25  1  0.72884613  0.41242872  0.06660279  1
  O  O26  1  0.99352904  0.71878064  0.00724533  1
  O  O27  1  0.00647096  0.21878064  0.99275467  1
  O  O28  1  0.45415106  0.72985385  0.12896985  1
  O  O29  1  0.54584894  0.22985385  0.87103015  1
  O  O30  1  0.98126131  0.72575183  0.12557158  1
  O  O31  1  0.01873869  0.22575183  0.87442842  1
  O  O32  1  0.80767902  0.26494246  0.77901078  1
  O  O33  1  0.19232098  0.76494246  0.22098922  1
  O  O34  1  0.80244661  0.55919364  0.83843008  1
  O  O35  1  0.19755339  0.05919364  0.16156992  1
  O  O36  1  0.23512365  0.01813683  0.56626370  1
  O  O37  1  0.76487635  0.51813683  0.43373630  1
  O  O38  1  0.01091119  0.71320321  0.50582764  1
  O  O39  1  0.98908881  0.21320321  0.49417236  1
  O  O40  1  0.76402613  0.90779546  0.43325100  1
  O  O41  1  0.23597387  0.40779546  0.56674900  1
  O  O42  1  0.53283760  0.71375534  0.51417914  1
  O  O43  1  0.46716240  0.21375534  0.48582086  1
  O  O44  1  0.94597951  0.71739348  0.62239210  1
  O  O45  1  0.05402049  0.21739348  0.37760790  1
  O  O46  1  0.47151228  0.72841478  0.62999883  1
  O  O47  1  0.52848772  0.22841478  0.37000117  1
  O  O48  1  0.27948689  0.56104589  0.34466667  1
  O  O49  1  0.72051311  0.06104589  0.65533333  1
  O  O50  1  0.72336265  0.77863179  0.71891234  1
  O  O51  1  0.27663735  0.27863179  0.28108766  1
  O  O52  1  0.19222726  0.33729180  0.70273534  1
  O  O53  1  0.80777274  0.83729180  0.29726466  1
  O  O54  1  0.69247131  0.35465034  0.20797591  1
  O  O55  1  0.30752869  0.85465034  0.79202409  1
