# generated using pymatgen
data_Zr5Sb3P
_symmetry_space_group_name_H-M   'P 1'
_cell_length_a   6.05415377
_cell_length_b   8.54574662
_cell_length_c   8.54587079
_cell_angle_alpha   119.99951830
_cell_angle_beta   90.00000000
_cell_angle_gamma   90.00000000
_symmetry_Int_Tables_number   1
_chemical_formula_structural   Zr5Sb3P
_chemical_formula_sum   'Zr10 Sb6 P2'
_cell_volume   382.90630853
_cell_formula_units_Z   2
loop_
 _symmetry_equiv_pos_site_id
 _symmetry_equiv_pos_as_xyz
  1  'x, y, z'
loop_
 _atom_site_type_symbol
 _atom_site_label
 _atom_site_symmetry_multiplicity
 _atom_site_fract_x
 _atom_site_fract_y
 _atom_site_fract_z
 _atom_site_occupancy
  Zr  Zr0  1  0.49999864  0.33334177  0.66666329  1
  Zr  Zr1  1  0.49999864  0.66667847  0.33333671  1
  Zr  Zr2  1  0.99999864  0.66665823  0.33333671  1
  Zr  Zr3  1  0.99999864  0.33332153  0.66666329  1
  Zr  Zr4  1  0.74999981  0.24858448  0.00000000  1
  Zr  Zr5  1  0.75000121  0.75138333  0.75139561  1
  Zr  Zr6  1  0.75000121  0.99998772  0.24860439  1
  Zr  Zr7  1  0.24999981  0.75141552  1.00000000  1
  Zr  Zr8  1  0.25000121  0.24861667  0.24860439  1
  Zr  Zr9  1  0.25000121  0.00001228  0.75139561  1
  Sb  Sb10  1  0.74999836  0.59940235  1.00000000  1
  Sb  Sb11  1  0.75000034  0.40057637  0.40058535  1
  Sb  Sb12  1  0.75000034  0.99999102  0.59941465  1
  Sb  Sb13  1  0.24999836  0.40059765  0.00000000  1
  Sb  Sb14  1  0.25000034  0.59942363  0.59941465  1
  Sb  Sb15  1  0.25000034  0.00000898  0.40058535  1
  P  P16  1  0.50000146  0.00000004  -0.00000000  1
  P  P17  1  0.00000146  -0.00000004  0.00000000  1
