# generated using pymatgen
data_TiGeRu
_symmetry_space_group_name_H-M   'P 1'
_cell_length_a   6.61631458
_cell_length_b   7.24283184
_cell_length_c   7.54183238
_cell_angle_alpha   118.69697972
_cell_angle_beta   116.01720701
_cell_angle_gamma   90.00000000
_symmetry_Int_Tables_number   1
_chemical_formula_structural   TiGeRu
_chemical_formula_sum   'Ti6 Ge6 Ru6'
_cell_volume   274.53536539
_cell_formula_units_Z   6
loop_
 _symmetry_equiv_pos_site_id
 _symmetry_equiv_pos_as_xyz
  1  'x, y, z'
loop_
 _atom_site_type_symbol
 _atom_site_label
 _atom_site_symmetry_multiplicity
 _atom_site_fract_x
 _atom_site_fract_y
 _atom_site_fract_z
 _atom_site_occupancy
  Ti  Ti0  1  0.89618632  0.94517277  0.39034554  1
  Ti  Ti1  1  0.50584078  0.05482723  0.60965446  1
  Ti  Ti2  1  0.50644189  0.52730647  0.55461295  1
  Ti  Ti3  1  0.95182895  0.47269353  0.44538705  1
  Ti  Ti4  1  0.08252972  0.74843924  0.99687849  1
  Ti  Ti5  1  0.08565123  0.25156076  0.00312151  1
  Ge  Ge6  1  0.46260253  0.71818340  0.93636679  1
  Ge  Ge7  1  0.52623574  0.28181660  0.06363321  1
  Ge  Ge8  1  0.17247330  0.67144855  0.33513110  1
  Ge  Ge9  1  0.83734220  0.32855145  0.66486890  1
  Ge  Ge10  1  0.17247330  0.16368255  0.33513110  1
  Ge  Ge11  1  0.83734220  0.83631745  0.66486890  1
  Ru  Ru12  1  0.75612340  0.50000000  0.00000000  1
  Ru  Ru13  1  0.75612340  0.00000000  0.00000000  1
  Ru  Ru14  1  0.25034389  0.91152373  0.74628523  1
  Ru  Ru15  1  0.50405865  0.08847627  0.25371477  1
  Ru  Ru16  1  0.25034389  0.33476150  0.74628523  1
  Ru  Ru17  1  0.50405865  0.66523850  0.25371477  1
