# generated using pymatgen
data_Zr5Sn3As
_symmetry_space_group_name_H-M   'P 1'
_cell_length_a   5.96204048
_cell_length_b   8.70237326
_cell_length_c   8.70251801
_cell_angle_alpha   119.99945062
_cell_angle_beta   90.00000000
_cell_angle_gamma   90.00000000
_symmetry_Int_Tables_number   1
_chemical_formula_structural   Zr5Sn3As
_chemical_formula_sum   'Zr10 Sn6 As2'
_cell_volume   391.03046476
_cell_formula_units_Z   2
loop_
 _symmetry_equiv_pos_site_id
 _symmetry_equiv_pos_as_xyz
  1  'x, y, z'
loop_
 _atom_site_type_symbol
 _atom_site_label
 _atom_site_symmetry_multiplicity
 _atom_site_fract_x
 _atom_site_fract_y
 _atom_site_fract_z
 _atom_site_occupancy
  Zr  Zr0  1  0.50000073  0.33334477  0.66668734  1
  Zr  Zr1  1  0.50000073  0.66665743  0.33331266  1
  Zr  Zr2  1  0.00000073  0.66665523  0.33331266  1
  Zr  Zr3  1  0.00000073  0.33334257  0.66668734  1
  Zr  Zr4  1  0.74999895  0.26200704  0.00000000  1
  Zr  Zr5  1  0.75000080  0.73799929  0.73801115  1
  Zr  Zr6  1  0.75000080  0.99998814  0.26198885  1
  Zr  Zr7  1  0.24999895  0.73799296  1.00000000  1
  Zr  Zr8  1  0.25000080  0.26200071  0.26198885  1
  Zr  Zr9  1  0.25000080  0.00001186  0.73801115  1
  Sn  Sn10  1  0.74999599  0.60494708  0.00000000  1
  Sn  Sn11  1  0.75000184  0.39504592  0.39504567  1
  Sn  Sn12  1  0.75000184  0.00000026  0.60495433  1
  Sn  Sn13  1  0.24999599  0.39505292  1.00000000  1
  Sn  Sn14  1  0.25000184  0.60495408  0.60495433  1
  Sn  Sn15  1  0.25000184  -0.00000026  0.39504567  1
  As  As16  1  0.49999833  0.00000177  -0.00000000  1
  As  As17  1  0.99999833  0.99999823  0.00000000  1
