# generated using pymatgen
data_Tb5Ga3
_symmetry_space_group_name_H-M   'P 1'
_cell_length_a   7.70068789
_cell_length_b   7.70068789
_cell_length_c   8.92827342
_cell_angle_alpha   115.54709966
_cell_angle_beta   115.54709966
_cell_angle_gamma   90.00000000
_symmetry_Int_Tables_number   1
_chemical_formula_structural   Tb5Ga3
_chemical_formula_sum   'Tb10 Ga6'
_cell_volume   419.58583227
_cell_formula_units_Z   2
loop_
 _symmetry_equiv_pos_site_id
 _symmetry_equiv_pos_as_xyz
  1  'x, y, z'
loop_
 _atom_site_type_symbol
 _atom_site_label
 _atom_site_symmetry_multiplicity
 _atom_site_fract_x
 _atom_site_fract_y
 _atom_site_fract_z
 _atom_site_occupancy
  Tb  Tb0  1  0.50000000  0.50000000  -0.00000000  1
  Tb  Tb1  1  -0.00000000  -0.00000000  -0.00000000  1
  Tb  Tb2  1  0.02268664  0.52268664  0.70506635  1
  Tb  Tb3  1  0.68237971  0.18237971  0.70506635  1
  Tb  Tb4  1  0.18237971  0.02268664  0.70506635  1
  Tb  Tb5  1  0.52268664  0.68237971  0.70506635  1
  Tb  Tb6  1  0.97731336  0.47731336  0.29493365  1
  Tb  Tb7  1  0.31762029  0.81762029  0.29493365  1
  Tb  Tb8  1  0.81762029  0.97731336  0.29493365  1
  Tb  Tb9  1  0.47731336  0.31762029  0.29493365  1
  Ga  Ga10  1  0.25000000  0.25000000  0.50000000  1
  Ga  Ga11  1  0.75000000  0.75000000  0.50000000  1
  Ga  Ga12  1  0.37812962  0.87812962  -0.00000000  1
  Ga  Ga13  1  0.62187038  0.12187038  -0.00000000  1
  Ga  Ga14  1  0.12187038  0.37812962  -0.00000000  1
  Ga  Ga15  1  0.87812962  0.62187038  -0.00000000  1
