# generated using pymatgen
data_Pr2MgIrO6
_symmetry_space_group_name_H-M   'P 1'
_cell_length_a   5.54705846
_cell_length_b   5.73049934
_cell_length_c   7.90233737
_cell_angle_alpha   90.00000000
_cell_angle_beta   89.92610462
_cell_angle_gamma   90.00000000
_symmetry_Int_Tables_number   1
_chemical_formula_structural   Pr2MgIrO6
_chemical_formula_sum   'Pr4 Mg2 Ir2 O12'
_cell_volume   251.19466749
_cell_formula_units_Z   2
loop_
 _symmetry_equiv_pos_site_id
 _symmetry_equiv_pos_as_xyz
  1  'x, y, z'
loop_
 _atom_site_type_symbol
 _atom_site_label
 _atom_site_symmetry_multiplicity
 _atom_site_fract_x
 _atom_site_fract_y
 _atom_site_fract_z
 _atom_site_occupancy
  Pr  Pr0  1  0.01343736  0.55501828  0.24940836  1
  Pr  Pr1  1  0.51343736  0.94498172  0.74940836  1
  Pr  Pr2  1  0.98656264  0.44498172  0.75059164  1
  Pr  Pr3  1  0.48656264  0.05501828  0.25059164  1
  Mg  Mg4  1  0.50000000  0.50000000  0.50000000  1
  Mg  Mg5  1  -0.00000000  -0.00000000  0.00000000  1
  Ir  Ir6  1  -0.00000000  -0.00000000  0.50000000  1
  Ir  Ir7  1  0.50000000  0.50000000  0.00000000  1
  O  O8  1  0.29623646  0.79733208  0.45200737  1
  O  O9  1  0.79623646  0.70266792  0.95200737  1
  O  O10  1  0.70376354  0.20266792  0.54799263  1
  O  O11  1  0.20376354  0.29733208  0.04799263  1
  O  O12  1  0.90877599  0.97302959  0.25233693  1
  O  O13  1  0.40877599  0.52697041  0.75233693  1
  O  O14  1  0.09122401  0.02697041  0.74766307  1
  O  O15  1  0.59122401  0.47302959  0.24766307  1
  O  O16  1  0.19815873  0.29257586  0.45152682  1
  O  O17  1  0.69815873  0.20742414  0.95152682  1
  O  O18  1  0.80184127  0.70742414  0.54847318  1
  O  O19  1  0.30184127  0.79257586  0.04847318  1
