# generated using pymatgen
data_Li3FeCu3O8
_symmetry_space_group_name_H-M   'P 1'
_cell_length_a   10.35424440
_cell_length_b   10.35723090
_cell_length_c   14.67967590
_cell_angle_alpha   19.03833625
_cell_angle_beta   19.04115453
_cell_angle_gamma   32.82049112
_symmetry_Int_Tables_number   1
_chemical_formula_structural   Li3FeCu3O8
_chemical_formula_sum   'Li3 Fe1 Cu3 O8'
_cell_volume   145.09653720
_cell_formula_units_Z   1
loop_
 _symmetry_equiv_pos_site_id
 _symmetry_equiv_pos_as_xyz
  1  'x, y, z'
loop_
 _atom_site_type_symbol
 _atom_site_label
 _atom_site_symmetry_multiplicity
 _atom_site_fract_x
 _atom_site_fract_y
 _atom_site_fract_z
 _atom_site_occupancy
  Li  Li0  1  0.99995412  0.49994886  0.50006959  1
  Li  Li1  1  0.49996296  -0.00002741  0.50004428  1
  Li  Li2  1  0.50003675  0.50005551  0.49995027  1
  Fe  Fe3  1  -0.00023730  -0.00020099  0.00023434  1
  Cu  Cu4  1  0.00010883  0.50010584  -0.00014863  1
  Cu  Cu5  1  0.50008091  0.00008404  -0.00011570  1
  Cu  Cu6  1  0.49994008  0.49993042  0.00007252  1
  O  O7  1  0.00072691  0.00072740  0.25632328  1
  O  O8  1  0.00031763  0.51658003  0.24849954  1
  O  O9  1  0.51636269  0.00031704  0.24864737  1
  O  O10  1  0.99924503  0.99924224  0.74369891  1
  O  O11  1  0.48283481  0.48284100  0.28298381  1
  O  O12  1  0.99970974  0.48355643  0.75142848  1
  O  O13  1  0.48380094  0.99969518  0.75128339  1
  O  O14  1  0.51715591  0.51714442  0.71702856  1
