# generated using pymatgen
data_Nd(P3Os)4
_symmetry_space_group_name_H-M   'P 1'
_cell_length_a   7.04214299
_cell_length_b   7.04214299
_cell_length_c   7.04214299
_cell_angle_alpha   109.47122063
_cell_angle_beta   109.47122063
_cell_angle_gamma   109.47122063
_symmetry_Int_Tables_number   1
_chemical_formula_structural   Nd(P3Os)4
_chemical_formula_sum   'Nd1 P12 Os4'
_cell_volume   268.83921978
_cell_formula_units_Z   1
loop_
 _symmetry_equiv_pos_site_id
 _symmetry_equiv_pos_as_xyz
  1  'x, y, z'
loop_
 _atom_site_type_symbol
 _atom_site_label
 _atom_site_symmetry_multiplicity
 _atom_site_fract_x
 _atom_site_fract_y
 _atom_site_fract_z
 _atom_site_occupancy
  Nd  Nd0  1  0.00000000  -0.00000000  0.00000000  1
  P  P1  1  0.35692909  0.21373048  0.85680139  1
  P  P2  1  0.64307091  0.78626952  0.14319861  1
  P  P3  1  0.64307091  0.49987229  0.85680139  1
  P  P4  1  0.35692909  0.50012771  0.14319861  1
  P  P5  1  0.21373048  0.85680139  0.35692909  1
  P  P6  1  0.78626952  0.14319861  0.64307091  1
  P  P7  1  0.49987229  0.85680139  0.64307091  1
  P  P8  1  0.50012771  0.14319861  0.35692909  1
  P  P9  1  0.85680139  0.35692909  0.21373048  1
  P  P10  1  0.14319861  0.64307091  0.78626952  1
  P  P11  1  0.85680139  0.64307091  0.49987229  1
  P  P12  1  0.14319861  0.35692909  0.50012771  1
  Os  Os13  1  0.00000000  -0.00000000  0.50000000  1
  Os  Os14  1  0.50000000  -0.00000000  0.00000000  1
  Os  Os15  1  0.00000000  0.50000000  0.00000000  1
  Os  Os16  1  0.50000000  0.50000000  0.50000000  1
