# generated using pymatgen
data_Dy2Si5Rh3
_symmetry_space_group_name_H-M   'P 1'
_cell_length_a   5.69306864
_cell_length_b   8.11737597
_cell_length_c   8.11737597
_cell_angle_alpha   93.33997187
_cell_angle_beta   108.90982633
_cell_angle_gamma   108.90982633
_symmetry_Int_Tables_number   1
_chemical_formula_structural   Dy2Si5Rh3
_chemical_formula_sum   'Dy4 Si10 Rh6'
_cell_volume   330.09267407
_cell_formula_units_Z   2
loop_
 _symmetry_equiv_pos_site_id
 _symmetry_equiv_pos_as_xyz
  1  'x, y, z'
loop_
 _atom_site_type_symbol
 _atom_site_label
 _atom_site_symmetry_multiplicity
 _atom_site_fract_x
 _atom_site_fract_y
 _atom_site_fract_z
 _atom_site_occupancy
  Dy  Dy0  1  0.23811022  0.86694228  0.59799127  1
  Dy  Dy1  1  0.26188978  0.40200873  0.13305772  1
  Dy  Dy2  1  0.76188978  0.13305772  0.40200873  1
  Dy  Dy3  1  0.73811022  0.59799127  0.86694228  1
  Si  Si4  1  0.16224540  0.05881696  0.26622270  1
  Si  Si5  1  0.33775460  0.73377730  0.94118304  1
  Si  Si6  1  0.83775460  0.94118304  0.73377730  1
  Si  Si7  1  0.66224540  0.26622270  0.05881696  1
  Si  Si8  1  0.25000000  0.20969361  0.79030639  1
  Si  Si9  1  0.75000000  0.79030639  0.20969361  1
  Si  Si10  1  0.25000000  0.51165785  0.48834215  1
  Si  Si11  1  0.75000000  0.48834215  0.51165785  1
  Si  Si12  1  0.25000000  0.77714566  0.22285434  1
  Si  Si13  1  0.75000000  0.22285434  0.77714566  1
  Rh  Rh14  1  0.37501612  0.26032506  0.54043177  1
  Rh  Rh15  1  0.12498388  0.45956823  0.73967494  1
  Rh  Rh16  1  0.62498388  0.73967494  0.45956823  1
  Rh  Rh17  1  0.87501612  0.54043177  0.26032506  1
  Rh  Rh18  1  0.25000000  0.00178300  0.99821700  1
  Rh  Rh19  1  0.75000000  0.99821700  0.00178300  1
