# generated using pymatgen
data_Sr2LuNbO6
_symmetry_space_group_name_H-M   'P 1'
_cell_length_a   5.85405497
_cell_length_b   5.85253995
_cell_length_c   8.28293552
_cell_angle_alpha   90.00000000
_cell_angle_beta   90.14518560
_cell_angle_gamma   90.00000000
_symmetry_Int_Tables_number   1
_chemical_formula_structural   Sr2LuNbO6
_chemical_formula_sum   'Sr4 Lu2 Nb2 O12'
_cell_volume   283.78149293
_cell_formula_units_Z   2
loop_
 _symmetry_equiv_pos_site_id
 _symmetry_equiv_pos_as_xyz
  1  'x, y, z'
loop_
 _atom_site_type_symbol
 _atom_site_label
 _atom_site_symmetry_multiplicity
 _atom_site_fract_x
 _atom_site_fract_y
 _atom_site_fract_z
 _atom_site_occupancy
  Sr  Sr0  1  0.49707788  0.52558532  0.75272114  1
  Sr  Sr1  1  0.99707788  0.97441468  0.25272114  1
  Sr  Sr2  1  0.50292212  0.47441468  0.24727886  1
  Sr  Sr3  1  0.00292212  0.02558532  0.74727886  1
  Lu  Lu4  1  0.50000000  -0.00000000  0.50000000  1
  Lu  Lu5  1  -0.00000000  0.50000000  -0.00000000  1
  Nb  Nb6  1  -0.00000000  0.50000000  0.50000000  1
  Nb  Nb7  1  0.50000000  -0.00000000  -0.00000000  1
  O  O8  1  0.19945171  0.78020418  0.53450075  1
  O  O9  1  0.69945171  0.71979582  0.03450075  1
  O  O10  1  0.80054829  0.21979582  0.46549925  1
  O  O11  1  0.30054829  0.28020418  0.96549925  1
  O  O12  1  0.22485045  0.79638958  0.96018002  1
  O  O13  1  0.72485045  0.70361042  0.46018002  1
  O  O14  1  0.77514955  0.20361042  0.03981998  1
  O  O15  1  0.27514955  0.29638958  0.53981998  1
  O  O16  1  0.57194988  0.98593832  0.76037576  1
  O  O17  1  0.07194988  0.51406168  0.26037576  1
  O  O18  1  0.42805012  0.01406168  0.23962424  1
  O  O19  1  0.92805012  0.48593832  0.73962424  1
