# generated using pymatgen
data_NiSn3(PO4)4
_symmetry_space_group_name_H-M   'P 1'
_cell_length_a   5.07893228
_cell_length_b   10.33607116
_cell_length_c   6.18707518
_cell_angle_alpha   90.00000000
_cell_angle_beta   90.00000000
_cell_angle_gamma   89.72359791
_symmetry_Int_Tables_number   1
_chemical_formula_structural   NiSn3(PO4)4
_chemical_formula_sum   'Ni1 Sn3 P4 O16'
_cell_volume   324.79419081
_cell_formula_units_Z   1
loop_
 _symmetry_equiv_pos_site_id
 _symmetry_equiv_pos_as_xyz
  1  'x, y, z'
loop_
 _atom_site_type_symbol
 _atom_site_label
 _atom_site_symmetry_multiplicity
 _atom_site_fract_x
 _atom_site_fract_y
 _atom_site_fract_z
 _atom_site_occupancy
  Ni  Ni0  1  0.05613305  0.72783493  0.75000000  1
  Sn  Sn1  1  0.45732305  0.21607443  0.75000000  1
  Sn  Sn2  1  0.54498588  0.78222181  0.25000000  1
  Sn  Sn3  1  0.95690786  0.28178400  0.25000000  1
  P  P4  1  0.10840909  0.61320104  0.25000000  1
  P  P5  1  0.43384106  0.08203501  0.25000000  1
  P  P6  1  0.57937757  0.90031977  0.75000000  1
  P  P7  1  0.87631562  0.40558754  0.75000000  1
  O  O8  1  0.18265356  0.47235284  0.25000000  1
  O  O9  1  0.24333400  0.68776308  0.05488129  1
  O  O10  1  0.24333400  0.68776308  0.44511871  1
  O  O11  1  0.16279467  0.35219263  0.75000000  1
  O  O12  1  0.28317636  0.88659419  0.75000000  1
  O  O13  1  0.30877672  0.15759219  0.05101813  1
  O  O14  1  0.30877672  0.15759219  0.44898187  1
  O  O15  1  0.31641492  0.94336444  0.25000000  1
  O  O16  1  0.66573936  0.04536692  0.75000000  1
  O  O17  1  0.72187598  0.83017238  0.55295753  1
  O  O18  1  0.72187598  0.83017238  0.94704247  1
  O  O19  1  0.72969345  0.08010196  0.25000000  1
  O  O20  1  0.80417517  0.63145089  0.25000000  1
  O  O21  1  0.71097922  0.33890806  0.56048065  1
  O  O22  1  0.71097922  0.33890806  0.93951935  1
  O  O23  1  0.87212450  0.55064316  0.75000000  1
