# generated using pymatgen
data_Ce(BOs)4
_symmetry_space_group_name_H-M   'P 1'
_cell_length_a   4.02117832
_cell_length_b   7.58260228
_cell_length_c   7.58260228
_cell_angle_alpha   90.00000000
_cell_angle_beta   90.00000000
_cell_angle_gamma   90.00000000
_symmetry_Int_Tables_number   1
_chemical_formula_structural   Ce(BOs)4
_chemical_formula_sum   'Ce2 B8 Os8'
_cell_volume   231.20109501
_cell_formula_units_Z   2
loop_
 _symmetry_equiv_pos_site_id
 _symmetry_equiv_pos_as_xyz
  1  'x, y, z'
loop_
 _atom_site_type_symbol
 _atom_site_label
 _atom_site_symmetry_multiplicity
 _atom_site_fract_x
 _atom_site_fract_y
 _atom_site_fract_z
 _atom_site_occupancy
  Ce  Ce0  1  0.25000000  0.25000000  0.25000000  1
  Ce  Ce1  1  0.75000000  0.75000000  0.75000000  1
  B  B2  1  0.36234339  0.91275368  0.03059846  1
  B  B3  1  0.36234339  0.58724632  0.46940154  1
  B  B4  1  0.86234339  0.53059846  0.08724632  1
  B  B5  1  0.86234339  0.96940154  0.41275368  1
  B  B6  1  0.63765661  0.08724632  0.96940154  1
  B  B7  1  0.63765661  0.41275368  0.53059846  1
  B  B8  1  0.13765661  0.46940154  0.91275368  1
  B  B9  1  0.13765661  0.03059846  0.58724632  1
  Os  Os10  1  0.13846127  0.39473980  0.64137318  1
  Os  Os11  1  0.13846127  0.10526020  0.85862682  1
  Os  Os12  1  0.63846127  0.14137318  0.60526020  1
  Os  Os13  1  0.63846127  0.35862682  0.89473980  1
  Os  Os14  1  0.86153873  0.60526020  0.35862682  1
  Os  Os15  1  0.86153873  0.89473980  0.14137318  1
  Os  Os16  1  0.36153873  0.85862682  0.39473980  1
  Os  Os17  1  0.36153873  0.64137318  0.10526020  1
