# generated using pymatgen
data_La(HoS2)3
_symmetry_space_group_name_H-M   'P 1'
_cell_length_a   4.01349910
_cell_length_b   11.35045659
_cell_length_c   11.13956916
_cell_angle_alpha   108.97657055
_cell_angle_beta   90.00000000
_cell_angle_gamma   90.00000000
_symmetry_Int_Tables_number   1
_chemical_formula_structural   La(HoS2)3
_chemical_formula_sum   'La2 Ho6 S12'
_cell_volume   479.88377980
_cell_formula_units_Z   2
loop_
 _symmetry_equiv_pos_site_id
 _symmetry_equiv_pos_as_xyz
  1  'x, y, z'
loop_
 _atom_site_type_symbol
 _atom_site_label
 _atom_site_symmetry_multiplicity
 _atom_site_fract_x
 _atom_site_fract_y
 _atom_site_fract_z
 _atom_site_occupancy
  La  La0  1  0.25000000  0.19485477  0.55057020  1
  La  La1  1  0.75000000  0.80514523  0.44942980  1
  Ho  Ho2  1  0.25000000  -0.00008280  0.17896722  1
  Ho  Ho3  1  0.75000000  0.00008280  0.82103278  1
  Ho  Ho4  1  0.25000000  0.33401956  0.94376129  1
  Ho  Ho5  1  0.75000000  0.66598044  0.05623871  1
  Ho  Ho6  1  0.25000000  0.58728638  0.66099957  1
  Ho  Ho7  1  0.75000000  0.41271362  0.33900043  1
  S  S8  1  0.25000000  0.11146617  0.97869589  1
  S  S9  1  0.75000000  0.88853383  0.02130411  1
  S  S10  1  0.25000000  0.25140292  0.30303237  1
  S  S11  1  0.75000000  0.74859708  0.69696763  1
  S  S12  1  0.25000000  0.55740701  0.89266277  1
  S  S13  1  0.75000000  0.44259299  0.10733723  1
  S  S14  1  0.25000000  0.59340640  0.41900807  1
  S  S15  1  0.75000000  0.40659360  0.58099193  1
  S  S16  1  0.25000000  0.76941737  0.23105525  1
  S  S17  1  0.75000000  0.23058263  0.76894475  1
  S  S18  1  0.25000000  0.96330621  0.62025748  1
  S  S19  1  0.75000000  0.03669379  0.37974252  1
