# generated using pymatgen
data_Zn2NCl
_symmetry_space_group_name_H-M   'P 1'
_cell_length_a   5.99718735
_cell_length_b   6.18923889
_cell_length_c   7.44251094
_cell_angle_alpha   90.00000000
_cell_angle_beta   90.00000000
_cell_angle_gamma   90.00000000
_symmetry_Int_Tables_number   1
_chemical_formula_structural   Zn2NCl
_chemical_formula_sum   'Zn8 N4 Cl4'
_cell_volume   276.25130845
_cell_formula_units_Z   4
loop_
 _symmetry_equiv_pos_site_id
 _symmetry_equiv_pos_as_xyz
  1  'x, y, z'
loop_
 _atom_site_type_symbol
 _atom_site_label
 _atom_site_symmetry_multiplicity
 _atom_site_fract_x
 _atom_site_fract_y
 _atom_site_fract_z
 _atom_site_occupancy
  Zn  Zn0  1  0.85115575  0.37797105  0.32455982  1
  Zn  Zn1  1  0.35115575  0.62202895  0.67544018  1
  Zn  Zn2  1  0.35115575  0.12202895  0.82455982  1
  Zn  Zn3  1  0.85115575  0.87797105  0.17544018  1
  Zn  Zn4  1  0.70132798  0.47141115  0.94838687  1
  Zn  Zn5  1  0.20132798  0.52858885  0.05161313  1
  Zn  Zn6  1  0.20132798  0.02858885  0.44838687  1
  Zn  Zn7  1  0.70132798  0.97141115  0.55161313  1
  N  N8  1  0.90181783  0.57575304  0.12704642  1
  N  N9  1  0.40181783  0.42424696  0.87295358  1
  N  N10  1  0.40181783  0.92424696  0.62704642  1
  N  N11  1  0.90181783  0.07575304  0.37295358  1
  Cl  Cl12  1  0.40157845  0.41821838  0.37828620  1
  Cl  Cl13  1  0.90157845  0.58178162  0.62171380  1
  Cl  Cl14  1  0.90157845  0.08178162  0.87828620  1
  Cl  Cl15  1  0.40157845  0.91821838  0.12171380  1
