# generated using pymatgen
data_TmGePd2
_symmetry_space_group_name_H-M   'P 1'
_cell_length_a   5.60195960
_cell_length_b   7.25603975
_cell_length_c   7.17908906
_cell_angle_alpha   90.00000000
_cell_angle_beta   90.00000000
_cell_angle_gamma   90.00000000
_symmetry_Int_Tables_number   1
_chemical_formula_structural   TmGePd2
_chemical_formula_sum   'Tm4 Ge4 Pd8'
_cell_volume   291.81591030
_cell_formula_units_Z   4
loop_
 _symmetry_equiv_pos_site_id
 _symmetry_equiv_pos_as_xyz
  1  'x, y, z'
loop_
 _atom_site_type_symbol
 _atom_site_label
 _atom_site_symmetry_multiplicity
 _atom_site_fract_x
 _atom_site_fract_y
 _atom_site_fract_z
 _atom_site_occupancy
  Tm  Tm0  1  0.85606107  0.52324429  0.25000000  1
  Tm  Tm1  1  0.64393893  0.02324429  0.25000000  1
  Tm  Tm2  1  0.14393893  0.47675571  0.75000000  1
  Tm  Tm3  1  0.35606107  0.97675571  0.75000000  1
  Ge  Ge4  1  0.13908732  0.87914040  0.25000000  1
  Ge  Ge5  1  0.36091268  0.37914040  0.25000000  1
  Ge  Ge6  1  0.86091268  0.12085960  0.75000000  1
  Ge  Ge7  1  0.63908732  0.62085960  0.75000000  1
  Pd  Pd8  1  0.41199852  0.68428810  0.05156254  1
  Pd  Pd9  1  0.08800148  0.18428810  0.44843746  1
  Pd  Pd10  1  0.58800148  0.31571190  0.55156254  1
  Pd  Pd11  1  0.91199852  0.81571190  0.94843746  1
  Pd  Pd12  1  0.58800148  0.31571190  0.94843746  1
  Pd  Pd13  1  0.91199852  0.81571190  0.55156254  1
  Pd  Pd14  1  0.41199852  0.68428810  0.44843746  1
  Pd  Pd15  1  0.08800148  0.18428810  0.05156254  1
