# generated using pymatgen
data_TaIn3O7
_symmetry_space_group_name_H-M   'P 1'
_cell_length_a   7.31930955
_cell_length_b   10.51179597
_cell_length_c   7.49386270
_cell_angle_alpha   89.99980218
_cell_angle_beta   89.99993858
_cell_angle_gamma   90.00009533
_symmetry_Int_Tables_number   1
_chemical_formula_structural   TaIn3O7
_chemical_formula_sum   'Ta4 In12 O28'
_cell_volume   576.57096646
_cell_formula_units_Z   4
loop_
 _symmetry_equiv_pos_site_id
 _symmetry_equiv_pos_as_xyz
  1  'x, y, z'
loop_
 _atom_site_type_symbol
 _atom_site_label
 _atom_site_symmetry_multiplicity
 _atom_site_fract_x
 _atom_site_fract_y
 _atom_site_fract_z
 _atom_site_occupancy
  Ta  Ta0  1  0.00075710  0.74999583  0.74219234  1
  Ta  Ta1  1  0.49924130  0.25000264  0.24219272  1
  Ta  Ta2  1  0.50075577  0.74999697  0.75780817  1
  Ta  Ta3  1  0.99924530  0.25000339  0.25780794  1
  In  In4  1  0.00751596  0.25000027  0.79786348  1
  In  In5  1  0.25055349  0.50863874  0.98451913  1
  In  In6  1  0.25055311  0.99136188  0.98451799  1
  In  In7  1  0.24944210  0.00863605  0.48451944  1
  In  In8  1  0.24944262  0.49136216  0.48451763  1
  In  In9  1  0.49248427  0.74999986  0.29787115  1
  In  In10  1  0.50751865  0.25000082  0.70213333  1
  In  In11  1  0.75055624  0.50863642  0.51548013  1
  In  In12  1  0.75055764  0.99136304  0.51548043  1
  In  In13  1  0.74944769  0.00863645  0.01548133  1
  In  In14  1  0.74944691  0.49136318  0.01548006  1
  In  In15  1  0.99248126  0.75000104  0.20213240  1
  O  O16  1  0.02464665  0.12286568  0.04392731  1
  O  O17  1  0.02464670  0.37713541  0.04392779  1
  O  O18  1  0.02444104  0.60974970  0.57688125  1
  O  O19  1  0.02444069  0.89024936  0.57688350  1
  O  O20  1  0.25104424  0.24999963  0.31692269  1
  O  O21  1  0.25373726  0.11597555  0.73812139  1
  O  O22  1  0.25373818  0.38402259  0.73812191  1
  O  O23  1  0.24626416  0.61597752  0.23812093  1
  O  O24  1  0.24626456  0.88402241  0.23812053  1
  O  O25  1  0.24897361  0.75000278  0.81692401  1
  O  O26  1  0.47555684  0.10975260  0.07688344  1
  O  O27  1  0.47555780  0.39024788  0.07688471  1
  O  O28  1  0.47535388  0.62286363  0.54392909  1
  O  O29  1  0.47535175  0.87713535  0.54392974  1
  O  O30  1  0.52464757  0.12286777  0.45606968  1
  O  O31  1  0.52464904  0.37713255  0.45606852  1
  O  O32  1  0.52444076  0.60974922  0.92312031  1
  O  O33  1  0.52444239  0.89025159  0.92311880  1
  O  O34  1  0.75100380  0.24999976  0.18307325  1
  O  O35  1  0.75373458  0.11597584  0.76187854  1
  O  O36  1  0.75373386  0.38402302  0.76187892  1
  O  O37  1  0.74626457  0.61597557  0.26187864  1
  O  O38  1  0.74626382  0.88402269  0.26187960  1
  O  O39  1  0.74898163  0.75000129  0.68307455  1
  O  O40  1  0.97555926  0.10974942  0.42312184  1
  O  O41  1  0.97555606  0.39025202  0.42312132  1
  O  O42  1  0.97535306  0.62286611  0.95607030  1
  O  O43  1  0.97535286  0.87713432  0.95606975  1
