# generated using pymatgen
data_NaAl(PS3)2
_symmetry_space_group_name_H-M   'P 1'
_cell_length_a   6.95262502
_cell_length_b   6.95262502
_cell_length_c   11.27200185
_cell_angle_alpha   102.58603888
_cell_angle_beta   102.58603888
_cell_angle_gamma   107.06389396
_symmetry_Int_Tables_number   1
_chemical_formula_structural   NaAl(PS3)2
_chemical_formula_sum   'Na2 Al2 P4 S12'
_cell_volume   484.62292785
_cell_formula_units_Z   2
loop_
 _symmetry_equiv_pos_site_id
 _symmetry_equiv_pos_as_xyz
  1  'x, y, z'
loop_
 _atom_site_type_symbol
 _atom_site_label
 _atom_site_symmetry_multiplicity
 _atom_site_fract_x
 _atom_site_fract_y
 _atom_site_fract_z
 _atom_site_occupancy
  Na  Na0  1  0.65693406  0.15693406  0.31386812  1
  Na  Na1  1  0.40693406  0.40693406  0.81386812  1
  Al  Al2  1  0.32251587  0.82251587  0.64503173  1
  Al  Al3  1  0.07251587  0.07251587  0.14503173  1
  P  P4  1  0.31308820  0.93232349  0.96540888  1
  P  P5  1  0.65232068  0.03308539  0.96540888  1
  P  P6  1  0.28308539  0.40232068  0.46540888  1
  P  P7  1  0.18232349  0.06308820  0.46540888  1
  S  S8  1  0.35502127  0.37890152  0.29646120  1
  S  S9  1  0.94143993  0.91755969  0.29646120  1
  S  S10  1  0.16755969  0.69143993  0.79646120  1
  S  S11  1  0.62890152  0.10502127  0.79646120  1
  S  S12  1  0.22600759  0.18929225  0.98251215  1
  S  S13  1  0.75650456  0.79321990  0.98251215  1
  S  S14  1  0.04321990  0.50650456  0.48251215  1
  S  S15  1  0.43929225  0.97600759  0.48251215  1
  S  S16  1  0.84510559  0.28399015  0.11820584  1
  S  S17  1  0.27310026  0.83421569  0.11820584  1
  S  S18  1  0.08421569  0.02310026  0.61820584  1
  S  S19  1  0.53399015  0.59510559  0.61820584  1
