# generated using pymatgen
data_Ce5CuPb3
_symmetry_space_group_name_H-M   'P 1'
_cell_length_a   6.58792647
_cell_length_b   9.62755443
_cell_length_c   9.61353753
_cell_angle_alpha   120.04824861
_cell_angle_beta   90.00000000
_cell_angle_gamma   90.00000000
_symmetry_Int_Tables_number   1
_chemical_formula_structural   Ce5CuPb3
_chemical_formula_sum   'Ce10 Cu2 Pb6'
_cell_volume   527.79738096
_cell_formula_units_Z   2
loop_
 _symmetry_equiv_pos_site_id
 _symmetry_equiv_pos_as_xyz
  1  'x, y, z'
loop_
 _atom_site_type_symbol
 _atom_site_label
 _atom_site_symmetry_multiplicity
 _atom_site_fract_x
 _atom_site_fract_y
 _atom_site_fract_z
 _atom_site_occupancy
  Ce  Ce0  1  0.74995090  0.26309447  1.00000000  1
  Ce  Ce1  1  0.75000078  0.73653630  0.73669687  1
  Ce  Ce2  1  0.75000078  -0.00016056  0.26330313  1
  Ce  Ce3  1  0.24995090  0.73690553  0.00000000  1
  Ce  Ce4  1  0.25000078  0.26346370  0.26330313  1
  Ce  Ce5  1  0.25000078  0.00016056  0.73669687  1
  Ce  Ce6  1  0.49999897  0.33331744  0.66663330  1
  Ce  Ce7  1  0.49999897  0.66668414  0.33336670  1
  Ce  Ce8  1  0.99999897  0.66668256  0.33336670  1
  Ce  Ce9  1  0.99999897  0.33331586  0.66663330  1
  Cu  Cu10  1  0.49996994  0.99997759  -0.00000000  1
  Cu  Cu11  1  0.99996994  0.00002241  0.00000000  1
  Pb  Pb12  1  0.75000581  0.61891154  1.00000000  1
  Pb  Pb13  1  0.75003692  0.38103467  0.38094434  1
  Pb  Pb14  1  0.75003692  0.00009033  0.61905566  1
  Pb  Pb15  1  0.25000581  0.38108846  0.00000000  1
  Pb  Pb16  1  0.25003692  0.61896533  0.61905566  1
  Pb  Pb17  1  0.25003692  -0.00009033  0.38094434  1
