# generated using pymatgen
data_Zr5TePb3
_symmetry_space_group_name_H-M   'P 1'
_cell_length_a   6.15992530
_cell_length_b   8.93620475
_cell_length_c   8.93654768
_cell_angle_alpha   119.99872533
_cell_angle_beta   90.00000000
_cell_angle_gamma   90.00000000
_symmetry_Int_Tables_number   1
_chemical_formula_structural   Zr5TePb3
_chemical_formula_sum   'Zr10 Te2 Pb6'
_cell_volume   426.02446832
_cell_formula_units_Z   2
loop_
 _symmetry_equiv_pos_site_id
 _symmetry_equiv_pos_as_xyz
  1  'x, y, z'
loop_
 _atom_site_type_symbol
 _atom_site_label
 _atom_site_symmetry_multiplicity
 _atom_site_fract_x
 _atom_site_fract_y
 _atom_site_fract_z
 _atom_site_occupancy
  Zr  Zr0  1  0.50000008  0.33329823  0.66667920  1
  Zr  Zr1  1  0.50000008  0.66661903  0.33332080  1
  Zr  Zr2  1  0.00000008  0.66670177  0.33332080  1
  Zr  Zr3  1  0.00000008  0.33338097  0.66667920  1
  Zr  Zr4  1  0.74999916  0.27990236  0.00000000  1
  Zr  Zr5  1  0.75000024  0.72010033  0.72009633  1
  Zr  Zr6  1  0.75000024  0.00000400  0.27990367  1
  Zr  Zr7  1  0.24999916  0.72009764  1.00000000  1
  Zr  Zr8  1  0.25000024  0.27989967  0.27990367  1
  Zr  Zr9  1  0.25000024  -0.00000400  0.72009633  1
  Te  Te10  1  0.49999999  0.00000086  1.00000000  1
  Te  Te11  1  -0.00000001  0.99999914  0.00000000  1
  Pb  Pb12  1  0.74999822  0.61406187  0.00000000  1
  Pb  Pb13  1  0.75000100  0.38592214  0.38592844  1
  Pb  Pb14  1  0.75000100  0.99999370  0.61407156  1
  Pb  Pb15  1  0.24999822  0.38593813  1.00000000  1
  Pb  Pb16  1  0.25000100  0.61407786  0.61407156  1
  Pb  Pb17  1  0.25000100  0.00000630  0.38592844  1
