# generated using pymatgen
data_Dy6GaNi2
_symmetry_space_group_name_H-M   'P 1'
_cell_length_a   8.31127374
_cell_length_b   8.31127374
_cell_length_c   8.31127374
_cell_angle_alpha   106.59144884
_cell_angle_beta   110.23390249
_cell_angle_gamma   111.62937594
_symmetry_Int_Tables_number   1
_chemical_formula_structural   Dy6GaNi2
_chemical_formula_sum   'Dy12 Ga2 Ni4'
_cell_volume   441.05677224
_cell_formula_units_Z   2
loop_
 _symmetry_equiv_pos_site_id
 _symmetry_equiv_pos_as_xyz
  1  'x, y, z'
loop_
 _atom_site_type_symbol
 _atom_site_label
 _atom_site_symmetry_multiplicity
 _atom_site_fract_x
 _atom_site_fract_y
 _atom_site_fract_z
 _atom_site_occupancy
  Dy  Dy0  1  0.69824081  0.26432761  0.96256842  1
  Dy  Dy1  1  0.30175919  0.73567239  0.03743158  1
  Dy  Dy2  1  0.69824081  0.73567239  0.43391319  1
  Dy  Dy3  1  0.30175919  0.26432761  0.56608681  1
  Dy  Dy4  1  0.80483645  0.12737297  0.32253652  1
  Dy  Dy5  1  0.80483645  0.48229993  0.67746348  1
  Dy  Dy6  1  0.19516355  0.87262703  0.67746348  1
  Dy  Dy7  1  0.19516355  0.51770007  0.32253652  1
  Dy  Dy8  1  0.60216883  0.78369590  0.81847293  1
  Dy  Dy9  1  0.96522296  0.78369590  0.18152707  1
  Dy  Dy10  1  0.03477704  0.21630410  0.81847293  1
  Dy  Dy11  1  0.39783117  0.21630410  0.18152707  1
  Ga  Ga12  1  0.50000000  0.50000000  0.00000000  1
  Ga  Ga13  1  0.50000000  0.00000000  0.50000000  1
  Ni  Ni14  1  0.85724995  0.50000000  0.35724995  1
  Ni  Ni15  1  0.14275005  0.50000000  0.64275005  1
  Ni  Ni16  1  0.00000000  0.12174218  0.12174218  1
  Ni  Ni17  1  -0.00000000  0.87825782  0.87825782  1
