# generated using pymatgen
data_Pr2Zn5Sn
_symmetry_space_group_name_H-M   'P 1'
_cell_length_a   4.51893598
_cell_length_b   8.62684006
_cell_length_c   9.10605976
_cell_angle_alpha   90.00000000
_cell_angle_beta   90.00000000
_cell_angle_gamma   105.18350974
_symmetry_Int_Tables_number   1
_chemical_formula_structural   Pr2Zn5Sn
_chemical_formula_sum   'Pr4 Zn10 Sn2'
_cell_volume   342.59980256
_cell_formula_units_Z   2
loop_
 _symmetry_equiv_pos_site_id
 _symmetry_equiv_pos_as_xyz
  1  'x, y, z'
loop_
 _atom_site_type_symbol
 _atom_site_label
 _atom_site_symmetry_multiplicity
 _atom_site_fract_x
 _atom_site_fract_y
 _atom_site_fract_z
 _atom_site_occupancy
  Pr  Pr0  1  0.79442532  0.58885064  0.25000000  1
  Pr  Pr1  1  0.20557468  0.41114936  0.75000000  1
  Pr  Pr2  1  -0.00000000  -0.00000000  0.50000000  1
  Pr  Pr3  1  -0.00000000  -0.00000000  0.00000000  1
  Zn  Zn4  1  0.18559436  0.37118872  0.39198983  1
  Zn  Zn5  1  0.81440564  0.62881128  0.60801017  1
  Zn  Zn6  1  0.18559436  0.37118872  0.10801017  1
  Zn  Zn7  1  0.81440564  0.62881128  0.89198983  1
  Zn  Zn8  1  0.34361039  0.68722078  0.48415859  1
  Zn  Zn9  1  0.65638961  0.31277922  0.51584141  1
  Zn  Zn10  1  0.34361039  0.68722078  0.01584141  1
  Zn  Zn11  1  0.65638961  0.31277922  0.98415859  1
  Zn  Zn12  1  0.60444670  0.20889340  0.25000000  1
  Zn  Zn13  1  0.39555330  0.79110660  0.75000000  1
  Sn  Sn14  1  0.44506657  0.89013313  0.25000000  1
  Sn  Sn15  1  0.55493343  0.10986687  0.75000000  1
