# generated using pymatgen
data_Ca2ScSbO6
_symmetry_space_group_name_H-M   'P 1'
_cell_length_a   5.55062901
_cell_length_b   5.69660063
_cell_length_c   7.93805807
_cell_angle_alpha   90.00000000
_cell_angle_beta   90.02806644
_cell_angle_gamma   90.00000000
_symmetry_Int_Tables_number   1
_chemical_formula_structural   Ca2ScSbO6
_chemical_formula_sum   'Ca4 Sc2 Sb2 O12'
_cell_volume   250.99911704
_cell_formula_units_Z   2
loop_
 _symmetry_equiv_pos_site_id
 _symmetry_equiv_pos_as_xyz
  1  'x, y, z'
loop_
 _atom_site_type_symbol
 _atom_site_label
 _atom_site_symmetry_multiplicity
 _atom_site_fract_x
 _atom_site_fract_y
 _atom_site_fract_z
 _atom_site_occupancy
  Ca  Ca0  1  0.48646494  0.54818629  0.24966633  1
  Ca  Ca1  1  0.98646494  0.95181371  0.74966633  1
  Ca  Ca2  1  0.51353506  0.45181371  0.75033367  1
  Ca  Ca3  1  0.01353506  0.04818629  0.25033367  1
  Sc  Sc4  1  -0.00000000  0.50000000  0.50000000  1
  Sc  Sc5  1  0.50000000  -0.00000000  -0.00000000  1
  Sb  Sb6  1  0.50000000  -0.00000000  0.50000000  1
  Sb  Sb7  1  -0.00000000  0.50000000  -0.00000000  1
  O  O8  1  0.21075198  0.79985297  0.44989054  1
  O  O9  1  0.71075198  0.70014703  0.94989054  1
  O  O10  1  0.78924802  0.20014703  0.55010946  1
  O  O11  1  0.28924802  0.29985297  0.05010946  1
  O  O12  1  0.19632226  0.78758268  0.05342340  1
  O  O13  1  0.69632226  0.71241732  0.55342340  1
  O  O14  1  0.80367774  0.21241732  0.94657660  1
  O  O15  1  0.30367774  0.28758268  0.44657660  1
  O  O16  1  0.59785169  0.96626358  0.25728944  1
  O  O17  1  0.09785169  0.53373642  0.75728944  1
  O  O18  1  0.40214831  0.03373642  0.74271056  1
  O  O19  1  0.90214831  0.46626358  0.24271056  1
