# generated using pymatgen
data_Sr3LiSbO6
_symmetry_space_group_name_H-M   'P 1'
_cell_length_a   6.83516198
_cell_length_b   6.83516198
_cell_length_c   6.83516209
_cell_angle_alpha   92.48254029
_cell_angle_beta   92.48254029
_cell_angle_gamma   92.48253853
_symmetry_Int_Tables_number   1
_chemical_formula_structural   Sr3LiSbO6
_chemical_formula_sum   'Sr6 Li2 Sb2 O12'
_cell_volume   318.40894980
_cell_formula_units_Z   2
loop_
 _symmetry_equiv_pos_site_id
 _symmetry_equiv_pos_as_xyz
  1  'x, y, z'
loop_
 _atom_site_type_symbol
 _atom_site_label
 _atom_site_symmetry_multiplicity
 _atom_site_fract_x
 _atom_site_fract_y
 _atom_site_fract_z
 _atom_site_occupancy
  Sr  Sr0  1  0.89822978  0.60178410  0.25000258  1
  Sr  Sr1  1  0.60178410  0.25000258  0.89822978  1
  Sr  Sr2  1  0.25000258  0.89822978  0.60178410  1
  Sr  Sr3  1  0.39822978  0.75000258  0.10178410  1
  Sr  Sr4  1  0.75000258  0.10178410  0.39822978  1
  Sr  Sr5  1  0.10178410  0.39822978  0.75000258  1
  Li  Li6  1  0.25000034  0.25000034  0.25000034  1
  Li  Li7  1  0.75000034  0.75000034  0.75000034  1
  Sb  Sb8  1  0.00000277  0.00000277  0.00000277  1
  Sb  Sb9  1  0.50000277  0.50000277  0.50000277  1
  O  O10  1  0.95221480  0.28100562  0.08135667  1
  O  O11  1  0.28100562  0.08135667  0.95221480  1
  O  O12  1  0.08135667  0.95221480  0.28100562  1
  O  O13  1  0.45221480  0.58135667  0.78100562  1
  O  O14  1  0.58135667  0.78100562  0.45221480  1
  O  O15  1  0.78100562  0.45221480  0.58135667  1
  O  O16  1  0.04778986  0.71899976  0.91864771  1
  O  O17  1  0.71899976  0.91864771  0.04778986  1
  O  O18  1  0.91864771  0.04778986  0.71899976  1
  O  O19  1  0.54778986  0.41864771  0.21899976  1
  O  O20  1  0.41864771  0.21899976  0.54778986  1
  O  O21  1  0.21899976  0.54778986  0.41864771  1
