# generated using pymatgen
data_Li2CuSb(PO4)2
_symmetry_space_group_name_H-M   'P 1'
_cell_length_a   10.66260237
_cell_length_b   6.55658600
_cell_length_c   4.79947316
_cell_angle_alpha   90.00000000
_cell_angle_beta   92.89349258
_cell_angle_gamma   90.00000000
_symmetry_Int_Tables_number   1
_chemical_formula_structural   Li2CuSb(PO4)2
_chemical_formula_sum   'Li4 Cu2 Sb2 P4 O16'
_cell_volume   335.10469012
_cell_formula_units_Z   2
loop_
 _symmetry_equiv_pos_site_id
 _symmetry_equiv_pos_as_xyz
  1  'x, y, z'
loop_
 _atom_site_type_symbol
 _atom_site_label
 _atom_site_symmetry_multiplicity
 _atom_site_fract_x
 _atom_site_fract_y
 _atom_site_fract_z
 _atom_site_occupancy
  Li  Li0  1  0.00000000  0.00000000  0.00000000  1
  Li  Li1  1  0.00000000  0.50000000  0.00000000  1
  Li  Li2  1  0.50000000  0.00000000  0.50000000  1
  Li  Li3  1  0.50000000  0.50000000  0.50000000  1
  Cu  Cu4  1  0.29135959  0.25000000  0.96715718  1
  Cu  Cu5  1  0.70864041  0.75000000  0.03284282  1
  Sb  Sb6  1  0.21352181  0.75000000  0.47613050  1
  Sb  Sb7  1  0.78647819  0.25000000  0.52386950  1
  P  P8  1  0.08397593  0.25000000  0.40926953  1
  P  P9  1  0.41382908  0.75000000  0.91057445  1
  P  P10  1  0.58617092  0.25000000  0.08942555  1
  P  P11  1  0.91602407  0.75000000  0.59073047  1
  O  O12  1  0.05525182  0.75000000  0.74123299  1
  O  O13  1  0.07799099  0.25000000  0.72702783  1
  O  O14  1  0.14734836  0.05877001  0.28606660  1
  O  O15  1  0.14734836  0.44122999  0.28606660  1
  O  O16  1  0.33400578  0.56249960  0.78247035  1
  O  O17  1  0.33400578  0.93750040  0.78247035  1
  O  O18  1  0.42357174  0.75000000  0.23102595  1
  O  O19  1  0.45702312  0.25000000  0.22215899  1
  O  O20  1  0.54297688  0.75000000  0.77784101  1
  O  O21  1  0.57642826  0.25000000  0.76897405  1
  O  O22  1  0.66599422  0.06249960  0.21752965  1
  O  O23  1  0.66599422  0.43750040  0.21752965  1
  O  O24  1  0.85265164  0.55877001  0.71393340  1
  O  O25  1  0.85265164  0.94122999  0.71393340  1
  O  O26  1  0.92200901  0.75000000  0.27297217  1
  O  O27  1  0.94474818  0.25000000  0.25876701  1
