# generated using pymatgen
data_LiLa(CN2)2
_symmetry_space_group_name_H-M   'P 1'
_cell_length_a   3.81156078
_cell_length_b   5.46329722
_cell_length_c   10.17318080
_cell_angle_alpha   101.55713478
_cell_angle_beta   90.00000000
_cell_angle_gamma   90.00000000
_symmetry_Int_Tables_number   1
_chemical_formula_structural   LiLa(CN2)2
_chemical_formula_sum   'Li2 La2 C4 N8'
_cell_volume   207.54812413
_cell_formula_units_Z   2
loop_
 _symmetry_equiv_pos_site_id
 _symmetry_equiv_pos_as_xyz
  1  'x, y, z'
loop_
 _atom_site_type_symbol
 _atom_site_label
 _atom_site_symmetry_multiplicity
 _atom_site_fract_x
 _atom_site_fract_y
 _atom_site_fract_z
 _atom_site_occupancy
  Li  Li0  1  0.25000000  0.40466150  0.64369610  1
  Li  Li1  1  0.75000000  0.59533850  0.35630390  1
  La  La2  1  0.75000000  0.02019924  0.80663426  1
  La  La3  1  0.25000000  0.97980076  0.19336574  1
  C  C4  1  0.25000000  0.57423173  0.88998372  1
  C  C5  1  0.75000000  0.42576827  0.11001628  1
  C  C6  1  0.25000000  0.78172082  0.52704813  1
  C  C7  1  0.75000000  0.21827918  0.47295187  1
  N  N8  1  0.25000000  0.34874383  0.84115171  1
  N  N9  1  0.75000000  0.65125617  0.15884829  1
  N  N10  1  0.75000000  0.19728419  0.06629801  1
  N  N11  1  0.25000000  0.80271581  0.93370199  1
  N  N12  1  0.75000000  0.24318679  0.59562575  1
  N  N13  1  0.25000000  0.75681321  0.40437425  1
  N  N14  1  0.25000000  0.79431238  0.65099612  1
  N  N15  1  0.75000000  0.20568762  0.34900388  1
