# generated using pymatgen
data_Zr5CdPb3
_symmetry_space_group_name_H-M   'P 1'
_cell_length_a   6.04576348
_cell_length_b   8.92496078
_cell_length_c   8.92212993
_cell_angle_alpha   120.01049586
_cell_angle_beta   90.00000000
_cell_angle_gamma   90.00000000
_symmetry_Int_Tables_number   1
_chemical_formula_structural   Zr5CdPb3
_chemical_formula_sum   'Zr10 Cd2 Pb6'
_cell_volume   416.87965642
_cell_formula_units_Z   2
loop_
 _symmetry_equiv_pos_site_id
 _symmetry_equiv_pos_as_xyz
  1  'x, y, z'
loop_
 _atom_site_type_symbol
 _atom_site_label
 _atom_site_symmetry_multiplicity
 _atom_site_fract_x
 _atom_site_fract_y
 _atom_site_fract_z
 _atom_site_occupancy
  Zr  Zr0  1  0.50000995  0.33330938  0.66659614  1
  Zr  Zr1  1  0.50000995  0.66671324  0.33340386  1
  Zr  Zr2  1  0.00000995  0.66669062  0.33340386  1
  Zr  Zr3  1  0.00000995  0.33328676  0.66659614  1
  Zr  Zr4  1  0.74978428  0.27910896  0.00000000  1
  Zr  Zr5  1  0.75005888  0.72104920  0.72086273  1
  Zr  Zr6  1  0.75005888  0.00018647  0.27913727  1
  Zr  Zr7  1  0.24978428  0.72089104  1.00000000  1
  Zr  Zr8  1  0.25005888  0.27895080  0.27913727  1
  Zr  Zr9  1  0.25005888  0.99981353  0.72086273  1
  Cd  Cd10  1  0.50001169  0.99985826  0.00000000  1
  Cd  Cd11  1  0.00001169  0.00014174  1.00000000  1
  Pb  Pb12  1  0.74986088  0.62007530  0.00000000  1
  Pb  Pb13  1  0.75010275  0.38008500  0.38003952  1
  Pb  Pb14  1  0.75010275  0.00004548  0.61996048  1
  Pb  Pb15  1  0.24986088  0.37992470  1.00000000  1
  Pb  Pb16  1  0.25010275  0.61991500  0.61996048  1
  Pb  Pb17  1  0.25010275  0.99995452  0.38003952  1
