# generated using pymatgen
data_Pr3In5
_symmetry_space_group_name_H-M   'P 1'
_cell_length_a   6.64477908
_cell_length_b   6.64477908
_cell_length_c   10.64652307
_cell_angle_alpha   90.00000000
_cell_angle_beta   90.00000000
_cell_angle_gamma   101.69588675
_symmetry_Int_Tables_number   1
_chemical_formula_structural   Pr3In5
_chemical_formula_sum   'Pr6 In10'
_cell_volume   460.31684651
_cell_formula_units_Z   2
loop_
 _symmetry_equiv_pos_site_id
 _symmetry_equiv_pos_as_xyz
  1  'x, y, z'
loop_
 _atom_site_type_symbol
 _atom_site_label
 _atom_site_symmetry_multiplicity
 _atom_site_fract_x
 _atom_site_fract_y
 _atom_site_fract_z
 _atom_site_occupancy
  Pr  Pr0  1  0.63199638  0.63199638  0.25000000  1
  Pr  Pr1  1  0.36800362  0.36800362  0.75000000  1
  Pr  Pr2  1  0.79807818  0.20192182  0.50000000  1
  Pr  Pr3  1  0.79807818  0.20192182  0.00000000  1
  Pr  Pr4  1  0.20192182  0.79807818  0.50000000  1
  Pr  Pr5  1  0.20192182  0.79807818  0.00000000  1
  In  In6  1  0.01385365  0.01385365  0.25000000  1
  In  In7  1  0.98614635  0.98614635  0.75000000  1
  In  In8  1  0.30723575  0.30723575  0.05025143  1
  In  In9  1  0.69276425  0.69276425  0.94974857  1
  In  In10  1  0.30723575  0.30723575  0.44974857  1
  In  In11  1  0.69276425  0.69276425  0.55025143  1
  In  In12  1  0.07654524  0.50263581  0.25000000  1
  In  In13  1  0.49736419  0.92345476  0.75000000  1
  In  In14  1  0.92345476  0.49736419  0.75000000  1
  In  In15  1  0.50263581  0.07654524  0.25000000  1
