# generated using pymatgen
data_Pr(LuS2)3
_symmetry_space_group_name_H-M   'P 1'
_cell_length_a   3.94802574
_cell_length_b   11.20936236
_cell_length_c   11.00358342
_cell_angle_alpha   109.05455166
_cell_angle_beta   90.00000000
_cell_angle_gamma   90.00000000
_symmetry_Int_Tables_number   1
_chemical_formula_structural   Pr(LuS2)3
_chemical_formula_sum   'Pr2 Lu6 S12'
_cell_volume   460.28041082
_cell_formula_units_Z   2
loop_
 _symmetry_equiv_pos_site_id
 _symmetry_equiv_pos_as_xyz
  1  'x, y, z'
loop_
 _atom_site_type_symbol
 _atom_site_label
 _atom_site_symmetry_multiplicity
 _atom_site_fract_x
 _atom_site_fract_y
 _atom_site_fract_z
 _atom_site_occupancy
  Pr  Pr0  1  0.25000000  0.19602260  0.55078911  1
  Pr  Pr1  1  0.75000000  0.80397740  0.44921089  1
  Lu  Lu2  1  0.25000000  -0.00000436  0.17929299  1
  Lu  Lu3  1  0.75000000  0.00000436  0.82070701  1
  Lu  Lu4  1  0.25000000  0.33407858  0.94353854  1
  Lu  Lu5  1  0.75000000  0.66592142  0.05646146  1
  Lu  Lu6  1  0.25000000  0.58712701  0.66086861  1
  Lu  Lu7  1  0.75000000  0.41287299  0.33913139  1
  S  S8  1  0.25000000  0.11167179  0.97790423  1
  S  S9  1  0.75000000  0.88832821  0.02209577  1
  S  S10  1  0.25000000  0.25142243  0.30208759  1
  S  S11  1  0.75000000  0.74857757  0.69791241  1
  S  S12  1  0.25000000  0.55759853  0.89268616  1
  S  S13  1  0.75000000  0.44240147  0.10731384  1
  S  S14  1  0.25000000  0.59237334  0.41922057  1
  S  S15  1  0.75000000  0.40762666  0.58077943  1
  S  S16  1  0.25000000  0.76981012  0.23030878  1
  S  S17  1  0.75000000  0.23018988  0.76969122  1
  S  S18  1  0.25000000  0.96389218  0.62125152  1
  S  S19  1  0.75000000  0.03610782  0.37874848  1
