# generated using pymatgen
data_Ba2ThS6
_symmetry_space_group_name_H-M   'P 1'
_cell_length_a   5.54936055
_cell_length_b   5.54936055
_cell_length_c   16.18872475
_cell_angle_alpha   90.00000000
_cell_angle_beta   90.00000000
_cell_angle_gamma   90.00000000
_symmetry_Int_Tables_number   1
_chemical_formula_structural   Ba2ThS6
_chemical_formula_sum   'Ba4 Th2 S12'
_cell_volume   498.53829486
_cell_formula_units_Z   2
loop_
 _symmetry_equiv_pos_site_id
 _symmetry_equiv_pos_as_xyz
  1  'x, y, z'
loop_
 _atom_site_type_symbol
 _atom_site_label
 _atom_site_symmetry_multiplicity
 _atom_site_fract_x
 _atom_site_fract_y
 _atom_site_fract_z
 _atom_site_occupancy
  Ba  Ba0  1  0.75000000  0.25000000  0.38659773  1
  Ba  Ba1  1  0.25000000  0.75000000  0.88659773  1
  Ba  Ba2  1  0.25000000  0.75000000  0.61340227  1
  Ba  Ba3  1  0.75000000  0.25000000  0.11340227  1
  Th  Th4  1  0.75000000  0.25000000  0.75000000  1
  Th  Th5  1  0.25000000  0.75000000  0.25000000  1
  S  S6  1  0.06150457  0.75000000  0.41752173  1
  S  S7  1  0.43849543  0.75000000  0.41752173  1
  S  S8  1  0.75000000  0.06150457  0.91752173  1
  S  S9  1  0.75000000  0.43849543  0.91752173  1
  S  S10  1  0.93849543  0.25000000  0.58247827  1
  S  S11  1  0.56150457  0.25000000  0.58247827  1
  S  S12  1  0.25000000  0.93849543  0.08247827  1
  S  S13  1  0.25000000  0.56150457  0.08247827  1
  S  S14  1  0.75000000  0.75000000  0.22367128  1
  S  S15  1  0.75000000  0.75000000  0.72367128  1
  S  S16  1  0.25000000  0.25000000  0.77632872  1
  S  S17  1  0.25000000  0.25000000  0.27632872  1
