# generated using pymatgen
data_Sr3W2O9
_symmetry_space_group_name_H-M   'P 1'
_cell_length_a   9.06940889
_cell_length_b   8.11717601
_cell_length_c   9.78354914
_cell_angle_alpha   90.00000000
_cell_angle_beta   118.42451889
_cell_angle_gamma   90.00000000
_symmetry_Int_Tables_number   1
_chemical_formula_structural   Sr3W2O9
_chemical_formula_sum   'Sr6 W4 O18'
_cell_volume   633.41601312
_cell_formula_units_Z   2
loop_
 _symmetry_equiv_pos_site_id
 _symmetry_equiv_pos_as_xyz
  1  'x, y, z'
loop_
 _atom_site_type_symbol
 _atom_site_label
 _atom_site_symmetry_multiplicity
 _atom_site_fract_x
 _atom_site_fract_y
 _atom_site_fract_z
 _atom_site_occupancy
  Sr  Sr0  1  0.11746754  0.25000000  0.74525819  1
  Sr  Sr1  1  0.00000000  0.00000000  0.00000000  1
  Sr  Sr2  1  0.00000000  0.50000000  0.00000000  1
  Sr  Sr3  1  0.38801827  0.25000000  0.22214050  1
  Sr  Sr4  1  0.61198173  0.75000000  0.77785950  1
  Sr  Sr5  1  0.88253246  0.75000000  0.25474181  1
  W  W6  1  0.15963166  0.75000000  0.73040878  1
  W  W7  1  0.56109957  0.25000000  0.71036453  1
  W  W8  1  0.43890043  0.75000000  0.28963547  1
  W  W9  1  0.84036834  0.25000000  0.26959122  1
  O  O10  1  0.13103701  0.25000000  0.99145233  1
  O  O11  1  0.07564152  0.56484608  0.77550825  1
  O  O12  1  0.07564152  0.93515392  0.77550825  1
  O  O13  1  0.10775129  0.75000000  0.52732382  1
  O  O14  1  0.38362353  0.25000000  0.74606147  1
  O  O15  1  0.38480189  0.75000000  0.84229060  1
  O  O16  1  0.31143117  0.93517934  0.20609671  1
  O  O17  1  0.31143117  0.56482066  0.20609671  1
  O  O18  1  0.48212816  0.25000000  0.50284778  1
  O  O19  1  0.51787184  0.75000000  0.49715222  1
  O  O20  1  0.68856883  0.06482066  0.79390329  1
  O  O21  1  0.68856883  0.43517934  0.79390329  1
  O  O22  1  0.61519811  0.25000000  0.15770940  1
  O  O23  1  0.61637647  0.75000000  0.25393853  1
  O  O24  1  0.89224871  0.25000000  0.47267618  1
  O  O25  1  0.92435848  0.06484608  0.22449175  1
  O  O26  1  0.92435848  0.43515392  0.22449175  1
  O  O27  1  0.86896299  0.75000000  0.00854767  1
