# generated using pymatgen
data_Na3Ca3AlSb4
_symmetry_space_group_name_H-M   'P 1'
_cell_length_a   7.60009239
_cell_length_b   10.11289020
_cell_length_c   10.11289020
_cell_angle_alpha   119.99973922
_cell_angle_beta   90.00000000
_cell_angle_gamma   90.00000000
_symmetry_Int_Tables_number   1
_chemical_formula_structural   Na3Ca3AlSb4
_chemical_formula_sum   'Na6 Ca6 Al2 Sb8'
_cell_volume   673.13353673
_cell_formula_units_Z   2
loop_
 _symmetry_equiv_pos_site_id
 _symmetry_equiv_pos_as_xyz
  1  'x, y, z'
loop_
 _atom_site_type_symbol
 _atom_site_label
 _atom_site_symmetry_multiplicity
 _atom_site_fract_x
 _atom_site_fract_y
 _atom_site_fract_z
 _atom_site_occupancy
  Na  Na0  1  0.54893893  0.85513241  0.14486759  1
  Na  Na1  1  0.54894047  0.28974789  0.14487553  1
  Na  Na2  1  0.54894047  0.85512447  0.71025211  1
  Na  Na3  1  0.04893893  0.14486759  0.85513241  1
  Na  Na4  1  0.04894047  0.71025211  0.85512447  1
  Na  Na5  1  0.04894047  0.14487553  0.28974789  1
  Ca  Ca6  1  0.73039125  0.47932495  0.52067505  1
  Ca  Ca7  1  0.73037339  0.04135327  0.52068154  1
  Ca  Ca8  1  0.73037339  0.47931846  0.95864673  1
  Ca  Ca9  1  0.23039125  0.52067505  0.47932495  1
  Ca  Ca10  1  0.23037339  0.95864673  0.47931846  1
  Ca  Ca11  1  0.23037339  0.52068154  0.04135327  1
  Al  Al12  1  0.85938353  0.66666806  0.33333194  1
  Al  Al13  1  0.35938353  0.33333194  0.66666806  1
  Sb  Sb14  1  0.96366666  0.81233516  0.18766484  1
  Sb  Sb15  1  0.96365122  0.37536105  0.18768490  1
  Sb  Sb16  1  0.96365122  0.81231510  0.62463895  1
  Sb  Sb17  1  0.46366666  0.18766484  0.81233516  1
  Sb  Sb18  1  0.46365122  0.62463895  0.81231510  1
  Sb  Sb19  1  0.46365122  0.18768490  0.37536105  1
  Sb  Sb20  1  0.49698946  0.66669291  0.33330709  1
  Sb  Sb21  1  0.99698946  0.33330709  0.66669291  1
