# generated using pymatgen
data_Er2CoTe2(SO7)2
_symmetry_space_group_name_H-M   'P 1'
_cell_length_a   5.27300150
_cell_length_b   7.87340931
_cell_length_c   8.15422251
_cell_angle_alpha   64.14671270
_cell_angle_beta   73.14980019
_cell_angle_gamma   85.55057049
_symmetry_Int_Tables_number   1
_chemical_formula_structural   Er2CoTe2(SO7)2
_chemical_formula_sum   'Er2 Co1 Te2 S2 O14'
_cell_volume   291.10321572
_cell_formula_units_Z   1
loop_
 _symmetry_equiv_pos_site_id
 _symmetry_equiv_pos_as_xyz
  1  'x, y, z'
loop_
 _atom_site_type_symbol
 _atom_site_label
 _atom_site_symmetry_multiplicity
 _atom_site_fract_x
 _atom_site_fract_y
 _atom_site_fract_z
 _atom_site_occupancy
  Er  Er0  1  0.91721759  0.74725815  0.98341473  1
  Er  Er1  1  0.08278241  0.25274185  0.01658527  1
  Co  Co2  1  -0.00000000  -0.00000000  0.50000000  1
  Te  Te3  1  0.48384150  0.72558808  0.66407679  1
  Te  Te4  1  0.51615850  0.27441192  0.33592321  1
  S  S5  1  0.23614189  0.75548304  0.24730392  1
  S  S6  1  0.76385811  0.24451696  0.75269608  1
  O  O7  1  0.09981719  0.59498883  0.25116777  1
  O  O8  1  0.90018281  0.40501117  0.74883223  1
  O  O9  1  0.13387363  0.77201594  0.42863394  1
  O  O10  1  0.86612637  0.22798406  0.57136606  1
  O  O11  1  0.52628522  0.73057182  0.21141784  1
  O  O12  1  0.47371478  0.26942818  0.78858216  1
  O  O13  1  0.17639848  0.92693566  0.08591967  1
  O  O14  1  0.82360152  0.07306434  0.91408033  1
  O  O15  1  0.24417075  0.56018158  0.89820496  1
  O  O16  1  0.75582925  0.43981842  0.10179504  1
  O  O17  1  0.72483188  0.80698694  0.75332499  1
  O  O18  1  0.27516812  0.19301306  0.24667501  1
  O  O19  1  0.24684532  0.92184777  0.67052433  1
  O  O20  1  0.75315468  0.07815223  0.32947567  1
