# generated using pymatgen
data_YNiB4
_symmetry_space_group_name_H-M   'P 1'
_cell_length_a   6.83040228
_cell_length_b   6.83040228
_cell_length_c   6.83040228
_cell_angle_alpha   102.69388293
_cell_angle_beta   112.96252477
_cell_angle_gamma   112.96252477
_symmetry_Int_Tables_number   1
_chemical_formula_structural   YNiB4
_chemical_formula_sum   'Y4 Ni4 B16'
_cell_volume   242.77890461
_cell_formula_units_Z   4
loop_
 _symmetry_equiv_pos_site_id
 _symmetry_equiv_pos_as_xyz
  1  'x, y, z'
loop_
 _atom_site_type_symbol
 _atom_site_label
 _atom_site_symmetry_multiplicity
 _atom_site_fract_x
 _atom_site_fract_y
 _atom_site_fract_z
 _atom_site_occupancy
  Y  Y0  1  0.00000000  0.20234864  0.20234864  1
  Y  Y1  1  -0.00000000  0.79765136  0.79765136  1
  Y  Y2  1  0.50000000  0.75000000  0.25000000  1
  Y  Y3  1  0.50000000  0.25000000  0.75000000  1
  Ni  Ni4  1  0.22871967  0.50000000  0.72871967  1
  Ni  Ni5  1  0.77128033  0.50000000  0.27128033  1
  Ni  Ni6  1  0.77128033  0.27128033  0.50000000  1
  Ni  Ni7  1  0.22871967  0.72871967  0.50000000  1
  B  B8  1  0.61293908  0.88824012  0.72469896  1
  B  B9  1  0.38706092  0.11175988  0.27530104  1
  B  B10  1  0.83645884  0.11175988  0.72469896  1
  B  B11  1  0.16354116  0.88824012  0.27530104  1
  B  B12  1  0.16354116  0.27530104  0.88824012  1
  B  B13  1  0.83645884  0.72469896  0.11175988  1
  B  B14  1  0.61293908  0.72469896  0.88824012  1
  B  B15  1  0.38706092  0.27530104  0.11175988  1
  B  B16  1  0.46652871  0.88610472  0.88610472  1
  B  B17  1  0.53347129  0.41957601  0.41957601  1
  B  B18  1  -0.00000000  0.41957601  0.88610472  1
  B  B19  1  0.00000000  0.88610472  0.41957601  1
  B  B20  1  0.53347129  0.11389528  0.11389528  1
  B  B21  1  0.46652871  0.58042399  0.58042399  1
  B  B22  1  0.00000000  0.58042399  0.11389528  1
  B  B23  1  -0.00000000  0.11389528  0.58042399  1
