# generated using pymatgen
data_Tb2CoTe2(SO7)2
_symmetry_space_group_name_H-M   'P 1'
_cell_length_a   5.31327213
_cell_length_b   7.93917827
_cell_length_c   8.20974074
_cell_angle_alpha   64.13622676
_cell_angle_beta   73.06194301
_cell_angle_gamma   85.73530760
_symmetry_Int_Tables_number   1
_chemical_formula_structural   Tb2CoTe2(SO7)2
_chemical_formula_sum   'Tb2 Co1 Te2 S2 O14'
_cell_volume   297.54500839
_cell_formula_units_Z   1
loop_
 _symmetry_equiv_pos_site_id
 _symmetry_equiv_pos_as_xyz
  1  'x, y, z'
loop_
 _atom_site_type_symbol
 _atom_site_label
 _atom_site_symmetry_multiplicity
 _atom_site_fract_x
 _atom_site_fract_y
 _atom_site_fract_z
 _atom_site_occupancy
  Tb  Tb0  1  0.91542811  0.74797708  0.98370088  1
  Tb  Tb1  1  0.08457189  0.25202292  0.01629912  1
  Co  Co2  1  -0.00000000  -0.00000000  0.50000000  1
  Te  Te3  1  0.48295110  0.72846701  0.66127405  1
  Te  Te4  1  0.51704890  0.27153299  0.33872595  1
  S  S5  1  0.23257122  0.75421465  0.25015109  1
  S  S6  1  0.76742878  0.24578535  0.74984891  1
  O  O7  1  0.09724094  0.59424901  0.25542811  1
  O  O8  1  0.90275906  0.40575099  0.74457189  1
  O  O9  1  0.12886514  0.77380261  0.42867720  1
  O  O10  1  0.87113486  0.22619739  0.57132280  1
  O  O11  1  0.52033896  0.73005909  0.21552064  1
  O  O12  1  0.47966104  0.26994091  0.78447936  1
  O  O13  1  0.17616041  0.92386697  0.08788606  1
  O  O14  1  0.82383959  0.07613303  0.91211394  1
  O  O15  1  0.24702640  0.56220565  0.89525708  1
  O  O16  1  0.75297360  0.43779435  0.10474292  1
  O  O17  1  0.72367693  0.80825965  0.74969032  1
  O  O18  1  0.27632307  0.19174035  0.25030968  1
  O  O19  1  0.24772074  0.92268567  0.66728471  1
  O  O20  1  0.75227926  0.07731433  0.33271529  1
