# generated using pymatgen
data_Zn3P2Pb3WO14
_symmetry_space_group_name_H-M   'P 1'
_cell_length_a   5.23524786
_cell_length_b   8.54091507
_cell_length_c   8.54087290
_cell_angle_alpha   119.99966680
_cell_angle_beta   90.00003001
_cell_angle_gamma   89.99893193
_symmetry_Int_Tables_number   1
_chemical_formula_structural   Zn3P2Pb3WO14
_chemical_formula_sum   'Zn3 P2 Pb3 W1 O14'
_cell_volume   330.73183471
_cell_formula_units_Z   1
loop_
 _symmetry_equiv_pos_site_id
 _symmetry_equiv_pos_as_xyz
  1  'x, y, z'
loop_
 _atom_site_type_symbol
 _atom_site_label
 _atom_site_symmetry_multiplicity
 _atom_site_fract_x
 _atom_site_fract_y
 _atom_site_fract_z
 _atom_site_occupancy
  Zn  Zn0  1  0.50000102  0.25099283  0.25099792  1
  Zn  Zn1  1  0.49999871  0.74900759  0.00000540  1
  Zn  Zn2  1  0.49999993  0.00000005  0.74899722  1
  P  P3  1  0.54488745  0.33335479  0.66667745  1
  P  P4  1  0.45511249  0.66664581  0.33332269  1
  Pb  Pb5  1  0.99999573  0.40601188  0.00000056  1
  Pb  Pb6  1  0.00000037  -0.00000014  0.40600574  1
  Pb  Pb7  1  0.00000449  0.59398936  0.59398851  1
  W  W8  1  0.00000015  -0.00000132  0.99999817  1
  O  O9  1  0.78550823  0.21542820  0.08928130  1
  O  O10  1  0.78550995  0.91071956  0.12615360  1
  O  O11  1  0.78550934  0.87385468  0.78457053  1
  O  O12  1  0.21449165  0.78457123  0.87385266  1
  O  O13  1  0.21449076  0.12614535  0.91071648  1
  O  O14  1  0.21448901  0.08928086  0.21543465  1
  O  O15  1  0.25140746  0.33338659  0.66669226  1
  O  O16  1  0.74859744  0.66661411  0.33330598  1
  O  O17  1  0.66174684  0.28140029  0.47745660  1
  O  O18  1  0.66177138  0.52255856  0.80394582  1
  O  O19  1  0.66173601  0.19607136  0.71861177  1
  O  O20  1  0.33825250  0.71859941  0.19605620  1
  O  O21  1  0.33826185  0.80393037  0.52254233  1
  O  O22  1  0.33822724  0.47743856  0.28138618  1
