# generated using pymatgen
data_DyReB4
_symmetry_space_group_name_H-M   'P 1'
_cell_length_a   3.62164807
_cell_length_b   5.97216212
_cell_length_c   11.56084844
_cell_angle_alpha   90.00000000
_cell_angle_beta   90.00000000
_cell_angle_gamma   90.00000000
_symmetry_Int_Tables_number   1
_chemical_formula_structural   DyReB4
_chemical_formula_sum   'Dy4 Re4 B16'
_cell_volume   250.05039341
_cell_formula_units_Z   4
loop_
 _symmetry_equiv_pos_site_id
 _symmetry_equiv_pos_as_xyz
  1  'x, y, z'
loop_
 _atom_site_type_symbol
 _atom_site_label
 _atom_site_symmetry_multiplicity
 _atom_site_fract_x
 _atom_site_fract_y
 _atom_site_fract_z
 _atom_site_occupancy
  Dy  Dy0  1  -0.00000000  0.62600643  0.34970259  1
  Dy  Dy1  1  0.00000000  0.37399357  0.65029741  1
  Dy  Dy2  1  0.00000000  0.12600643  0.15029741  1
  Dy  Dy3  1  0.00000000  0.87399357  0.84970259  1
  Re  Re4  1  0.00000000  0.63257178  0.08743679  1
  Re  Re5  1  0.00000000  0.36742822  0.91256321  1
  Re  Re6  1  -0.00000000  0.13257178  0.41256321  1
  Re  Re7  1  -0.00000000  0.86742822  0.58743679  1
  B  B8  1  0.50000000  0.78736120  0.18470091  1
  B  B9  1  0.50000000  0.21263880  0.81529909  1
  B  B10  1  0.50000000  0.28736120  0.31529909  1
  B  B11  1  0.50000000  0.71263880  0.68470091  1
  B  B12  1  0.50000000  0.86375953  0.03143490  1
  B  B13  1  0.50000000  0.13624047  0.96856510  1
  B  B14  1  0.50000000  0.36375953  0.46856510  1
  B  B15  1  0.50000000  0.63624047  0.53143490  1
  B  B16  1  0.50000000  0.88626010  0.45284212  1
  B  B17  1  0.50000000  0.11373990  0.54715788  1
  B  B18  1  0.50000000  0.38626010  0.04715788  1
  B  B19  1  0.50000000  0.61373990  0.95284212  1
  B  B20  1  0.50000000  0.97743031  0.30801777  1
  B  B21  1  0.50000000  0.02256969  0.69198223  1
  B  B22  1  0.50000000  0.47743031  0.19198223  1
  B  B23  1  0.50000000  0.52256969  0.80801777  1
