# generated using pymatgen
data_Sr3Zn3Te(PO7)2
_symmetry_space_group_name_H-M   'P 1'
_cell_length_a   5.24144280
_cell_length_b   8.41921788
_cell_length_c   8.41912605
_cell_angle_alpha   119.99973922
_cell_angle_beta   90.00014753
_cell_angle_gamma   89.99880800
_symmetry_Int_Tables_number   1
_chemical_formula_structural   Sr3Zn3Te(PO7)2
_chemical_formula_sum   'Sr3 Zn3 Te1 P2 O14'
_cell_volume   321.75209544
_cell_formula_units_Z   1
loop_
 _symmetry_equiv_pos_site_id
 _symmetry_equiv_pos_as_xyz
  1  'x, y, z'
loop_
 _atom_site_type_symbol
 _atom_site_label
 _atom_site_symmetry_multiplicity
 _atom_site_fract_x
 _atom_site_fract_y
 _atom_site_fract_z
 _atom_site_occupancy
  Sr  Sr0  1  0.00000092  0.57021379  0.57021811  1
  Sr  Sr1  1  -0.00000097  0.42978595  0.00000517  1
  Sr  Sr2  1  0.99999912  0.00000177  0.42978260  1
  Zn  Zn3  1  0.49999988  0.23852067  0.23852527  1
  Zn  Zn4  1  0.50000014  0.76147972  0.00000538  1
  Zn  Zn5  1  0.49999994  0.00000004  0.76146936  1
  Te  Te6  1  0.00000012  0.00000054  0.99999943  1
  P  P7  1  0.54572780  0.33335515  0.66667797  1
  P  P8  1  0.45427177  0.66664315  0.33332378  1
  O  O9  1  0.79052373  0.22119375  0.09233915  1
  O  O10  1  0.79052575  0.90766293  0.12885997  1
  O  O11  1  0.79052737  0.87114604  0.77880291  1
  O  O12  1  0.20947736  0.77880647  0.87114489  1
  O  O13  1  0.20947319  0.12885331  0.90765705  1
  O  O14  1  0.20947565  0.09233684  0.22119725  1
  O  O15  1  0.25137801  0.33338020  0.66669007  1
  O  O16  1  0.74862192  0.66661948  0.33330996  1
  O  O17  1  0.66306226  0.31135622  0.48596742  1
  O  O18  1  0.66308338  0.51404739  0.82538742  1
  O  O19  1  0.66304713  0.17462964  0.68865771  1
  O  O20  1  0.33693754  0.68864203  0.17460942  1
  O  O21  1  0.33695353  0.82537146  0.51402789  1
  O  O22  1  0.33691444  0.48595346  0.31134181  1
