# generated using pymatgen
data_Y2CoTe2(SO7)2
_symmetry_space_group_name_H-M   'P 1'
_cell_length_a   5.30586934
_cell_length_b   7.92171495
_cell_length_c   8.20486685
_cell_angle_alpha   64.24635010
_cell_angle_beta   73.15977199
_cell_angle_gamma   85.65398150
_symmetry_Int_Tables_number   1
_chemical_formula_structural   Y2CoTe2(SO7)2
_chemical_formula_sum   'Y2 Co1 Te2 S2 O14'
_cell_volume   296.78597900
_cell_formula_units_Z   1
loop_
 _symmetry_equiv_pos_site_id
 _symmetry_equiv_pos_as_xyz
  1  'x, y, z'
loop_
 _atom_site_type_symbol
 _atom_site_label
 _atom_site_symmetry_multiplicity
 _atom_site_fract_x
 _atom_site_fract_y
 _atom_site_fract_z
 _atom_site_occupancy
  Y  Y0  1  0.41739948  0.24809061  0.98350623  1
  Y  Y1  1  0.58260052  0.75190939  0.01649377  1
  Co  Co2  1  0.50000000  0.50000000  0.50000000  1
  Te  Te3  1  0.98314171  0.22689671  0.66340035  1
  Te  Te4  1  0.01685829  0.77310329  0.33659965  1
  S  S5  1  0.73548364  0.25476606  0.24945926  1
  S  S6  1  0.26451636  0.74523394  0.75054074  1
  O  O7  1  0.74785628  0.06099817  0.89698355  1
  O  O8  1  0.25214372  0.93900183  0.10301645  1
  O  O9  1  0.74790256  0.42180510  0.66913832  1
  O  O10  1  0.25209744  0.57819490  0.33086168  1
  O  O11  1  0.02391240  0.23168627  0.21468840  1
  O  O12  1  0.97608760  0.76831373  0.78531160  1
  O  O13  1  0.63051417  0.27246382  0.42853048  1
  O  O14  1  0.36948583  0.72753618  0.57146952  1
  O  O15  1  0.22463681  0.30798143  0.75086589  1
  O  O16  1  0.77536319  0.69201857  0.24913411  1
  O  O17  1  0.60222883  0.09412757  0.25278211  1
  O  O18  1  0.39777117  0.90587243  0.74721789  1
  O  O19  1  0.67702894  0.42424531  0.08816783  1
  O  O20  1  0.32297106  0.57575469  0.91183217  1
