# generated using pymatgen
data_TlSO3F
_symmetry_space_group_name_H-M   'P 1'
_cell_length_a   5.43395684
_cell_length_b   5.70997497
_cell_length_c   14.02941735
_cell_angle_alpha   90.00000000
_cell_angle_beta   90.00000000
_cell_angle_gamma   90.00000000
_symmetry_Int_Tables_number   1
_chemical_formula_structural   TlSO3F
_chemical_formula_sum   'Tl4 S4 O12 F4'
_cell_volume   435.30136003
_cell_formula_units_Z   4
loop_
 _symmetry_equiv_pos_site_id
 _symmetry_equiv_pos_as_xyz
  1  'x, y, z'
loop_
 _atom_site_type_symbol
 _atom_site_label
 _atom_site_symmetry_multiplicity
 _atom_site_fract_x
 _atom_site_fract_y
 _atom_site_fract_z
 _atom_site_occupancy
  Tl  Tl0  1  0.95743596  0.25000000  0.86679231  1
  Tl  Tl1  1  0.45743596  0.25000000  0.63320769  1
  Tl  Tl2  1  0.04256404  0.75000000  0.13320769  1
  Tl  Tl3  1  0.54256404  0.75000000  0.36679231  1
  S  S4  1  0.42073501  0.75000000  0.87211051  1
  S  S5  1  0.92073501  0.75000000  0.62788949  1
  S  S6  1  0.57926499  0.25000000  0.12788949  1
  S  S7  1  0.07926499  0.25000000  0.37211051  1
  O  O8  1  0.17703921  0.75000000  0.91584198  1
  O  O9  1  0.67703921  0.75000000  0.58415802  1
  O  O10  1  0.82296079  0.25000000  0.08415802  1
  O  O11  1  0.32296079  0.25000000  0.41584198  1
  O  O12  1  0.48808761  0.96622795  0.82384522  1
  O  O13  1  0.98808761  0.53377205  0.67615478  1
  O  O14  1  0.51191239  0.46622795  0.17615478  1
  O  O15  1  0.01191239  0.03377205  0.32384522  1
  O  O16  1  0.51191239  0.03377205  0.17615478  1
  O  O17  1  0.01191239  0.46622795  0.32384522  1
  O  O18  1  0.48808761  0.53377205  0.82384522  1
  O  O19  1  0.98808761  0.96622795  0.67615478  1
  F  F20  1  0.60437971  0.75000000  0.96521580  1
  F  F21  1  0.10437971  0.75000000  0.53478420  1
  F  F22  1  0.39562029  0.25000000  0.03478420  1
  F  F23  1  0.89562029  0.25000000  0.46521580  1
