# generated using pymatgen
data_Dy2Fe12P7
_symmetry_space_group_name_H-M   'P 1'
_cell_length_a   3.63604049
_cell_length_b   8.96439018
_cell_length_c   8.96746729
_cell_angle_alpha   120.00283613
_cell_angle_beta   90.00000000
_cell_angle_gamma   90.00000000
_symmetry_Int_Tables_number   1
_chemical_formula_structural   Dy2Fe12P7
_chemical_formula_sum   'Dy2 Fe12 P7'
_cell_volume   253.12642332
_cell_formula_units_Z   1
loop_
 _symmetry_equiv_pos_site_id
 _symmetry_equiv_pos_as_xyz
  1  'x, y, z'
loop_
 _atom_site_type_symbol
 _atom_site_label
 _atom_site_symmetry_multiplicity
 _atom_site_fract_x
 _atom_site_fract_y
 _atom_site_fract_z
 _atom_site_occupancy
  Dy  Dy0  1  0.00000000  0.66635921  0.33340097  1
  Dy  Dy1  1  0.50000000  0.33366149  0.66684023  1
  Fe  Fe2  1  -0.00000000  0.37171602  0.94443362  1
  Fe  Fe3  1  0.00000000  0.05540024  0.42733668  1
  Fe  Fe4  1  -0.00000000  0.57266385  0.62807259  1
  Fe  Fe5  1  -0.00000000  0.88012673  0.72483166  1
  Fe  Fe6  1  -0.00000000  0.27513732  0.15537188  1
  Fe  Fe7  1  -0.00000000  0.84464253  0.11983518  1
  Fe  Fe8  1  0.50000000  0.95149015  0.56824973  1
  Fe  Fe9  1  0.50000000  0.43191957  0.38333357  1
  Fe  Fe10  1  0.50000000  0.61673156  0.04851686  1
  Fe  Fe11  1  0.50000000  0.11982516  0.90339981  1
  Fe  Fe12  1  0.50000000  0.09680211  0.21642699  1
  Fe  Fe13  1  0.50000000  0.78353716  0.88016604  1
  P  P14  1  0.00000000  0.11354229  0.70342179  1
  P  P15  1  0.00000000  0.29712452  0.41016309  1
  P  P16  1  0.00000000  0.58989797  0.88645450  1
  P  P17  1  0.50000000  0.70994359  0.59883769  1
  P  P18  1  0.50000000  0.40090574  0.11137600  1
  P  P19  1  0.50000000  0.88847955  0.28964689  1
  P  P20  1  0.00000000  0.00009324  0.99988424  1
