# generated using pymatgen
data_Cr2(CN2)3
_symmetry_space_group_name_H-M   'P 1'
_cell_length_a   5.52863788
_cell_length_b   5.52863788
_cell_length_c   9.91780836
_cell_angle_alpha   73.81601131
_cell_angle_beta   73.81601131
_cell_angle_gamma   59.99999900
_symmetry_Int_Tables_number   1
_chemical_formula_structural   Cr2(CN2)3
_chemical_formula_sum   'Cr4 C6 N12'
_cell_volume   248.56384468
_cell_formula_units_Z   2
loop_
 _symmetry_equiv_pos_site_id
 _symmetry_equiv_pos_as_xyz
  1  'x, y, z'
loop_
 _atom_site_type_symbol
 _atom_site_label
 _atom_site_symmetry_multiplicity
 _atom_site_fract_x
 _atom_site_fract_y
 _atom_site_fract_z
 _atom_site_occupancy
  Cr  Cr0  1  0.66503853  0.66503853  0.00488440  1
  Cr  Cr1  1  0.16503853  0.16503853  0.50488440  1
  Cr  Cr2  1  0.33496147  0.33496147  0.99511560  1
  Cr  Cr3  1  0.83496147  0.83496147  0.49511560  1
  C  C4  1  0.43260334  0.06739666  0.75000000  1
  C  C5  1  0.06739666  0.75000000  0.75000000  1
  C  C6  1  0.75000000  0.43260334  0.75000000  1
  C  C7  1  0.93260334  0.25000000  0.25000000  1
  C  C8  1  0.25000000  0.56739666  0.25000000  1
  C  C9  1  0.56739666  0.93260334  0.25000000  1
  N  N10  1  0.92024087  0.15791036  0.37864467  1
  N  N11  1  0.15791036  0.54320410  0.37864467  1
  N  N12  1  0.54320410  0.92024087  0.37864467  1
  N  N13  1  0.42024087  0.04320410  0.87864467  1
  N  N14  1  0.04320410  0.65791036  0.87864467  1
  N  N15  1  0.65791036  0.42024087  0.87864467  1
  N  N16  1  0.07975913  0.84208964  0.62135533  1
  N  N17  1  0.84208964  0.45679590  0.62135533  1
  N  N18  1  0.45679590  0.07975913  0.62135533  1
  N  N19  1  0.57975913  0.95679590  0.12135533  1
  N  N20  1  0.95679590  0.34208964  0.12135533  1
  N  N21  1  0.34208964  0.57975913  0.12135533  1
