# generated using pymatgen
data_Gd2CuTe2(SO7)2
_symmetry_space_group_name_H-M   'P 1'
_cell_length_a   5.23753774
_cell_length_b   8.02184624
_cell_length_c   8.26661151
_cell_angle_alpha   62.00842524
_cell_angle_beta   74.25438459
_cell_angle_gamma   85.33282628
_symmetry_Int_Tables_number   1
_chemical_formula_structural   Gd2CuTe2(SO7)2
_chemical_formula_sum   'Gd2 Cu1 Te2 S2 O14'
_cell_volume   294.74798578
_cell_formula_units_Z   1
loop_
 _symmetry_equiv_pos_site_id
 _symmetry_equiv_pos_as_xyz
  1  'x, y, z'
loop_
 _atom_site_type_symbol
 _atom_site_label
 _atom_site_symmetry_multiplicity
 _atom_site_fract_x
 _atom_site_fract_y
 _atom_site_fract_z
 _atom_site_occupancy
  Gd  Gd0  1  0.92894455  0.74899273  0.98225018  1
  Gd  Gd1  1  0.07105545  0.25100727  0.01774982  1
  Cu  Cu2  1  -0.00000000  0.00000000  0.50000000  1
  Te  Te3  1  0.49075532  0.73081045  0.65155294  1
  Te  Te4  1  0.50924468  0.26918955  0.34844706  1
  S  S5  1  0.25382016  0.74628161  0.25362361  1
  S  S6  1  0.74617984  0.25371839  0.74637639  1
  O  O7  1  0.14556550  0.58545503  0.24439376  1
  O  O8  1  0.85443450  0.41454497  0.75560624  1
  O  O9  1  0.13868749  0.74668467  0.43615542  1
  O  O10  1  0.86131251  0.25331533  0.56384458  1
  O  O11  1  0.54705181  0.73882117  0.21865065  1
  O  O12  1  0.45294819  0.26117883  0.78134935  1
  O  O13  1  0.17778940  0.91915745  0.09484066  1
  O  O14  1  0.82221060  0.08084255  0.90515934  1
  O  O15  1  0.25536686  0.56202274  0.88763080  1
  O  O16  1  0.74463314  0.43797726  0.11236920  1
  O  O17  1  0.73133839  0.81308857  0.74101196  1
  O  O18  1  0.26866161  0.18691143  0.25898804  1
  O  O19  1  0.25246865  0.92845724  0.65515558  1
  O  O20  1  0.74753135  0.07154276  0.34484442  1
