# generated using pymatgen
data_Ba2MgGe2O7
_symmetry_space_group_name_H-M   'P 1'
_cell_length_a   5.62883921
_cell_length_b   8.49792468
_cell_length_c   8.49792468
_cell_angle_alpha   90.00000000
_cell_angle_beta   90.00000000
_cell_angle_gamma   90.00000000
_symmetry_Int_Tables_number   1
_chemical_formula_structural   Ba2MgGe2O7
_chemical_formula_sum   'Ba4 Mg2 Ge4 O14'
_cell_volume   406.48506924
_cell_formula_units_Z   2
loop_
 _symmetry_equiv_pos_site_id
 _symmetry_equiv_pos_as_xyz
  1  'x, y, z'
loop_
 _atom_site_type_symbol
 _atom_site_label
 _atom_site_symmetry_multiplicity
 _atom_site_fract_x
 _atom_site_fract_y
 _atom_site_fract_z
 _atom_site_occupancy
  Ba  Ba0  1  0.50857992  0.33484629  0.16515371  1
  Ba  Ba1  1  0.49142008  0.16515371  0.66515371  1
  Ba  Ba2  1  0.50857992  0.66515371  0.83484629  1
  Ba  Ba3  1  0.49142008  0.83484629  0.33484629  1
  Mg  Mg4  1  0.00000000  0.50000000  0.50000000  1
  Mg  Mg5  1  -0.00000000  0.00000000  0.00000000  1
  Ge  Ge6  1  0.95822750  0.14099491  0.35900509  1
  Ge  Ge7  1  0.04177250  0.35900509  0.85900509  1
  Ge  Ge8  1  0.95822750  0.85900509  0.64099491  1
  Ge  Ge9  1  0.04177250  0.64099491  0.14099491  1
  O  O10  1  0.16147377  0.50000000  0.00000000  1
  O  O11  1  0.83852623  0.00000000  0.50000000  1
  O  O12  1  0.26838055  0.13904771  0.36095229  1
  O  O13  1  0.73161945  0.36095229  0.86095229  1
  O  O14  1  0.26838055  0.86095229  0.63904771  1
  O  O15  1  0.73161945  0.63904771  0.13904771  1
  O  O16  1  0.81476796  0.31659352  0.42051631  1
  O  O17  1  0.18523204  0.18340648  0.92051631  1
  O  O18  1  0.81476796  0.68340648  0.57948369  1
  O  O19  1  0.18523204  0.81659352  0.07948369  1
  O  O20  1  0.18523204  0.57948369  0.31659352  1
  O  O21  1  0.81476796  0.92051631  0.81659352  1
  O  O22  1  0.18523204  0.42051631  0.68340648  1
  O  O23  1  0.81476796  0.07948369  0.18340648  1
