# generated using pymatgen
data_Ta3Al2C
_symmetry_space_group_name_H-M   'P 1'
_cell_length_a   7.09531361
_cell_length_b   7.09531361
_cell_length_c   7.09531361
_cell_angle_alpha   90.00000000
_cell_angle_beta   90.00000000
_cell_angle_gamma   90.00000000
_symmetry_Int_Tables_number   1
_chemical_formula_structural   Ta3Al2C
_chemical_formula_sum   'Ta12 Al8 C4'
_cell_volume   357.20274493
_cell_formula_units_Z   4
loop_
 _symmetry_equiv_pos_site_id
 _symmetry_equiv_pos_as_xyz
  1  'x, y, z'
loop_
 _atom_site_type_symbol
 _atom_site_label
 _atom_site_symmetry_multiplicity
 _atom_site_fract_x
 _atom_site_fract_y
 _atom_site_fract_z
 _atom_site_occupancy
  Ta  Ta0  1  0.79522985  0.95477015  0.37500000  1
  Ta  Ta1  1  0.70477015  0.04522985  0.87500000  1
  Ta  Ta2  1  0.20477015  0.45477015  0.12500000  1
  Ta  Ta3  1  0.29522985  0.54522985  0.62500000  1
  Ta  Ta4  1  0.95477015  0.37500000  0.79522985  1
  Ta  Ta5  1  0.04522985  0.87500000  0.70477015  1
  Ta  Ta6  1  0.45477015  0.12500000  0.20477015  1
  Ta  Ta7  1  0.54522985  0.62500000  0.29522985  1
  Ta  Ta8  1  0.37500000  0.79522985  0.95477015  1
  Ta  Ta9  1  0.87500000  0.70477015  0.04522985  1
  Ta  Ta10  1  0.12500000  0.20477015  0.45477015  1
  Ta  Ta11  1  0.62500000  0.29522985  0.54522985  1
  Al  Al12  1  0.18025733  0.81974267  0.31974267  1
  Al  Al13  1  0.31974267  0.18025733  0.81974267  1
  Al  Al14  1  0.81974267  0.31974267  0.18025733  1
  Al  Al15  1  0.68025733  0.68025733  0.68025733  1
  Al  Al16  1  0.56974267  0.43025733  0.93025733  1
  Al  Al17  1  0.43025733  0.93025733  0.56974267  1
  Al  Al18  1  0.93025733  0.56974267  0.43025733  1
  Al  Al19  1  0.06974267  0.06974267  0.06974267  1
  C  C20  1  0.87500000  0.12500000  0.62500000  1
  C  C21  1  0.62500000  0.87500000  0.12500000  1
  C  C22  1  0.12500000  0.62500000  0.87500000  1
  C  C23  1  0.37500000  0.37500000  0.37500000  1
