# generated using pymatgen
data_Er5(In2Pd)2
_symmetry_space_group_name_H-M   'P 1'
_cell_length_a   3.60442887
_cell_length_b   8.09625921
_cell_length_c   18.21083508
_cell_angle_alpha   90.00000000
_cell_angle_beta   90.00000000
_cell_angle_gamma   90.00000000
_symmetry_Int_Tables_number   1
_chemical_formula_structural   Er5(In2Pd)2
_chemical_formula_sum   'Er10 In8 Pd4'
_cell_volume   531.43569946
_cell_formula_units_Z   2
loop_
 _symmetry_equiv_pos_site_id
 _symmetry_equiv_pos_as_xyz
  1  'x, y, z'
loop_
 _atom_site_type_symbol
 _atom_site_label
 _atom_site_symmetry_multiplicity
 _atom_site_fract_x
 _atom_site_fract_y
 _atom_site_fract_z
 _atom_site_occupancy
  Er  Er0  1  -0.00000000  0.50000000  0.50000000  1
  Er  Er1  1  -0.00000000  0.00000000  -0.00000000  1
  Er  Er2  1  -0.00000000  0.73992973  0.27992283  1
  Er  Er3  1  -0.00000000  0.26007027  0.72007717  1
  Er  Er4  1  0.00000000  0.76007027  0.77992283  1
  Er  Er5  1  -0.00000000  0.23992973  0.22007717  1
  Er  Er6  1  0.00000000  0.61184071  0.08220486  1
  Er  Er7  1  -0.00000000  0.38815929  0.91779514  1
  Er  Er8  1  -0.00000000  0.88815929  0.58220486  1
  Er  Er9  1  -0.00000000  0.11184071  0.41779514  1
  In  In10  1  0.50000000  0.71422848  0.93074166  1
  In  In11  1  0.50000000  0.28577152  0.06925834  1
  In  In12  1  0.50000000  0.78577152  0.43074166  1
  In  In13  1  0.50000000  0.21422848  0.56925834  1
  In  In14  1  0.50000000  0.58223066  0.64888465  1
  In  In15  1  0.50000000  0.41776934  0.35111535  1
  In  In16  1  0.50000000  0.91776934  0.14888465  1
  In  In17  1  0.50000000  0.08223066  0.85111535  1
  Pd  Pd18  1  0.50000000  0.52454286  0.19615191  1
  Pd  Pd19  1  0.50000000  0.47545714  0.80384809  1
  Pd  Pd20  1  0.50000000  0.97545714  0.69615191  1
  Pd  Pd21  1  0.50000000  0.02454286  0.30384809  1
