# generated using pymatgen
data_GdSi3Ni8
_symmetry_space_group_name_H-M   'P 1'
_cell_length_a   6.32604710
_cell_length_b   7.49067442
_cell_length_c   7.54146297
_cell_angle_alpha   80.28468164
_cell_angle_beta   65.20217179
_cell_angle_gamma   66.27479352
_symmetry_Int_Tables_number   1
_chemical_formula_structural   GdSi3Ni8
_chemical_formula_sum   'Gd2 Si6 Ni16'
_cell_volume   296.99388485
_cell_formula_units_Z   2
loop_
 _symmetry_equiv_pos_site_id
 _symmetry_equiv_pos_as_xyz
  1  'x, y, z'
loop_
 _atom_site_type_symbol
 _atom_site_label
 _atom_site_symmetry_multiplicity
 _atom_site_fract_x
 _atom_site_fract_y
 _atom_site_fract_z
 _atom_site_occupancy
  Gd  Gd0  1  0.36870058  0.75000000  0.26259885  1
  Gd  Gd1  1  0.63129942  0.25000000  0.73740115  1
  Si  Si2  1  0.81356366  0.82564814  0.90952424  1
  Si  Si3  1  0.27691210  0.67435186  0.90952424  1
  Si  Si4  1  0.18643634  0.17435186  0.09047576  1
  Si  Si5  1  0.72308790  0.32564814  0.09047576  1
  Si  Si6  1  0.00000000  0.50000000  0.50000000  1
  Si  Si7  1  0.50000000  -0.00000000  0.50000000  1
  Ni  Ni8  1  0.13854744  0.92064338  0.66437547  1
  Ni  Ni9  1  0.19707709  0.57935662  0.66437547  1
  Ni  Ni10  1  0.86145256  0.07935662  0.33562453  1
  Ni  Ni11  1  0.80292291  0.42064338  0.33562453  1
  Ni  Ni12  1  0.85113719  0.82982308  0.58158903  1
  Ni  Ni13  1  0.56727377  0.67017692  0.58158903  1
  Ni  Ni14  1  0.14886281  0.17017692  0.41841097  1
  Ni  Ni15  1  0.43272623  0.32982308  0.41841097  1
  Ni  Ni16  1  0.71138185  0.56950794  0.84949852  1
  Ni  Ni17  1  0.43911963  0.93049206  0.84949852  1
  Ni  Ni18  1  0.28861815  0.43049206  0.15050148  1
  Ni  Ni19  1  0.56088037  0.06950794  0.15050148  1
  Ni  Ni20  1  0.87702988  0.75000000  0.24594024  1
  Ni  Ni21  1  0.12297012  0.25000000  0.75405976  1
  Ni  Ni22  1  0.00000000  0.50000000  0.00000000  1
  Ni  Ni23  1  0.00000000  -0.00000000  0.00000000  1
