# generated using pymatgen
data_K2LiTi2(AsO5)2
_symmetry_space_group_name_H-M   'P 1'
_cell_length_a   13.23673379
_cell_length_b   6.75601422
_cell_length_c   11.05571975
_cell_angle_alpha   90.00000000
_cell_angle_beta   90.00000000
_cell_angle_gamma   90.00000000
_symmetry_Int_Tables_number   1
_chemical_formula_structural   K2LiTi2(AsO5)2
_chemical_formula_sum   'K8 Li4 Ti8 As8 O40'
_cell_volume   988.68606021
_cell_formula_units_Z   4
loop_
 _symmetry_equiv_pos_site_id
 _symmetry_equiv_pos_as_xyz
  1  'x, y, z'
loop_
 _atom_site_type_symbol
 _atom_site_label
 _atom_site_symmetry_multiplicity
 _atom_site_fract_x
 _atom_site_fract_y
 _atom_site_fract_z
 _atom_site_occupancy
  K  K0  1  0.09712691  0.61648738  0.08468554  1
  K  K1  1  0.13765594  0.28244786  0.78836122  1
  K  K2  1  0.36234406  0.78244786  0.28836122  1
  K  K3  1  0.40287309  0.11648738  0.58468554  1
  K  K4  1  0.59712691  0.88351262  0.08468554  1
  K  K5  1  0.63765594  0.21755214  0.78836122  1
  K  K6  1  0.86234406  0.71755214  0.28836122  1
  K  K7  1  0.90287309  0.38351262  0.58468554  1
  Li  Li8  1  0.10280168  0.04050737  0.03129972  1
  Li  Li9  1  0.39719832  0.54050737  0.53129972  1
  Li  Li10  1  0.60280168  0.45949263  0.03129972  1
  Li  Li11  1  0.89719832  0.95949263  0.53129972  1
  Ti  Ti12  1  0.13352591  0.00659027  0.51635510  1
  Ti  Ti13  1  0.24837959  0.25938185  0.26741925  1
  Ti  Ti14  1  0.25162041  0.75938185  0.76741925  1
  Ti  Ti15  1  0.36647409  0.50659027  0.01635510  1
  Ti  Ti16  1  0.63352591  0.49340973  0.51635510  1
  Ti  Ti17  1  0.74837959  0.24061815  0.26741925  1
  Ti  Ti18  1  0.75162041  0.74061815  0.76741925  1
  Ti  Ti19  1  0.86647409  0.99340973  0.01635510  1
  As  As20  1  0.00196565  0.83378227  0.77223071  1
  As  As21  1  0.18135286  0.51522859  0.51421436  1
  As  As22  1  0.31864714  0.01522859  0.01421436  1
  As  As23  1  0.49803435  0.33378227  0.27223071  1
  As  As24  1  0.50196565  0.66621773  0.77223071  1
  As  As25  1  0.68135286  0.98477141  0.51421436  1
  As  As26  1  0.81864714  0.48477141  0.01421436  1
  As  As27  1  0.99803435  0.16621773  0.27223071  1
  O  O28  1  0.99717735  0.03142756  0.40554420  1
  O  O29  1  0.00341485  0.99760160  0.65207650  1
  O  O30  1  0.09905756  0.32574750  0.25432266  1
  O  O31  1  0.10153399  0.71153714  0.48763516  1
  O  O32  1  0.10420918  0.67559466  0.77840131  1
  O  O33  1  0.10812058  0.31129123  0.54985822  1
  O  O34  1  0.22085688  0.06095511  0.39394886  1
  O  O35  1  0.21859630  0.95961264  0.64419383  1
  O  O36  1  0.22994056  0.05178623  0.12999239  1
  O  O37  1  0.23261150  0.97609468  0.89793096  1
  O  O38  1  0.26738850  0.47609468  0.39793096  1
  O  O39  1  0.27005944  0.55178623  0.62999239  1
  O  O40  1  0.28140370  0.45961264  0.14419383  1
  O  O41  1  0.27914312  0.56095611  0.89394886  1
  O  O42  1  0.39187942  0.81129123  0.04985822  1
  O  O43  1  0.39579082  0.17559466  0.27840131  1
  O  O44  1  0.39846601  0.21153714  0.98763516  1
  O  O45  1  0.40094244  0.82574750  0.75432266  1
  O  O46  1  0.49658515  0.49760160  0.15207650  1
  O  O47  1  0.50282265  0.53142756  0.90554420  1
  O  O48  1  0.49717735  0.46857244  0.40554420  1
  O  O49  1  0.50341485  0.50239840  0.65207650  1
  O  O50  1  0.59905756  0.17425250  0.25432266  1
  O  O51  1  0.60153399  0.78846286  0.48763516  1
  O  O52  1  0.60420918  0.82440534  0.77840131  1
  O  O53  1  0.60812058  0.18870877  0.54985822  1
  O  O54  1  0.72085688  0.43904489  0.39394886  1
  O  O55  1  0.71859630  0.54038736  0.64419383  1
  O  O56  1  0.72994056  0.44821377  0.12999239  1
  O  O57  1  0.73261150  0.52390532  0.89793096  1
  O  O58  1  0.76738850  0.02390532  0.39793096  1
  O  O59  1  0.77005944  0.94821377  0.62999239  1
  O  O60  1  0.78140370  0.04038736  0.14419383  1
  O  O61  1  0.77914312  0.93904389  0.89394886  1
  O  O62  1  0.89187942  0.68870877  0.04985822  1
  O  O63  1  0.89579082  0.32440534  0.27840131  1
  O  O64  1  0.89846601  0.28846286  0.98763516  1
  O  O65  1  0.90094244  0.67425250  0.75432266  1
  O  O66  1  0.99658515  0.00239840  0.15207650  1
  O  O67  1  0.00282265  0.96857244  0.90554420  1
