# generated using pymatgen
data_AsH3OF6
_symmetry_space_group_name_H-M   'P 1'
_cell_length_a   5.05474387
_cell_length_b   6.53140256
_cell_length_c   7.87595220
_cell_angle_alpha   86.53919971
_cell_angle_beta   82.72120133
_cell_angle_gamma   81.85294548
_symmetry_Int_Tables_number   1
_chemical_formula_structural   AsH3OF6
_chemical_formula_sum   'As2 H6 O2 F12'
_cell_volume   255.08439464
_cell_formula_units_Z   2
loop_
 _symmetry_equiv_pos_site_id
 _symmetry_equiv_pos_as_xyz
  1  'x, y, z'
loop_
 _atom_site_type_symbol
 _atom_site_label
 _atom_site_symmetry_multiplicity
 _atom_site_fract_x
 _atom_site_fract_y
 _atom_site_fract_z
 _atom_site_occupancy
  As  As0  1  0.44094761  0.76717854  0.75875805  1
  As  As1  1  0.55905239  0.23282146  0.24124195  1
  H  H2  1  0.09487426  0.37140904  0.73276651  1
  H  H3  1  0.90512574  0.62859096  0.26723349  1
  H  H4  1  0.05463346  0.13334797  0.68588614  1
  H  H5  1  0.94536654  0.86665203  0.31411386  1
  H  H6  1  0.87741374  0.24421442  0.85484186  1
  H  H7  1  0.12258626  0.75578558  0.14515814  1
  O  O8  1  0.96471945  0.26859802  0.73478804  1
  O  O9  1  0.03528055  0.73140198  0.26521196  1
  F  F10  1  0.30986583  0.52962867  0.74031801  1
  F  F11  1  0.69013417  0.47037133  0.25968199  1
  F  F12  1  0.18257568  0.89910052  0.63722235  1
  F  F13  1  0.81742432  0.10089948  0.36277765  1
  F  F14  1  0.20232652  0.81551589  0.94712958  1
  F  F15  1  0.79767348  0.18448411  0.05287042  1
  F  F16  1  0.55254340  0.00643758  0.77878506  1
  F  F17  1  0.44745660  0.99356242  0.22121494  1
  F  F18  1  0.67898165  0.63855486  0.88596890  1
  F  F19  1  0.32101835  0.36144514  0.11403110  1
  F  F20  1  0.65654567  0.71898300  0.56920191  1
  F  F21  1  0.34345433  0.28101700  0.43079809  1
