# generated using pymatgen
data_Y2Ni12P7
_symmetry_space_group_name_H-M   'P 1'
_cell_length_a   3.67049232
_cell_length_b   9.01935230
_cell_length_c   9.01841385
_cell_angle_alpha   119.99489766
_cell_angle_beta   90.00000000
_cell_angle_gamma   90.00000000
_symmetry_Int_Tables_number   1
_chemical_formula_structural   Y2Ni12P7
_chemical_formula_sum   'Y2 Ni12 P7'
_cell_volume   258.57277136
_cell_formula_units_Z   1
loop_
 _symmetry_equiv_pos_site_id
 _symmetry_equiv_pos_as_xyz
  1  'x, y, z'
loop_
 _atom_site_type_symbol
 _atom_site_label
 _atom_site_symmetry_multiplicity
 _atom_site_fract_x
 _atom_site_fract_y
 _atom_site_fract_z
 _atom_site_occupancy
  Y  Y0  1  0.00000000  0.66665888  0.33327069  1
  Y  Y1  1  0.50000000  0.33332444  0.66664597  1
  Ni  Ni2  1  0.00000000  0.37386831  0.94009293  1
  Ni  Ni3  1  0.00000000  0.05995419  0.43377367  1
  Ni  Ni4  1  0.00000000  0.56610243  0.62608441  1
  Ni  Ni5  1  0.00000000  0.87802904  0.72611778  1
  Ni  Ni6  1  0.00000000  0.27382950  0.15201949  1
  Ni  Ni7  1  0.00000000  0.84808865  0.12190425  1
  Ni  Ni8  1  0.50000000  0.95151038  0.56955088  1
  Ni  Ni9  1  0.50000000  0.43060922  0.38208653  1
  Ni  Ni10  1  0.50000000  0.61795701  0.04843590  1
  Ni  Ni11  1  0.50000000  0.12269706  0.90543813  1
  Ni  Ni12  1  0.50000000  0.09458524  0.21728134  1
  Ni  Ni13  1  0.50000000  0.78277240  0.87723636  1
  P  P14  1  0.00000000  0.11301265  0.70634223  1
  P  P15  1  0.00000000  0.29372339  0.40676007  1
  P  P16  1  0.00000000  0.59328840  0.88703223  1
  P  P17  1  0.50000000  0.70580144  0.59509544  1
  P  P18  1  0.50000000  0.40485061  0.11063417  1
  P  P19  1  0.50000000  0.88929008  0.29420182  1
  P  P20  1  0.00000000  0.00004666  -0.00000428  1
