# generated using pymatgen
data_Ce3NiGe2
_symmetry_space_group_name_H-M   'P 1'
_cell_length_a   4.19203158
_cell_length_b   11.39491811
_cell_length_c   11.80201928
_cell_angle_alpha   90.00000000
_cell_angle_beta   90.00000000
_cell_angle_gamma   90.00000000
_symmetry_Int_Tables_number   1
_chemical_formula_structural   Ce3NiGe2
_chemical_formula_sum   'Ce12 Ni4 Ge8'
_cell_volume   563.75716419
_cell_formula_units_Z   4
loop_
 _symmetry_equiv_pos_site_id
 _symmetry_equiv_pos_as_xyz
  1  'x, y, z'
loop_
 _atom_site_type_symbol
 _atom_site_label
 _atom_site_symmetry_multiplicity
 _atom_site_fract_x
 _atom_site_fract_y
 _atom_site_fract_z
 _atom_site_occupancy
  Ce  Ce0  1  0.25000000  0.12226600  0.55471249  1
  Ce  Ce1  1  0.25000000  0.37773400  0.05471249  1
  Ce  Ce2  1  0.75000000  0.87773400  0.44528751  1
  Ce  Ce3  1  0.75000000  0.62226600  0.94528751  1
  Ce  Ce4  1  0.25000000  0.79689237  0.71697836  1
  Ce  Ce5  1  0.25000000  0.70310763  0.21697836  1
  Ce  Ce6  1  0.75000000  0.20310763  0.28302164  1
  Ce  Ce7  1  0.75000000  0.29689237  0.78302164  1
  Ce  Ce8  1  0.25000000  0.05877703  0.88120848  1
  Ce  Ce9  1  0.25000000  0.44122297  0.38120848  1
  Ce  Ce10  1  0.75000000  0.94122297  0.11879152  1
  Ce  Ce11  1  0.75000000  0.55877703  0.61879152  1
  Ni  Ni12  1  0.25000000  0.36876876  0.62855128  1
  Ni  Ni13  1  0.25000000  0.13123124  0.12855128  1
  Ni  Ni14  1  0.75000000  0.63123124  0.37144872  1
  Ni  Ni15  1  0.75000000  0.86876876  0.87144872  1
  Ge  Ge16  1  0.25000000  0.49526580  0.80298656  1
  Ge  Ge17  1  0.25000000  0.00473420  0.30298656  1
  Ge  Ge18  1  0.75000000  0.50473420  0.19701344  1
  Ge  Ge19  1  0.75000000  0.99526580  0.69701344  1
  Ge  Ge20  1  0.25000000  0.81156154  0.97635188  1
  Ge  Ge21  1  0.25000000  0.68843846  0.47635188  1
  Ge  Ge22  1  0.75000000  0.18843846  0.02364812  1
  Ge  Ge23  1  0.75000000  0.31156154  0.52364812  1
