# generated using pymatgen
data_CsGd2Cu3Se5
_symmetry_space_group_name_H-M   'P 1'
_cell_length_a   4.16535115
_cell_length_b   7.66163673
_cell_length_c   17.56886889
_cell_angle_alpha   90.00000000
_cell_angle_beta   90.00000000
_cell_angle_gamma   105.77329157
_symmetry_Int_Tables_number   1
_chemical_formula_structural   CsGd2Cu3Se5
_chemical_formula_sum   'Cs2 Gd4 Cu6 Se10'
_cell_volume   539.56986611
_cell_formula_units_Z   2
loop_
 _symmetry_equiv_pos_site_id
 _symmetry_equiv_pos_as_xyz
  1  'x, y, z'
loop_
 _atom_site_type_symbol
 _atom_site_label
 _atom_site_symmetry_multiplicity
 _atom_site_fract_x
 _atom_site_fract_y
 _atom_site_fract_z
 _atom_site_occupancy
  Cs  Cs0  1  0.43891006  0.87782013  0.25000000  1
  Cs  Cs1  1  0.56108994  0.12217987  0.75000000  1
  Gd  Gd2  1  0.30780609  0.61561219  0.90865544  1
  Gd  Gd3  1  0.69219391  0.38438781  0.09134456  1
  Gd  Gd4  1  0.30780609  0.61561219  0.59134456  1
  Gd  Gd5  1  0.69219391  0.38438781  0.40865544  1
  Cu  Cu6  1  0.15842666  0.31685333  0.25000000  1
  Cu  Cu7  1  0.84157334  0.68314667  0.75000000  1
  Cu  Cu8  1  0.08356251  0.16712502  0.96842685  1
  Cu  Cu9  1  0.91643749  0.83287498  0.03157315  1
  Cu  Cu10  1  0.08356251  0.16712502  0.53157315  1
  Cu  Cu11  1  0.91643749  0.83287498  0.46842685  1
  Se  Se12  1  0.06018562  0.12037123  0.38883859  1
  Se  Se13  1  0.93981438  0.87962877  0.61116141  1
  Se  Se14  1  0.06018562  0.12037123  0.11116141  1
  Se  Se15  1  0.93981438  0.87962877  0.88883859  1
  Se  Se16  1  0.73647429  0.47294858  0.25000000  1
  Se  Se17  1  0.26352571  0.52705142  0.75000000  1
  Se  Se18  1  0.33279996  0.66559992  0.43015553  1
  Se  Se19  1  0.66720004  0.33440008  0.56984447  1
  Se  Se20  1  0.33279996  0.66559992  0.06984447  1
  Se  Se21  1  0.66720004  0.33440008  0.93015553  1
