# generated using pymatgen
data_Li4Ti3CrO8
_symmetry_space_group_name_H-M   'P 1'
_cell_length_a   10.48750867
_cell_length_b   10.48726404
_cell_length_c   14.89412138
_cell_angle_alpha   18.84012661
_cell_angle_beta   18.84230220
_cell_angle_gamma   32.46484899
_symmetry_Int_Tables_number   1
_chemical_formula_structural   Li4Ti3CrO8
_chemical_formula_sum   'Li4 Ti3 Cr1 O8'
_cell_volume   148.11250520
_cell_formula_units_Z   1
loop_
 _symmetry_equiv_pos_site_id
 _symmetry_equiv_pos_as_xyz
  1  'x, y, z'
loop_
 _atom_site_type_symbol
 _atom_site_label
 _atom_site_symmetry_multiplicity
 _atom_site_fract_x
 _atom_site_fract_y
 _atom_site_fract_z
 _atom_site_occupancy
  Li  Li0  1  0.00000639  0.99998926  0.50000685  1
  Li  Li1  1  0.00000759  0.49999901  0.49999823  1
  Li  Li2  1  0.50001377  0.99998820  0.50000080  1
  Li  Li3  1  0.50000422  0.49998360  0.50001361  1
  Ti  Ti4  1  -0.00000350  0.49998636  0.00001656  1
  Ti  Ti5  1  0.50002113  -0.00000545  -0.00000567  1
  Ti  Ti6  1  0.49999552  0.49999177  0.00001535  1
  Cr  Cr7  1  0.99982422  0.00008413  0.00001117  1
  O  O8  1  0.00065562  0.00043421  0.25347453  1
  O  O9  1  0.00061275  0.50342271  0.25281991  1
  O  O10  1  0.50358980  0.00060553  0.25268428  1
  O  O11  1  0.99936295  0.99954010  0.74654170  1
  O  O12  1  0.49704175  0.49701735  0.25952506  1
  O  O13  1  0.99941251  0.49657324  0.74717123  1
  O  O14  1  0.49643417  0.99938114  0.74731246  1
  O  O15  1  0.50302010  0.50300786  0.74041193  1
