# generated using pymatgen
data_Nd2(ReB2)3
_symmetry_space_group_name_H-M   'P 1'
_cell_length_a   6.32091203
_cell_length_b   6.32091203
_cell_length_c   7.62509689
_cell_angle_alpha   90.45883841
_cell_angle_beta   90.45883841
_cell_angle_gamma   114.76861201
_symmetry_Int_Tables_number   1
_chemical_formula_structural   Nd2(ReB2)3
_chemical_formula_sum   'Nd4 Re6 B12'
_cell_volume   276.59618013
_cell_formula_units_Z   2
loop_
 _symmetry_equiv_pos_site_id
 _symmetry_equiv_pos_as_xyz
  1  'x, y, z'
loop_
 _atom_site_type_symbol
 _atom_site_label
 _atom_site_symmetry_multiplicity
 _atom_site_fract_x
 _atom_site_fract_y
 _atom_site_fract_z
 _atom_site_occupancy
  Nd  Nd0  1  0.09329950  0.44091651  0.32543316  1
  Nd  Nd1  1  0.55908349  0.90670050  0.17456684  1
  Nd  Nd2  1  0.90670050  0.55908349  0.67456684  1
  Nd  Nd3  1  0.44091651  0.09329950  0.82543316  1
  Re  Re4  1  0.58383630  0.41616370  0.25000000  1
  Re  Re5  1  0.41616370  0.58383630  0.75000000  1
  Re  Re6  1  0.98908981  0.80369249  0.08726065  1
  Re  Re7  1  0.19630751  0.01091019  0.41273935  1
  Re  Re8  1  0.01091019  0.19630751  0.91273935  1
  Re  Re9  1  0.80369249  0.98908981  0.58726065  1
  B  B10  1  0.24259947  0.15149100  0.13182834  1
  B  B11  1  0.84850900  0.75740053  0.36817166  1
  B  B12  1  0.75740053  0.84850900  0.86817166  1
  B  B13  1  0.15149100  0.24259947  0.63182834  1
  B  B14  1  0.58624225  0.15898888  0.48031959  1
  B  B15  1  0.84101112  0.41375775  0.01968041  1
  B  B16  1  0.41375775  0.84101112  0.51968041  1
  B  B17  1  0.15898888  0.58624225  0.98031959  1
  B  B18  1  0.44090134  0.34966816  0.53403522  1
  B  B19  1  0.65033184  0.55909866  0.96596478  1
  B  B20  1  0.55909866  0.65033184  0.46596478  1
  B  B21  1  0.34966816  0.44090134  0.03403522  1
