# generated using pymatgen
data_EuSi2Ni9
_symmetry_space_group_name_H-M   'P 1'
_cell_length_a   6.20304550
_cell_length_b   7.59302215
_cell_length_c   7.59302215
_cell_angle_alpha   80.39540344
_cell_angle_beta   65.89123301
_cell_angle_gamma   65.89123301
_symmetry_Int_Tables_number   1
_chemical_formula_structural   EuSi2Ni9
_chemical_formula_sum   'Eu2 Si4 Ni18'
_cell_volume   297.96044928
_cell_formula_units_Z   2
loop_
 _symmetry_equiv_pos_site_id
 _symmetry_equiv_pos_as_xyz
  1  'x, y, z'
loop_
 _atom_site_type_symbol
 _atom_site_label
 _atom_site_symmetry_multiplicity
 _atom_site_fract_x
 _atom_site_fract_y
 _atom_site_fract_z
 _atom_site_occupancy
  Eu  Eu0  1  0.37500000  0.25000000  0.75000000  1
  Eu  Eu1  1  0.62500000  0.75000000  0.25000000  1
  Si  Si2  1  0.50000000  0.50000000  0.00000000  1
  Si  Si3  1  0.00000000  0.50000000  0.50000000  1
  Si  Si4  1  0.00000000  0.00000000  0.00000000  1
  Si  Si5  1  0.00000000  0.00000000  0.50000000  1
  Ni  Ni6  1  0.12500000  0.75000000  0.25000000  1
  Ni  Ni7  1  0.87500000  0.25000000  0.75000000  1
  Ni  Ni8  1  0.56317536  0.57809450  0.67031239  1
  Ni  Ni9  1  0.56317536  0.17031239  0.07809450  1
  Ni  Ni10  1  0.14126986  0.42190550  0.17031239  1
  Ni  Ni11  1  0.14126986  0.67031239  0.92190550  1
  Ni  Ni12  1  0.81158225  0.32968761  0.42190550  1
  Ni  Ni13  1  0.81158225  0.92190550  0.82968761  1
  Ni  Ni14  1  0.73348775  0.82968761  0.57809450  1
  Ni  Ni15  1  0.73348775  0.07809450  0.32968761  1
  Ni  Ni16  1  0.43682464  0.42190550  0.32968761  1
  Ni  Ni17  1  0.43682464  0.82968761  0.92190550  1
  Ni  Ni18  1  0.85873014  0.57809450  0.82968761  1
  Ni  Ni19  1  0.85873014  0.32968761  0.07809450  1
  Ni  Ni20  1  0.18841775  0.67031239  0.57809450  1
  Ni  Ni21  1  0.18841775  0.07809450  0.17031239  1
  Ni  Ni22  1  0.26651225  0.17031239  0.42190550  1
  Ni  Ni23  1  0.26651225  0.92190550  0.67031239  1
