# generated using pymatgen
data_CsEuAsS3
_symmetry_space_group_name_H-M   'P 1'
_cell_length_a   8.47103107
_cell_length_b   9.62952165
_cell_length_c   8.93312427
_cell_angle_alpha   104.27046994
_cell_angle_beta   90.00000000
_cell_angle_gamma   90.00000000
_symmetry_Int_Tables_number   1
_chemical_formula_structural   CsEuAsS3
_chemical_formula_sum   'Cs4 Eu4 As4 S12'
_cell_volume   706.20727145
_cell_formula_units_Z   4
loop_
 _symmetry_equiv_pos_site_id
 _symmetry_equiv_pos_as_xyz
  1  'x, y, z'
loop_
 _atom_site_type_symbol
 _atom_site_label
 _atom_site_symmetry_multiplicity
 _atom_site_fract_x
 _atom_site_fract_y
 _atom_site_fract_z
 _atom_site_occupancy
  Cs  Cs0  1  0.57285598  0.59349724  0.22676124  1
  Cs  Cs1  1  0.07285598  0.40650276  0.27323876  1
  Cs  Cs2  1  0.42714402  0.40650276  0.77323876  1
  Cs  Cs3  1  0.92714402  0.59349724  0.72676124  1
  Eu  Eu4  1  0.21693765  0.93601100  0.46917233  1
  Eu  Eu5  1  0.71693765  0.06398900  0.03082767  1
  Eu  Eu6  1  0.78306235  0.06398900  0.53082767  1
  Eu  Eu7  1  0.28306235  0.93601100  0.96917233  1
  As  As8  1  0.95272361  0.78575832  0.15463446  1
  As  As9  1  0.45272361  0.21424168  0.34536554  1
  As  As10  1  0.04727639  0.21424168  0.84536554  1
  As  As11  1  0.54727639  0.78575832  0.65463446  1
  S  S12  1  0.51692198  0.97463955  0.28508029  1
  S  S13  1  0.01692198  0.02536045  0.21491971  1
  S  S14  1  0.48307802  0.02536045  0.71491971  1
  S  S15  1  0.98307802  0.97463955  0.78508029  1
  S  S16  1  0.91778126  0.76761920  0.40089440  1
  S  S17  1  0.41778126  0.23238080  0.09910560  1
  S  S18  1  0.08221874  0.23238080  0.59910560  1
  S  S19  1  0.58221874  0.76761920  0.90089440  1
  S  S20  1  0.69076338  0.31430769  0.41605054  1
  S  S21  1  0.19076338  0.68569231  0.08394946  1
  S  S22  1  0.30923662  0.68569231  0.58394946  1
  S  S23  1  0.80923662  0.31430769  0.91605054  1
