# generated using pymatgen
data_Ti7P4
_symmetry_space_group_name_H-M   'P 1'
_cell_length_a   3.40835038
_cell_length_b   7.53361753
_cell_length_c   13.62574482
_cell_angle_alpha   104.33902136
_cell_angle_beta   90.00000000
_cell_angle_gamma   103.07400228
_symmetry_Int_Tables_number   1
_chemical_formula_structural   Ti7P4
_chemical_formula_sum   'Ti14 P8'
_cell_volume   329.60277847
_cell_formula_units_Z   2
loop_
 _symmetry_equiv_pos_site_id
 _symmetry_equiv_pos_as_xyz
  1  'x, y, z'
loop_
 _atom_site_type_symbol
 _atom_site_label
 _atom_site_symmetry_multiplicity
 _atom_site_fract_x
 _atom_site_fract_y
 _atom_site_fract_z
 _atom_site_occupancy
  Ti  Ti0  1  0.00000000  0.00000000  0.00000000  1
  Ti  Ti1  1  0.50000000  0.00000000  0.50000000  1
  Ti  Ti2  1  0.43115270  0.86230540  0.82842479  1
  Ti  Ti3  1  0.56884730  0.13769460  0.17157521  1
  Ti  Ti4  1  0.19634907  0.39269815  0.30818508  1
  Ti  Ti5  1  0.80365093  0.60730185  0.69181492  1
  Ti  Ti6  1  0.20642248  0.41284496  0.79371906  1
  Ti  Ti7  1  0.79357752  0.58715504  0.20628094  1
  Ti  Ti8  1  0.34011031  0.68022062  0.02990690  1
  Ti  Ti9  1  0.65988969  0.31977938  0.97009310  1
  Ti  Ti10  1  0.00369052  0.00738104  0.66319859  1
  Ti  Ti11  1  0.99630948  0.99261896  0.33680141  1
  Ti  Ti12  1  0.17819757  0.35639514  0.54151598  1
  Ti  Ti13  1  0.82180243  0.64360486  0.45848402  1
  P  P14  1  0.17619984  0.35239969  0.11114014  1
  P  P15  1  0.82380016  0.64760031  0.88885986  1
  P  P16  1  0.37275042  0.74550084  0.60416292  1
  P  P17  1  0.62724958  0.25449916  0.39583708  1
  P  P18  1  0.36961096  0.73922192  0.34202074  1
  P  P19  1  0.63038904  0.26077808  0.65797926  1
  P  P20  1  0.06277037  0.12554073  0.85000176  1
  P  P21  1  0.93722963  0.87445927  0.14999824  1
