# generated using pymatgen
data_Li(FeO2)2
_symmetry_space_group_name_H-M   'P 1'
_cell_length_a   8.31305855
_cell_length_b   8.32581076
_cell_length_c   8.31128026
_cell_angle_alpha   89.93491968
_cell_angle_beta   90.15608484
_cell_angle_gamma   89.99764588
_symmetry_Int_Tables_number   1
_chemical_formula_structural   Li(FeO2)2
_chemical_formula_sum   'Li8 Fe16 O32'
_cell_volume   575.24573839
_cell_formula_units_Z   8
loop_
 _symmetry_equiv_pos_site_id
 _symmetry_equiv_pos_as_xyz
  1  'x, y, z'
loop_
 _atom_site_type_symbol
 _atom_site_label
 _atom_site_symmetry_multiplicity
 _atom_site_fract_x
 _atom_site_fract_y
 _atom_site_fract_z
 _atom_site_occupancy
  Li  Li0  1  0.12081820  0.87439240  0.37526306  1
  Li  Li1  1  0.25332223  0.75133371  0.74490643  1
  Li  Li2  1  0.24935481  0.25148441  0.24469368  1
  Li  Li3  1  0.37633652  0.12330577  0.87892508  1
  Li  Li4  1  0.62308888  0.62629111  0.62068061  1
  Li  Li5  1  0.75488891  0.74881626  0.25174470  1
  Li  Li6  1  0.75195327  0.24928018  0.74772779  1
  Li  Li7  1  0.87888563  0.37443717  0.12511984  1
  Fe  Fe8  1  0.99763349  0.50172205  0.49891898  1
  Fe  Fe9  1  0.11979364  0.62013854  0.12268605  1
  Fe  Fe10  1  0.11955935  0.37869198  0.88064693  1
  Fe  Fe11  1  0.12566369  0.12096848  0.62202643  1
  Fe  Fe12  1  0.37372696  0.88129707  0.12395286  1
  Fe  Fe13  1  0.37799939  0.62034124  0.37862050  1
  Fe  Fe14  1  0.37994672  0.37721711  0.62511431  1
  Fe  Fe15  1  0.49710030  0.49755629  0.00382879  1
  Fe  Fe16  1  0.50128089  0.99522796  0.50348220  1
  Fe  Fe17  1  0.62188594  0.87967306  0.87998883  1
  Fe  Fe18  1  0.62269308  0.12225296  0.12350083  1
  Fe  Fe19  1  0.62262952  0.37735917  0.37808317  1
  Fe  Fe20  1  0.87313598  0.62046814  0.87718144  1
  Fe  Fe21  1  0.87663850  0.87932903  0.62102931  1
  Fe  Fe22  1  0.87578437  0.12294393  0.37867114  1
  Fe  Fe23  1  0.99772977  0.00335484  0.00252855  1
  O  O24  1  0.09530176  0.13036036  0.38271640  1
  O  O25  1  0.09723817  0.88661989  0.62704203  1
  O  O26  1  0.12186280  0.61015716  0.89234611  1
  O  O27  1  0.12504602  0.39434036  0.10473537  1
  O  O28  1  0.12185551  0.14417432  0.87197801  1
  O  O29  1  0.12953533  0.36910449  0.63720486  1
  O  O30  1  0.13949736  0.61945520  0.35795713  1
  O  O31  1  0.13450180  0.86152092  0.12041606  1
  O  O32  1  0.36271604  0.13104333  0.61726926  1
  O  O33  1  0.35915844  0.37679435  0.86542131  1
  O  O34  1  0.36064844  0.62967579  0.13861952  1
  O  O35  1  0.38298519  0.85410430  0.36667379  1
  O  O36  1  0.37333640  0.61456369  0.59698361  1
  O  O37  1  0.39041085  0.39025565  0.37867095  1
  O  O38  1  0.40189268  0.11406046  0.12973332  1
  O  O39  1  0.40345157  0.87355406  0.88524251  1
  O  O40  1  0.61529571  0.37523376  0.59904163  1
  O  O41  1  0.60346291  0.60254390  0.36802483  1
  O  O42  1  0.62244823  0.89065891  0.10973117  1
  O  O43  1  0.62837942  0.10572822  0.89779950  1
  O  O44  1  0.62405631  0.35751526  0.13911907  1
  O  O45  1  0.63631912  0.13554270  0.36484108  1
  O  O46  1  0.64173883  0.87806886  0.64499619  1
  O  O47  1  0.63436998  0.63552098  0.88478559  1
  O  O48  1  0.85634637  0.36152977  0.37710037  1
  O  O49  1  0.85847513  0.12196428  0.14336114  1
  O  O50  1  0.86283130  0.87068092  0.86454121  1
  O  O51  1  0.87608997  0.64653345  0.62957249  1
  O  O52  1  0.86842580  0.89777073  0.39656403  1
  O  O53  1  0.87806215  0.11033223  0.60810085  1
  O  O54  1  0.89921360  0.38683989  0.87343444  1
  O  O55  1  0.90319673  0.62594793  0.11673462  1
