# generated using pymatgen
data_Ho3MnB7
_symmetry_space_group_name_H-M   'P 1'
_cell_length_a   3.42237231
_cell_length_b   7.99867605
_cell_length_c   9.25931522
_cell_angle_alpha   90.00000000
_cell_angle_beta   90.00000000
_cell_angle_gamma   102.35297580
_symmetry_Int_Tables_number   1
_chemical_formula_structural   Ho3MnB7
_chemical_formula_sum   'Ho6 Mn2 B14'
_cell_volume   247.60037961
_cell_formula_units_Z   2
loop_
 _symmetry_equiv_pos_site_id
 _symmetry_equiv_pos_as_xyz
  1  'x, y, z'
loop_
 _atom_site_type_symbol
 _atom_site_label
 _atom_site_symmetry_multiplicity
 _atom_site_fract_x
 _atom_site_fract_y
 _atom_site_fract_z
 _atom_site_occupancy
  Ho  Ho0  1  0.10420580  0.20841160  0.44062207  1
  Ho  Ho1  1  0.89579420  0.79158840  0.55937793  1
  Ho  Ho2  1  0.10420580  0.20841160  0.05937793  1
  Ho  Ho3  1  0.89579420  0.79158840  0.94062207  1
  Ho  Ho4  1  0.75910464  0.51820929  0.25000000  1
  Ho  Ho5  1  0.24089536  0.48179071  0.75000000  1
  Mn  Mn6  1  0.94657478  0.89314955  0.25000000  1
  Mn  Mn7  1  0.05342522  0.10685045  0.75000000  1
  B  B8  1  0.27278923  0.54557846  0.46742569  1
  B  B9  1  0.72721077  0.45442154  0.53257431  1
  B  B10  1  0.27278923  0.54557846  0.03257431  1
  B  B11  1  0.72721077  0.45442154  0.96742569  1
  B  B12  1  0.36989950  0.73979899  0.15294383  1
  B  B13  1  0.63010050  0.26020101  0.84705617  1
  B  B14  1  0.36989950  0.73979899  0.34705617  1
  B  B15  1  0.63010050  0.26020101  0.65294383  1
  B  B16  1  0.47875718  0.95751436  0.09840199  1
  B  B17  1  0.52124282  0.04248564  0.90159801  1
  B  B18  1  0.47875718  0.95751436  0.40159801  1
  B  B19  1  0.52124282  0.04248564  0.59840199  1
  B  B20  1  0.54113058  0.08226115  0.25000000  1
  B  B21  1  0.45886942  0.91773885  0.75000000  1
