# generated using pymatgen
data_UAl5Cu6
_symmetry_space_group_name_H-M   'P 1'
_cell_length_a   6.59882779
_cell_length_b   7.82194872
_cell_length_c   8.17762978
_cell_angle_alpha   80.20120164
_cell_angle_beta   66.20482906
_cell_angle_gamma   65.05078602
_symmetry_Int_Tables_number   1
_chemical_formula_structural   UAl5Cu6
_chemical_formula_sum   'U2 Al10 Cu12'
_cell_volume   350.17271766
_cell_formula_units_Z   2
loop_
 _symmetry_equiv_pos_site_id
 _symmetry_equiv_pos_as_xyz
  1  'x, y, z'
loop_
 _atom_site_type_symbol
 _atom_site_label
 _atom_site_symmetry_multiplicity
 _atom_site_fract_x
 _atom_site_fract_y
 _atom_site_fract_z
 _atom_site_occupancy
  U  U0  1  0.62500000  0.75000000  0.75000000  1
  U  U1  1  0.37500000  0.25000000  0.25000000  1
  Al  Al2  1  0.12500000  0.75000000  0.75000000  1
  Al  Al3  1  0.87500000  0.25000000  0.25000000  1
  Al  Al4  1  0.55388995  0.15974688  0.57571956  1
  Al  Al5  1  0.28636317  0.15974688  0.92428044  1
  Al  Al6  1  0.87039048  0.34025312  0.57571956  1
  Al  Al7  1  0.78935639  0.34025312  0.92428044  1
  Al  Al8  1  0.44611005  0.84025312  0.42428044  1
  Al  Al9  1  0.71363683  0.84025312  0.07571956  1
  Al  Al10  1  0.12960952  0.65974688  0.42428044  1
  Al  Al11  1  0.21064361  0.65974688  0.07571956  1
  Cu  Cu12  1  0.50000000  0.50000000  0.50000000  1
  Cu  Cu13  1  -0.00000000  0.50000000  -0.00000000  1
  Cu  Cu14  1  -0.00000000  0.00000000  0.50000000  1
  Cu  Cu15  1  -0.00000000  0.00000000  -0.00000000  1
  Cu  Cu16  1  0.19019992  0.07545035  0.67623215  1
  Cu  Cu17  1  0.73434973  0.07545035  0.82376785  1
  Cu  Cu18  1  0.13356793  0.42454965  0.67623215  1
  Cu  Cu19  1  0.44188242  0.42454965  0.82376785  1
  Cu  Cu20  1  0.80980008  0.92454965  0.32376785  1
  Cu  Cu21  1  0.26565027  0.92454965  0.17623215  1
  Cu  Cu22  1  0.86643207  0.57545035  0.32376785  1
  Cu  Cu23  1  0.55811758  0.57545035  0.17623215  1
