# generated using pymatgen
data_K6HgSe4
_symmetry_space_group_name_H-M   'P 1'
_cell_length_a   8.00664814
_cell_length_b   10.52190770
_cell_length_c   10.52190770
_cell_angle_alpha   119.99626944
_cell_angle_beta   90.00000000
_cell_angle_gamma   90.00000000
_symmetry_Int_Tables_number   1
_chemical_formula_structural   K6HgSe4
_chemical_formula_sum   'K12 Hg2 Se8'
_cell_volume   767.69139998
_cell_formula_units_Z   2
loop_
 _symmetry_equiv_pos_site_id
 _symmetry_equiv_pos_as_xyz
  1  'x, y, z'
loop_
 _atom_site_type_symbol
 _atom_site_label
 _atom_site_symmetry_multiplicity
 _atom_site_fract_x
 _atom_site_fract_y
 _atom_site_fract_z
 _atom_site_occupancy
  K  K0  1  0.20599650  0.14870551  0.29739633  1
  K  K1  1  0.20601627  0.14868425  0.85131575  1
  K  K2  1  0.20599650  0.70260367  0.85129449  1
  K  K3  1  0.70599650  0.85129449  0.70260367  1
  K  K4  1  0.70601627  0.85131575  0.14868425  1
  K  K5  1  0.70599650  0.29739633  0.14870551  1
  K  K6  1  0.37748066  0.52758284  0.05516269  1
  K  K7  1  0.37752437  0.52756789  0.47243211  1
  K  K8  1  0.37748066  0.94483731  0.47241716  1
  K  K9  1  0.87748066  0.47241716  0.94483731  1
  K  K10  1  0.87752437  0.47243211  0.52756789  1
  K  K11  1  0.87748066  0.05516269  0.52758284  1
  Hg  Hg12  1  0.50160237  0.33332282  0.66667718  1
  Hg  Hg13  1  0.00160237  0.66667718  0.33332282  1
  Se  Se14  1  0.15621201  0.33328858  0.66671142  1
  Se  Se15  1  0.65621201  0.66671142  0.33328858  1
  Se  Se16  1  0.10490115  0.81082795  0.62167549  1
  Se  Se17  1  0.10488837  0.81086569  0.18913431  1
  Se  Se18  1  0.10490115  0.37832451  0.18917205  1
  Se  Se19  1  0.60490115  0.18917205  0.37832451  1
  Se  Se20  1  0.60488837  0.18913431  0.81086569  1
  Se  Se21  1  0.60490115  0.62167549  0.81082795  1
