# generated using pymatgen
data_TbB4Mo
_symmetry_space_group_name_H-M   'P 1'
_cell_length_a   3.63766224
_cell_length_b   6.04414147
_cell_length_c   11.68086937
_cell_angle_alpha   90.00000000
_cell_angle_beta   90.00000000
_cell_angle_gamma   90.00000000
_symmetry_Int_Tables_number   1
_chemical_formula_structural   TbB4Mo
_chemical_formula_sum   'Tb4 B16 Mo4'
_cell_volume   256.82196236
_cell_formula_units_Z   4
loop_
 _symmetry_equiv_pos_site_id
 _symmetry_equiv_pos_as_xyz
  1  'x, y, z'
loop_
 _atom_site_type_symbol
 _atom_site_label
 _atom_site_symmetry_multiplicity
 _atom_site_fract_x
 _atom_site_fract_y
 _atom_site_fract_z
 _atom_site_occupancy
  Tb  Tb0  1  -0.00000000  0.62658668  0.35003708  1
  Tb  Tb1  1  0.00000000  0.37341332  0.64996292  1
  Tb  Tb2  1  -0.00000000  0.12658668  0.14996292  1
  Tb  Tb3  1  0.00000000  0.87341332  0.85003708  1
  B  B4  1  0.50000000  0.78599811  0.18612046  1
  B  B5  1  0.50000000  0.21400189  0.81387954  1
  B  B6  1  0.50000000  0.28599811  0.31387954  1
  B  B7  1  0.50000000  0.71400189  0.68612046  1
  B  B8  1  0.50000000  0.86632907  0.03210780  1
  B  B9  1  0.50000000  0.13367093  0.96789220  1
  B  B10  1  0.50000000  0.36632907  0.46789220  1
  B  B11  1  0.50000000  0.63367093  0.53210780  1
  B  B12  1  0.50000000  0.88607867  0.45282299  1
  B  B13  1  0.50000000  0.11392133  0.54717701  1
  B  B14  1  0.50000000  0.38607867  0.04717701  1
  B  B15  1  0.50000000  0.61392133  0.95282299  1
  B  B16  1  0.50000000  0.97591443  0.30685128  1
  B  B17  1  0.50000000  0.02408557  0.69314872  1
  B  B18  1  0.50000000  0.47591443  0.19314872  1
  B  B19  1  0.50000000  0.52408557  0.80685128  1
  Mo  Mo20  1  0.00000000  0.62940899  0.08334036  1
  Mo  Mo21  1  -0.00000000  0.37059101  0.91665964  1
  Mo  Mo22  1  0.00000000  0.12940899  0.41665964  1
  Mo  Mo23  1  -0.00000000  0.87059101  0.58334036  1
