# generated using pymatgen
data_LaPS
_symmetry_space_group_name_H-M   'P 1'
_cell_length_a   5.61652088
_cell_length_b   5.71760833
_cell_length_c   17.35533878
_cell_angle_alpha   90.00000000
_cell_angle_beta   90.00000000
_cell_angle_gamma   90.00000000
_symmetry_Int_Tables_number   1
_chemical_formula_structural   LaPS
_chemical_formula_sum   'La8 P8 S8'
_cell_volume   557.33314957
_cell_formula_units_Z   8
loop_
 _symmetry_equiv_pos_site_id
 _symmetry_equiv_pos_as_xyz
  1  'x, y, z'
loop_
 _atom_site_type_symbol
 _atom_site_label
 _atom_site_symmetry_multiplicity
 _atom_site_fract_x
 _atom_site_fract_y
 _atom_site_fract_z
 _atom_site_occupancy
  La  La0  1  0.75000000  0.01544074  0.13871389  1
  La  La1  1  0.75000000  0.51544074  0.36128611  1
  La  La2  1  0.25000000  0.98455926  0.86128611  1
  La  La3  1  0.25000000  0.48455926  0.63871389  1
  La  La4  1  0.75000000  0.48365910  0.85176591  1
  La  La5  1  0.75000000  0.98365910  0.64823409  1
  La  La6  1  0.25000000  0.51634090  0.14823409  1
  La  La7  1  0.25000000  0.01634090  0.35176591  1
  P  P8  1  0.95244876  0.18965554  0.50259887  1
  P  P9  1  0.54755124  0.68965554  0.99740113  1
  P  P10  1  0.45244876  0.81034446  0.49740113  1
  P  P11  1  0.04755124  0.31034446  0.00259887  1
  P  P12  1  0.04755124  0.81034446  0.49740113  1
  P  P13  1  0.45244876  0.31034446  0.00259887  1
  P  P14  1  0.54755124  0.18965554  0.50259887  1
  P  P15  1  0.95244876  0.68965554  0.99740113  1
  S  S16  1  0.75000000  0.01439879  0.31172961  1
  S  S17  1  0.75000000  0.51439879  0.18827039  1
  S  S18  1  0.25000000  0.98560121  0.68827039  1
  S  S19  1  0.25000000  0.48560121  0.81172961  1
  S  S20  1  0.75000000  0.48736181  0.68122428  1
  S  S21  1  0.75000000  0.98736181  0.81877572  1
  S  S22  1  0.25000000  0.51263819  0.31877572  1
  S  S23  1  0.25000000  0.01263819  0.18122428  1
