# generated using pymatgen
data_Eu4I6O
_symmetry_space_group_name_H-M   'P 1'
_cell_length_a   8.04591772
_cell_length_b   10.45914357
_cell_length_c   10.45914357
_cell_angle_alpha   119.99579125
_cell_angle_beta   90.00000000
_cell_angle_gamma   90.00000000
_symmetry_Int_Tables_number   1
_chemical_formula_structural   Eu4I6O
_chemical_formula_sum   'Eu8 I12 O2'
_cell_volume   762.28414052
_cell_formula_units_Z   2
loop_
 _symmetry_equiv_pos_site_id
 _symmetry_equiv_pos_as_xyz
  1  'x, y, z'
loop_
 _atom_site_type_symbol
 _atom_site_label
 _atom_site_symmetry_multiplicity
 _atom_site_fract_x
 _atom_site_fract_y
 _atom_site_fract_z
 _atom_site_occupancy
  Eu  Eu0  1  0.09766820  0.33330821  0.66669179  1
  Eu  Eu1  1  0.59766820  0.66669179  0.33330821  1
  Eu  Eu2  1  0.48621807  0.20712733  0.79287267  1
  Eu  Eu3  1  0.48615810  0.58571258  0.79284750  1
  Eu  Eu4  1  0.48615810  0.20715250  0.41428742  1
  Eu  Eu5  1  0.98621807  0.79287267  0.20712733  1
  Eu  Eu6  1  0.98615810  0.41428742  0.20715250  1
  Eu  Eu7  1  0.98615810  0.79284750  0.58571258  1
  I  I8  1  0.11062517  0.13577829  0.86422171  1
  I  I9  1  0.11062042  0.72843434  0.86421623  1
  I  I10  1  0.11062042  0.13578377  0.27156566  1
  I  I11  1  0.61062517  0.86422171  0.13577829  1
  I  I12  1  0.61062042  0.27156566  0.13578377  1
  I  I13  1  0.61062042  0.86421623  0.72843434  1
  I  I14  1  0.79264254  0.46445784  0.53554216  1
  I  I15  1  0.79263059  0.07107562  0.53553621  1
  I  I16  1  0.79263059  0.46446379  0.92892438  1
  I  I17  1  0.29264254  0.53554216  0.46445784  1
  I  I18  1  0.29263059  0.92892438  0.46446379  1
  I  I19  1  0.29263059  0.53553621  0.07107562  1
  O  O20  1  0.39329781  0.33332886  0.66667114  1
  O  O21  1  0.89329781  0.66667114  0.33332886  1
