# generated using pymatgen
data_GdPS
_symmetry_space_group_name_H-M   'P 1'
_cell_length_a   5.37047239
_cell_length_b   5.43541960
_cell_length_c   16.83373340
_cell_angle_alpha   90.00000000
_cell_angle_beta   90.00000000
_cell_angle_gamma   90.00000000
_symmetry_Int_Tables_number   1
_chemical_formula_structural   GdPS
_chemical_formula_sum   'Gd8 P8 S8'
_cell_volume   491.38965490
_cell_formula_units_Z   8
loop_
 _symmetry_equiv_pos_site_id
 _symmetry_equiv_pos_as_xyz
  1  'x, y, z'
loop_
 _atom_site_type_symbol
 _atom_site_label
 _atom_site_symmetry_multiplicity
 _atom_site_fract_x
 _atom_site_fract_y
 _atom_site_fract_z
 _atom_site_occupancy
  Gd  Gd0  1  0.25000000  0.51567551  0.36210956  1
  Gd  Gd1  1  0.25000000  0.01567551  0.13789044  1
  Gd  Gd2  1  0.75000000  0.48432449  0.63789044  1
  Gd  Gd3  1  0.75000000  0.98432449  0.86210956  1
  Gd  Gd4  1  0.25000000  0.48499733  0.85325377  1
  Gd  Gd5  1  0.25000000  0.98499733  0.64674623  1
  Gd  Gd6  1  0.75000000  0.51500267  0.14674623  1
  Gd  Gd7  1  0.75000000  0.01500267  0.35325377  1
  P  P8  1  0.03823111  0.20192991  0.50268107  1
  P  P9  1  0.46176889  0.70192991  0.99731893  1
  P  P10  1  0.53823111  0.79807009  0.49731893  1
  P  P11  1  0.96176889  0.29807009  0.00268107  1
  P  P12  1  0.96176889  0.79807009  0.49731893  1
  P  P13  1  0.53823111  0.29807009  0.00268107  1
  P  P14  1  0.46176889  0.20192991  0.50268107  1
  P  P15  1  0.03823111  0.70192991  0.99731893  1
  S  S16  1  0.25000000  0.01500104  0.31127842  1
  S  S17  1  0.25000000  0.51500104  0.18872158  1
  S  S18  1  0.75000000  0.98499896  0.68872158  1
  S  S19  1  0.75000000  0.48499896  0.81127842  1
  S  S20  1  0.25000000  0.98823750  0.81707107  1
  S  S21  1  0.25000000  0.48823750  0.68292893  1
  S  S22  1  0.75000000  0.01176250  0.18292893  1
  S  S23  1  0.75000000  0.51176250  0.31707107  1
