# generated using pymatgen
data_KZn(BO2)3
_symmetry_space_group_name_H-M   'P 1'
_cell_length_a   6.85122468
_cell_length_b   6.99623979
_cell_length_c   7.14773323
_cell_angle_alpha   63.19224820
_cell_angle_beta   72.76825956
_cell_angle_gamma   69.35819225
_symmetry_Int_Tables_number   1
_chemical_formula_structural   KZn(BO2)3
_chemical_formula_sum   'K2 Zn2 B6 O12'
_cell_volume   282.26791989
_cell_formula_units_Z   2
loop_
 _symmetry_equiv_pos_site_id
 _symmetry_equiv_pos_as_xyz
  1  'x, y, z'
loop_
 _atom_site_type_symbol
 _atom_site_label
 _atom_site_symmetry_multiplicity
 _atom_site_fract_x
 _atom_site_fract_y
 _atom_site_fract_z
 _atom_site_occupancy
  K  K0  1  0.74347261  0.20422062  0.42052777  1
  K  K1  1  0.25652739  0.79577938  0.57947223  1
  Zn  Zn2  1  0.32536520  0.14797437  0.87236215  1
  Zn  Zn3  1  0.67463480  0.85202563  0.12763785  1
  B  B4  1  0.24438265  0.31954655  0.43356053  1
  B  B5  1  0.75561735  0.68045345  0.56643947  1
  B  B6  1  0.29719901  0.68202677  0.16725673  1
  B  B7  1  0.70280099  0.31797323  0.83274327  1
  B  B8  1  0.09674041  0.49394603  0.09455624  1
  B  B9  1  0.90325959  0.50605397  0.90544376  1
  O  O10  1  0.13861029  0.41675690  0.91738218  1
  O  O11  1  0.86138971  0.58324310  0.08261782  1
  O  O12  1  0.27916393  0.14968088  0.61910503  1
  O  O13  1  0.72083607  0.85031912  0.38089497  1
  O  O14  1  0.37183810  0.85871441  0.11871943  1
  O  O15  1  0.62816190  0.14128559  0.88128057  1
  O  O16  1  0.80247023  0.32930262  0.96680386  1
  O  O17  1  0.19752977  0.67069738  0.03319614  1
  O  O18  1  0.13890784  0.31361526  0.29805517  1
  O  O19  1  0.86109216  0.68638474  0.70194483  1
  O  O20  1  0.32328208  0.50664945  0.36595240  1
  O  O21  1  0.67671792  0.49335055  0.63404760  1
