# generated using pymatgen
data_Sm11In9Ni4
_symmetry_space_group_name_H-M   'P 1'
_cell_length_a   3.74257071
_cell_length_b   13.59057302
_cell_length_c   13.59057302
_cell_angle_alpha   112.96180064
_cell_angle_beta   90.00000000
_cell_angle_gamma   90.00000000
_symmetry_Int_Tables_number   1
_chemical_formula_structural   Sm11In9Ni4
_chemical_formula_sum   'Sm11 In9 Ni4'
_cell_volume   636.49416206
_cell_formula_units_Z   1
loop_
 _symmetry_equiv_pos_site_id
 _symmetry_equiv_pos_as_xyz
  1  'x, y, z'
loop_
 _atom_site_type_symbol
 _atom_site_label
 _atom_site_symmetry_multiplicity
 _atom_site_fract_x
 _atom_site_fract_y
 _atom_site_fract_z
 _atom_site_occupancy
  Sm  Sm0  1  -0.00000000  0.92059155  0.58153987  1
  Sm  Sm1  1  -0.00000000  0.07940845  0.41846013  1
  Sm  Sm2  1  0.00000000  0.58153987  0.92059155  1
  Sm  Sm3  1  -0.00000000  0.41846013  0.07940845  1
  Sm  Sm4  1  -0.00000000  0.15974569  0.84025431  1
  Sm  Sm5  1  -0.00000000  0.84025431  0.15974569  1
  Sm  Sm6  1  0.00000000  0.37468525  0.62531475  1
  Sm  Sm7  1  -0.00000000  0.62531475  0.37468525  1
  Sm  Sm8  1  -0.00000000  0.68800566  0.68800566  1
  Sm  Sm9  1  0.00000000  0.31199434  0.31199434  1
  Sm  Sm10  1  -0.00000000  0.00000000  0.00000000  1
  In  In11  1  0.50000000  0.16273694  0.63289745  1
  In  In12  1  0.50000000  0.83726306  0.36710255  1
  In  In13  1  0.50000000  0.63289745  0.16273694  1
  In  In14  1  0.50000000  0.36710255  0.83726306  1
  In  In15  1  0.50000000  0.91902477  0.77901230  1
  In  In16  1  0.50000000  0.08097523  0.22098770  1
  In  In17  1  0.50000000  0.77901230  0.91902477  1
  In  In18  1  0.50000000  0.22098770  0.08097523  1
  In  In19  1  0.50000000  0.50000000  0.50000000  1
  Ni  Ni20  1  0.50000000  0.75411210  0.54849481  1
  Ni  Ni21  1  0.50000000  0.24588790  0.45150519  1
  Ni  Ni22  1  0.50000000  0.54849481  0.75411210  1
  Ni  Ni23  1  0.50000000  0.45150519  0.24588790  1
