# generated using pymatgen
data_V5O12
_symmetry_space_group_name_H-M   'P 1'
_cell_length_a   4.97915263
_cell_length_b   4.97915272
_cell_length_c   9.06172637
_cell_angle_alpha   87.08953903
_cell_angle_beta   92.91045661
_cell_angle_gamma   66.79446697
_symmetry_Int_Tables_number   1
_chemical_formula_structural   V5O12
_chemical_formula_sum   'V5 O12'
_cell_volume   205.60216540
_cell_formula_units_Z   1
loop_
 _symmetry_equiv_pos_site_id
 _symmetry_equiv_pos_as_xyz
  1  'x, y, z'
loop_
 _atom_site_type_symbol
 _atom_site_label
 _atom_site_symmetry_multiplicity
 _atom_site_fract_x
 _atom_site_fract_y
 _atom_site_fract_z
 _atom_site_occupancy
  V  V0  1  0.05257965  0.05257965  0.25000000  1
  V  V1  1  0.03849545  0.48427617  0.97003799  1
  V  V2  1  0.48427617  0.03849545  0.52996201  1
  V  V3  1  0.43147823  0.43147823  0.25000000  1
  V  V4  1  0.60041365  0.60041365  0.75000000  1
  O  O5  1  0.91622259  0.27771466  0.85175969  1
  O  O6  1  0.27771466  0.91622259  0.64824031  1
  O  O7  1  0.19899476  0.28595618  0.38229134  1
  O  O8  1  0.28595618  0.19899476  0.11770866  1
  O  O9  1  0.29197010  0.53985684  0.87131044  1
  O  O10  1  0.53985684  0.29197010  0.62868956  1
  O  O11  1  0.38861399  0.75810464  0.35450799  1
  O  O12  1  0.75810464  0.38861399  0.14549201  1
  O  O13  1  0.68653911  0.79314166  0.89265927  1
  O  O14  1  0.79314166  0.68653911  0.60734073  1
  O  O15  1  0.75232038  0.08190096  0.36291813  1
  O  O16  1  0.08190096  0.75232038  0.13708187  1
