# generated using pymatgen
data_Sm2Ni12As7
_symmetry_space_group_name_H-M   'P 1'
_cell_length_a   3.86195840
_cell_length_b   9.36648015
_cell_length_c   9.36813753
_cell_angle_alpha   119.97153750
_cell_angle_beta   90.00000000
_cell_angle_gamma   90.00000000
_symmetry_Int_Tables_number   1
_chemical_formula_structural   Sm2Ni12As7
_chemical_formula_sum   'Sm2 Ni12 As7'
_cell_volume   293.55696264
_cell_formula_units_Z   1
loop_
 _symmetry_equiv_pos_site_id
 _symmetry_equiv_pos_as_xyz
  1  'x, y, z'
loop_
 _atom_site_type_symbol
 _atom_site_label
 _atom_site_symmetry_multiplicity
 _atom_site_fract_x
 _atom_site_fract_y
 _atom_site_fract_z
 _atom_site_occupancy
  Sm  Sm0  1  -0.00000000  0.66664661  0.33342619  1
  Sm  Sm1  1  0.50000000  0.33327209  0.66653085  1
  Ni  Ni2  1  -0.00000000  0.38111826  0.94553654  1
  Ni  Ni3  1  -0.00000000  0.05444546  0.43566402  1
  Ni  Ni4  1  -0.00000000  0.56427885  0.61884920  1
  Ni  Ni5  1  -0.00000000  0.87312523  0.72221332  1
  Ni  Ni6  1  -0.00000000  0.27779178  0.15087296  1
  Ni  Ni7  1  0.00000000  0.84908803  0.12695112  1
  Ni  Ni8  1  0.50000000  0.95358438  0.57472358  1
  Ni  Ni9  1  0.50000000  0.42524920  0.37883615  1
  Ni  Ni10  1  0.50000000  0.62131259  0.04643762  1
  Ni  Ni11  1  0.50000000  0.11422474  0.90389628  1
  Ni  Ni12  1  0.50000000  0.09604811  0.21026831  1
  Ni  Ni13  1  0.50000000  0.78973019  0.88577492  1
  As  As14  1  -0.00000000  0.11514250  0.71204148  1
  As  As15  1  -0.00000000  0.28795860  0.40304382  1
  As  As16  1  -0.00000000  0.59707433  0.88494298  1
  As  As17  1  0.50000000  0.70399955  0.59617328  1
  As  As18  1  0.50000000  0.40376572  0.10787824  1
  As  As19  1  0.50000000  0.89212394  0.29596145  1
  As  As20  1  -0.00000000  0.00001984  0.99997767  1
