# generated using pymatgen
data_Tb2Fe12P7
_symmetry_space_group_name_H-M   'P 1'
_cell_length_a   3.63726908
_cell_length_b   8.96581108
_cell_length_c   8.97277205
_cell_angle_alpha   119.95142407
_cell_angle_beta   90.00000000
_cell_angle_gamma   90.00000000
_symmetry_Int_Tables_number   1
_chemical_formula_structural   Tb2Fe12P7
_chemical_formula_sum   'Tb2 Fe12 P7'
_cell_volume   253.53309183
_cell_formula_units_Z   1
loop_
 _symmetry_equiv_pos_site_id
 _symmetry_equiv_pos_as_xyz
  1  'x, y, z'
loop_
 _atom_site_type_symbol
 _atom_site_label
 _atom_site_symmetry_multiplicity
 _atom_site_fract_x
 _atom_site_fract_y
 _atom_site_fract_z
 _atom_site_occupancy
  Tb  Tb0  1  -0.00000000  0.66669063  0.33334835  1
  Tb  Tb1  1  0.50000000  0.33337007  0.66651315  1
  Fe  Fe2  1  -0.00000000  0.37291444  0.94493855  1
  Fe  Fe3  1  -0.00000000  0.05516283  0.42780941  1
  Fe  Fe4  1  -0.00000000  0.57239946  0.62745229  1
  Fe  Fe5  1  -0.00000000  0.88073816  0.72556857  1
  Fe  Fe6  1  -0.00000000  0.27406057  0.15465342  1
  Fe  Fe7  1  -0.00000000  0.84489369  0.11931201  1
  Fe  Fe8  1  0.50000000  0.95176108  0.56877022  1
  Fe  Fe9  1  0.50000000  0.43135670  0.38317314  1
  Fe  Fe10  1  0.50000000  0.61668326  0.04813139  1
  Fe  Fe11  1  0.50000000  0.12030749  0.90307054  1
  Fe  Fe12  1  0.50000000  0.09691517  0.21736128  1
  Fe  Fe13  1  0.50000000  0.78267882  0.87954011  1
  P  P14  1  -0.00000000  0.11322188  0.70420554  1
  P  P15  1  -0.00000000  0.29589273  0.40889430  1
  P  P16  1  -0.00000000  0.59123644  0.88687685  1
  P  P17  1  0.50000000  0.70995794  0.59922519  1
  P  P18  1  0.50000000  0.40070195  0.11121460  1
  P  P19  1  0.50000000  0.88904799  0.28992111  1
  P  P20  1  -0.00000000  0.00000871  0.00001997  1
