# generated using pymatgen
data_GdB4Os
_symmetry_space_group_name_H-M   'P 1'
_cell_length_a   3.58752465
_cell_length_b   5.99880079
_cell_length_c   11.60540167
_cell_angle_alpha   90.00000000
_cell_angle_beta   90.00000000
_cell_angle_gamma   90.00000000
_symmetry_Int_Tables_number   1
_chemical_formula_structural   GdB4Os
_chemical_formula_sum   'Gd4 B16 Os4'
_cell_volume   249.75805868
_cell_formula_units_Z   4
loop_
 _symmetry_equiv_pos_site_id
 _symmetry_equiv_pos_as_xyz
  1  'x, y, z'
loop_
 _atom_site_type_symbol
 _atom_site_label
 _atom_site_symmetry_multiplicity
 _atom_site_fract_x
 _atom_site_fract_y
 _atom_site_fract_z
 _atom_site_occupancy
  Gd  Gd0  1  0.00000000  0.62785315  0.34972369  1
  Gd  Gd1  1  0.00000000  0.37214685  0.65027631  1
  Gd  Gd2  1  -0.00000000  0.12785315  0.15027631  1
  Gd  Gd3  1  -0.00000000  0.87214685  0.84972369  1
  B  B4  1  0.50000000  0.78749322  0.18539348  1
  B  B5  1  0.50000000  0.21250678  0.81460652  1
  B  B6  1  0.50000000  0.28749322  0.31460652  1
  B  B7  1  0.50000000  0.71250678  0.68539348  1
  B  B8  1  0.50000000  0.86302913  0.03022935  1
  B  B9  1  0.50000000  0.13697087  0.96977065  1
  B  B10  1  0.50000000  0.36302913  0.46977065  1
  B  B11  1  0.50000000  0.63697087  0.53022935  1
  B  B12  1  0.50000000  0.88807555  0.45364160  1
  B  B13  1  0.50000000  0.11192445  0.54635840  1
  B  B14  1  0.50000000  0.38807555  0.04635840  1
  B  B15  1  0.50000000  0.61192445  0.95364160  1
  B  B16  1  0.50000000  0.97484256  0.30941061  1
  B  B17  1  0.50000000  0.02515744  0.69058939  1
  B  B18  1  0.50000000  0.47484256  0.19058939  1
  B  B19  1  0.50000000  0.52515744  0.80941061  1
  Os  Os20  1  -0.00000000  0.64044662  0.09285296  1
  Os  Os21  1  -0.00000000  0.35955338  0.90714704  1
  Os  Os22  1  -0.00000000  0.14044662  0.40714704  1
  Os  Os23  1  0.00000000  0.85955338  0.59285296  1
