# generated using pymatgen
data_AlH6IO4
_symmetry_space_group_name_H-M   'P 1'
_cell_length_a   5.27005258
_cell_length_b   8.04131845
_cell_length_c   8.51434418
_cell_angle_alpha   118.17931702
_cell_angle_beta   108.02893856
_cell_angle_gamma   89.99800037
_symmetry_Int_Tables_number   1
_chemical_formula_structural   AlH6IO4
_chemical_formula_sum   'Al2 H12 I2 O8'
_cell_volume   297.80807279
_cell_formula_units_Z   2
loop_
 _symmetry_equiv_pos_site_id
 _symmetry_equiv_pos_as_xyz
  1  'x, y, z'
loop_
 _atom_site_type_symbol
 _atom_site_label
 _atom_site_symmetry_multiplicity
 _atom_site_fract_x
 _atom_site_fract_y
 _atom_site_fract_z
 _atom_site_occupancy
  Al  Al0  1  0.20310831  0.95310831  0.90621662  1
  Al  Al1  1  0.79689169  0.04689169  0.09378338  1
  H  H2  1  0.47922893  0.29733148  0.14295535  1
  H  H3  1  0.16372641  0.84562387  0.14295535  1
  H  H4  1  0.52077107  0.70266852  0.85704465  1
  H  H5  1  0.83627359  0.15437613  0.85704465  1
  H  H6  1  0.89629257  0.61790946  0.72212184  1
  H  H7  1  0.32582927  0.10421238  0.72212184  1
  H  H8  1  0.10370743  0.38209054  0.27787816  1
  H  H9  1  0.67417073  0.89578762  0.27787816  1
  H  H10  1  0.84310468  0.69460596  0.57700260  1
  H  H11  1  0.23389792  0.88239664  0.57700260  1
  H  H12  1  0.15689532  0.30539404  0.42299740  1
  H  H13  1  0.76610208  0.11760336  0.42299740  1
  I  I14  1  0.40809744  0.65809744  0.31619488  1
  I  I15  1  0.59190256  0.34190256  0.68380512  1
  O  O16  1  0.49068889  0.16194896  0.07183527  1
  O  O17  1  0.08114638  0.90988631  0.07183527  1
  O  O18  1  0.50931111  0.83805104  0.92816473  1
  O  O19  1  0.91885362  0.09011369  0.92816473  1
  O  O20  1  0.98179497  0.70258107  0.69086549  1
  O  O21  1  0.20907052  0.98828442  0.69086549  1
  O  O22  1  0.01820503  0.29741893  0.30913451  1
  O  O23  1  0.79092948  0.01171558  0.30913451  1
