# generated using pymatgen
data_Cs2U(PdSe2)3
_symmetry_space_group_name_H-M   'P 1'
_cell_length_a   9.56607508
_cell_length_b   9.56607508
_cell_length_c   10.22352133
_cell_angle_alpha   105.43881818
_cell_angle_beta   105.43881818
_cell_angle_gamma   115.53040960
_symmetry_Int_Tables_number   1
_chemical_formula_structural   Cs2U(PdSe2)3
_chemical_formula_sum   'Cs4 U2 Pd6 Se12'
_cell_volume   731.54363254
_cell_formula_units_Z   2
loop_
 _symmetry_equiv_pos_site_id
 _symmetry_equiv_pos_as_xyz
  1  'x, y, z'
loop_
 _atom_site_type_symbol
 _atom_site_label
 _atom_site_symmetry_multiplicity
 _atom_site_fract_x
 _atom_site_fract_y
 _atom_site_fract_z
 _atom_site_occupancy
  Cs  Cs0  1  0.75000000  0.25000000  0.50000000  1
  Cs  Cs1  1  0.25000000  0.75000000  0.50000000  1
  Cs  Cs2  1  0.69659676  0.30340324  -0.00000000  1
  Cs  Cs3  1  0.30340324  0.69659676  -0.00000000  1
  U  U4  1  0.16716265  0.16716265  0.33432531  1
  U  U5  1  0.83283735  0.83283735  0.66567469  1
  Pd  Pd6  1  0.82633784  0.82633784  0.32163516  1
  Pd  Pd7  1  0.50470267  0.50470267  0.67836484  1
  Pd  Pd8  1  0.17366216  0.17366216  0.67836484  1
  Pd  Pd9  1  0.49529733  0.49529733  0.32163516  1
  Pd  Pd10  1  0.83025590  0.83025590  -0.00000000  1
  Pd  Pd11  1  0.16974410  0.16974410  -0.00000000  1
  Se  Se12  1  0.19158248  0.40102144  0.59260392  1
  Se  Se13  1  0.80841752  0.59897856  0.40739608  1
  Se  Se14  1  0.59897856  0.80841752  0.40739608  1
  Se  Se15  1  0.40102144  0.19158248  0.59260392  1
  Se  Se16  1  0.80819600  0.02149190  0.20300493  1
  Se  Se17  1  0.81848697  0.60519107  0.79699507  1
  Se  Se18  1  0.97850810  0.19180400  0.79699507  1
  Se  Se19  1  0.39480893  0.18151303  0.20300493  1
  Se  Se20  1  0.19180400  0.97850810  0.79699507  1
  Se  Se21  1  0.18151303  0.39480893  0.20300493  1
  Se  Se22  1  0.02149190  0.80819600  0.20300493  1
  Se  Se23  1  0.60519107  0.81848697  0.79699507  1
