# generated using pymatgen
data_ErB4W
_symmetry_space_group_name_H-M   'P 1'
_cell_length_a   3.61118904
_cell_length_b   6.01891019
_cell_length_c   11.62921978
_cell_angle_alpha   90.00000000
_cell_angle_beta   90.00000000
_cell_angle_gamma   90.00000000
_symmetry_Int_Tables_number   1
_chemical_formula_structural   ErB4W
_chemical_formula_sum   'Er4 B16 W4'
_cell_volume   252.76600539
_cell_formula_units_Z   4
loop_
 _symmetry_equiv_pos_site_id
 _symmetry_equiv_pos_as_xyz
  1  'x, y, z'
loop_
 _atom_site_type_symbol
 _atom_site_label
 _atom_site_symmetry_multiplicity
 _atom_site_fract_x
 _atom_site_fract_y
 _atom_site_fract_z
 _atom_site_occupancy
  Er  Er0  1  -0.00000000  0.62644825  0.35069195  1
  Er  Er1  1  -0.00000000  0.37355175  0.64930805  1
  Er  Er2  1  0.00000000  0.12644825  0.14930805  1
  Er  Er3  1  0.00000000  0.87355175  0.85069195  1
  B  B4  1  0.50000000  0.78663115  0.18699137  1
  B  B5  1  0.50000000  0.21336885  0.81300863  1
  B  B6  1  0.50000000  0.28663115  0.31300863  1
  B  B7  1  0.50000000  0.71336885  0.68699137  1
  B  B8  1  0.50000000  0.86705680  0.03220245  1
  B  B9  1  0.50000000  0.13294320  0.96779755  1
  B  B10  1  0.50000000  0.36705680  0.46779755  1
  B  B11  1  0.50000000  0.63294320  0.53220245  1
  B  B12  1  0.50000000  0.88523664  0.45243751  1
  B  B13  1  0.50000000  0.11476336  0.54756249  1
  B  B14  1  0.50000000  0.38523664  0.04756249  1
  B  B15  1  0.50000000  0.61476336  0.95243751  1
  B  B16  1  0.50000000  0.97547629  0.30632115  1
  B  B17  1  0.50000000  0.02452371  0.69367885  1
  B  B18  1  0.50000000  0.47547629  0.19367885  1
  B  B19  1  0.50000000  0.52452371  0.80632115  1
  W  W20  1  0.00000000  0.63096108  0.08475798  1
  W  W21  1  -0.00000000  0.36903892  0.91524202  1
  W  W22  1  0.00000000  0.13096108  0.41524202  1
  W  W23  1  -0.00000000  0.86903892  0.58475798  1
