# generated using pymatgen
data_Tb3B7W
_symmetry_space_group_name_H-M   'P 1'
_cell_length_a   3.48635957
_cell_length_b   8.22897475
_cell_length_c   9.52575226
_cell_angle_alpha   90.00000000
_cell_angle_beta   90.00000000
_cell_angle_gamma   102.22987348
_symmetry_Int_Tables_number   1
_chemical_formula_structural   Tb3B7W
_chemical_formula_sum   'Tb6 B14 W2'
_cell_volume   267.08381227
_cell_formula_units_Z   2
loop_
 _symmetry_equiv_pos_site_id
 _symmetry_equiv_pos_as_xyz
  1  'x, y, z'
loop_
 _atom_site_type_symbol
 _atom_site_label
 _atom_site_symmetry_multiplicity
 _atom_site_fract_x
 _atom_site_fract_y
 _atom_site_fract_z
 _atom_site_occupancy
  Tb  Tb0  1  0.10682278  0.21364557  0.43960471  1
  Tb  Tb1  1  0.89317722  0.78635443  0.56039529  1
  Tb  Tb2  1  0.10682278  0.21364557  0.06039529  1
  Tb  Tb3  1  0.89317722  0.78635443  0.93960471  1
  Tb  Tb4  1  0.75661440  0.51322880  0.25000000  1
  Tb  Tb5  1  0.24338560  0.48677120  0.75000000  1
  B  B6  1  0.27273169  0.54546338  0.46727289  1
  B  B7  1  0.72726831  0.45453662  0.53272711  1
  B  B8  1  0.27273169  0.54546338  0.03272711  1
  B  B9  1  0.72726831  0.45453662  0.96727289  1
  B  B10  1  0.36568299  0.73136597  0.14730457  1
  B  B11  1  0.63431701  0.26863403  0.85269543  1
  B  B12  1  0.36568299  0.73136597  0.35269543  1
  B  B13  1  0.63431701  0.26863403  0.64730457  1
  B  B14  1  0.48012527  0.96025055  0.09228528  1
  B  B15  1  0.51987473  0.03974945  0.90771472  1
  B  B16  1  0.48012527  0.96025055  0.40771472  1
  B  B17  1  0.51987473  0.03974945  0.59228528  1
  B  B18  1  0.54317692  0.08635383  0.25000000  1
  B  B19  1  0.45682308  0.91364617  0.75000000  1
  W  W20  1  0.94674949  0.89349899  0.25000000  1
  W  W21  1  0.05325051  0.10650101  0.75000000  1
