# generated using pymatgen
data_Y3MnB7
_symmetry_space_group_name_H-M   'P 1'
_cell_length_a   3.44209473
_cell_length_b   8.06188702
_cell_length_c   9.32543578
_cell_angle_alpha   90.00000000
_cell_angle_beta   90.00000000
_cell_angle_gamma   102.32633636
_symmetry_Int_Tables_number   1
_chemical_formula_structural   Y3MnB7
_chemical_formula_sum   'Y6 Mn2 B14'
_cell_volume   252.81329569
_cell_formula_units_Z   2
loop_
 _symmetry_equiv_pos_site_id
 _symmetry_equiv_pos_as_xyz
  1  'x, y, z'
loop_
 _atom_site_type_symbol
 _atom_site_label
 _atom_site_symmetry_multiplicity
 _atom_site_fract_x
 _atom_site_fract_y
 _atom_site_fract_z
 _atom_site_occupancy
  Y  Y0  1  0.10408698  0.20817395  0.44027900  1
  Y  Y1  1  0.89591302  0.79182605  0.55972100  1
  Y  Y2  1  0.10408698  0.20817395  0.05972100  1
  Y  Y3  1  0.89591302  0.79182605  0.94027900  1
  Y  Y4  1  0.75927635  0.51855270  0.25000000  1
  Y  Y5  1  0.24072365  0.48144730  0.75000000  1
  Mn  Mn6  1  0.94651894  0.89303788  0.25000000  1
  Mn  Mn7  1  0.05348106  0.10696212  0.75000000  1
  B  B8  1  0.27274504  0.54549008  0.46733192  1
  B  B9  1  0.72725496  0.45450992  0.53266808  1
  B  B10  1  0.27274504  0.54549008  0.03266808  1
  B  B11  1  0.72725496  0.45450992  0.96733192  1
  B  B12  1  0.37015398  0.74030796  0.15309494  1
  B  B13  1  0.62984602  0.25969204  0.84690506  1
  B  B14  1  0.37015398  0.74030796  0.34690506  1
  B  B15  1  0.62984602  0.25969204  0.65309494  1
  B  B16  1  0.47841843  0.95683686  0.09849574  1
  B  B17  1  0.52158157  0.04316314  0.90150426  1
  B  B18  1  0.47841843  0.95683686  0.40150426  1
  B  B19  1  0.52158157  0.04316314  0.59849574  1
  B  B20  1  0.54021328  0.08042656  0.25000000  1
  B  B21  1  0.45978672  0.91957344  0.75000000  1
