# generated using pymatgen
data_Na5Tb4Si4O16F
_symmetry_space_group_name_H-M   'P 1'
_cell_length_a   5.45102736
_cell_length_b   8.73934018
_cell_length_c   8.73934018
_cell_angle_alpha   84.41852246
_cell_angle_beta   71.82820639
_cell_angle_gamma   71.82820639
_symmetry_Int_Tables_number   1
_chemical_formula_structural   Na5Tb4Si4O16F
_chemical_formula_sum   'Na5 Tb4 Si4 O16 F1'
_cell_volume   375.83548233
_cell_formula_units_Z   1
loop_
 _symmetry_equiv_pos_site_id
 _symmetry_equiv_pos_as_xyz
  1  'x, y, z'
loop_
 _atom_site_type_symbol
 _atom_site_label
 _atom_site_symmetry_multiplicity
 _atom_site_fract_x
 _atom_site_fract_y
 _atom_site_fract_z
 _atom_site_occupancy
  Na  Na0  1  0.59666917  0.30553198  0.51548509  1
  Na  Na1  1  0.41768625  0.69446802  0.48451491  1
  Na  Na2  1  0.09779885  0.48451491  0.30553198  1
  Na  Na3  1  0.88784573  0.51548509  0.69446802  1
  Na  Na4  1  -0.00000000  0.00000000  0.00000000  1
  Tb  Tb5  1  0.63739809  0.70121974  0.06729543  1
  Tb  Tb6  1  0.40591327  0.29878026  0.93270457  1
  Tb  Tb7  1  0.66138217  0.93270457  0.70121974  1
  Tb  Tb8  1  0.29530647  0.06729543  0.29878026  1
  Si  Si9  1  0.74269865  0.35025296  0.14352612  1
  Si  Si10  1  0.23647772  0.64974704  0.85647388  1
  Si  Si11  1  0.90704839  0.85647388  0.35025296  1
  Si  Si12  1  0.11377523  0.14352612  0.64974704  1
  O  O13  1  0.62566276  0.49579059  0.27796653  1
  O  O14  1  0.39941988  0.50420941  0.72203347  1
  O  O15  1  0.87854665  0.72203347  0.49579059  1
  O  O16  1  0.09637071  0.27796653  0.50420941  1
  O  O17  1  0.04709277  0.23631427  0.13998178  1
  O  O18  1  0.42338881  0.76368573  0.86001822  1
  O  O19  1  0.71659296  0.86001822  0.23631427  1
  O  O20  1  0.81292545  0.13998178  0.76368573  1
  O  O21  1  0.53661193  0.24035141  0.17123211  1
  O  O22  1  0.94819545  0.75964859  0.82876789  1
  O  O23  1  0.22303666  0.82876789  0.24035141  1
  O  O24  1  0.29215596  0.17123211  0.75964859  1
  O  O25  1  0.73579280  0.43811480  0.96773582  1
  O  O26  1  0.14164342  0.56188520  0.03226418  1
  O  O27  1  0.82609240  0.03226418  0.43811480  1
  O  O28  1  0.29647138  0.96773582  0.56188520  1
  F  F29  1  0.50000000  0.00000000  0.00000000  1
