# generated using pymatgen
data_Er6Zn23Ge
_symmetry_space_group_name_H-M   'P 1'
_cell_length_a   9.02151102
_cell_length_b   9.02151102
_cell_length_c   9.02151102
_cell_angle_alpha   60.00000000
_cell_angle_beta   60.00000000
_cell_angle_gamma   60.00000000
_symmetry_Int_Tables_number   1
_chemical_formula_structural   Er6Zn23Ge
_chemical_formula_sum   'Er6 Zn23 Ge1'
_cell_volume   519.18585800
_cell_formula_units_Z   1
loop_
 _symmetry_equiv_pos_site_id
 _symmetry_equiv_pos_as_xyz
  1  'x, y, z'
loop_
 _atom_site_type_symbol
 _atom_site_label
 _atom_site_symmetry_multiplicity
 _atom_site_fract_x
 _atom_site_fract_y
 _atom_site_fract_z
 _atom_site_occupancy
  Er  Er0  1  0.71545677  0.28454323  0.28454323  1
  Er  Er1  1  0.71545677  0.28454323  0.71545677  1
  Er  Er2  1  0.71545677  0.71545677  0.28454323  1
  Er  Er3  1  0.28454323  0.71545677  0.71545677  1
  Er  Er4  1  0.28454323  0.71545677  0.28454323  1
  Er  Er5  1  0.28454323  0.28454323  0.71545677  1
  Zn  Zn6  1  0.62334166  0.12555278  0.12555278  1
  Zn  Zn7  1  0.12555278  0.62334166  0.12555278  1
  Zn  Zn8  1  0.12555278  0.12555278  0.62334166  1
  Zn  Zn9  1  0.12555278  0.12555278  0.12555278  1
  Zn  Zn10  1  0.37665834  0.87444722  0.87444722  1
  Zn  Zn11  1  0.87444722  0.37665834  0.87444722  1
  Zn  Zn12  1  0.87444722  0.87444722  0.37665834  1
  Zn  Zn13  1  0.87444722  0.87444722  0.87444722  1
  Zn  Zn14  1  0.50000000  -0.00000000  -0.00000000  1
  Zn  Zn15  1  0.50000000  -0.00000000  0.50000000  1
  Zn  Zn16  1  0.50000000  0.50000000  0.00000000  1
  Zn  Zn17  1  -0.00000000  0.50000000  0.50000000  1
  Zn  Zn18  1  0.00000000  0.50000000  -0.00000000  1
  Zn  Zn19  1  -0.00000000  -0.00000000  0.50000000  1
  Zn  Zn20  1  0.00000000  -0.00000000  0.00000000  1
  Zn  Zn21  1  0.00548986  0.33150338  0.33150338  1
  Zn  Zn22  1  0.33150338  0.00548986  0.33150338  1
  Zn  Zn23  1  0.33150338  0.33150338  0.00548986  1
  Zn  Zn24  1  0.33150338  0.33150338  0.33150338  1
  Zn  Zn25  1  0.99451014  0.66849662  0.66849662  1
  Zn  Zn26  1  0.66849662  0.99451014  0.66849662  1
  Zn  Zn27  1  0.66849662  0.66849662  0.99451014  1
  Zn  Zn28  1  0.66849662  0.66849662  0.66849662  1
  Ge  Ge29  1  0.50000000  0.50000000  0.50000000  1
