# generated using pymatgen
data_Li3BiS3
_symmetry_space_group_name_H-M   'P 1'
_cell_length_a   8.13921321
_cell_length_b   8.13921321
_cell_length_c   8.13921321
_cell_angle_alpha   90.00000000
_cell_angle_beta   90.00000000
_cell_angle_gamma   90.00000000
_symmetry_Int_Tables_number   1
_chemical_formula_structural   Li3BiS3
_chemical_formula_sum   'Li12 Bi4 S12'
_cell_volume   539.19676194
_cell_formula_units_Z   4
loop_
 _symmetry_equiv_pos_site_id
 _symmetry_equiv_pos_as_xyz
  1  'x, y, z'
loop_
 _atom_site_type_symbol
 _atom_site_label
 _atom_site_symmetry_multiplicity
 _atom_site_fract_x
 _atom_site_fract_y
 _atom_site_fract_z
 _atom_site_occupancy
  Li  Li0  1  0.03075533  0.96924467  0.46924467  1
  Li  Li1  1  0.17928067  0.67928067  0.82071933  1
  Li  Li2  1  0.20407690  0.29592310  0.70407690  1
  Li  Li3  1  0.29592310  0.70407690  0.20407690  1
  Li  Li4  1  0.32071933  0.32071933  0.32071933  1
  Li  Li5  1  0.46924467  0.03075533  0.96924467  1
  Li  Li6  1  0.53075533  0.53075533  0.53075533  1
  Li  Li7  1  0.67928067  0.82071933  0.17928067  1
  Li  Li8  1  0.70407690  0.20407690  0.29592310  1
  Li  Li9  1  0.79592310  0.79592310  0.79592310  1
  Li  Li10  1  0.82071933  0.17928067  0.67928067  1
  Li  Li11  1  0.96924467  0.46924467  0.03075533  1
  Bi  Bi12  1  0.07551549  0.07551549  0.07551549  1
  Bi  Bi13  1  0.42448451  0.92448451  0.57551549  1
  Bi  Bi14  1  0.57551549  0.42448451  0.92448451  1
  Bi  Bi15  1  0.92448451  0.57551549  0.42448451  1
  S  S16  1  0.99415208  0.74860835  0.12299625  1
  S  S17  1  0.12299625  0.99415208  0.74860835  1
  S  S18  1  0.25139165  0.62299625  0.50584792  1
  S  S19  1  0.24860835  0.37700375  0.00584792  1
  S  S20  1  0.37700375  0.00584792  0.24860835  1
  S  S21  1  0.50584792  0.25139165  0.62299625  1
  S  S22  1  0.49415208  0.75139165  0.87700375  1
  S  S23  1  0.62299625  0.50584792  0.25139165  1
  S  S24  1  0.75139165  0.87700375  0.49415208  1
  S  S25  1  0.74860835  0.12299625  0.99415208  1
  S  S26  1  0.87700375  0.49415208  0.75139165  1
  S  S27  1  0.00584792  0.24860835  0.37700375  1
