# generated using pymatgen
data_Y3VH3O8
_symmetry_space_group_name_H-M   'P 1'
_cell_length_a   5.60946392
_cell_length_b   5.98396611
_cell_length_c   10.43065110
_cell_angle_alpha   90.00000000
_cell_angle_beta   90.00000000
_cell_angle_gamma   105.05618570
_symmetry_Int_Tables_number   1
_chemical_formula_structural   Y3VH3O8
_chemical_formula_sum   'Y6 V2 H6 O16'
_cell_volume   338.10480504
_cell_formula_units_Z   2
loop_
 _symmetry_equiv_pos_site_id
 _symmetry_equiv_pos_as_xyz
  1  'x, y, z'
loop_
 _atom_site_type_symbol
 _atom_site_label
 _atom_site_symmetry_multiplicity
 _atom_site_fract_x
 _atom_site_fract_y
 _atom_site_fract_z
 _atom_site_occupancy
  Y  Y0  1  0.76715782  0.79871424  0.75000000  1
  Y  Y1  1  0.23284218  0.20128576  0.25000000  1
  Y  Y2  1  0.68504325  0.30555451  0.54024602  1
  Y  Y3  1  0.31495675  0.69444549  0.04024602  1
  Y  Y4  1  0.31495675  0.69444549  0.45975398  1
  Y  Y5  1  0.68504325  0.30555451  0.95975398  1
  V  V6  1  0.18491493  0.46226551  0.75000000  1
  V  V7  1  0.81508507  0.53773449  0.25000000  1
  H  H8  1  0.84456366  0.90230965  0.46239736  1
  H  H9  1  0.15543634  0.09769035  0.96239736  1
  H  H10  1  0.15543634  0.09769035  0.53760264  1
  H  H11  1  0.84456366  0.90230965  0.03760264  1
  H  H12  1  0.38472626  0.09142131  0.75000000  1
  H  H13  1  0.61527374  0.90857869  0.25000000  1
  O  O14  1  0.00058302  0.59874486  0.62431816  1
  O  O15  1  -0.00058302  0.40125514  0.12431816  1
  O  O16  1  -0.00058302  0.40125514  0.37568184  1
  O  O17  1  0.00058302  0.59874486  0.87568184  1
  O  O18  1  0.45693529  0.54003965  0.62970193  1
  O  O19  1  0.54306471  0.45996035  0.12970193  1
  O  O20  1  0.54306471  0.45996035  0.37029807  1
  O  O21  1  0.45693529  0.54003965  0.87029807  1
  O  O22  1  0.72740575  0.93683938  0.52338562  1
  O  O23  1  0.27259425  0.06316062  0.02338562  1
  O  O24  1  0.27259425  0.06316062  0.47661438  1
  O  O25  1  0.72740575  0.93683938  0.97661438  1
  O  O26  1  0.06558627  0.16346030  0.75000000  1
  O  O27  1  0.93441373  0.83653970  0.25000000  1
  O  O28  1  0.56411212  0.10880851  0.75000000  1
  O  O29  1  0.43588788  0.89119149  0.25000000  1
