# generated using pymatgen
data_LaZr2F11
_symmetry_space_group_name_H-M   'P 1'
_cell_length_a   7.89491955
_cell_length_b   8.57489702
_cell_length_c   8.57489702
_cell_angle_alpha   73.22196593
_cell_angle_beta   62.59026435
_cell_angle_gamma   62.59026435
_symmetry_Int_Tables_number   1
_chemical_formula_structural   LaZr2F11
_chemical_formula_sum   'La2 Zr4 F22'
_cell_volume   455.30811951
_cell_formula_units_Z   2
loop_
 _symmetry_equiv_pos_site_id
 _symmetry_equiv_pos_as_xyz
  1  'x, y, z'
loop_
 _atom_site_type_symbol
 _atom_site_label
 _atom_site_symmetry_multiplicity
 _atom_site_fract_x
 _atom_site_fract_y
 _atom_site_fract_z
 _atom_site_occupancy
  La  La0  1  0.25000000  0.75000000  0.75000000  1
  La  La1  1  0.75000000  0.25000000  0.25000000  1
  Zr  Zr2  1  0.86710827  0.31906551  0.68093449  1
  Zr  Zr3  1  0.13289173  0.68093449  0.31906551  1
  Zr  Zr4  1  0.63289173  0.81906551  0.18093449  1
  Zr  Zr5  1  0.36710827  0.18093449  0.81906551  1
  F  F6  1  0.00000000  0.50000000  0.50000000  1
  F  F7  1  0.50000000  0.00000000  -0.00000000  1
  F  F8  1  0.63007554  0.21924698  0.78075302  1
  F  F9  1  0.36992446  0.78075302  0.21924698  1
  F  F10  1  0.86992446  0.71924698  0.28075302  1
  F  F11  1  0.13007554  0.28075302  0.71924698  1
  F  F12  1  0.60788506  0.55057192  0.70594927  1
  F  F13  1  0.13559375  0.70594927  0.55057192  1
  F  F14  1  0.89211494  0.79405073  0.94942808  1
  F  F15  1  0.36440625  0.94942808  0.79405073  1
  F  F16  1  0.39211494  0.44942808  0.29405073  1
  F  F17  1  0.86440625  0.29405073  0.44942808  1
  F  F18  1  0.10788506  0.20594927  0.05057192  1
  F  F19  1  0.63559375  0.05057192  0.20594927  1
  F  F20  1  0.76294930  0.31989211  0.94995217  1
  F  F21  1  0.96720642  0.94995217  0.31989211  1
  F  F22  1  0.73705070  0.55004783  0.18010789  1
  F  F23  1  0.53279358  0.18010789  0.55004783  1
  F  F24  1  0.23705070  0.68010789  0.05004783  1
  F  F25  1  0.03279358  0.05004783  0.68010789  1
  F  F26  1  0.26294930  0.44995217  0.81989211  1
  F  F27  1  0.46720642  0.81989211  0.44995217  1
