# generated using pymatgen
data_Ba2V2FeHO9
_symmetry_space_group_name_H-M   'P 1'
_cell_length_a   6.26773494
_cell_length_b   8.02085634
_cell_length_c   9.32073663
_cell_angle_alpha   112.93526355
_cell_angle_beta   90.00000000
_cell_angle_gamma   90.00000000
_symmetry_Int_Tables_number   1
_chemical_formula_structural   Ba2V2FeHO9
_chemical_formula_sum   'Ba4 V4 Fe2 H2 O18'
_cell_volume   431.53461633
_cell_formula_units_Z   2
loop_
 _symmetry_equiv_pos_site_id
 _symmetry_equiv_pos_as_xyz
  1  'x, y, z'
loop_
 _atom_site_type_symbol
 _atom_site_label
 _atom_site_symmetry_multiplicity
 _atom_site_fract_x
 _atom_site_fract_y
 _atom_site_fract_z
 _atom_site_occupancy
  Ba  Ba0  1  0.75000000  0.32011469  0.41050384  1
  Ba  Ba1  1  0.25000000  0.67988531  0.58949616  1
  Ba  Ba2  1  0.75000000  0.73518973  0.24571444  1
  Ba  Ba3  1  0.25000000  0.26481027  0.75428556  1
  V  V4  1  0.25000000  0.04567623  0.33320941  1
  V  V5  1  0.75000000  0.95432377  0.66679059  1
  V  V6  1  0.75000000  0.56488707  0.82696633  1
  V  V7  1  0.25000000  0.43511293  0.17303367  1
  Fe  Fe8  1  0.50000000  -0.00000000  -0.00000000  1
  Fe  Fe9  1  -0.00000000  -0.00000000  -0.00000000  1
  H  H10  1  0.75000000  0.26537352  0.01941684  1
  H  H11  1  0.25000000  0.73462648  0.98058316  1
  O  O12  1  0.48689573  0.00283659  0.21749257  1
  O  O13  1  0.98689573  0.99716341  0.78250743  1
  O  O14  1  0.51310427  0.99716341  0.78250743  1
  O  O15  1  0.01310427  0.00283659  0.21749257  1
  O  O16  1  0.53001350  0.50116379  0.70676109  1
  O  O17  1  0.03001350  0.49883621  0.29323891  1
  O  O18  1  0.46998650  0.49883621  0.29323891  1
  O  O19  1  0.96998650  0.50116379  0.70676109  1
  O  O20  1  0.75000000  0.80933011  0.95059367  1
  O  O21  1  0.25000000  0.19066989  0.04940633  1
  O  O22  1  0.25000000  0.26826307  0.45754312  1
  O  O23  1  0.75000000  0.73173693  0.54245688  1
  O  O24  1  0.75000000  0.17539534  0.06871050  1
  O  O25  1  0.25000000  0.82460466  0.93128950  1
  O  O26  1  0.25000000  0.92097350  0.44534161  1
  O  O27  1  0.75000000  0.07902650  0.55465839  1
  O  O28  1  0.75000000  0.45027332  0.94863732  1
  O  O29  1  0.25000000  0.54972668  0.05136268  1
