# generated using pymatgen
data_VPb2Se2ClO8
_symmetry_space_group_name_H-M   'P 1'
_cell_length_a   5.38596710
_cell_length_b   8.53157339
_cell_length_c   10.98828059
_cell_angle_alpha   112.20828966
_cell_angle_beta   90.00000000
_cell_angle_gamma   90.00000000
_symmetry_Int_Tables_number   1
_chemical_formula_structural   VPb2Se2ClO8
_chemical_formula_sum   'V2 Pb4 Se4 Cl2 O16'
_cell_volume   467.46296268
_cell_formula_units_Z   2
loop_
 _symmetry_equiv_pos_site_id
 _symmetry_equiv_pos_as_xyz
  1  'x, y, z'
loop_
 _atom_site_type_symbol
 _atom_site_label
 _atom_site_symmetry_multiplicity
 _atom_site_fract_x
 _atom_site_fract_y
 _atom_site_fract_z
 _atom_site_occupancy
  V  V0  1  0.96565318  0.34876208  0.94342432  1
  V  V1  1  0.46565318  0.65123792  0.05657568  1
  Pb  Pb2  1  0.43559268  0.17841832  0.18702553  1
  Pb  Pb3  1  0.93559268  0.82158168  0.81297447  1
  Pb  Pb4  1  0.98013696  0.29582659  0.50136453  1
  Pb  Pb5  1  0.48013696  0.70417341  0.49863547  1
  Se  Se6  1  0.47469387  0.12659398  0.80855361  1
  Se  Se7  1  0.97469387  0.87340602  0.19144639  1
  Se  Se8  1  0.98614368  0.49190784  0.27438504  1
  Se  Se9  1  0.48614368  0.50809216  0.72561496  1
  Cl  Cl10  1  0.49566784  0.12425145  0.44660762  1
  Cl  Cl11  1  0.99566784  0.87574855  0.55339238  1
  O  O12  1  0.70263586  0.17790692  0.93637789  1
  O  O13  1  0.20263586  0.82209308  0.06362211  1
  O  O14  1  0.20614599  0.13211168  0.89809536  1
  O  O15  1  0.70614599  0.86788832  0.10190464  1
  O  O16  1  0.52356726  0.91262276  0.74185697  1
  O  O17  1  0.02356726  0.08737724  0.25814303  1
  O  O18  1  0.20685021  0.44195223  0.37232670  1
  O  O19  1  0.70685021  0.55804777  0.62767330  1
  O  O20  1  0.72497681  0.42300126  0.33147577  1
  O  O21  1  0.22497681  0.57699874  0.66852423  1
  O  O22  1  0.05833670  0.32698813  0.12792316  1
  O  O23  1  0.55833670  0.67301187  0.87207684  1
  O  O24  1  0.77625079  0.52433784  0.03192900  1
  O  O25  1  0.27625079  0.47566216  0.96807100  1
  O  O26  1  0.92685817  0.32716198  0.78764880  1
  O  O27  1  0.42685817  0.67283802  0.21235120  1
