# generated using pymatgen
data_Na5Dy4Si4O16F
_symmetry_space_group_name_H-M   'P 1'
_cell_length_a   5.43658894
_cell_length_b   8.69637520
_cell_length_c   8.69637520
_cell_angle_alpha   84.39297478
_cell_angle_beta   71.78534600
_cell_angle_gamma   71.78534600
_symmetry_Int_Tables_number   1
_chemical_formula_structural   Na5Dy4Si4O16F
_chemical_formula_sum   'Na5 Dy4 Si4 O16 F1'
_cell_volume   370.98096053
_cell_formula_units_Z   1
loop_
 _symmetry_equiv_pos_site_id
 _symmetry_equiv_pos_as_xyz
  1  'x, y, z'
loop_
 _atom_site_type_symbol
 _atom_site_label
 _atom_site_symmetry_multiplicity
 _atom_site_fract_x
 _atom_site_fract_y
 _atom_site_fract_z
 _atom_site_occupancy
  Na  Na0  1  0.90377345  0.48451459  0.69408976  1
  Na  Na1  1  0.08237780  0.51548541  0.30591024  1
  Na  Na2  1  0.61171196  0.30591024  0.48451459  1
  Na  Na3  1  0.40213679  0.69408976  0.51548541  1
  Na  Na4  1  0.50000000  0.00000000  -0.00000000  1
  Dy  Dy5  1  0.86185806  0.93279180  0.29840088  1
  Dy  Dy6  1  0.09305073  0.06720820  0.70159912  1
  Dy  Dy7  1  0.20535014  0.70159912  0.93279180  1
  Dy  Dy8  1  0.83974107  0.29840088  0.06720820  1
  Si  Si9  1  0.75755500  0.85659163  0.64978501  1
  Si  Si10  1  0.26393164  0.14340837  0.35021499  1
  Si  Si11  1  0.38585337  0.35021499  0.85659163  1
  Si  Si12  1  0.59266000  0.64978501  0.14340837  1
  O  O13  1  0.87422093  0.72162106  0.50383526  1
  O  O14  1  0.09967725  0.27837894  0.49616474  1
  O  O15  1  0.40415801  0.49616474  0.72162106  1
  O  O16  1  0.62194382  0.50383526  0.27837894  1
  O  O17  1  0.45176493  0.86115165  0.76435094  1
  O  O18  1  0.07726752  0.13884835  0.23564906  1
  O  O19  1  0.68708342  0.23564906  0.86115165  1
  O  O20  1  0.78388413  0.76435094  0.13884835  1
  O  O21  1  0.96385005  0.82837449  0.76047097  1
  O  O22  1  0.55269550  0.17162551  0.23952903  1
  O  O23  1  0.20777547  0.23952903  0.82837449  1
  O  O24  1  0.27567898  0.76047097  0.17162551  1
  O  O25  1  0.76781002  0.03256070  0.56114216  1
  O  O26  1  0.36151288  0.96743930  0.43885784  1
  O  O27  1  0.19962928  0.43885784  0.03256070  1
  O  O28  1  0.67104782  0.56114216  0.96743930  1
  F  F29  1  -0.00000000  0.00000000  -0.00000000  1
