# generated using pymatgen
data_Sr3LiAs2H
_symmetry_space_group_name_H-M   'P 1'
_cell_length_a   4.49630660
_cell_length_b   12.09990886
_cell_length_c   12.63116717
_cell_angle_alpha   90.00000000
_cell_angle_beta   90.00000000
_cell_angle_gamma   90.00000000
_symmetry_Int_Tables_number   1
_chemical_formula_structural   Sr3LiAs2H
_chemical_formula_sum   'Sr12 Li4 As8 H4'
_cell_volume   687.19738761
_cell_formula_units_Z   4
loop_
 _symmetry_equiv_pos_site_id
 _symmetry_equiv_pos_as_xyz
  1  'x, y, z'
loop_
 _atom_site_type_symbol
 _atom_site_label
 _atom_site_symmetry_multiplicity
 _atom_site_fract_x
 _atom_site_fract_y
 _atom_site_fract_z
 _atom_site_occupancy
  Sr  Sr0  1  0.75000000  0.43738331  0.87792031  1
  Sr  Sr1  1  0.75000000  0.93738331  0.62207969  1
  Sr  Sr2  1  0.25000000  0.56261669  0.12207969  1
  Sr  Sr3  1  0.25000000  0.06261669  0.37792031  1
  Sr  Sr4  1  0.75000000  0.29458567  0.20136749  1
  Sr  Sr5  1  0.75000000  0.79458567  0.29863251  1
  Sr  Sr6  1  0.25000000  0.70541433  0.79863251  1
  Sr  Sr7  1  0.25000000  0.20541433  0.70136749  1
  Sr  Sr8  1  0.75000000  0.13136286  0.93919528  1
  Sr  Sr9  1  0.75000000  0.63136286  0.56080472  1
  Sr  Sr10  1  0.25000000  0.86863714  0.06080472  1
  Sr  Sr11  1  0.25000000  0.36863714  0.43919528  1
  Li  Li12  1  0.75000000  0.36479411  0.64119199  1
  Li  Li13  1  0.75000000  0.86479411  0.85880801  1
  Li  Li14  1  0.25000000  0.63520589  0.35880801  1
  Li  Li15  1  0.25000000  0.13520589  0.14119199  1
  As  As16  1  0.75000000  0.18685709  0.51342636  1
  As  As17  1  0.75000000  0.68685709  0.98657364  1
  As  As18  1  0.25000000  0.81314291  0.48657364  1
  As  As19  1  0.25000000  0.31314291  0.01342636  1
  As  As20  1  0.75000000  0.02531635  0.17535075  1
  As  As21  1  0.75000000  0.52531635  0.32464925  1
  As  As22  1  0.25000000  0.97468365  0.82464925  1
  As  As23  1  0.25000000  0.47468365  0.67535075  1
  H  H24  1  0.75000000  0.26165090  0.77337636  1
  H  H25  1  0.75000000  0.76165090  0.72662364  1
  H  H26  1  0.25000000  0.73834910  0.22662364  1
  H  H27  1  0.25000000  0.23834910  0.27337636  1
