# generated using pymatgen
data_SrH2(CO2)2
_symmetry_space_group_name_H-M   'P 1'
_cell_length_a   7.22213793
_cell_length_b   7.22213793
_cell_length_c   10.54394959
_cell_angle_alpha   90.00000000
_cell_angle_beta   90.00000000
_cell_angle_gamma   90.00000000
_symmetry_Int_Tables_number   1
_chemical_formula_structural   SrH2(CO2)2
_chemical_formula_sum   'Sr4 H8 C8 O16'
_cell_volume   549.96477975
_cell_formula_units_Z   4
loop_
 _symmetry_equiv_pos_site_id
 _symmetry_equiv_pos_as_xyz
  1  'x, y, z'
loop_
 _atom_site_type_symbol
 _atom_site_label
 _atom_site_symmetry_multiplicity
 _atom_site_fract_x
 _atom_site_fract_y
 _atom_site_fract_z
 _atom_site_occupancy
  Sr  Sr0  1  0.76623035  0.23376965  0.25000000  1
  Sr  Sr1  1  0.23376965  0.76623035  0.75000000  1
  Sr  Sr2  1  0.73376965  0.73376965  0.00000000  1
  Sr  Sr3  1  0.26623035  0.26623035  0.50000000  1
  H  H4  1  0.80201760  0.14490848  0.63385201  1
  H  H5  1  0.19798240  0.85509152  0.13385201  1
  H  H6  1  0.64490848  0.69798240  0.38385201  1
  H  H7  1  0.35509152  0.30201760  0.88385201  1
  H  H8  1  0.85509152  0.19798240  0.86614799  1
  H  H9  1  0.14490848  0.80201760  0.36614799  1
  H  H10  1  0.69798240  0.64490848  0.61614799  1
  H  H11  1  0.30201760  0.35509152  0.11614799  1
  C  C12  1  0.77640332  0.22703686  0.54619500  1
  C  C13  1  0.22359668  0.77296314  0.04619500  1
  C  C14  1  0.72703686  0.72359668  0.29619500  1
  C  C15  1  0.27296314  0.27640332  0.79619500  1
  C  C16  1  0.77296314  0.22359668  0.95380500  1
  C  C17  1  0.22703686  0.77640332  0.45380500  1
  C  C18  1  0.72359668  0.72703686  0.70380500  1
  C  C19  1  0.27640332  0.27296314  0.20380500  1
  O  O20  1  0.91593686  0.26463646  0.47670677  1
  O  O21  1  0.08406314  0.73536354  0.97670677  1
  O  O22  1  0.76463646  0.58406314  0.22670677  1
  O  O23  1  0.23536354  0.41593686  0.72670677  1
  O  O24  1  0.73536354  0.08406314  0.02329323  1
  O  O25  1  0.26463646  0.91593686  0.52329323  1
  O  O26  1  0.58406314  0.76463646  0.77329323  1
  O  O27  1  0.41593686  0.23536354  0.27329323  1
  O  O28  1  0.61254512  0.27234728  0.51953017  1
  O  O29  1  0.38745488  0.72765272  0.01953017  1
  O  O30  1  0.77234728  0.88745488  0.26953017  1
  O  O31  1  0.22765272  0.11254512  0.76953017  1
  O  O32  1  0.72765272  0.38745488  0.98046983  1
  O  O33  1  0.27234728  0.61254512  0.48046983  1
  O  O34  1  0.88745488  0.77234728  0.73046983  1
  O  O35  1  0.11254512  0.22765272  0.23046983  1
