# generated using pymatgen
data_CsMgAs(H6O5)2
_symmetry_space_group_name_H-M   'P 1'
_cell_length_a   7.26651911
_cell_length_b   7.26651911
_cell_length_c   7.26651911
_cell_angle_alpha   60.00000000
_cell_angle_beta   60.00000000
_cell_angle_gamma   60.00000000
_symmetry_Int_Tables_number   1
_chemical_formula_structural   CsMgAs(H6O5)2
_chemical_formula_sum   'Cs1 Mg1 As1 H12 O10'
_cell_volume   271.30903876
_cell_formula_units_Z   1
loop_
 _symmetry_equiv_pos_site_id
 _symmetry_equiv_pos_as_xyz
  1  'x, y, z'
loop_
 _atom_site_type_symbol
 _atom_site_label
 _atom_site_symmetry_multiplicity
 _atom_site_fract_x
 _atom_site_fract_y
 _atom_site_fract_z
 _atom_site_occupancy
  Cs  Cs0  1  0.25000000  0.25000000  0.25000000  1
  Mg  Mg1  1  -0.00000000  0.00000000  -0.00000000  1
  As  As2  1  0.75000000  0.75000000  0.75000000  1
  H  H3  1  0.37403391  0.73906754  0.73906754  1
  H  H4  1  0.37403391  0.73906754  0.14783100  1
  H  H5  1  0.37403391  0.14783100  0.73906754  1
  H  H6  1  0.73906754  0.37403391  0.14783100  1
  H  H7  1  0.73906754  0.37403391  0.73906754  1
  H  H8  1  0.14783100  0.37403391  0.73906754  1
  H  H9  1  0.73906754  0.14783100  0.37403391  1
  H  H10  1  0.14783100  0.73906754  0.37403391  1
  H  H11  1  0.73906754  0.73906754  0.37403391  1
  H  H12  1  0.14783100  0.73906754  0.73906754  1
  H  H13  1  0.73906754  0.14783100  0.73906754  1
  H  H14  1  0.73906754  0.73906754  0.14783100  1
  O  O15  1  0.20466019  0.79533981  0.79533981  1
  O  O16  1  0.20466019  0.79533981  0.20466019  1
  O  O17  1  0.20466019  0.20466019  0.79533981  1
  O  O18  1  0.79533981  0.20466019  0.20466019  1
  O  O19  1  0.79533981  0.20466019  0.79533981  1
  O  O20  1  0.79533981  0.79533981  0.20466019  1
  O  O21  1  0.04133383  0.65288872  0.65288872  1
  O  O22  1  0.65288872  0.04133383  0.65288872  1
  O  O23  1  0.65288872  0.65288872  0.04133383  1
  O  O24  1  0.65288872  0.65288872  0.65288872  1
