# generated using pymatgen
data_CsAlSiO4
_symmetry_space_group_name_H-M   'P 1'
_cell_length_a   5.49050927
_cell_length_b   9.12985214
_cell_length_c   9.54457305
_cell_angle_alpha   90.00000000
_cell_angle_beta   90.00000000
_cell_angle_gamma   90.00000000
_symmetry_Int_Tables_number   1
_chemical_formula_structural   CsAlSiO4
_chemical_formula_sum   'Cs4 Al4 Si4 O16'
_cell_volume   478.44594643
_cell_formula_units_Z   4
loop_
 _symmetry_equiv_pos_site_id
 _symmetry_equiv_pos_as_xyz
  1  'x, y, z'
loop_
 _atom_site_type_symbol
 _atom_site_label
 _atom_site_symmetry_multiplicity
 _atom_site_fract_x
 _atom_site_fract_y
 _atom_site_fract_z
 _atom_site_occupancy
  Cs  Cs0  1  0.49429379  0.99863290  0.30393332  1
  Cs  Cs1  1  0.99429379  0.00136710  0.69606668  1
  Cs  Cs2  1  0.99429379  0.50136710  0.80393332  1
  Cs  Cs3  1  0.49429379  0.49863290  0.19606668  1
  Al  Al4  1  0.99908900  0.82241859  0.09232393  1
  Al  Al5  1  0.49908900  0.17758141  0.90767607  1
  Al  Al6  1  0.49908900  0.67758141  0.59232393  1
  Al  Al7  1  0.99908900  0.32241859  0.40767607  1
  Si  Si8  1  0.99966436  0.69068688  0.42108853  1
  Si  Si9  1  0.49966436  0.30931312  0.57891147  1
  Si  Si10  1  0.49966436  0.80931312  0.92108853  1
  Si  Si11  1  0.99966436  0.19068688  0.07891147  1
  O  O12  1  0.99895490  0.51322232  0.40571454  1
  O  O13  1  0.49895490  0.48677768  0.59428546  1
  O  O14  1  0.49895490  0.98677768  0.90571454  1
  O  O15  1  0.99895490  0.01322232  0.09428546  1
  O  O16  1  0.74705082  0.74757149  0.49552860  1
  O  O17  1  0.24705082  0.25242851  0.50447140  1
  O  O18  1  0.24705082  0.75242851  0.99552860  1
  O  O19  1  0.74705082  0.24757149  0.00447140  1
  O  O20  1  0.22878301  0.74718401  0.51804505  1
  O  O21  1  0.72878301  0.25281599  0.48195495  1
  O  O22  1  0.72878301  0.75281599  0.01804505  1
  O  O23  1  0.22878301  0.24718401  0.98195495  1
  O  O24  1  0.02516411  0.76461818  0.26645747  1
  O  O25  1  0.52516411  0.23538182  0.73354253  1
  O  O26  1  0.52516411  0.73538182  0.76645747  1
  O  O27  1  0.02516411  0.26461818  0.23354253  1
