# generated using pymatgen
data_U8MnS17
_symmetry_space_group_name_H-M   'P 1'
_cell_length_a   7.83289098
_cell_length_b   7.83289098
_cell_length_c   10.29335235
_cell_angle_alpha   80.27406906
_cell_angle_beta   80.27406906
_cell_angle_gamma   64.10447398
_symmetry_Int_Tables_number   1
_chemical_formula_structural   U8MnS17
_chemical_formula_sum   'U8 Mn1 S17'
_cell_volume   556.72878667
_cell_formula_units_Z   1
loop_
 _symmetry_equiv_pos_site_id
 _symmetry_equiv_pos_as_xyz
  1  'x, y, z'
loop_
 _atom_site_type_symbol
 _atom_site_label
 _atom_site_symmetry_multiplicity
 _atom_site_fract_x
 _atom_site_fract_y
 _atom_site_fract_z
 _atom_site_occupancy
  U  U0  1  0.81796752  0.30138498  0.29863494  1
  U  U1  1  0.30138498  0.81796752  0.29863494  1
  U  U2  1  0.18203248  0.69861502  0.70136506  1
  U  U3  1  0.69861502  0.18203248  0.70136506  1
  U  U4  1  0.79657995  0.79657995  0.45631313  1
  U  U5  1  0.20342005  0.20342005  0.54368687  1
  U  U6  1  0.31766303  0.31766303  0.01640188  1
  U  U7  1  0.68233697  0.68233697  0.98359812  1
  Mn  Mn8  1  -0.00000000  -0.00000000  0.00000000  1
  S  S9  1  0.17946030  0.56682977  0.46487443  1
  S  S10  1  0.56682977  0.17946030  0.46487443  1
  S  S11  1  0.82053970  0.43317023  0.53512557  1
  S  S12  1  0.43317023  0.82053970  0.53512557  1
  S  S13  1  0.94209688  0.32736142  0.03392318  1
  S  S14  1  0.32736142  0.94209688  0.03392318  1
  S  S15  1  0.05790312  0.67263858  0.96607682  1
  S  S16  1  0.67263858  0.05790312  0.96607682  1
  S  S17  1  0.94153254  0.94153254  0.22806989  1
  S  S18  1  0.05846746  0.05846746  0.77193011  1
  S  S19  1  0.78804641  0.78804641  0.72014306  1
  S  S20  1  0.21195359  0.21195359  0.27985694  1
  S  S21  1  0.69846597  0.69846597  0.24458354  1
  S  S22  1  0.30153403  0.30153403  0.75541646  1
  S  S23  1  0.47833951  0.47833951  0.17003681  1
  S  S24  1  0.52166049  0.52166049  0.82996319  1
  S  S25  1  -0.00000000  -0.00000000  0.50000000  1
