# generated using pymatgen
data_Hf9CoW4
_symmetry_space_group_name_H-M   'P 1'
_cell_length_a   8.47162295
_cell_length_b   8.69213839
_cell_length_c   8.69213839
_cell_angle_alpha   120.00055036
_cell_angle_beta   90.00000000
_cell_angle_gamma   90.00000000
_symmetry_Int_Tables_number   1
_chemical_formula_structural   Hf9CoW4
_chemical_formula_sum   'Hf18 Co2 W8'
_cell_volume   554.30411868
_cell_formula_units_Z   2
loop_
 _symmetry_equiv_pos_site_id
 _symmetry_equiv_pos_as_xyz
  1  'x, y, z'
loop_
 _atom_site_type_symbol
 _atom_site_label
 _atom_site_symmetry_multiplicity
 _atom_site_fract_x
 _atom_site_fract_y
 _atom_site_fract_z
 _atom_site_occupancy
  Hf  Hf0  1  0.55937075  0.79876471  0.59751591  1
  Hf  Hf1  1  0.55935500  0.79877813  0.20122187  1
  Hf  Hf2  1  0.55937075  0.40248409  0.20123529  1
  Hf  Hf3  1  0.44062925  0.20123529  0.40248409  1
  Hf  Hf4  1  0.44064500  0.20122187  0.79877813  1
  Hf  Hf5  1  0.44062925  0.59751591  0.79876471  1
  Hf  Hf6  1  0.05937075  0.20123529  0.40248409  1
  Hf  Hf7  1  0.05935500  0.20122187  0.79877813  1
  Hf  Hf8  1  0.05937075  0.59751591  0.79876471  1
  Hf  Hf9  1  0.94062925  0.79876471  0.59751591  1
  Hf  Hf10  1  0.94064500  0.79877813  0.20122187  1
  Hf  Hf11  1  0.94062925  0.40248409  0.20123529  1
  Hf  Hf12  1  0.75000000  0.45813017  0.91623014  1
  Hf  Hf13  1  0.75000000  0.45810700  0.54189300  1
  Hf  Hf14  1  0.75000000  0.08376986  0.54186983  1
  Hf  Hf15  1  0.25000000  0.54186983  0.08376986  1
  Hf  Hf16  1  0.25000000  0.54189300  0.45810700  1
  Hf  Hf17  1  0.25000000  0.91623014  0.45813017  1
  Co  Co18  1  0.75000000  0.66667387  0.33332613  1
  Co  Co19  1  0.25000000  0.33332613  0.66667387  1
  W  W20  1  0.75000000  0.11235018  0.22470492  1
  W  W21  1  0.75000000  0.11235321  0.88764679  1
  W  W22  1  0.75000000  0.77529508  0.88764982  1
  W  W23  1  0.25000000  0.88764982  0.77529508  1
  W  W24  1  0.25000000  0.88764679  0.11235321  1
  W  W25  1  0.25000000  0.22470492  0.11235018  1
  W  W26  1  0.50000000  -0.00000000  -0.00000000  1
  W  W27  1  -0.00000000  -0.00000000  -0.00000000  1
