# generated using pymatgen
data_CsSbH4O5
_symmetry_space_group_name_H-M   'P 1'
_cell_length_a   6.75093938
_cell_length_b   6.78027116
_cell_length_c   7.59697656
_cell_angle_alpha   90.30051139
_cell_angle_beta   109.97257319
_cell_angle_gamma   113.63429872
_symmetry_Int_Tables_number   1
_chemical_formula_structural   CsSbH4O5
_chemical_formula_sum   'Cs2 Sb2 H8 O10'
_cell_volume   295.30034673
_cell_formula_units_Z   2
loop_
 _symmetry_equiv_pos_site_id
 _symmetry_equiv_pos_as_xyz
  1  'x, y, z'
loop_
 _atom_site_type_symbol
 _atom_site_label
 _atom_site_symmetry_multiplicity
 _atom_site_fract_x
 _atom_site_fract_y
 _atom_site_fract_z
 _atom_site_occupancy
  Cs  Cs0  1  0.82813054  0.99141029  0.71419749  1
  Cs  Cs1  1  0.17186946  0.00858971  0.28580251  1
  Sb  Sb2  1  0.53717616  0.36686168  0.85896924  1
  Sb  Sb3  1  0.46282384  0.63313832  0.14103076  1
  H  H4  1  0.28631210  0.54244396  0.68442859  1
  H  H5  1  0.71368790  0.45755604  0.31557141  1
  H  H6  1  0.90458857  0.37391094  0.11972866  1
  H  H7  1  0.09541143  0.62608906  0.88027134  1
  H  H8  1  0.71970957  0.48028303  0.61448968  1
  H  H9  1  0.28029043  0.51971697  0.38551032  1
  H  H10  1  0.34153139  0.95439571  0.80989244  1
  H  H11  1  0.65846861  0.04560429  0.19010756  1
  O  O12  1  0.31411803  0.32789072  0.99262338  1
  O  O13  1  0.68588197  0.67210928  0.00737662  1
  O  O14  1  0.34047239  0.45233695  0.62886624  1
  O  O15  1  0.65952761  0.54766305  0.37113376  1
  O  O16  1  0.73855599  0.26579010  0.06796010  1
  O  O17  1  0.26144401  0.73420990  0.93203990  1
  O  O18  1  0.77951505  0.44112965  0.74191834  1
  O  O19  1  0.22048495  0.55887035  0.25808166  1
  O  O20  1  0.35747284  0.06050523  0.71956526  1
  O  O21  1  0.64252716  0.93949477  0.28043474  1
