# generated using pymatgen
data_SrCu9Sn4
_symmetry_space_group_name_H-M   'P 1'
_cell_length_a   8.69584336
_cell_length_b   8.69584336
_cell_length_c   8.79784525
_cell_angle_alpha   119.61721369
_cell_angle_beta   119.61721369
_cell_angle_gamma   90.00000000
_symmetry_Int_Tables_number   1
_chemical_formula_structural   SrCu9Sn4
_chemical_formula_sum   'Sr2 Cu18 Sn8'
_cell_volume   475.81032996
_cell_formula_units_Z   2
loop_
 _symmetry_equiv_pos_site_id
 _symmetry_equiv_pos_as_xyz
  1  'x, y, z'
loop_
 _atom_site_type_symbol
 _atom_site_label
 _atom_site_symmetry_multiplicity
 _atom_site_fract_x
 _atom_site_fract_y
 _atom_site_fract_z
 _atom_site_occupancy
  Sr  Sr0  1  0.75000000  0.75000000  0.50000000  1
  Sr  Sr1  1  0.25000000  0.25000000  0.50000000  1
  Cu  Cu2  1  0.56562894  0.28344834  0.34907729  1
  Cu  Cu3  1  0.78344834  0.06562894  0.34907729  1
  Cu  Cu4  1  0.28344834  0.78344834  0.34907729  1
  Cu  Cu5  1  0.06562894  0.56562894  0.34907729  1
  Cu  Cu6  1  0.43437106  0.71655166  0.65092271  1
  Cu  Cu7  1  0.21655166  0.93437106  0.65092271  1
  Cu  Cu8  1  0.71655166  0.21655166  0.65092271  1
  Cu  Cu9  1  0.93437106  0.43437106  0.65092271  1
  Cu  Cu10  1  0.29725578  0.55614492  1.00000000  1
  Cu  Cu11  1  0.70274422  0.44385508  0.00000000  1
  Cu  Cu12  1  0.20274422  0.05614492  0.00000000  1
  Cu  Cu13  1  0.79725578  0.94385508  1.00000000  1
  Cu  Cu14  1  0.44385508  0.29725578  1.00000000  1
  Cu  Cu15  1  0.55614492  0.70274422  0.00000000  1
  Cu  Cu16  1  0.94385508  0.20274422  0.00000000  1
  Cu  Cu17  1  0.05614492  0.79725578  1.00000000  1
  Cu  Cu18  1  -0.00000000  0.50000000  -0.00000000  1
  Cu  Cu19  1  0.50000000  -0.00000000  -0.00000000  1
  Sn  Sn20  1  0.94067542  0.80956463  0.25024005  1
  Sn  Sn21  1  0.30956463  0.44067542  0.25024005  1
  Sn  Sn22  1  0.80956463  0.30956463  0.25024005  1
  Sn  Sn23  1  0.44067542  0.94067542  0.25024005  1
  Sn  Sn24  1  0.05932458  0.19043537  0.74975995  1
  Sn  Sn25  1  0.69043537  0.55932458  0.74975995  1
  Sn  Sn26  1  0.19043537  0.69043537  0.74975995  1
  Sn  Sn27  1  0.55932458  0.05932458  0.74975995  1
