# generated using pymatgen
data_Cu3(CO4)2
_symmetry_space_group_name_H-M   'P 1'
_cell_length_a   5.08392881
_cell_length_b   5.62583605
_cell_length_c   10.60556629
_cell_angle_alpha   90.00000000
_cell_angle_beta   94.84626591
_cell_angle_gamma   90.00000000
_symmetry_Int_Tables_number   1
_chemical_formula_structural   Cu3(CO4)2
_chemical_formula_sum   'Cu6 C4 O16'
_cell_volume   302.24908525
_cell_formula_units_Z   2
loop_
 _symmetry_equiv_pos_site_id
 _symmetry_equiv_pos_as_xyz
  1  'x, y, z'
loop_
 _atom_site_type_symbol
 _atom_site_label
 _atom_site_symmetry_multiplicity
 _atom_site_fract_x
 _atom_site_fract_y
 _atom_site_fract_z
 _atom_site_occupancy
  Cu  Cu0  1  0.00000000  0.50000000  0.50000000  1
  Cu  Cu1  1  0.00000000  0.00000000  -0.00000000  1
  Cu  Cu2  1  0.24006494  0.99562722  0.58311543  1
  Cu  Cu3  1  0.75993506  0.49562722  0.91688457  1
  Cu  Cu4  1  0.75993506  0.00437278  0.41688457  1
  Cu  Cu5  1  0.24006494  0.50437278  0.08311543  1
  C  C6  1  0.32448950  0.19170783  0.82055522  1
  C  C7  1  0.67551050  0.69170783  0.67944478  1
  C  C8  1  0.67551050  0.80829217  0.17944478  1
  C  C9  1  0.32448950  0.30829217  0.32055522  1
  O  O10  1  0.05986407  0.68413148  0.95352987  1
  O  O11  1  0.94013593  0.18413148  0.54647013  1
  O  O12  1  0.94013593  0.31586852  0.04647013  1
  O  O13  1  0.05986407  0.81586852  0.45352987  1
  O  O14  1  0.09868960  0.09251688  0.83585574  1
  O  O15  1  0.90131040  0.59251688  0.66414426  1
  O  O16  1  0.90131040  0.90748312  0.16414426  1
  O  O17  1  0.09868960  0.40748312  0.33585574  1
  O  O18  1  0.46498059  0.27959785  0.91741644  1
  O  O19  1  0.53501941  0.77959785  0.58258356  1
  O  O20  1  0.53501941  0.72040215  0.08258356  1
  O  O21  1  0.46498059  0.22040215  0.41741644  1
  O  O22  1  0.40649781  0.20102263  0.70909542  1
  O  O23  1  0.59350219  0.70102263  0.79090458  1
  O  O24  1  0.59350219  0.79897737  0.29090458  1
  O  O25  1  0.40649781  0.29897737  0.20909542  1
