# generated using pymatgen
data_LiNi9S10
_symmetry_space_group_name_H-M   'P 1'
_cell_length_a   5.96631754
_cell_length_b   7.92710916
_cell_length_c   6.24901175
_cell_angle_alpha   78.87046512
_cell_angle_beta   90.05710768
_cell_angle_gamma   68.18056118
_symmetry_Int_Tables_number   1
_chemical_formula_structural   LiNi9S10
_chemical_formula_sum   'Li1 Ni9 S10'
_cell_volume   268.35779573
_cell_formula_units_Z   1
loop_
 _symmetry_equiv_pos_site_id
 _symmetry_equiv_pos_as_xyz
  1  'x, y, z'
loop_
 _atom_site_type_symbol
 _atom_site_label
 _atom_site_symmetry_multiplicity
 _atom_site_fract_x
 _atom_site_fract_y
 _atom_site_fract_z
 _atom_site_occupancy
  Li  Li0  1  0.29993075  0.40004392  0.10004203  1
  Ni  Ni1  1  0.39688498  0.20187168  0.80716380  1
  Ni  Ni2  1  0.49507172  0.00682017  0.49605433  1
  Ni  Ni3  1  0.70082100  0.59430246  0.90545957  1
  Ni  Ni4  1  0.89929325  0.20562501  0.29458424  1
  Ni  Ni5  1  0.79996679  0.40000258  0.59993204  1
  Ni  Ni6  1  0.99677844  0.00034273  0.99672681  1
  Ni  Ni7  1  0.10498694  0.79312250  0.70394962  1
  Ni  Ni8  1  0.20311611  0.59820246  0.39290094  1
  Ni  Ni9  1  0.60329280  0.79958956  0.20336083  1
  S  S10  1  0.77849997  0.09654223  0.64309669  1
  S  S11  1  0.00808865  0.29206665  0.94564077  1
  S  S12  1  0.17617481  0.30306712  0.46614713  1
  S  S13  1  0.61964050  0.09389558  0.14619560  1
  S  S14  1  0.42392078  0.49698038  0.73391571  1
  S  S15  1  0.38066043  0.89871453  0.84963429  1
  S  S16  1  0.59190290  0.50790277  0.25431954  1
  S  S17  1  0.82157459  0.70333333  0.55687995  1
  S  S18  1  0.98036317  0.70606501  0.05376540  1
  S  S19  1  0.21933142  0.90141032  0.35033169  1
