# generated using pymatgen
data_Ba2MnV2HO9
_symmetry_space_group_name_H-M   'P 1'
_cell_length_a   6.33034415
_cell_length_b   8.00093293
_cell_length_c   9.16364272
_cell_angle_alpha   111.92459912
_cell_angle_beta   90.00000000
_cell_angle_gamma   90.00000000
_symmetry_Int_Tables_number   1
_chemical_formula_structural   Ba2MnV2HO9
_chemical_formula_sum   'Ba4 Mn2 V4 H2 O18'
_cell_volume   430.55876534
_cell_formula_units_Z   2
loop_
 _symmetry_equiv_pos_site_id
 _symmetry_equiv_pos_as_xyz
  1  'x, y, z'
loop_
 _atom_site_type_symbol
 _atom_site_label
 _atom_site_symmetry_multiplicity
 _atom_site_fract_x
 _atom_site_fract_y
 _atom_site_fract_z
 _atom_site_occupancy
  Ba  Ba0  1  0.75000000  0.32348404  0.41112793  1
  Ba  Ba1  1  0.25000000  0.67651596  0.58887207  1
  Ba  Ba2  1  0.75000000  0.73055556  0.23938961  1
  Ba  Ba3  1  0.25000000  0.26944444  0.76061039  1
  Mn  Mn4  1  0.50000000  -0.00000000  -0.00000000  1
  Mn  Mn5  1  0.00000000  -0.00000000  -0.00000000  1
  V  V6  1  0.25000000  0.04708032  0.33103391  1
  V  V7  1  0.75000000  0.95291968  0.66896609  1
  V  V8  1  0.75000000  0.55253110  0.82542029  1
  V  V9  1  0.25000000  0.44746890  0.17457971  1
  H  H10  1  0.75000000  0.25634599  0.01340001  1
  H  H11  1  0.25000000  0.74365401  0.98659999  1
  O  O12  1  0.48768797  0.00304840  0.21445440  1
  O  O13  1  0.98768797  0.99695160  0.78554560  1
  O  O14  1  0.51231203  0.99695160  0.78554560  1
  O  O15  1  0.01231203  0.00304840  0.21445440  1
  O  O16  1  0.53052033  0.49475184  0.70294840  1
  O  O17  1  0.03052033  0.50524816  0.29705160  1
  O  O18  1  0.46947967  0.50524816  0.29705160  1
  O  O19  1  0.96947967  0.49475184  0.70294840  1
  O  O20  1  0.75000000  0.78756327  0.94806271  1
  O  O21  1  0.25000000  0.21243673  0.05193729  1
  O  O22  1  0.25000000  0.26750590  0.45373731  1
  O  O23  1  0.75000000  0.73249410  0.54626269  1
  O  O24  1  0.75000000  0.16317753  0.06309475  1
  O  O25  1  0.25000000  0.83682247  0.93690525  1
  O  O26  1  0.25000000  0.92398181  0.44668094  1
  O  O27  1  0.75000000  0.07601819  0.55331906  1
  O  O28  1  0.75000000  0.43354326  0.94854946  1
  O  O29  1  0.25000000  0.56645674  0.05145054  1
