# generated using pymatgen
data_U8CoSe17
_symmetry_space_group_name_H-M   'P 1'
_cell_length_a   8.16104465
_cell_length_b   8.16104465
_cell_length_c   10.78221096
_cell_angle_alpha   79.98185563
_cell_angle_beta   79.98185563
_cell_angle_gamma   64.34322583
_symmetry_Int_Tables_number   1
_chemical_formula_structural   U8CoSe17
_chemical_formula_sum   'U8 Co1 Se17'
_cell_volume   633.50186097
_cell_formula_units_Z   1
loop_
 _symmetry_equiv_pos_site_id
 _symmetry_equiv_pos_as_xyz
  1  'x, y, z'
loop_
 _atom_site_type_symbol
 _atom_site_label
 _atom_site_symmetry_multiplicity
 _atom_site_fract_x
 _atom_site_fract_y
 _atom_site_fract_z
 _atom_site_occupancy
  U  U0  1  0.81973090  0.30317414  0.29731188  1
  U  U1  1  0.30317414  0.81973090  0.29731188  1
  U  U2  1  0.18026910  0.69682586  0.70268812  1
  U  U3  1  0.69682586  0.18026910  0.70268812  1
  U  U4  1  0.79984787  0.79984787  0.45480304  1
  U  U5  1  0.20015213  0.20015213  0.54519696  1
  U  U6  1  0.32018623  0.32018623  0.01303125  1
  U  U7  1  0.67981377  0.67981377  0.98696875  1
  Co  Co8  1  -0.00000000  0.00000000  -0.00000000  1
  Se  Se9  1  0.18227146  0.56422402  0.46377654  1
  Se  Se10  1  0.56422402  0.18227146  0.46377654  1
  Se  Se11  1  0.81772854  0.43577598  0.53622346  1
  Se  Se12  1  0.43577598  0.81772854  0.53622346  1
  Se  Se13  1  0.94642030  0.31904414  0.02550681  1
  Se  Se14  1  0.31904414  0.94642030  0.02550681  1
  Se  Se15  1  0.05357970  0.68095586  0.97449319  1
  Se  Se16  1  0.68095586  0.05357970  0.97449319  1
  Se  Se17  1  0.94597016  0.94597016  0.22180064  1
  Se  Se18  1  0.05402984  0.05402984  0.77819936  1
  Se  Se19  1  0.78469033  0.78469033  0.72275986  1
  Se  Se20  1  0.21530967  0.21530967  0.27724014  1
  Se  Se21  1  0.70158536  0.70158536  0.24385662  1
  Se  Se22  1  0.29841464  0.29841464  0.75614338  1
  Se  Se23  1  0.47870881  0.47870881  0.16964521  1
  Se  Se24  1  0.52129119  0.52129119  0.83035479  1
  Se  Se25  1  -0.00000000  0.00000000  0.50000000  1
