# generated using pymatgen
data_KFe3H6(SO7)2
_symmetry_space_group_name_H-M   'P 1'
_cell_length_a   7.29195064
_cell_length_b   7.29195064
_cell_length_c   7.29195044
_cell_angle_alpha   61.12404631
_cell_angle_beta   61.12404631
_cell_angle_gamma   61.12404519
_symmetry_Int_Tables_number   1
_chemical_formula_structural   KFe3H6(SO7)2
_chemical_formula_sum   'K1 Fe3 H6 S2 O14'
_cell_volume   281.10340972
_cell_formula_units_Z   1
loop_
 _symmetry_equiv_pos_site_id
 _symmetry_equiv_pos_as_xyz
  1  'x, y, z'
loop_
 _atom_site_type_symbol
 _atom_site_label
 _atom_site_symmetry_multiplicity
 _atom_site_fract_x
 _atom_site_fract_y
 _atom_site_fract_z
 _atom_site_occupancy
  K  K0  1  0.00000000  -0.00000000  0.00000000  1
  Fe  Fe1  1  0.00000000  -0.00000000  0.50000000  1
  Fe  Fe2  1  0.00000000  0.50000000  0.00000000  1
  Fe  Fe3  1  0.50000000  -0.00000000  0.00000000  1
  H  H4  1  0.28239784  0.69344345  0.69344345  1
  H  H5  1  0.69344345  0.69344345  0.28239784  1
  H  H6  1  0.69344345  0.28239784  0.69344345  1
  H  H7  1  0.71760216  0.30655655  0.30655655  1
  H  H8  1  0.30655655  0.30655655  0.71760216  1
  H  H9  1  0.30655655  0.71760216  0.30655655  1
  S  S10  1  0.69453153  0.69453153  0.69453153  1
  S  S11  1  0.30546847  0.30546847  0.30546847  1
  O  O12  1  0.38858315  0.38858315  0.38858315  1
  O  O13  1  0.61141685  0.61141685  0.61141685  1
  O  O14  1  0.50254102  0.83323792  0.83323792  1
  O  O15  1  0.83323792  0.83323792  0.50254102  1
  O  O16  1  0.83323792  0.50254102  0.83323792  1
  O  O17  1  0.49745898  0.16676208  0.16676208  1
  O  O18  1  0.16676208  0.16676208  0.49745898  1
  O  O19  1  0.16676208  0.49745898  0.16676208  1
  O  O20  1  0.12048067  0.73650076  0.73650076  1
  O  O21  1  0.73650076  0.73650076  0.12048067  1
  O  O22  1  0.73650076  0.12048067  0.73650076  1
  O  O23  1  0.87951933  0.26349924  0.26349924  1
  O  O24  1  0.26349924  0.26349924  0.87951933  1
  O  O25  1  0.26349924  0.87951933  0.26349924  1
