# generated using pymatgen
data_Cs2CoCl4
_symmetry_space_group_name_H-M   'P 1'
_cell_length_a   7.46856401
_cell_length_b   9.93571359
_cell_length_c   13.18205749
_cell_angle_alpha   90.00000000
_cell_angle_beta   90.00000000
_cell_angle_gamma   90.00000000
_symmetry_Int_Tables_number   1
_chemical_formula_structural   Cs2CoCl4
_chemical_formula_sum   'Cs8 Co4 Cl16'
_cell_volume   978.18133754
_cell_formula_units_Z   4
loop_
 _symmetry_equiv_pos_site_id
 _symmetry_equiv_pos_as_xyz
  1  'x, y, z'
loop_
 _atom_site_type_symbol
 _atom_site_label
 _atom_site_symmetry_multiplicity
 _atom_site_fract_x
 _atom_site_fract_y
 _atom_site_fract_z
 _atom_site_occupancy
  Cs  Cs0  1  0.25000000  0.85903552  0.40173123  1
  Cs  Cs1  1  0.25000000  0.35903552  0.09826877  1
  Cs  Cs2  1  0.75000000  0.14096448  0.59826877  1
  Cs  Cs3  1  0.75000000  0.64096448  0.90173123  1
  Cs  Cs4  1  0.25000000  0.52067148  0.67514535  1
  Cs  Cs5  1  0.25000000  0.02067148  0.82485465  1
  Cs  Cs6  1  0.75000000  0.47932852  0.32485465  1
  Cs  Cs7  1  0.75000000  0.97932852  0.17514535  1
  Co  Co8  1  0.25000000  0.26653525  0.42189726  1
  Co  Co9  1  0.25000000  0.76653525  0.07810274  1
  Co  Co10  1  0.75000000  0.73346475  0.57810274  1
  Co  Co11  1  0.75000000  0.23346475  0.92189726  1
  Cl  Cl12  1  0.25000000  0.49189261  0.40313244  1
  Cl  Cl13  1  0.25000000  0.99189261  0.09686756  1
  Cl  Cl14  1  0.75000000  0.50810739  0.59686756  1
  Cl  Cl15  1  0.75000000  0.00810739  0.90313244  1
  Cl  Cl16  1  0.25000000  0.19125508  0.58322358  1
  Cl  Cl17  1  0.25000000  0.69125508  0.91677642  1
  Cl  Cl18  1  0.75000000  0.80874492  0.41677642  1
  Cl  Cl19  1  0.75000000  0.30874492  0.08322358  1
  Cl  Cl20  1  0.49345267  0.17817712  0.34840123  1
  Cl  Cl21  1  0.00654733  0.67817712  0.15159877  1
  Cl  Cl22  1  0.99345267  0.82182288  0.65159877  1
  Cl  Cl23  1  0.50654733  0.32182288  0.84840123  1
  Cl  Cl24  1  0.50654733  0.82182288  0.65159877  1
  Cl  Cl25  1  0.99345267  0.32182288  0.84840123  1
  Cl  Cl26  1  0.00654733  0.17817712  0.34840123  1
  Cl  Cl27  1  0.49345267  0.67817712  0.15159877  1
