# generated using pymatgen
data_Nb4NiSe8
_symmetry_space_group_name_H-M   'P 1'
_cell_length_a   6.98010617
_cell_length_b   6.98010617
_cell_length_c   12.62814127
_cell_angle_alpha   90.00000000
_cell_angle_beta   90.00000000
_cell_angle_gamma   119.97985485
_symmetry_Int_Tables_number   1
_chemical_formula_structural   Nb4NiSe8
_chemical_formula_sum   'Nb8 Ni2 Se16'
_cell_volume   532.94481866
_cell_formula_units_Z   2
loop_
 _symmetry_equiv_pos_site_id
 _symmetry_equiv_pos_as_xyz
  1  'x, y, z'
loop_
 _atom_site_type_symbol
 _atom_site_label
 _atom_site_symmetry_multiplicity
 _atom_site_fract_x
 _atom_site_fract_y
 _atom_site_fract_z
 _atom_site_occupancy
  Nb  Nb0  1  0.00004883  0.99995117  0.75000000  1
  Nb  Nb1  1  0.99995117  0.00004883  0.25000000  1
  Nb  Nb2  1  0.49248401  0.50751599  0.75000000  1
  Nb  Nb3  1  0.01501677  0.50764786  0.75000000  1
  Nb  Nb4  1  0.49235214  0.98498323  0.75000000  1
  Nb  Nb5  1  0.50751599  0.49248401  0.25000000  1
  Nb  Nb6  1  0.98498323  0.49235214  0.25000000  1
  Nb  Nb7  1  0.50764786  0.01501677  0.25000000  1
  Ni  Ni8  1  -0.00000000  0.00000000  0.50000000  1
  Ni  Ni9  1  -0.00000000  0.00000000  -0.00000000  1
  Se  Se10  1  0.66664874  0.33335126  0.11171595  1
  Se  Se11  1  0.33335126  0.66664874  0.88828405  1
  Se  Se12  1  0.33335126  0.66664874  0.61171595  1
  Se  Se13  1  0.66664874  0.33335126  0.38828405  1
  Se  Se14  1  0.83197841  0.66398578  0.61796222  1
  Se  Se15  1  0.83199715  0.16800285  0.61803753  1
  Se  Se16  1  0.33601422  0.16802159  0.61796222  1
  Se  Se17  1  0.16802159  0.33601422  0.38203778  1
  Se  Se18  1  0.16800285  0.83199715  0.38196247  1
  Se  Se19  1  0.66398578  0.83197841  0.38203778  1
  Se  Se20  1  0.16802159  0.33601422  0.11796222  1
  Se  Se21  1  0.16800285  0.83199715  0.11803753  1
  Se  Se22  1  0.66398578  0.83197841  0.11796222  1
  Se  Se23  1  0.83197841  0.66398578  0.88203778  1
  Se  Se24  1  0.83199715  0.16800285  0.88196247  1
  Se  Se25  1  0.33601422  0.16802159  0.88203778  1
