# generated using pymatgen
data_CaH6(SO4)4
_symmetry_space_group_name_H-M   'P 1'
_cell_length_a   5.49317030
_cell_length_b   7.88285230
_cell_length_c   8.76211480
_cell_angle_alpha   88.34548706
_cell_angle_beta   76.63401503
_cell_angle_gamma   80.24587391
_symmetry_Int_Tables_number   1
_chemical_formula_structural   CaH6(SO4)4
_chemical_formula_sum   'Ca1 H6 S4 O16'
_cell_volume   363.78137749
_cell_formula_units_Z   1
loop_
 _symmetry_equiv_pos_site_id
 _symmetry_equiv_pos_as_xyz
  1  'x, y, z'
loop_
 _atom_site_type_symbol
 _atom_site_label
 _atom_site_symmetry_multiplicity
 _atom_site_fract_x
 _atom_site_fract_y
 _atom_site_fract_z
 _atom_site_occupancy
  Ca  Ca0  1  -0.00000000  0.00000000  0.00000000  1
  H  H1  1  0.68587538  0.47150619  0.80018842  1
  H  H2  1  0.31412462  0.52849381  0.19981158  1
  H  H3  1  0.28107396  0.47467335  0.67090910  1
  H  H4  1  0.71892604  0.52532665  0.32909090  1
  H  H5  1  0.72110167  0.96948270  0.60865078  1
  H  H6  1  0.27889833  0.03051730  0.39134922  1
  S  S7  1  0.53230920  0.17826606  0.76458391  1
  S  S8  1  0.46769080  0.82173394  0.23541609  1
  S  S9  1  0.93501087  0.66232613  0.73947667  1
  S  S10  1  0.06498913  0.33767387  0.26052333  1
  O  O11  1  0.49682944  0.63355250  0.26324758  1
  O  O12  1  0.50317056  0.36644750  0.73675242  1
  O  O13  1  0.68499130  0.09881496  0.60060434  1
  O  O14  1  0.31500870  0.90118504  0.39939566  1
  O  O15  1  0.71141687  0.88227734  0.19716891  1
  O  O16  1  0.28858313  0.11772266  0.80283109  1
  O  O17  1  0.68520828  0.12924431  0.87995237  1
  O  O18  1  0.31479172  0.87075569  0.12004763  1
  O  O19  1  0.04427539  0.75742424  0.83821438  1
  O  O20  1  0.95572461  0.24257576  0.16178562  1
  O  O21  1  0.22961105  0.24151681  0.35104778  1
  O  O22  1  0.77038895  0.75848319  0.64895222  1
  O  O23  1  0.85225379  0.45167293  0.37905252  1
  O  O24  1  0.14774621  0.54832707  0.62094748  1
  O  O25  1  0.20864100  0.46265733  0.14768375  1
  O  O26  1  0.79135900  0.53734267  0.85231625  1
