# generated using pymatgen
data_TaCoB
_symmetry_space_group_name_H-M   'P 1'
_cell_length_a   3.28348950
_cell_length_b   5.89064687
_cell_length_c   16.97716222
_cell_angle_alpha   90.00000000
_cell_angle_beta   90.00000000
_cell_angle_gamma   90.00000000
_symmetry_Int_Tables_number   1
_chemical_formula_structural   TaCoB
_chemical_formula_sum   'Ta10 Co10 B10'
_cell_volume   328.37018594
_cell_formula_units_Z   10
loop_
 _symmetry_equiv_pos_site_id
 _symmetry_equiv_pos_as_xyz
  1  'x, y, z'
loop_
 _atom_site_type_symbol
 _atom_site_label
 _atom_site_symmetry_multiplicity
 _atom_site_fract_x
 _atom_site_fract_y
 _atom_site_fract_z
 _atom_site_occupancy
  Ta  Ta0  1  0.25000000  0.52838923  0.92931973  1
  Ta  Ta1  1  0.25000000  0.52838923  0.57068027  1
  Ta  Ta2  1  0.75000000  0.47161077  0.07068027  1
  Ta  Ta3  1  0.75000000  0.47161077  0.42931973  1
  Ta  Ta4  1  0.25000000  0.02191865  0.87495459  1
  Ta  Ta5  1  0.25000000  0.02191865  0.62504541  1
  Ta  Ta6  1  0.75000000  0.97808135  0.12504541  1
  Ta  Ta7  1  0.75000000  0.97808135  0.37495459  1
  Ta  Ta8  1  0.25000000  0.64366148  0.75000000  1
  Ta  Ta9  1  0.75000000  0.35633852  0.25000000  1
  Co  Co10  1  0.25000000  0.14452102  0.02379466  1
  Co  Co11  1  0.25000000  0.14452102  0.47620534  1
  Co  Co12  1  0.75000000  0.85547898  0.97620534  1
  Co  Co13  1  0.75000000  0.85547898  0.52379466  1
  Co  Co14  1  0.25000000  0.65009744  0.17886525  1
  Co  Co15  1  0.25000000  0.65009744  0.32113475  1
  Co  Co16  1  0.75000000  0.34990256  0.82113475  1
  Co  Co17  1  0.75000000  0.34990256  0.67886525  1
  Co  Co18  1  0.25000000  0.00598127  0.25000000  1
  Co  Co19  1  0.75000000  0.99401873  0.75000000  1
  B  B20  1  0.25000000  0.76765342  0.04858112  1
  B  B21  1  0.25000000  0.76765342  0.45141888  1
  B  B22  1  0.75000000  0.23234658  0.95141888  1
  B  B23  1  0.75000000  0.23234658  0.54858112  1
  B  B24  1  0.25000000  0.27093991  0.14967918  1
  B  B25  1  0.25000000  0.27093991  0.35032082  1
  B  B26  1  0.75000000  0.72906009  0.85032082  1
  B  B27  1  0.75000000  0.72906009  0.64967918  1
  B  B28  1  0.25000000  0.23116148  0.75000000  1
  B  B29  1  0.75000000  0.76883852  0.25000000  1
