# generated using pymatgen
data_Cs2Sn(HO2)6
_symmetry_space_group_name_H-M   'P 1'
_cell_length_a   5.17333740
_cell_length_b   7.85382980
_cell_length_c   7.85328376
_cell_angle_alpha   120.00225895
_cell_angle_beta   89.99636259
_cell_angle_gamma   90.00844232
_symmetry_Int_Tables_number   1
_chemical_formula_structural   Cs2Sn(HO2)6
_chemical_formula_sum   'Cs2 Sn1 H6 O12'
_cell_volume   276.32763473
_cell_formula_units_Z   1
loop_
 _symmetry_equiv_pos_site_id
 _symmetry_equiv_pos_as_xyz
  1  'x, y, z'
loop_
 _atom_site_type_symbol
 _atom_site_label
 _atom_site_symmetry_multiplicity
 _atom_site_fract_x
 _atom_site_fract_y
 _atom_site_fract_z
 _atom_site_occupancy
  Cs  Cs0  1  0.59303276  0.66666220  0.33332818  1
  Cs  Cs1  1  0.40696724  0.33333780  0.66667182  1
  Sn  Sn2  1  0.50000000  0.00000000  0.00000000  1
  H  H3  1  0.00980020  0.73850244  0.02970209  1
  H  H4  1  0.00986059  0.97028645  0.70880165  1
  H  H5  1  0.00986275  0.29119129  0.26150740  1
  H  H6  1  0.99019980  0.26149756  0.97029791  1
  H  H7  1  0.99013941  0.02971355  0.29119835  1
  H  H8  1  0.99013725  0.70880871  0.73849260  1
  O  O9  1  0.26966715  0.93394323  0.18673800  1
  O  O10  1  0.26967905  0.81326357  0.74720652  1
  O  O11  1  0.26973001  0.25276856  0.06606175  1
  O  O12  1  0.73033285  0.06605677  0.81326200  1
  O  O13  1  0.73032095  0.18673643  0.25279348  1
  O  O14  1  0.73026999  0.74723144  0.93393825  1
  O  O15  1  0.18810405  0.72604749  0.07618776  1
  O  O16  1  0.18816627  0.92380475  0.64985658  1
  O  O17  1  0.18819888  0.35010682  0.27397144  1
  O  O18  1  0.81189595  0.27395251  0.92381224  1
  O  O19  1  0.81183373  0.07619525  0.35014342  1
  O  O20  1  0.81180112  0.64989318  0.72602856  1
