# generated using pymatgen
data_Na2P3HO9
_symmetry_space_group_name_H-M   'P 1'
_cell_length_a   7.18758948
_cell_length_b   7.88945536
_cell_length_c   7.95603367
_cell_angle_alpha   98.32388535
_cell_angle_beta   116.56725537
_cell_angle_gamma   76.89299785
_symmetry_Int_Tables_number   1
_chemical_formula_structural   Na2P3HO9
_chemical_formula_sum   'Na4 P6 H2 O18'
_cell_volume   392.51937343
_cell_formula_units_Z   2
loop_
 _symmetry_equiv_pos_site_id
 _symmetry_equiv_pos_as_xyz
  1  'x, y, z'
loop_
 _atom_site_type_symbol
 _atom_site_label
 _atom_site_symmetry_multiplicity
 _atom_site_fract_x
 _atom_site_fract_y
 _atom_site_fract_z
 _atom_site_occupancy
  Na  Na0  1  0.48635404  0.85120890  0.64538727  1
  Na  Na1  1  0.51364596  0.14879110  0.35461273  1
  Na  Na2  1  0.99161881  0.83253996  0.65167767  1
  Na  Na3  1  0.00838119  0.16746004  0.34832233  1
  P  P4  1  0.82112958  0.45079382  0.62975187  1
  P  P5  1  0.17887042  0.54920618  0.37024813  1
  P  P6  1  0.77826955  0.20552451  0.84069074  1
  P  P7  1  0.22173045  0.79447549  0.15930926  1
  P  P8  1  0.18577004  0.20357011  0.84275432  1
  P  P9  1  0.81422996  0.79642989  0.15724568  1
  H  H10  1  0.53168834  0.22507071  0.00268366  1
  H  H11  1  0.46831166  0.77492929  0.99731634  1
  O  O12  1  0.27521080  0.60335908  0.23731465  1
  O  O13  1  0.72478920  0.39664092  0.76268535  1
  O  O14  1  0.03815453  0.16577737  0.93163054  1
  O  O15  1  0.96184547  0.83422263  0.06836946  1
  O  O16  1  0.07815308  0.39488325  0.76563423  1
  O  O17  1  0.92184692  0.60511675  0.23436577  1
  O  O18  1  0.76605509  0.33422935  0.45567994  1
  O  O19  1  0.23394491  0.66577065  0.54432006  1
  O  O20  1  0.22668053  0.35579011  0.37396770  1
  O  O21  1  0.77331947  0.64420989  0.62603230  1
  O  O22  1  0.72655886  0.22455914  0.00703992  1
  O  O23  1  0.27344114  0.77544086  0.99296008  1
  O  O24  1  0.69603078  0.07120892  0.68604027  1
  O  O25  1  0.30396922  0.92879108  0.31395973  1
  O  O26  1  0.39225522  0.22101580  0.02026856  1
  O  O27  1  0.60774478  0.77898420  0.97973144  1
  O  O28  1  0.20020120  0.07125592  0.69281180  1
  O  O29  1  0.79979880  0.92874408  0.30718820  1
