# generated using pymatgen
data_CsHoSiS4
_symmetry_space_group_name_H-M   'P 1'
_cell_length_a   6.37266146
_cell_length_b   6.72488310
_cell_length_c   17.81103349
_cell_angle_alpha   90.00000000
_cell_angle_beta   90.00000000
_cell_angle_gamma   90.00000000
_symmetry_Int_Tables_number   1
_chemical_formula_structural   CsHoSiS4
_chemical_formula_sum   'Cs4 Ho4 Si4 S16'
_cell_volume   763.29902437
_cell_formula_units_Z   4
loop_
 _symmetry_equiv_pos_site_id
 _symmetry_equiv_pos_as_xyz
  1  'x, y, z'
loop_
 _atom_site_type_symbol
 _atom_site_label
 _atom_site_symmetry_multiplicity
 _atom_site_fract_x
 _atom_site_fract_y
 _atom_site_fract_z
 _atom_site_occupancy
  Cs  Cs0  1  0.50326946  0.49187689  0.96824721  1
  Cs  Cs1  1  0.99673054  0.50812311  0.46824721  1
  Cs  Cs2  1  0.00326946  0.00812311  0.03175279  1
  Cs  Cs3  1  0.49673054  0.99187689  0.53175279  1
  Ho  Ho4  1  0.29187713  0.48059598  0.22821223  1
  Ho  Ho5  1  0.20812287  0.51940402  0.72821223  1
  Ho  Ho6  1  0.79187713  0.01940402  0.77178777  1
  Ho  Ho7  1  0.70812287  0.98059598  0.27178777  1
  Si  Si8  1  0.78996963  0.51777088  0.16749215  1
  Si  Si9  1  0.71003037  0.48222912  0.66749215  1
  Si  Si10  1  0.28996963  0.98222912  0.83250785  1
  Si  Si11  1  0.21003037  0.01777088  0.33250785  1
  S  S12  1  0.05547559  0.51282259  0.09616454  1
  S  S13  1  0.44452441  0.48717741  0.59616454  1
  S  S14  1  0.55547559  0.98717741  0.90383546  1
  S  S15  1  0.94452441  0.01282259  0.40383546  1
  S  S16  1  0.60749252  0.42666257  0.77965983  1
  S  S17  1  0.89250748  0.57333743  0.27965983  1
  S  S18  1  0.10749252  0.07333743  0.22034017  1
  S  S19  1  0.39250748  0.92666257  0.72034017  1
  S  S20  1  0.56742525  0.75057195  0.14719716  1
  S  S21  1  0.93257475  0.24942805  0.64719716  1
  S  S22  1  0.06742525  0.74942805  0.85280284  1
  S  S23  1  0.43257475  0.25057195  0.35280284  1
  S  S24  1  0.60220952  0.25390207  0.15604060  1
  S  S25  1  0.89779048  0.74609793  0.65604060  1
  S  S26  1  0.10220952  0.24609793  0.84395940  1
  S  S27  1  0.39779048  0.75390207  0.34395940  1
