# generated using pymatgen
data_Li3Ti2CuO6
_symmetry_space_group_name_H-M   'P 1'
_cell_length_a   15.70789987
_cell_length_b   10.00827126
_cell_length_c   10.00827113
_cell_angle_alpha   16.95443895
_cell_angle_beta   16.62543031
_cell_angle_gamma   16.62543533
_symmetry_Int_Tables_number   1
_chemical_formula_structural   Li3Ti2CuO6
_chemical_formula_sum   'Li3 Ti2 Cu1 O6'
_cell_volume   113.75102167
_cell_formula_units_Z   1
loop_
 _symmetry_equiv_pos_site_id
 _symmetry_equiv_pos_as_xyz
  1  'x, y, z'
loop_
 _atom_site_type_symbol
 _atom_site_label
 _atom_site_symmetry_multiplicity
 _atom_site_fract_x
 _atom_site_fract_y
 _atom_site_fract_z
 _atom_site_occupancy
  Li  Li0  1  0.16666700  0.50000000  0.50000000  1
  Li  Li1  1  0.50836195  0.49503309  0.49503309  1
  Li  Li2  1  0.82497105  0.50496691  0.50496691  1
  Ti  Ti3  1  0.03520680  0.97611965  0.97611965  1
  Ti  Ti4  1  0.29812620  0.02388035  0.02388035  1
  Cu  Cu5  1  0.66666700  0.00000000  0.00000000  1
  O  O6  1  0.19635529  0.29261059  0.29261059  1
  O  O7  1  0.56807677  0.27018011  0.27018011  1
  O  O8  1  0.13697771  0.70738941  0.70738941  1
  O  O9  1  0.95835840  0.22002263  0.22002263  1
  O  O10  1  0.37497460  0.77997737  0.77997737  1
  O  O11  1  0.76525723  0.72981989  0.72981989  1
