# generated using pymatgen
data_Nb4CoSe8
_symmetry_space_group_name_H-M   'P 1'
_cell_length_a   6.99536495
_cell_length_b   6.99536495
_cell_length_c   12.41657199
_cell_angle_alpha   90.00000000
_cell_angle_beta   90.00000000
_cell_angle_gamma   120.02133497
_symmetry_Int_Tables_number   1
_chemical_formula_structural   Nb4CoSe8
_chemical_formula_sum   'Nb8 Co2 Se16'
_cell_volume   526.08956674
_cell_formula_units_Z   2
loop_
 _symmetry_equiv_pos_site_id
 _symmetry_equiv_pos_as_xyz
  1  'x, y, z'
loop_
 _atom_site_type_symbol
 _atom_site_label
 _atom_site_symmetry_multiplicity
 _atom_site_fract_x
 _atom_site_fract_y
 _atom_site_fract_z
 _atom_site_occupancy
  Nb  Nb0  1  -0.00004114  0.00004114  0.75000000  1
  Nb  Nb1  1  0.00004114  -0.00004114  0.25000000  1
  Nb  Nb2  1  0.49197609  0.50802391  0.75000000  1
  Nb  Nb3  1  0.01586327  0.50800842  0.75000000  1
  Nb  Nb4  1  0.49199158  0.98413673  0.75000000  1
  Nb  Nb5  1  0.50802391  0.49197609  0.25000000  1
  Nb  Nb6  1  0.98413673  0.49199158  0.25000000  1
  Nb  Nb7  1  0.50800842  0.01586327  0.25000000  1
  Co  Co8  1  -0.00000000  -0.00000000  0.50000000  1
  Co  Co9  1  -0.00000000  -0.00000000  0.00000000  1
  Se  Se10  1  0.66670326  0.33329674  0.11090555  1
  Se  Se11  1  0.33329674  0.66670326  0.88909445  1
  Se  Se12  1  0.33329674  0.66670326  0.61090555  1
  Se  Se13  1  0.66670326  0.33329674  0.38909445  1
  Se  Se14  1  0.83358317  0.66726972  0.61750688  1
  Se  Se15  1  0.83354104  0.16645896  0.61756295  1
  Se  Se16  1  0.33273028  0.16641683  0.61750688  1
  Se  Se17  1  0.16641683  0.33273028  0.38249312  1
  Se  Se18  1  0.16645896  0.83354104  0.38243705  1
  Se  Se19  1  0.66726972  0.83358317  0.38249312  1
  Se  Se20  1  0.16641683  0.33273028  0.11750688  1
  Se  Se21  1  0.16645896  0.83354104  0.11756295  1
  Se  Se22  1  0.66726972  0.83358317  0.11750688  1
  Se  Se23  1  0.83358317  0.66726972  0.88249312  1
  Se  Se24  1  0.83354104  0.16645896  0.88243705  1
  Se  Se25  1  0.33273028  0.16641683  0.88249312  1
