# generated using pymatgen
data_BeCr2O4
_symmetry_space_group_name_H-M   'P 1'
_cell_length_a   4.60125536
_cell_length_b   5.78574961
_cell_length_c   9.96950918
_cell_angle_alpha   90.00000000
_cell_angle_beta   90.00000000
_cell_angle_gamma   90.00000000
_symmetry_Int_Tables_number   1
_chemical_formula_structural   BeCr2O4
_chemical_formula_sum   'Be4 Cr8 O16'
_cell_volume   265.40539624
_cell_formula_units_Z   4
loop_
 _symmetry_equiv_pos_site_id
 _symmetry_equiv_pos_as_xyz
  1  'x, y, z'
loop_
 _atom_site_type_symbol
 _atom_site_label
 _atom_site_symmetry_multiplicity
 _atom_site_fract_x
 _atom_site_fract_y
 _atom_site_fract_z
 _atom_site_occupancy
  Be  Be0  1  0.92925657  0.75000000  0.40708976  1
  Be  Be1  1  0.57074343  0.75000000  0.90708976  1
  Be  Be2  1  0.07074343  0.25000000  0.59291024  1
  Be  Be3  1  0.42925657  0.25000000  0.09291024  1
  Cr  Cr4  1  0.50000000  0.00000000  0.50000000  1
  Cr  Cr5  1  -0.00000000  0.50000000  0.00000000  1
  Cr  Cr6  1  0.50000000  0.50000000  0.50000000  1
  Cr  Cr7  1  -0.00000000  0.00000000  0.00000000  1
  Cr  Cr8  1  0.49640131  0.75000000  0.23052507  1
  Cr  Cr9  1  0.00359869  0.75000000  0.73052507  1
  Cr  Cr10  1  0.50359869  0.25000000  0.76947493  1
  Cr  Cr11  1  0.99640131  0.25000000  0.26947493  1
  O  O12  1  0.27437107  0.75000000  0.40733844  1
  O  O13  1  0.22562893  0.75000000  0.90733844  1
  O  O14  1  0.72562893  0.25000000  0.59266156  1
  O  O15  1  0.77437107  0.25000000  0.09266156  1
  O  O16  1  0.72814469  0.75000000  0.05906916  1
  O  O17  1  0.77185531  0.75000000  0.55906916  1
  O  O18  1  0.27185531  0.25000000  0.94093084  1
  O  O19  1  0.22814469  0.25000000  0.44093084  1
  O  O20  1  0.76012431  0.97485985  0.33709921  1
  O  O21  1  0.73987569  0.52514015  0.83709921  1
  O  O22  1  0.23987569  0.47485985  0.66290079  1
  O  O23  1  0.26012431  0.02514015  0.16290079  1
  O  O24  1  0.23987569  0.02514015  0.66290079  1
  O  O25  1  0.26012431  0.47485985  0.16290079  1
  O  O26  1  0.76012431  0.52514015  0.33709921  1
  O  O27  1  0.73987569  0.97485985  0.83709921  1
