# generated using pymatgen
data_Ta4Fe4Si7
_symmetry_space_group_name_H-M   'P 1'
_cell_length_a   5.00680019
_cell_length_b   9.22762947
_cell_length_c   9.22762947
_cell_angle_alpha   85.77919055
_cell_angle_beta   74.25872074
_cell_angle_gamma   74.25872074
_symmetry_Int_Tables_number   1
_chemical_formula_structural   Ta4Fe4Si7
_chemical_formula_sum   'Ta8 Fe8 Si14'
_cell_volume   394.94708134
_cell_formula_units_Z   2
loop_
 _symmetry_equiv_pos_site_id
 _symmetry_equiv_pos_as_xyz
  1  'x, y, z'
loop_
 _atom_site_type_symbol
 _atom_site_label
 _atom_site_symmetry_multiplicity
 _atom_site_fract_x
 _atom_site_fract_y
 _atom_site_fract_z
 _atom_site_occupancy
  Ta  Ta0  1  0.13526200  0.00000000  0.72947600  1
  Ta  Ta1  1  0.86473800  -0.00000000  0.27052400  1
  Ta  Ta2  1  0.86473800  0.27052400  0.00000000  1
  Ta  Ta3  1  0.13526200  0.72947600  -0.00000000  1
  Ta  Ta4  1  0.50000000  0.19227021  0.80772979  1
  Ta  Ta5  1  0.50000000  0.80772979  0.19227021  1
  Ta  Ta6  1  0.30772979  0.19227021  0.19227021  1
  Ta  Ta7  1  0.69227021  0.80772979  0.80772979  1
  Fe  Fe8  1  0.39994225  0.50000000  0.20011549  1
  Fe  Fe9  1  0.10005775  0.50000000  0.79988451  1
  Fe  Fe10  1  0.10005775  0.79988451  0.50000000  1
  Fe  Fe11  1  0.39994225  0.20011549  0.50000000  1
  Fe  Fe12  1  0.60005775  0.79988451  0.50000000  1
  Fe  Fe13  1  0.89994225  0.20011549  0.50000000  1
  Fe  Fe14  1  0.89994225  0.50000000  0.20011549  1
  Fe  Fe15  1  0.60005775  0.50000000  0.79988451  1
  Si  Si16  1  0.29098206  0.00000000  0.41803588  1
  Si  Si17  1  0.70901794  -0.00000000  0.58196412  1
  Si  Si18  1  0.70901794  0.58196412  0.00000000  1
  Si  Si19  1  0.29098206  0.41803588  -0.00000000  1
  Si  Si20  1  -0.00000000  0.29776216  0.70223784  1
  Si  Si21  1  0.00000000  0.70223784  0.29776216  1
  Si  Si22  1  0.70223784  0.29776216  0.29776216  1
  Si  Si23  1  0.29776216  0.70223784  0.70223784  1
  Si  Si24  1  0.50000000  0.40609257  0.59390743  1
  Si  Si25  1  0.50000000  0.59390743  0.40609257  1
  Si  Si26  1  0.09390743  0.40609257  0.40609257  1
  Si  Si27  1  0.90609257  0.59390743  0.59390743  1
  Si  Si28  1  0.75072731  -0.00000000  -0.00000000  1
  Si  Si29  1  0.24927269  -0.00000000  -0.00000000  1
