# generated using pymatgen
data_Er6Al7Cu16
_symmetry_space_group_name_H-M   'P 1'
_cell_length_a   8.64775761
_cell_length_b   8.64775761
_cell_length_c   8.64775761
_cell_angle_alpha   60.00000000
_cell_angle_beta   60.00000000
_cell_angle_gamma   60.00000000
_symmetry_Int_Tables_number   1
_chemical_formula_structural   Er6Al7Cu16
_chemical_formula_sum   'Er6 Al7 Cu16'
_cell_volume   457.29402518
_cell_formula_units_Z   1
loop_
 _symmetry_equiv_pos_site_id
 _symmetry_equiv_pos_as_xyz
  1  'x, y, z'
loop_
 _atom_site_type_symbol
 _atom_site_label
 _atom_site_symmetry_multiplicity
 _atom_site_fract_x
 _atom_site_fract_y
 _atom_site_fract_z
 _atom_site_occupancy
  Er  Er0  1  0.71263957  0.28736043  0.28736043  1
  Er  Er1  1  0.71263957  0.28736043  0.71263957  1
  Er  Er2  1  0.71263957  0.71263957  0.28736043  1
  Er  Er3  1  0.28736043  0.71263957  0.71263957  1
  Er  Er4  1  0.28736043  0.71263957  0.28736043  1
  Er  Er5  1  0.28736043  0.28736043  0.71263957  1
  Al  Al6  1  -0.00000000  -0.00000000  0.00000000  1
  Al  Al7  1  0.50000000  -0.00000000  0.00000000  1
  Al  Al8  1  0.50000000  -0.00000000  0.50000000  1
  Al  Al9  1  0.50000000  0.50000000  0.00000000  1
  Al  Al10  1  -0.00000000  0.50000000  0.50000000  1
  Al  Al11  1  -0.00000000  0.50000000  0.00000000  1
  Al  Al12  1  -0.00000000  -0.00000000  0.50000000  1
  Cu  Cu13  1  0.63355096  0.12214968  0.12214968  1
  Cu  Cu14  1  0.12214968  0.63355096  0.12214968  1
  Cu  Cu15  1  0.12214968  0.12214968  0.63355096  1
  Cu  Cu16  1  0.12214968  0.12214968  0.12214968  1
  Cu  Cu17  1  0.36644904  0.87785032  0.87785032  1
  Cu  Cu18  1  0.87785032  0.36644904  0.87785032  1
  Cu  Cu19  1  0.87785032  0.87785032  0.36644904  1
  Cu  Cu20  1  0.87785032  0.87785032  0.87785032  1
  Cu  Cu21  1  0.01788785  0.32737072  0.32737072  1
  Cu  Cu22  1  0.32737072  0.01788785  0.32737072  1
  Cu  Cu23  1  0.32737072  0.32737072  0.01788785  1
  Cu  Cu24  1  0.32737072  0.32737072  0.32737072  1
  Cu  Cu25  1  0.98211215  0.67262928  0.67262928  1
  Cu  Cu26  1  0.67262928  0.98211215  0.67262928  1
  Cu  Cu27  1  0.67262928  0.67262928  0.98211215  1
  Cu  Cu28  1  0.67262928  0.67262928  0.67262928  1
