# generated using pymatgen
data_Cs3Er2I9
_symmetry_space_group_name_H-M   'P 1'
_cell_length_a   8.71421276
_cell_length_b   8.71364078
_cell_length_c   21.70686768
_cell_angle_alpha   90.00000000
_cell_angle_beta   90.00000000
_cell_angle_gamma   120.00067160
_symmetry_Int_Tables_number   1
_chemical_formula_structural   Cs3Er2I9
_chemical_formula_sum   'Cs6 Er4 I18'
_cell_volume   1427.42290957
_cell_formula_units_Z   2
loop_
 _symmetry_equiv_pos_site_id
 _symmetry_equiv_pos_as_xyz
  1  'x, y, z'
loop_
 _atom_site_type_symbol
 _atom_site_label
 _atom_site_symmetry_multiplicity
 _atom_site_fract_x
 _atom_site_fract_y
 _atom_site_fract_z
 _atom_site_occupancy
  Cs  Cs0  1  0.66666509  0.33333537  0.56955816  1
  Cs  Cs1  1  0.33333491  0.66666463  0.43044184  1
  Cs  Cs2  1  0.33333491  0.66666463  0.06955816  1
  Cs  Cs3  1  0.66666509  0.33333537  0.93044184  1
  Cs  Cs4  1  0.00002597  0.00004227  0.75000000  1
  Cs  Cs5  1  0.99997403  0.99995773  0.25000000  1
  Er  Er6  1  0.33333438  0.66666772  0.65643670  1
  Er  Er7  1  0.66666562  0.33333228  0.34356330  1
  Er  Er8  1  0.66666562  0.33333228  0.15643670  1
  Er  Er9  1  0.33333438  0.66666772  0.84356330  1
  I  I10  1  0.16771349  0.83228519  0.58714986  1
  I  I11  1  0.66457118  0.83227769  0.58715116  1
  I  I12  1  0.16771442  0.33541833  0.58715148  1
  I  I13  1  0.83228651  0.16771481  0.41285014  1
  I  I14  1  0.33542882  0.16772231  0.41284884  1
  I  I15  1  0.83228558  0.66458167  0.41284852  1
  I  I16  1  0.83228651  0.16771481  0.08714986  1
  I  I17  1  0.33542882  0.16772231  0.08715116  1
  I  I18  1  0.83228558  0.66458167  0.08715148  1
  I  I19  1  0.16771349  0.83228519  0.91285014  1
  I  I20  1  0.66457118  0.83227769  0.91284884  1
  I  I21  1  0.16771442  0.33541833  0.91284852  1
  I  I22  1  0.49132275  0.50867780  0.75000000  1
  I  I23  1  0.01735213  0.50867707  0.75000000  1
  I  I24  1  0.49132622  0.98265500  0.75000000  1
  I  I25  1  0.50867725  0.49132220  0.25000000  1
  I  I26  1  0.98264787  0.49132293  0.25000000  1
  I  I27  1  0.50867378  0.01734500  0.25000000  1
