# generated using pymatgen
data_Hf9Re4Se
_symmetry_space_group_name_H-M   'P 1'
_cell_length_a   8.61600371
_cell_length_b   8.66263649
_cell_length_c   8.66263649
_cell_angle_alpha   120.05148785
_cell_angle_beta   90.00000000
_cell_angle_gamma   90.00000000
_symmetry_Int_Tables_number   1
_chemical_formula_structural   Hf9Re4Se
_chemical_formula_sum   'Hf18 Re8 Se2'
_cell_volume   559.64307365
_cell_formula_units_Z   2
loop_
 _symmetry_equiv_pos_site_id
 _symmetry_equiv_pos_as_xyz
  1  'x, y, z'
loop_
 _atom_site_type_symbol
 _atom_site_label
 _atom_site_symmetry_multiplicity
 _atom_site_fract_x
 _atom_site_fract_y
 _atom_site_fract_z
 _atom_site_occupancy
  Hf  Hf0  1  0.54851094  0.80835527  0.61657802  1
  Hf  Hf1  1  0.54845276  0.80815205  0.19184795  1
  Hf  Hf2  1  0.54851094  0.38342198  0.19164473  1
  Hf  Hf3  1  0.45148906  0.19164473  0.38342198  1
  Hf  Hf4  1  0.45154724  0.19184795  0.80815205  1
  Hf  Hf5  1  0.45148906  0.61657802  0.80835527  1
  Hf  Hf6  1  0.04851094  0.19164473  0.38342198  1
  Hf  Hf7  1  0.04845276  0.19184795  0.80815205  1
  Hf  Hf8  1  0.04851094  0.61657802  0.80835527  1
  Hf  Hf9  1  0.95148906  0.80835527  0.61657802  1
  Hf  Hf10  1  0.95154724  0.80815205  0.19184795  1
  Hf  Hf11  1  0.95148906  0.38342198  0.19164473  1
  Hf  Hf12  1  0.75000000  0.45589467  0.91167847  1
  Hf  Hf13  1  0.75000000  0.45590733  0.54409267  1
  Hf  Hf14  1  0.75000000  0.08832153  0.54410533  1
  Hf  Hf15  1  0.25000000  0.54410533  0.08832153  1
  Hf  Hf16  1  0.25000000  0.54409267  0.45590733  1
  Hf  Hf17  1  0.25000000  0.91167847  0.45589467  1
  Re  Re18  1  0.75000000  0.11010278  0.22052686  1
  Re  Re19  1  0.75000000  0.11027219  0.88972781  1
  Re  Re20  1  0.75000000  0.77947314  0.88989722  1
  Re  Re21  1  0.25000000  0.88989722  0.77947314  1
  Re  Re22  1  0.25000000  0.88972781  0.11027219  1
  Re  Re23  1  0.25000000  0.22052686  0.11010278  1
  Re  Re24  1  0.50000000  0.00000000  0.00000000  1
  Re  Re25  1  0.00000000  0.00000000  0.00000000  1
  Se  Se26  1  0.75000000  0.66650149  0.33349851  1
  Se  Se27  1  0.25000000  0.33349851  0.66650149  1
