# generated using pymatgen
data_Rb4Al2S5
_symmetry_space_group_name_H-M   'P 1'
_cell_length_a   9.71997960
_cell_length_b   11.64918048
_cell_length_c   11.68829510
_cell_angle_alpha   90.00000000
_cell_angle_beta   90.00000000
_cell_angle_gamma   90.00000000
_symmetry_Int_Tables_number   1
_chemical_formula_structural   Rb4Al2S5
_chemical_formula_sum   'Rb16 Al8 S20'
_cell_volume   1323.46327703
_cell_formula_units_Z   4
loop_
 _symmetry_equiv_pos_site_id
 _symmetry_equiv_pos_as_xyz
  1  'x, y, z'
loop_
 _atom_site_type_symbol
 _atom_site_label
 _atom_site_symmetry_multiplicity
 _atom_site_fract_x
 _atom_site_fract_y
 _atom_site_fract_z
 _atom_site_occupancy
  Rb  Rb0  1  0.23531476  0.51898972  0.89110699  1
  Rb  Rb1  1  0.73531476  0.48101028  0.10889301  1
  Rb  Rb2  1  0.73531476  0.98101028  0.39110699  1
  Rb  Rb3  1  0.23531476  0.01898972  0.60889301  1
  Rb  Rb4  1  0.71388967  0.55315127  0.42331504  1
  Rb  Rb5  1  0.21388967  0.44684873  0.57668496  1
  Rb  Rb6  1  0.21388967  0.94684873  0.92331504  1
  Rb  Rb7  1  0.71388967  0.05315127  0.07668496  1
  Rb  Rb8  1  0.36619552  0.75404378  0.42609232  1
  Rb  Rb9  1  0.86619552  0.24595622  0.57390768  1
  Rb  Rb10  1  0.86619552  0.74595622  0.92609232  1
  Rb  Rb11  1  0.36619552  0.25404378  0.07390768  1
  Rb  Rb12  1  0.47468456  0.75620504  0.11116423  1
  Rb  Rb13  1  0.97468456  0.24379496  0.88883577  1
  Rb  Rb14  1  0.97468456  0.74379496  0.61116423  1
  Rb  Rb15  1  0.47468456  0.25620504  0.38883577  1
  Al  Al16  1  0.18077765  0.54041251  0.21996415  1
  Al  Al17  1  0.68077765  0.45958749  0.78003585  1
  Al  Al18  1  0.68077765  0.95958749  0.71996415  1
  Al  Al19  1  0.18077765  0.04041251  0.28003585  1
  Al  Al20  1  0.00077961  0.74976354  0.26313213  1
  Al  Al21  1  0.50077961  0.25023646  0.73686787  1
  Al  Al22  1  0.50077961  0.75023646  0.76313213  1
  Al  Al23  1  0.00077961  0.24976354  0.23686787  1
  S  S24  1  0.40325691  0.50840790  0.25439840  1
  S  S25  1  0.90325691  0.49159210  0.74560160  1
  S  S26  1  0.90325691  0.99159210  0.75439840  1
  S  S27  1  0.40325691  0.00840790  0.24560160  1
  S  S28  1  0.04976549  0.59038225  0.37472265  1
  S  S29  1  0.54976549  0.40961775  0.62527735  1
  S  S30  1  0.54976549  0.90961775  0.87472265  1
  S  S31  1  0.04976549  0.09038225  0.12527735  1
  S  S32  1  0.14249869  0.70681879  0.11241233  1
  S  S33  1  0.64249869  0.29318121  0.88758767  1
  S  S34  1  0.64249869  0.79318121  0.61241233  1
  S  S35  1  0.14249869  0.20681879  0.38758767  1
  S  S36  1  0.28012678  0.73723089  0.71407490  1
  S  S37  1  0.78012678  0.26276911  0.28592510  1
  S  S38  1  0.78012678  0.76276911  0.21407490  1
  S  S39  1  0.28012678  0.23723089  0.78592510  1
  S  S40  1  0.07229034  0.89767963  0.37979665  1
  S  S41  1  0.57229034  0.10232037  0.62020335  1
  S  S42  1  0.57229034  0.60232037  0.87979665  1
  S  S43  1  0.07229034  0.39767963  0.12020335  1
