# generated using pymatgen
data_LaCu13
_symmetry_space_group_name_H-M   'P 1'
_cell_length_a   8.18624399
_cell_length_b   8.18624399
_cell_length_c   8.18624399
_cell_angle_alpha   60.00000000
_cell_angle_beta   60.00000000
_cell_angle_gamma   60.00000000
_symmetry_Int_Tables_number   1
_chemical_formula_structural   LaCu13
_chemical_formula_sum   'La2 Cu26'
_cell_volume   387.91721795
_cell_formula_units_Z   2
loop_
 _symmetry_equiv_pos_site_id
 _symmetry_equiv_pos_as_xyz
  1  'x, y, z'
loop_
 _atom_site_type_symbol
 _atom_site_label
 _atom_site_symmetry_multiplicity
 _atom_site_fract_x
 _atom_site_fract_y
 _atom_site_fract_z
 _atom_site_occupancy
  La  La0  1  0.75000000  0.75000000  0.75000000  1
  La  La1  1  0.25000000  0.25000000  0.25000000  1
  Cu  Cu2  1  0.50000000  0.50000000  0.50000000  1
  Cu  Cu3  1  0.00000000  0.00000000  0.00000000  1
  Cu  Cu4  1  0.79705171  0.43737320  0.20294829  1
  Cu  Cu5  1  0.20294829  0.56262680  0.79705171  1
  Cu  Cu6  1  0.56262680  0.20294829  0.43737320  1
  Cu  Cu7  1  0.43737320  0.79705171  0.56262680  1
  Cu  Cu8  1  0.29705171  0.06262680  0.70294829  1
  Cu  Cu9  1  0.70294829  0.93737320  0.29705171  1
  Cu  Cu10  1  0.93737320  0.70294829  0.06262680  1
  Cu  Cu11  1  0.06262680  0.29705171  0.93737320  1
  Cu  Cu12  1  0.43737320  0.20294829  0.79705171  1
  Cu  Cu13  1  0.56262680  0.79705171  0.20294829  1
  Cu  Cu14  1  0.20294829  0.43737320  0.56262680  1
  Cu  Cu15  1  0.79705171  0.56262680  0.43737320  1
  Cu  Cu16  1  0.06262680  0.70294829  0.29705171  1
  Cu  Cu17  1  0.93737320  0.29705171  0.70294829  1
  Cu  Cu18  1  0.70294829  0.06262680  0.93737320  1
  Cu  Cu19  1  0.29705171  0.93737320  0.06262680  1
  Cu  Cu20  1  0.20294829  0.79705171  0.43737320  1
  Cu  Cu21  1  0.79705171  0.20294829  0.56262680  1
  Cu  Cu22  1  0.43737320  0.56262680  0.20294829  1
  Cu  Cu23  1  0.56262680  0.43737320  0.79705171  1
  Cu  Cu24  1  0.70294829  0.29705171  0.06262680  1
  Cu  Cu25  1  0.29705171  0.70294829  0.93737320  1
  Cu  Cu26  1  0.06262680  0.93737320  0.70294829  1
  Cu  Cu27  1  0.93737320  0.06262680  0.29705171  1
