# generated using pymatgen
data_Li5SbS
_symmetry_space_group_name_H-M   'P 1'
_cell_length_a   8.39263423
_cell_length_b   8.14613282
_cell_length_c   16.47263539
_cell_angle_alpha   90.00000000
_cell_angle_beta   94.81045617
_cell_angle_gamma   90.00000000
_symmetry_Int_Tables_number   1
_chemical_formula_structural   Li5SbS
_chemical_formula_sum   'Li40 Sb8 S8'
_cell_volume   1122.22618262
_cell_formula_units_Z   8
loop_
 _symmetry_equiv_pos_site_id
 _symmetry_equiv_pos_as_xyz
  1  'x, y, z'
loop_
 _atom_site_type_symbol
 _atom_site_label
 _atom_site_symmetry_multiplicity
 _atom_site_fract_x
 _atom_site_fract_y
 _atom_site_fract_z
 _atom_site_occupancy
  Li  Li0  1  0.00099725  0.51255022  0.60837248  1
  Li  Li1  1  0.00636104  0.18813706  0.69906878  1
  Li  Li2  1  0.01405720  0.17468795  0.53281414  1
  Li  Li3  1  0.00099725  0.98744978  0.10837248  1
  Li  Li4  1  0.00636104  0.31186294  0.19906878  1
  Li  Li5  1  0.01405720  0.32531205  0.03281414  1
  Li  Li6  1  0.29712176  0.50229038  0.91221470  1
  Li  Li7  1  0.27591848  0.87817962  0.74424412  1
  Li  Li8  1  0.26107329  0.43023010  0.74847713  1
  Li  Li9  1  0.30813656  0.17041834  0.86517787  1
  Li  Li10  1  0.28447472  0.78792756  0.57740370  1
  Li  Li11  1  0.29712176  0.99770962  0.41221470  1
  Li  Li12  1  0.38166073  0.43211944  0.54233976  1
  Li  Li13  1  0.44913236  0.16990285  0.65272142  1
  Li  Li14  1  0.27591848  0.62182038  0.24424412  1
  Li  Li15  1  0.26107329  0.06976990  0.24847713  1
  Li  Li16  1  0.30813656  0.32958166  0.36517787  1
  Li  Li17  1  0.28447472  0.71207244  0.07740370  1
  Li  Li18  1  0.38166073  0.06788056  0.04233976  1
  Li  Li19  1  0.44913236  0.33009715  0.15272142  1
  Li  Li20  1  0.55086764  0.66990285  0.84727858  1
  Li  Li21  1  0.61833927  0.93211944  0.95766024  1
  Li  Li22  1  0.71552528  0.28792756  0.92259630  1
  Li  Li23  1  0.69186344  0.67041834  0.63482213  1
  Li  Li24  1  0.73892671  0.93023010  0.75152287  1
  Li  Li25  1  0.72408152  0.37817962  0.75575588  1
  Li  Li26  1  0.55086764  0.83009715  0.34727858  1
  Li  Li27  1  0.61833927  0.56788056  0.45766024  1
  Li  Li28  1  0.70287824  0.00229038  0.58778530  1
  Li  Li29  1  0.71552528  0.21207244  0.42259630  1
  Li  Li30  1  0.69186344  0.82958166  0.13482213  1
  Li  Li31  1  0.73892671  0.56976990  0.25152287  1
  Li  Li32  1  0.72408152  0.12182038  0.25575588  1
  Li  Li33  1  0.70287824  0.49770962  0.08778530  1
  Li  Li34  1  0.98594280  0.67468795  0.96718586  1
  Li  Li35  1  0.99363896  0.68813706  0.80093122  1
  Li  Li36  1  0.99900275  0.01255022  0.89162752  1
  Li  Li37  1  0.98594280  0.82531205  0.46718586  1
  Li  Li38  1  0.99363896  0.81186294  0.30093122  1
  Li  Li39  1  0.99900275  0.48744978  0.39162752  1
  Sb  Sb40  1  0.98834256  0.84984439  0.64282037  1
  Sb  Sb41  1  0.98834256  0.65015561  0.14282037  1
  Sb  Sb42  1  0.29245643  0.83967811  0.91692168  1
  Sb  Sb43  1  0.29245643  0.66032189  0.41692168  1
  Sb  Sb44  1  0.70754357  0.33967811  0.58307832  1
  Sb  Sb45  1  0.70754357  0.16032189  0.08307832  1
  Sb  Sb46  1  0.01165744  0.34984439  0.85717963  1
  Sb  Sb47  1  0.01165744  0.15015561  0.35717963  1
  S  S48  1  0.20560142  0.31109300  0.62266999  1
  S  S49  1  0.20560142  0.18890700  0.12266999  1
  S  S50  1  0.49717379  0.37755882  0.83365895  1
  S  S51  1  0.50282621  0.87755882  0.66634105  1
  S  S52  1  0.49717379  0.12244118  0.33365895  1
  S  S53  1  0.50282621  0.62244118  0.16634105  1
  S  S54  1  0.79439858  0.81109300  0.87733001  1
  S  S55  1  0.79439858  0.68890700  0.37733001  1
