# generated using pymatgen
data_Tb3ZnAu5
_symmetry_space_group_name_H-M   'P 1'
_cell_length_a   7.53465072
_cell_length_b   8.48003991
_cell_length_c   13.37064368
_cell_angle_alpha   90.00000000
_cell_angle_beta   90.00000000
_cell_angle_gamma   116.37587754
_symmetry_Int_Tables_number   1
_chemical_formula_structural   Tb3ZnAu5
_chemical_formula_sum   'Tb12 Zn4 Au20'
_cell_volume   765.37157626
_cell_formula_units_Z   4
loop_
 _symmetry_equiv_pos_site_id
 _symmetry_equiv_pos_as_xyz
  1  'x, y, z'
loop_
 _atom_site_type_symbol
 _atom_site_label
 _atom_site_symmetry_multiplicity
 _atom_site_fract_x
 _atom_site_fract_y
 _atom_site_fract_z
 _atom_site_occupancy
  Tb  Tb0  1  0.07120386  0.14240771  0.25000000  1
  Tb  Tb1  1  0.92879614  0.85759229  0.75000000  1
  Tb  Tb2  1  0.67983451  0.35966903  0.25000000  1
  Tb  Tb3  1  0.32016549  0.64033097  0.75000000  1
  Tb  Tb4  1  0.36988245  0.73976490  0.46230971  1
  Tb  Tb5  1  0.63011755  0.26023510  0.53769029  1
  Tb  Tb6  1  0.36988245  0.73976490  0.03769029  1
  Tb  Tb7  1  0.63011755  0.26023510  0.96230971  1
  Tb  Tb8  1  0.11765865  0.23531729  0.95047216  1
  Tb  Tb9  1  0.88234135  0.76468271  0.04952784  1
  Tb  Tb10  1  0.11765865  0.23531729  0.54952784  1
  Tb  Tb11  1  0.88234135  0.76468271  0.45047216  1
  Zn  Zn12  1  0.27941796  0.55883593  0.25000000  1
  Zn  Zn13  1  0.72058204  0.44116407  0.75000000  1
  Zn  Zn14  1  0.46716536  0.93433072  0.25000000  1
  Zn  Zn15  1  0.53283464  0.06566928  0.75000000  1
  Au  Au16  1  0.06506412  0.74611169  0.25000000  1
  Au  Au17  1  0.31895243  0.25388831  0.75000000  1
  Au  Au18  1  0.93493588  0.25388831  0.75000000  1
  Au  Au19  1  0.68104757  0.74611169  0.25000000  1
  Au  Au20  1  0.00184730  0.43364949  0.39688240  1
  Au  Au21  1  0.56819781  0.56635051  0.60311760  1
  Au  Au22  1  0.00184730  0.43364949  0.10311760  1
  Au  Au23  1  0.56819781  0.56635051  0.89688240  1
  Au  Au24  1  0.99815270  0.56635051  0.60311760  1
  Au  Au25  1  0.43180219  0.43364949  0.39688240  1
  Au  Au26  1  0.99815270  0.56635051  0.89688240  1
  Au  Au27  1  0.43180219  0.43364949  0.10311760  1
  Au  Au28  1  0.74340557  0.05564361  0.39482664  1
  Au  Au29  1  0.68776196  0.94435639  0.60517336  1
  Au  Au30  1  0.74340557  0.05564361  0.10517336  1
  Au  Au31  1  0.68776196  0.94435639  0.89482664  1
  Au  Au32  1  0.25659443  0.94435639  0.60517336  1
  Au  Au33  1  0.31223804  0.05564361  0.39482664  1
  Au  Au34  1  0.25659443  0.94435639  0.89482664  1
  Au  Au35  1  0.31223804  0.05564361  0.10517336  1
