# generated using pymatgen
data_BaPr(SnS3)2
_symmetry_space_group_name_H-M   'P 1'
_cell_length_a   4.06082405
_cell_length_b   12.09677842
_cell_length_c   20.27762111
_cell_angle_alpha   90.00000000
_cell_angle_beta   90.00000000
_cell_angle_gamma   90.00000000
_symmetry_Int_Tables_number   1
_chemical_formula_structural   BaPr(SnS3)2
_chemical_formula_sum   'Ba4 Pr4 Sn8 S24'
_cell_volume   996.09532561
_cell_formula_units_Z   4
loop_
 _symmetry_equiv_pos_site_id
 _symmetry_equiv_pos_as_xyz
  1  'x, y, z'
loop_
 _atom_site_type_symbol
 _atom_site_label
 _atom_site_symmetry_multiplicity
 _atom_site_fract_x
 _atom_site_fract_y
 _atom_site_fract_z
 _atom_site_occupancy
  Ba  Ba0  1  0.50000000  0.68219286  0.07893105  1
  Ba  Ba1  1  0.50000000  0.18219286  0.92106895  1
  Ba  Ba2  1  0.50000000  0.24683854  0.36187227  1
  Ba  Ba3  1  0.50000000  0.74683854  0.63812773  1
  Pr  Pr4  1  0.50000000  0.31573005  0.12050126  1
  Pr  Pr5  1  0.50000000  0.81573005  0.87949874  1
  Pr  Pr6  1  0.50000000  0.12749956  0.58152677  1
  Pr  Pr7  1  0.50000000  0.62749956  0.41847323  1
  Sn  Sn8  1  0.50000000  0.89607787  0.25535575  1
  Sn  Sn9  1  0.50000000  0.39607787  0.74464425  1
  Sn  Sn10  1  0.00000000  0.00612083  0.09336585  1
  Sn  Sn11  1  0.00000000  0.50612083  0.90663415  1
  Sn  Sn12  1  -0.00000000  0.49876007  0.24859838  1
  Sn  Sn13  1  0.00000000  0.99876007  0.75140162  1
  Sn  Sn14  1  -0.00000000  0.45354730  0.57564263  1
  Sn  Sn15  1  -0.00000000  0.95354730  0.42435737  1
  S  S16  1  0.50000000  0.94021013  0.01687253  1
  S  S17  1  0.50000000  0.44021013  0.98312747  1
  S  S18  1  0.50000000  0.07826412  0.16743326  1
  S  S19  1  0.50000000  0.57826412  0.83256674  1
  S  S20  1  0.50000000  0.40277284  0.50809242  1
  S  S21  1  0.50000000  0.90277284  0.49190758  1
  S  S22  1  0.50000000  0.12074240  0.74152992  1
  S  S23  1  0.50000000  0.62074240  0.25847008  1
  S  S24  1  0.00000000  0.20215883  0.04291760  1
  S  S25  1  -0.00000000  0.70215883  0.95708240  1
  S  S26  1  0.00000000  0.49428551  0.12167447  1
  S  S27  1  0.00000000  0.99428551  0.87832553  1
  S  S28  1  0.00000000  0.83111987  0.16223616  1
  S  S29  1  0.00000000  0.33111987  0.83776384  1
  S  S30  1  0.00000000  0.29588536  0.23148353  1
  S  S31  1  0.00000000  0.79588536  0.76851647  1
  S  S32  1  -0.00000000  0.04856143  0.31765764  1
  S  S33  1  0.00000000  0.54856143  0.68234236  1
  S  S34  1  -0.00000000  0.46449324  0.37229662  1
  S  S35  1  0.00000000  0.96449324  0.62770338  1
  S  S36  1  -0.00000000  0.14845716  0.47694411  1
  S  S37  1  -0.00000000  0.64845716  0.52305589  1
  S  S38  1  0.00000000  0.27148203  0.63826174  1
  S  S39  1  0.00000000  0.77148203  0.36173826  1
