# generated using pymatgen
data_GaHSeO4
_symmetry_space_group_name_H-M   'P 1'
_cell_length_a   4.54657296
_cell_length_b   6.16234735
_cell_length_c   12.01819973
_cell_angle_alpha   90.00000000
_cell_angle_beta   90.00000000
_cell_angle_gamma   90.00000000
_symmetry_Int_Tables_number   1
_chemical_formula_structural   GaHSeO4
_chemical_formula_sum   'Ga4 H4 Se4 O16'
_cell_volume   336.72065404
_cell_formula_units_Z   4
loop_
 _symmetry_equiv_pos_site_id
 _symmetry_equiv_pos_as_xyz
  1  'x, y, z'
loop_
 _atom_site_type_symbol
 _atom_site_label
 _atom_site_symmetry_multiplicity
 _atom_site_fract_x
 _atom_site_fract_y
 _atom_site_fract_z
 _atom_site_occupancy
  Ga  Ga0  1  0.00000000  0.50000000  0.00000000  1
  Ga  Ga1  1  0.50000000  0.00000000  0.50000000  1
  Ga  Ga2  1  0.00000000  -0.00000000  0.00000000  1
  Ga  Ga3  1  0.50000000  0.50000000  0.50000000  1
  H  H4  1  0.38955675  0.75000000  0.08484155  1
  H  H5  1  0.11044325  0.75000000  0.58484155  1
  H  H6  1  0.61044325  0.25000000  0.91515845  1
  H  H7  1  0.88955675  0.25000000  0.41515845  1
  Se  Se8  1  0.47909580  0.75000000  0.83102614  1
  Se  Se9  1  0.02090420  0.75000000  0.33102614  1
  Se  Se10  1  0.52090420  0.25000000  0.16897386  1
  Se  Se11  1  0.97909580  0.25000000  0.66897386  1
  O  O12  1  0.74360800  0.75000000  0.94414451  1
  O  O13  1  0.75639200  0.75000000  0.44414451  1
  O  O14  1  0.25639200  0.25000000  0.05585549  1
  O  O15  1  0.24360800  0.25000000  0.55585549  1
  O  O16  1  0.17415084  0.75000000  0.08021262  1
  O  O17  1  0.32584916  0.75000000  0.58021262  1
  O  O18  1  0.82584916  0.25000000  0.91978738  1
  O  O19  1  0.67415084  0.25000000  0.41978738  1
  O  O20  1  0.27505280  0.52813093  0.86859439  1
  O  O21  1  0.22494720  0.97186907  0.36859439  1
  O  O22  1  0.72494720  0.02813093  0.13140561  1
  O  O23  1  0.77505280  0.47186907  0.63140561  1
  O  O24  1  0.72494720  0.47186907  0.13140561  1
  O  O25  1  0.77505280  0.02813093  0.63140561  1
  O  O26  1  0.27505280  0.97186907  0.86859439  1
  O  O27  1  0.22494720  0.52813093  0.36859439  1
