# generated using pymatgen
data_AgI3O8
_symmetry_space_group_name_H-M   'P 1'
_cell_length_a   8.25337236
_cell_length_b   8.25337236
_cell_length_c   13.41058169
_cell_angle_alpha   107.92180183
_cell_angle_beta   107.92180183
_cell_angle_gamma   90.00000000
_symmetry_Int_Tables_number   1
_chemical_formula_structural   AgI3O8
_chemical_formula_sum   'Ag4 I12 O32'
_cell_volume   822.46746533
_cell_formula_units_Z   4
loop_
 _symmetry_equiv_pos_site_id
 _symmetry_equiv_pos_as_xyz
  1  'x, y, z'
loop_
 _atom_site_type_symbol
 _atom_site_label
 _atom_site_symmetry_multiplicity
 _atom_site_fract_x
 _atom_site_fract_y
 _atom_site_fract_z
 _atom_site_occupancy
  Ag  Ag0  1  0.11615757  0.61615757  0.23231514  1
  Ag  Ag1  1  0.38384243  0.88384243  0.76768486  1
  Ag  Ag2  1  0.63029719  0.63029719  0.26059438  1
  Ag  Ag3  1  0.36970281  0.36970281  0.73940562  1
  I  I4  1  0.46885635  0.49906291  0.43859230  1
  I  I5  1  0.96973595  0.93952939  0.43859230  1
  I  I6  1  0.50093709  0.03026405  0.56140770  1
  I  I7  1  0.06047061  0.53114365  0.56140770  1
  I  I8  1  0.15767712  0.15767712  0.31535425  1
  I  I9  1  0.84232288  0.84232288  0.68464575  1
  I  I10  1  0.80048488  0.28106887  0.05739996  1
  I  I11  1  0.25691508  0.77633109  0.05739996  1
  I  I12  1  0.71893113  0.74308492  0.94260004  1
  I  I13  1  0.22366891  0.19951512  0.94260004  1
  I  I14  1  0.59428902  0.09428902  0.18857804  1
  I  I15  1  0.90571098  0.40571098  0.81142196  1
  O  O16  1  0.60090323  0.41741941  0.35059191  1
  O  O17  1  0.74968868  0.93317250  0.35059191  1
  O  O18  1  0.58258059  0.25031132  0.64940809  1
  O  O19  1  0.06682750  0.39909677  0.64940809  1
  O  O20  1  0.43718775  0.70359061  0.41489773  1
  O  O21  1  0.97770998  0.71130712  0.41489773  1
  O  O22  1  0.29640939  0.02229002  0.58510227  1
  O  O23  1  0.28869288  0.56281225  0.58510227  1
  O  O24  1  0.24610746  0.40051674  0.32406990  1
  O  O25  1  0.07796243  0.92355316  0.32406990  1
  O  O26  1  0.59948326  0.92203757  0.67593010  1
  O  O27  1  0.07644684  0.75389254  0.67593010  1
  O  O28  1  0.03912452  0.25356310  0.41153591  1
  O  O29  1  0.37241139  0.15797281  0.41153591  1
  O  O30  1  0.74643690  0.62758861  0.58846409  1
  O  O31  1  0.84202719  0.96087548  0.58846409  1
  O  O32  1  0.80394370  0.50296729  0.14152400  1
  O  O33  1  0.33758031  0.63855671  0.14152400  1
  O  O34  1  0.49703271  0.66241969  0.85847600  1
  O  O35  1  0.36144329  0.19605630  0.85847600  1
  O  O36  1  0.02864565  0.27723032  0.08015247  1
  O  O37  1  0.05150682  0.80292216  0.08015247  1
  O  O38  1  0.72276968  0.94849318  0.91984753  1
  O  O39  1  0.19707784  0.97135435  0.91984753  1
  O  O40  1  0.82176795  0.18092814  0.17695535  1
  O  O41  1  0.35518740  0.99602721  0.17695535  1
  O  O42  1  0.81907186  0.64481260  0.82304465  1
  O  O43  1  0.00397279  0.17823205  0.82304465  1
  O  O44  1  0.60271063  0.87943474  0.09475315  1
  O  O45  1  0.49204252  0.21531841  0.09475315  1
  O  O46  1  0.12056526  0.50795748  0.90524685  1
  O  O47  1  0.78468159  0.39728937  0.90524685  1
