# generated using pymatgen
data_YTl2P2S7
_symmetry_space_group_name_H-M   'P 1'
_cell_length_a   6.74152914
_cell_length_b   12.03001222
_cell_length_c   16.73873763
_cell_angle_alpha   80.44650039
_cell_angle_beta   78.38261871
_cell_angle_gamma   73.72808085
_symmetry_Int_Tables_number   1
_chemical_formula_structural   YTl2P2S7
_chemical_formula_sum   'Y4 Tl8 P8 S28'
_cell_volume   1267.75637785
_cell_formula_units_Z   4
loop_
 _symmetry_equiv_pos_site_id
 _symmetry_equiv_pos_as_xyz
  1  'x, y, z'
loop_
 _atom_site_type_symbol
 _atom_site_label
 _atom_site_symmetry_multiplicity
 _atom_site_fract_x
 _atom_site_fract_y
 _atom_site_fract_z
 _atom_site_occupancy
  Y  Y0  1  0.88433602  0.57996652  0.73864042  1
  Y  Y1  1  0.20294296  0.92003348  0.76135958  1
  Y  Y2  1  0.11566398  0.42003348  0.26135958  1
  Y  Y3  1  0.79705704  0.07996652  0.23864042  1
  Tl  Tl4  1  0.82718568  0.83794992  0.52621437  1
  Tl  Tl5  1  0.19134997  0.66205008  0.97378563  1
  Tl  Tl6  1  0.17281432  0.16205008  0.47378563  1
  Tl  Tl7  1  0.80865003  0.33794992  0.02621437  1
  Tl  Tl8  1  0.53930094  0.35684738  0.61983667  1
  Tl  Tl9  1  0.51598498  0.14315262  0.88016333  1
  Tl  Tl10  1  0.46069906  0.64315262  0.38016333  1
  Tl  Tl11  1  0.48401502  0.85684738  0.11983667  1
  P  P12  1  0.67143143  0.80686109  0.85982020  1
  P  P13  1  0.33811272  0.69313891  0.64017980  1
  P  P14  1  0.32856857  0.19313891  0.14017980  1
  P  P15  1  0.66188728  0.30686109  0.35982020  1
  P  P16  1  0.97658289  0.29118326  0.80891060  1
  P  P17  1  0.07667676  0.20881674  0.69108940  1
  P  P18  1  0.02341711  0.70881674  0.19108940  1
  P  P19  1  0.92332324  0.79118326  0.30891060  1
  S  S20  1  0.86554779  0.89223372  0.89016889  1
  S  S21  1  0.64795040  0.60776628  0.60983111  1
  S  S22  1  0.13445221  0.10776628  0.10983111  1
  S  S23  1  0.35204960  0.39223372  0.39016889  1
  S  S24  1  0.17691639  0.39272002  0.80550941  1
  S  S25  1  0.37514582  0.10727998  0.69449059  1
  S  S26  1  0.82308361  0.60727998  0.19449059  1
  S  S27  1  0.62485418  0.89272002  0.30550941  1
  S  S28  1  0.16588872  0.61375783  0.59005619  1
  S  S29  1  0.36970274  0.88624217  0.90994381  1
  S  S30  1  0.83411128  0.38624217  0.40994381  1
  S  S31  1  0.63029726  0.11375783  0.09005619  1
  S  S32  1  0.88830504  0.10076259  0.69530911  1
  S  S33  1  0.68437674  0.39923741  0.80469089  1
  S  S34  1  0.11169496  0.89923741  0.30469089  1
  S  S35  1  0.31562326  0.60076259  0.19530911  1
  S  S36  1  0.75251839  0.63352964  0.90083888  1
  S  S37  1  0.28688691  0.86647036  0.59916112  1
  S  S38  1  0.24748161  0.36647036  0.09916112  1
  S  S39  1  0.71311309  0.13352964  0.40083888  1
  S  S40  1  0.22356415  0.67912475  0.76519077  1
  S  S41  1  0.66787966  0.82087525  0.73480923  1
  S  S42  1  0.77643585  0.32087525  0.23480923  1
  S  S43  1  0.33212034  0.17912475  0.26519077  1
  S  S44  1  0.99551225  0.15675795  0.89804648  1
  S  S45  1  0.05031669  0.34324205  0.60195352  1
  S  S46  1  0.00448775  0.84324205  0.10195352  1
  S  S47  1  0.94968331  0.65675795  0.39804648  1
