# generated using pymatgen
data_Th3TlF13
_symmetry_space_group_name_H-M   'P 1'
_cell_length_a   7.53805146
_cell_length_b   8.28206764
_cell_length_c   8.73659435
_cell_angle_alpha   90.00000000
_cell_angle_beta   90.00000000
_cell_angle_gamma   90.00000000
_symmetry_Int_Tables_number   1
_chemical_formula_structural   Th3TlF13
_chemical_formula_sum   'Th6 Tl2 F26'
_cell_volume   545.43128210
_cell_formula_units_Z   2
loop_
 _symmetry_equiv_pos_site_id
 _symmetry_equiv_pos_as_xyz
  1  'x, y, z'
loop_
 _atom_site_type_symbol
 _atom_site_label
 _atom_site_symmetry_multiplicity
 _atom_site_fract_x
 _atom_site_fract_y
 _atom_site_fract_z
 _atom_site_occupancy
  Th  Th0  1  0.89253987  0.50000000  0.08559491  1
  Th  Th1  1  0.10746013  0.50000000  0.58559491  1
  Th  Th2  1  0.60193912  0.24825478  0.75007861  1
  Th  Th3  1  0.60193912  0.75174522  0.75007861  1
  Th  Th4  1  0.39806088  0.75174522  0.25007861  1
  Th  Th5  1  0.39806088  0.24825478  0.25007861  1
  Tl  Tl6  1  0.89805189  0.00000000  0.38902062  1
  Tl  Tl7  1  0.10194811  0.00000000  0.88902062  1
  F  F8  1  0.76762874  0.00000000  0.71875547  1
  F  F9  1  0.23237126  0.00000000  0.21875547  1
  F  F10  1  0.45370646  0.19910247  0.98860205  1
  F  F11  1  0.45370646  0.80089753  0.98860205  1
  F  F12  1  0.54629354  0.80089753  0.48860205  1
  F  F13  1  0.54629354  0.19910247  0.48860205  1
  F  F14  1  0.64147669  0.50000000  0.90440954  1
  F  F15  1  0.35852331  0.50000000  0.40440954  1
  F  F16  1  0.03233932  0.50000000  0.84929897  1
  F  F17  1  0.96766068  0.50000000  0.34929897  1
  F  F18  1  0.59368377  0.50000000  0.62853841  1
  F  F19  1  0.40631623  0.50000000  0.12853841  1
  F  F20  1  0.30562086  0.32853046  0.72002714  1
  F  F21  1  0.30562086  0.67146954  0.72002714  1
  F  F22  1  0.69437914  0.67146954  0.22002714  1
  F  F23  1  0.69437914  0.32853046  0.22002714  1
  F  F24  1  0.82396160  0.24689787  0.94253468  1
  F  F25  1  0.82396160  0.75310213  0.94253468  1
  F  F26  1  0.17603840  0.75310213  0.44253468  1
  F  F27  1  0.17603840  0.24689787  0.44253468  1
  F  F28  1  0.43892793  0.00000000  0.73954506  1
  F  F29  1  0.56107207  0.00000000  0.23954506  1
  F  F30  1  0.11801296  0.69271904  0.12986604  1
  F  F31  1  0.11801296  0.30728096  0.12986604  1
  F  F32  1  0.88198704  0.30728096  0.62986604  1
  F  F33  1  0.88198704  0.69271904  0.62986604  1
