# generated using pymatgen
data_Cs2ZnSn3Se8
_symmetry_space_group_name_H-M   'P 1'
_cell_length_a   8.03013071
_cell_length_b   13.65623748
_cell_length_c   18.79705338
_cell_angle_alpha   90.00000000
_cell_angle_beta   90.00000000
_cell_angle_gamma   90.00000000
_symmetry_Int_Tables_number   1
_chemical_formula_structural   Cs2ZnSn3Se8
_chemical_formula_sum   'Cs8 Zn4 Sn12 Se32'
_cell_volume   2061.31066267
_cell_formula_units_Z   4
loop_
 _symmetry_equiv_pos_site_id
 _symmetry_equiv_pos_as_xyz
  1  'x, y, z'
loop_
 _atom_site_type_symbol
 _atom_site_label
 _atom_site_symmetry_multiplicity
 _atom_site_fract_x
 _atom_site_fract_y
 _atom_site_fract_z
 _atom_site_occupancy
  Cs  Cs0  1  0.74891548  0.63119341  0.05279878  1
  Cs  Cs1  1  0.75108452  0.36880659  0.55279878  1
  Cs  Cs2  1  0.24891548  0.86880659  0.94720122  1
  Cs  Cs3  1  0.25108452  0.13119341  0.44720122  1
  Cs  Cs4  1  0.22896814  0.81149739  0.34175436  1
  Cs  Cs5  1  0.27103186  0.18850261  0.84175436  1
  Cs  Cs6  1  0.72896814  0.68850261  0.65824564  1
  Cs  Cs7  1  0.77103186  0.31149739  0.15824564  1
  Zn  Zn8  1  0.99050418  0.50068435  0.34729657  1
  Zn  Zn9  1  0.50949582  0.49931565  0.84729657  1
  Zn  Zn10  1  0.49050418  0.99931565  0.65270343  1
  Zn  Zn11  1  0.00949582  0.00068435  0.15270343  1
  Sn  Sn12  1  0.76129977  0.04716153  0.31913390  1
  Sn  Sn13  1  0.73870023  0.95283847  0.81913390  1
  Sn  Sn14  1  0.26129977  0.45283847  0.68086610  1
  Sn  Sn15  1  0.23870023  0.54716153  0.18086610  1
  Sn  Sn16  1  0.72851456  0.93625307  0.48505292  1
  Sn  Sn17  1  0.77148544  0.06374693  0.98505292  1
  Sn  Sn18  1  0.22851456  0.56374693  0.51494708  1
  Sn  Sn19  1  0.27148544  0.43625307  0.01494708  1
  Sn  Sn20  1  0.50597545  0.98760737  0.15086138  1
  Sn  Sn21  1  0.99402455  0.01239263  0.65086138  1
  Sn  Sn22  1  0.00597545  0.51239263  0.84913862  1
  Sn  Sn23  1  0.49402455  0.48760737  0.34913862  1
  Se  Se24  1  0.50571802  0.61305268  0.45490271  1
  Se  Se25  1  -0.00571802  0.38694732  0.95490271  1
  Se  Se26  1  0.00571802  0.88694732  0.54509729  1
  Se  Se27  1  0.49428198  0.11305268  0.04509729  1
  Se  Se28  1  0.96867077  0.61538022  0.45088202  1
  Se  Se29  1  0.53132923  0.38461978  0.95088202  1
  Se  Se30  1  0.46867077  0.88461978  0.54911798  1
  Se  Se31  1  0.03132923  0.11538022  0.04911798  1
  Se  Se32  1  0.76936638  0.88454881  0.15514836  1
  Se  Se33  1  0.73063362  0.11545119  0.65514836  1
  Se  Se34  1  0.26936638  0.61545119  0.84485164  1
  Se  Se35  1  0.23063362  0.38454881  0.34485164  1
  Se  Se36  1  0.74877351  0.61889600  0.85193079  1
  Se  Se37  1  0.75122649  0.38110400  0.35193079  1
  Se  Se38  1  0.24877351  0.88110400  0.14806921  1
  Se  Se39  1  0.25122649  0.11889600  0.64806921  1
  Se  Se40  1  0.50712724  0.60873262  0.24114031  1
  Se  Se41  1  -0.00712724  0.39126738  0.74114031  1
  Se  Se42  1  0.00712724  0.89126738  0.75885969  1
  Se  Se43  1  0.49287276  0.10873262  0.25885969  1
  Se  Se44  1  0.97196621  0.60374695  0.23681863  1
  Se  Se45  1  0.52803379  0.39625305  0.73681863  1
  Se  Se46  1  0.47196621  0.89625305  0.76318137  1
  Se  Se47  1  0.02803379  0.10374695  0.26318137  1
  Se  Se48  1  0.74119265  0.11956532  0.44786452  1
  Se  Se49  1  0.75880735  0.88043468  0.94786452  1
  Se  Se50  1  0.24119265  0.38043468  0.55213548  1
  Se  Se51  1  0.25880735  0.61956532  0.05213548  1
  Se  Se52  1  0.74131664  0.86493066  0.35700921  1
  Se  Se53  1  0.75868336  0.13506934  0.85700921  1
  Se  Se54  1  0.24131664  0.63506934  0.64299079  1
  Se  Se55  1  0.25868336  0.36493066  0.14299079  1
