# generated using pymatgen
data_Na3U6TiF30
_symmetry_space_group_name_H-M   'P 1'
_cell_length_a   9.96314266
_cell_length_b   9.96548099
_cell_length_c   13.10444646
_cell_angle_alpha   90.00000000
_cell_angle_beta   89.97863322
_cell_angle_gamma   120.00776218
_symmetry_Int_Tables_number   1
_chemical_formula_structural   Na3U6TiF30
_chemical_formula_sum   'Na6 U12 Ti2 F60'
_cell_volume   1126.70419698
_cell_formula_units_Z   2
loop_
 _symmetry_equiv_pos_site_id
 _symmetry_equiv_pos_as_xyz
  1  'x, y, z'
loop_
 _atom_site_type_symbol
 _atom_site_label
 _atom_site_symmetry_multiplicity
 _atom_site_fract_x
 _atom_site_fract_y
 _atom_site_fract_z
 _atom_site_occupancy
  Na  Na0  1  0.33340969  0.66671228  0.83798026  1
  Na  Na1  1  0.33340969  0.66669741  0.33798026  1
  Na  Na2  1  0.66659031  0.33328772  0.16201974  1
  Na  Na3  1  0.66659031  0.33330259  0.66201974  1
  Na  Na4  1  0.00000000  -0.00000000  -0.00000000  1
  Na  Na5  1  0.00000000  -0.00000000  0.50000000  1
  U  U6  1  0.92470455  0.59706585  0.89896173  1
  U  U7  1  0.40288751  0.32759128  0.89896060  1
  U  U8  1  0.67235480  0.07523580  0.89891204  1
  U  U9  1  0.92470455  0.32763870  0.39896173  1
  U  U10  1  0.67235480  0.59711900  0.39891204  1
  U  U11  1  0.40288751  0.07529623  0.39896060  1
  U  U12  1  0.07529545  0.40293415  0.10103827  1
  U  U13  1  0.59711249  0.67240872  0.10103940  1
  U  U14  1  0.32764520  0.92476420  0.10108796  1
  U  U15  1  0.07529545  0.67236130  0.60103827  1
  U  U16  1  0.32764520  0.40288100  0.60108796  1
  U  U17  1  0.59711249  0.92470377  0.60103940  1
  Ti  Ti18  1  1.00000000  0.00001229  0.75000000  1
  Ti  Ti19  1  0.00000000  -0.00001229  0.25000000  1
  F  F20  1  0.13111960  0.69587209  0.78377186  1
  F  F21  1  0.30412698  0.43522998  0.78377091  1
  F  F22  1  0.56480726  0.86893141  0.78379634  1
  F  F23  1  0.13111960  0.43524751  0.28377186  1
  F  F24  1  0.56480726  0.69587585  0.28379634  1
  F  F25  1  0.30412698  0.86889699  0.28377091  1
  F  F26  1  0.86888040  0.30412791  0.21622814  1
  F  F27  1  0.69587302  0.56477002  0.21622909  1
  F  F28  1  0.43519274  0.13106859  0.21620366  1
  F  F29  1  0.86888040  0.56475249  0.71622814  1
  F  F30  1  0.43519274  0.30412415  0.71620366  1
  F  F31  1  0.69587302  0.13110301  0.71622909  1
  F  F32  1  0.11620438  0.80905507  0.98140646  1
  F  F33  1  0.19095094  0.30711310  0.98138819  1
  F  F34  1  0.69285273  0.88380650  0.98141292  1
  F  F35  1  0.11620438  0.30714931  0.48140646  1
  F  F36  1  0.69285273  0.80904623  0.48141292  1
  F  F37  1  0.19095094  0.88383784  0.48138819  1
  F  F38  1  0.88379562  0.19094493  0.01859354  1
  F  F39  1  0.80904906  0.69288690  0.01861181  1
  F  F40  1  0.30714727  0.11619350  0.01858708  1
  F  F41  1  0.88379562  0.69285069  0.51859354  1
  F  F42  1  0.30714727  0.19095377  0.51858708  1
  F  F43  1  0.80904906  0.11616216  0.51861181  1
  F  F44  1  0.88010335  0.46687999  0.05163144  1
  F  F45  1  0.53312768  0.41322969  0.05163459  1
  F  F46  1  0.58671091  0.11983461  0.05161627  1
  F  F47  1  0.88010335  0.41322336  0.55163144  1
  F  F48  1  0.58671091  0.46687630  0.55161627  1
  F  F49  1  0.53312768  0.11989800  0.55163459  1
  F  F50  1  0.11989665  0.53312001  0.94836856  1
  F  F51  1  0.46687232  0.58677031  0.94836541  1
  F  F52  1  0.41328909  0.88016539  0.94838373  1
  F  F53  1  0.11989665  0.58677664  0.44836856  1
  F  F54  1  0.41328909  0.53312370  0.44838373  1
  F  F55  1  0.46687232  0.88010200  0.44836541  1
  F  F56  1  0.91976991  0.82021546  0.83655133  1
  F  F57  1  0.17971713  0.09952409  0.83649250  1
  F  F58  1  0.90039736  0.08019584  0.83652771  1
  F  F59  1  0.91976991  0.09955445  0.33655133  1
  F  F60  1  0.90039736  0.82020152  0.33652771  1
  F  F61  1  0.17971713  0.08019304  0.33649250  1
  F  F62  1  0.08023009  0.17978454  0.16344867  1
  F  F63  1  0.82028287  0.90047591  0.16350750  1
  F  F64  1  0.09960264  0.91980416  0.16347229  1
  F  F65  1  0.08023009  0.90044555  0.66344867  1
  F  F66  1  0.09960264  0.17979848  0.66347229  1
  F  F67  1  0.82028287  0.91980696  0.66350750  1
  F  F68  1  0.65985361  0.48872214  0.86309870  1
  F  F69  1  0.51128364  0.17113911  0.86310567  1
  F  F70  1  0.82885774  0.34011451  0.86311758  1
  F  F71  1  0.65985361  0.17113147  0.36309870  1
  F  F72  1  0.82885774  0.48874323  0.36311758  1
  F  F73  1  0.51128364  0.34014453  0.36310567  1
  F  F74  1  0.34014639  0.51127786  0.13690130  1
  F  F75  1  0.48871636  0.82886089  0.13689433  1
  F  F76  1  0.17114226  0.65988549  0.13688242  1
  F  F77  1  0.34014639  0.82886853  0.63690130  1
  F  F78  1  0.17114226  0.51125677  0.63688242  1
  F  F79  1  0.48871636  0.65985547  0.63689433  1
