# generated using pymatgen
data_Ta4PbO11
_symmetry_space_group_name_H-M   'P 1'
_cell_length_a   6.30140025
_cell_length_b   6.30140026
_cell_length_c   12.97231227
_cell_angle_alpha   75.94348510
_cell_angle_beta   75.94348511
_cell_angle_gamma   59.99999532
_symmetry_Int_Tables_number   1
_chemical_formula_structural   Ta4PbO11
_chemical_formula_sum   'Ta8 Pb2 O22'
_cell_volume   428.18715105
_cell_formula_units_Z   2
loop_
 _symmetry_equiv_pos_site_id
 _symmetry_equiv_pos_as_xyz
  1  'x, y, z'
loop_
 _atom_site_type_symbol
 _atom_site_label
 _atom_site_symmetry_multiplicity
 _atom_site_fract_x
 _atom_site_fract_y
 _atom_site_fract_z
 _atom_site_occupancy
  Ta  Ta0  1  0.11797865  0.75016968  0.75077807  1
  Ta  Ta1  1  0.75016968  0.38107359  0.75077807  1
  Ta  Ta2  1  0.38107359  0.11797865  0.75077807  1
  Ta  Ta3  1  0.60604016  0.89267582  0.25166072  1
  Ta  Ta4  1  0.89267582  0.24962330  0.25166072  1
  Ta  Ta5  1  0.24962330  0.60604016  0.25166072  1
  Ta  Ta6  1  0.99979217  0.99979217  0.00062349  1
  Ta  Ta7  1  0.49903883  0.49903883  0.50288350  1
  Pb  Pb8  1  0.66792865  0.66792865  0.99621406  1
  Pb  Pb9  1  0.83098606  0.83098606  0.50704182  1
  O  O10  1  0.44509015  0.22456319  0.59419061  1
  O  O11  1  0.22456319  0.73615604  0.59419061  1
  O  O12  1  0.73615604  0.44509015  0.59419061  1
  O  O13  1  0.92187979  0.24617399  0.09585181  1
  O  O14  1  0.24617399  0.73609440  0.09585181  1
  O  O15  1  0.73609440  0.92187979  0.09585181  1
  O  O16  1  0.05416922  0.76494803  0.90686245  1
  O  O17  1  0.76494803  0.27402031  0.90686245  1
  O  O18  1  0.27402031  0.05416922  0.90686245  1
  O  O19  1  0.58378630  0.75888581  0.40592673  1
  O  O20  1  0.75888581  0.25140117  0.40592673  1
  O  O21  1  0.25140117  0.58378630  0.40592673  1
  O  O22  1  0.50052813  0.74979245  0.75039293  1
  O  O23  1  0.74979245  0.99928649  0.75039293  1
  O  O24  1  0.99928649  0.50052813  0.75039293  1
  O  O25  1  0.00583542  0.49228763  0.25267808  1
  O  O26  1  0.49228763  0.24919887  0.25267808  1
  O  O27  1  0.24919887  0.00583542  0.25267808  1
  O  O28  1  0.59385056  0.59385056  0.21844831  1
  O  O29  1  0.09353097  0.09353097  0.71940709  1
  O  O30  1  0.90638267  0.90638267  0.28085199  1
  O  O31  1  0.40653149  0.40653149  0.78040553  1
