# generated using pymatgen
data_Ca21(Zn2Sb9)2
_symmetry_space_group_name_H-M   'P 1'
_cell_length_a   12.11133582
_cell_length_b   12.11133582
_cell_length_c   17.16949345
_cell_angle_alpha   88.65119550
_cell_angle_beta   88.65119550
_cell_angle_gamma   87.43810048
_symmetry_Int_Tables_number   1
_chemical_formula_structural   Ca21(Zn2Sb9)2
_chemical_formula_sum   'Ca42 Zn8 Sb36'
_cell_volume   2514.64583043
_cell_formula_units_Z   2
loop_
 _symmetry_equiv_pos_site_id
 _symmetry_equiv_pos_as_xyz
  1  'x, y, z'
loop_
 _atom_site_type_symbol
 _atom_site_label
 _atom_site_symmetry_multiplicity
 _atom_site_fract_x
 _atom_site_fract_y
 _atom_site_fract_z
 _atom_site_occupancy
  Ca  Ca0  1  0.07214403  0.76010873  0.35111171  1
  Ca  Ca1  1  0.76010873  0.07214403  0.35111171  1
  Ca  Ca2  1  0.92785597  0.23989127  0.64888829  1
  Ca  Ca3  1  0.23989127  0.92785597  0.64888829  1
  Ca  Ca4  1  0.07691552  0.75185465  0.14588709  1
  Ca  Ca5  1  0.75185465  0.07691552  0.14588709  1
  Ca  Ca6  1  0.92308448  0.24814535  0.85411291  1
  Ca  Ca7  1  0.24814535  0.92308448  0.85411291  1
  Ca  Ca8  1  0.00845203  0.76865885  0.57702552  1
  Ca  Ca9  1  0.76865885  0.00845203  0.57702552  1
  Ca  Ca10  1  0.99154797  0.23134115  0.42297448  1
  Ca  Ca11  1  0.23134115  0.99154797  0.42297448  1
  Ca  Ca12  1  0.25503313  0.50897581  0.05699798  1
  Ca  Ca13  1  0.50897581  0.25503313  0.05699798  1
  Ca  Ca14  1  0.74496687  0.49102419  0.94300202  1
  Ca  Ca15  1  0.49102419  0.74496687  0.94300202  1
  Ca  Ca16  1  0.17988370  0.50456797  0.43568357  1
  Ca  Ca17  1  0.50456797  0.17988370  0.43568357  1
  Ca  Ca18  1  0.82011630  0.49543203  0.56431643  1
  Ca  Ca19  1  0.49543203  0.82011630  0.56431643  1
  Ca  Ca20  1  0.07406820  0.41848427  0.24306693  1
  Ca  Ca21  1  0.41848427  0.07406820  0.24306693  1
  Ca  Ca22  1  0.92593180  0.58151573  0.75693307  1
  Ca  Ca23  1  0.58151573  0.92593180  0.75693307  1
  Ca  Ca24  1  0.00382466  0.27037991  0.05791539  1
  Ca  Ca25  1  0.27037991  0.00382466  0.05791539  1
  Ca  Ca26  1  0.99617534  0.72962009  0.94208461  1
  Ca  Ca27  1  0.72962009  0.99617534  0.94208461  1
  Ca  Ca28  1  0.74171309  0.40271208  0.15685811  1
  Ca  Ca29  1  0.40271208  0.74171309  0.15685811  1
  Ca  Ca30  1  0.25828691  0.59728792  0.84314189  1
  Ca  Ca31  1  0.59728792  0.25828691  0.84314189  1
  Ca  Ca32  1  0.67816858  0.42935661  0.38218388  1
  Ca  Ca33  1  0.42935661  0.67816858  0.38218388  1
  Ca  Ca34  1  0.32183142  0.57064339  0.61781612  1
  Ca  Ca35  1  0.57064339  0.32183142  0.61781612  1
  Ca  Ca36  1  0.74694117  0.74694117  0.41832183  1
  Ca  Ca37  1  0.25305883  0.25305883  0.58167817  1
  Ca  Ca38  1  0.73568933  0.73568933  0.09424023  1
  Ca  Ca39  1  0.26431067  0.26431067  0.90575977  1
  Ca  Ca40  1  0.40816044  0.40816044  0.25416854  1
  Ca  Ca41  1  0.59183956  0.59183956  0.74583146  1
  Zn  Zn42  1  0.85538322  0.61478848  0.24773286  1
  Zn  Zn43  1  0.61478848  0.85538322  0.24773286  1
  Zn  Zn44  1  0.14461678  0.38521152  0.75226714  1
  Zn  Zn45  1  0.38521152  0.14461678  0.75226714  1
  Zn  Zn46  1  0.00067042  0.00067042  0.79740592  1
  Zn  Zn47  1  0.99932958  0.99932958  0.20259408  1
  Zn  Zn48  1  0.84563261  0.84563261  0.75702952  1
  Zn  Zn49  1  0.15436739  0.15436739  0.24297048  1
  Sb  Sb50  1  0.94969994  0.94969994  0.43486185  1
  Sb  Sb51  1  0.05030006  0.05030006  0.56513815  1
  Sb  Sb52  1  0.93823043  0.93823043  0.05746467  1
  Sb  Sb53  1  0.06176957  0.06176957  0.94253533  1
  Sb  Sb54  1  0.57579309  0.57579309  0.53619301  1
  Sb  Sb55  1  0.42420691  0.42420691  0.46380699  1
  Sb  Sb56  1  0.53678787  0.53678787  0.07686530  1
  Sb  Sb57  1  0.46321213  0.46321213  0.92313470  1
  Sb  Sb58  1  0.23898292  0.60324662  0.25613076  1
  Sb  Sb59  1  0.60324662  0.23898292  0.25613076  1
  Sb  Sb60  1  0.76101708  0.39675338  0.74386924  1
  Sb  Sb61  1  0.39675338  0.76101708  0.74386924  1
  Sb  Sb62  1  0.94066699  0.54564420  0.09879025  1
  Sb  Sb63  1  0.54564420  0.94066699  0.09879025  1
  Sb  Sb64  1  0.05933301  0.45435580  0.90120975  1
  Sb  Sb65  1  0.45435580  0.05933301  0.90120975  1
  Sb  Sb66  1  0.92675168  0.53479921  0.38956255  1
  Sb  Sb67  1  0.53479921  0.92675168  0.38956255  1
  Sb  Sb68  1  0.07324832  0.46520079  0.61043745  1
  Sb  Sb69  1  0.46520079  0.07324832  0.61043745  1
  Sb  Sb70  1  0.92834610  0.21153716  0.24040920  1
  Sb  Sb71  1  0.21153716  0.92834610  0.24040920  1
  Sb  Sb72  1  0.07165390  0.78846284  0.75959080  1
  Sb  Sb73  1  0.78846284  0.07165390  0.75959080  1
  Sb  Sb74  1  0.84644334  0.84644334  0.25306532  1
  Sb  Sb75  1  0.15355666  0.15355666  0.74693468  1
  Sb  Sb76  1  0.75180197  0.75180197  0.62729933  1
  Sb  Sb77  1  0.24819803  0.24819803  0.37270067  1
  Sb  Sb78  1  0.62087603  0.62087603  0.25885723  1
  Sb  Sb79  1  0.37912397  0.37912397  0.74114277  1
  Sb  Sb80  1  0.26007693  0.26007693  0.11622516  1
  Sb  Sb81  1  0.73992307  0.73992307  0.88377484  1
  Sb  Sb82  1  0.24507276  0.75492724  0.50000000  1
  Sb  Sb83  1  0.75492724  0.24507276  0.50000000  1
  Sb  Sb84  1  0.24440066  0.75559934  -0.00000000  1
  Sb  Sb85  1  0.75559934  0.24440066  -0.00000000  1
