# generated using pymatgen
data_Bi2TeIClO8
_symmetry_space_group_name_H-M   'P 1'
_cell_length_a   5.35590832
_cell_length_b   11.44377955
_cell_length_c   15.36947260
_cell_angle_alpha   104.23070885
_cell_angle_beta   90.00000000
_cell_angle_gamma   103.53324870
_symmetry_Int_Tables_number   1
_chemical_formula_structural   Bi2TeIClO8
_chemical_formula_sum   'Bi8 Te4 I4 Cl4 O32'
_cell_volume   886.10718091
_cell_formula_units_Z   4
loop_
 _symmetry_equiv_pos_site_id
 _symmetry_equiv_pos_as_xyz
  1  'x, y, z'
loop_
 _atom_site_type_symbol
 _atom_site_label
 _atom_site_symmetry_multiplicity
 _atom_site_fract_x
 _atom_site_fract_y
 _atom_site_fract_z
 _atom_site_occupancy
  Bi  Bi0  1  0.28968651  0.83980446  0.94090696  1
  Bi  Bi1  1  0.55011795  0.83980446  0.44090696  1
  Bi  Bi2  1  0.24648962  0.90968307  0.20551514  1
  Bi  Bi3  1  0.66319345  0.90968307  0.70551514  1
  Bi  Bi4  1  0.61696892  0.50533333  0.85503864  1
  Bi  Bi5  1  0.88836441  0.50533333  0.35503864  1
  Bi  Bi6  1  0.91425070  0.44251919  0.09596722  1
  Bi  Bi7  1  0.52826849  0.44251919  0.59596722  1
  Te  Te8  1  0.67628878  0.71853564  0.06013863  1
  Te  Te9  1  0.04224685  0.71853564  0.56013863  1
  Te  Te10  1  0.13569837  0.63597912  0.73353700  1
  Te  Te11  1  0.50028075  0.63597912  0.23353700  1
  I  I12  1  0.29258744  0.18719246  0.96487891  1
  I  I13  1  0.89460501  0.18719246  0.46487891  1
  I  I14  1  0.81422047  0.12667481  0.16473559  1
  I  I15  1  0.31245433  0.12667481  0.66473559  1
  Cl  Cl16  1  0.12547430  0.39449587  0.89794116  1
  Cl  Cl17  1  0.26902157  0.39449587  0.39794116  1
  Cl  Cl18  1  0.86868442  0.95873001  0.88828050  1
  Cl  Cl19  1  0.09004559  0.95873001  0.38828050  1
  O  O20  1  0.86033265  0.48856092  0.69838163  1
  O  O21  1  0.62822827  0.48856092  0.19838163  1
  O  O22  1  0.51292003  0.68354327  0.94068354  1
  O  O23  1  0.17062324  0.68354327  0.44068354  1
  O  O24  1  0.37738993  0.79492245  0.78141574  1
  O  O25  1  0.41753252  0.79492245  0.28141574  1
  O  O26  1  0.99779254  0.66383760  0.85112389  1
  O  O27  1  0.66604506  0.66383760  0.35112389  1
  O  O28  1  0.00501239  0.82417503  0.05045257  1
  O  O29  1  0.81916263  0.82417503  0.55045257  1
  O  O30  1  0.52827475  0.86302607  0.08932925  1
  O  O31  1  0.33475132  0.86302607  0.58932925  1
  O  O32  1  0.38870269  0.54528587  0.74474571  1
  O  O33  1  0.15658318  0.54528587  0.24474571  1
  O  O34  1  0.78293375  0.56656105  0.01375045  1
  O  O35  1  0.78362730  0.56656105  0.51375045  1
  O  O36  1  0.91921203  0.73289581  0.68376640  1
  O  O37  1  0.81368377  0.73289581  0.18376640  1
  O  O38  1  0.26030016  0.62427339  0.60984742  1
  O  O39  1  0.36397323  0.62427339  0.10984742  1
  O  O40  1  0.58708617  0.31265108  0.99354014  1
  O  O41  1  0.72556491  0.31265108  0.49354014  1
  O  O42  1  0.61084238  0.06871910  0.25175568  1
  O  O43  1  0.45787672  0.06871910  0.75175568  1
  O  O44  1  0.08651882  0.24000751  0.05432556  1
  O  O45  1  0.15348869  0.24000751  0.55432556  1
  O  O46  1  0.82906922  0.29295947  0.20837577  1
  O  O47  1  0.46389025  0.29295947  0.70837577  1
  O  O48  1  0.39989723  0.07211394  0.01106767  1
  O  O49  1  0.67221671  0.07211394  0.51106767  1
  O  O50  1  0.11415519  0.10627947  0.20766884  1
  O  O51  1  0.99212428  0.10627947  0.70766884  1
