# generated using pymatgen
data_CsNbV2O8
_symmetry_space_group_name_H-M   'P 1'
_cell_length_a   5.72331773
_cell_length_b   9.33434634
_cell_length_c   17.09207827
_cell_angle_alpha   105.79685279
_cell_angle_beta   90.00000000
_cell_angle_gamma   90.00000000
_symmetry_Int_Tables_number   1
_chemical_formula_structural   CsNbV2O8
_chemical_formula_sum   'Cs4 Nb4 V8 O32'
_cell_volume   878.63169102
_cell_formula_units_Z   4
loop_
 _symmetry_equiv_pos_site_id
 _symmetry_equiv_pos_as_xyz
  1  'x, y, z'
loop_
 _atom_site_type_symbol
 _atom_site_label
 _atom_site_symmetry_multiplicity
 _atom_site_fract_x
 _atom_site_fract_y
 _atom_site_fract_z
 _atom_site_occupancy
  Cs  Cs0  1  0.75000000  0.60100125  0.61004222  1
  Cs  Cs1  1  0.25000000  0.39899875  0.38995778  1
  Cs  Cs2  1  0.75000000  0.41894960  0.87871402  1
  Cs  Cs3  1  0.25000000  0.58105040  0.12128598  1
  Nb  Nb4  1  0.75000000  0.94166251  0.84860122  1
  Nb  Nb5  1  0.25000000  0.05833749  0.15139878  1
  Nb  Nb6  1  0.75000000  0.07563989  0.65338308  1
  Nb  Nb7  1  0.25000000  0.92436011  0.34661692  1
  V  V8  1  0.25000000  0.16547724  0.95991244  1
  V  V9  1  0.75000000  0.83452276  0.04008756  1
  V  V10  1  0.25000000  0.85009521  0.55368800  1
  V  V11  1  0.75000000  0.14990479  0.44631200  1
  V  V12  1  0.25000000  0.32272293  0.66157390  1
  V  V13  1  0.75000000  0.67727707  0.33842610  1
  V  V14  1  0.25000000  0.68813999  0.79452005  1
  V  V15  1  0.75000000  0.31186001  0.20547995  1
  O  O16  1  0.99582805  0.07359369  0.90997310  1
  O  O17  1  0.49582805  0.92640631  0.09002690  1
  O  O18  1  0.00417195  0.92640631  0.09002690  1
  O  O19  1  0.50417195  0.07359369  0.90997310  1
  O  O20  1  0.25000000  0.16979544  0.06273930  1
  O  O21  1  0.75000000  0.83020456  0.93726070  1
  O  O22  1  0.99394488  0.79213776  0.79067326  1
  O  O23  1  0.49394488  0.20786224  0.20932674  1
  O  O24  1  0.00605512  0.20786224  0.20932674  1
  O  O25  1  0.50605512  0.79213776  0.79067326  1
  O  O26  1  0.75000000  0.03871457  0.76033260  1
  O  O27  1  0.25000000  0.96128543  0.23966740  1
  O  O28  1  0.99391018  0.24212527  0.68892962  1
  O  O29  1  0.49391018  0.75787473  0.31107038  1
  O  O30  1  0.00608982  0.75787473  0.31107038  1
  O  O31  1  0.50608982  0.24212527  0.68892962  1
  O  O32  1  0.25000000  0.88236023  0.45819778  1
  O  O33  1  0.75000000  0.11763977  0.54180222  1
  O  O34  1  0.99826639  0.92873614  0.61184449  1
  O  O35  1  0.49826639  0.07126386  0.38815551  1
  O  O36  1  0.00173361  0.07126386  0.38815551  1
  O  O37  1  0.50173361  0.92873614  0.61184449  1
  O  O38  1  0.25000000  0.33841055  0.95178901  1
  O  O39  1  0.75000000  0.66158945  0.04821099  1
  O  O40  1  0.25000000  0.66910493  0.54536652  1
  O  O41  1  0.75000000  0.33089507  0.45463348  1
  O  O42  1  0.25000000  0.30121489  0.56295099  1
  O  O43  1  0.75000000  0.69878511  0.43704901  1
  O  O44  1  0.25000000  0.52364593  0.70848673  1
  O  O45  1  0.75000000  0.47635407  0.29151327  1
  O  O46  1  0.25000000  0.63304128  0.87779277  1
  O  O47  1  0.75000000  0.36695872  0.12220723  1
