# generated using pymatgen
data_Mn3Ni2Te3O16
_symmetry_space_group_name_H-M   'P 1'
_cell_length_a   6.14891065
_cell_length_b   6.04852668
_cell_length_c   9.13999827
_cell_angle_alpha   90.00023303
_cell_angle_beta   91.05824536
_cell_angle_gamma   119.75059515
_symmetry_Int_Tables_number   1
_chemical_formula_structural   Mn3Ni2Te3O16
_chemical_formula_sum   'Mn3 Ni2 Te3 O16'
_cell_volume   295.06126361
_cell_formula_units_Z   1
loop_
 _symmetry_equiv_pos_site_id
 _symmetry_equiv_pos_as_xyz
  1  'x, y, z'
loop_
 _atom_site_type_symbol
 _atom_site_label
 _atom_site_symmetry_multiplicity
 _atom_site_fract_x
 _atom_site_fract_y
 _atom_site_fract_z
 _atom_site_occupancy
  Mn  Mn0  1  0.66385854  0.83204788  0.21513834  1
  Mn  Mn1  1  0.82900275  0.66378741  0.71032928  1
  Mn  Mn2  1  0.82927044  0.16484004  0.71064448  1
  Ni  Ni3  1  0.34793713  0.67357299  0.50910573  1
  Ni  Ni4  1  0.68940060  0.34485097  0.97913108  1
  Te  Te5  1  0.16495126  0.83102041  0.21273649  1
  Te  Te6  1  0.16496924  0.33389079  0.21274109  1
  Te  Te7  1  0.33213340  0.16593434  0.71230911  1
  O  O8  1  0.16656536  0.84366839  0.60269704  1
  O  O9  1  0.03685160  0.51775071  0.33806964  1
  O  O10  1  0.29004087  0.64508979  0.08678793  1
  O  O11  1  0.03506424  0.01737644  0.33134550  1
  O  O12  1  0.01493239  0.00341014  0.82091263  1
  O  O13  1  0.17023296  0.32310088  0.60312931  1
  O  O14  1  0.46771389  0.95812927  0.32762112  1
  O  O15  1  0.46805523  0.51034531  0.32742598  1
  O  O16  1  0.31701374  0.15906304  0.09989284  1
  O  O17  1  0.68542384  0.84216900  0.60752726  1
  O  O18  1  0.51911701  0.47867980  0.83525170  1
  O  O19  1  0.51351030  0.03999255  0.83570664  1
  O  O20  1  0.64443983  0.32677975  0.59612355  1
  O  O21  1  0.84907376  0.68090905  0.10985891  1
  O  O22  1  0.95158614  0.47657634  0.82155362  1
  O  O23  1  0.84885548  0.16721372  0.10967874  1
