# generated using pymatgen
data_K11Cd2Sb5
_symmetry_space_group_name_H-M   'P 1'
_cell_length_a   10.05001639
_cell_length_b   12.14232765
_cell_length_c   12.99365326
_cell_angle_alpha   103.56300124
_cell_angle_beta   97.18618367
_cell_angle_gamma   107.61781923
_symmetry_Int_Tables_number   1
_chemical_formula_structural   K11Cd2Sb5
_chemical_formula_sum   'K22 Cd4 Sb10'
_cell_volume   1435.83353341
_cell_formula_units_Z   2
loop_
 _symmetry_equiv_pos_site_id
 _symmetry_equiv_pos_as_xyz
  1  'x, y, z'
loop_
 _atom_site_type_symbol
 _atom_site_label
 _atom_site_symmetry_multiplicity
 _atom_site_fract_x
 _atom_site_fract_y
 _atom_site_fract_z
 _atom_site_occupancy
  K  K0  1  0.85783179  0.57404117  0.96288911  1
  K  K1  1  0.14216821  0.42595883  0.03711089  1
  K  K2  1  0.30488495  0.89385253  0.77631440  1
  K  K3  1  0.69511505  0.10614747  0.22368560  1
  K  K4  1  0.63337429  0.16625543  0.53077353  1
  K  K5  1  0.36662571  0.83374457  0.46922647  1
  K  K6  1  0.63478556  0.67394486  0.56056691  1
  K  K7  1  0.36521444  0.32605514  0.43943309  1
  K  K8  1  0.20336954  0.55771542  0.57129284  1
  K  K9  1  0.79663046  0.44228458  0.42870716  1
  K  K10  1  0.04976585  0.70584525  0.26919285  1
  K  K11  1  0.95023415  0.29415475  0.73080715  1
  K  K12  1  0.20259399  0.07890604  0.57056621  1
  K  K13  1  0.79740601  0.92109396  0.42943379  1
  K  K14  1  0.87624519  0.09473494  0.98304379  1
  K  K15  1  0.12375481  0.90526506  0.01695621  1
  K  K16  1  0.58675097  0.22708597  0.86395243  1
  K  K17  1  0.41324903  0.77291403  0.13604757  1
  K  K18  1  0.39244135  0.24749706  0.14064047  1
  K  K19  1  0.60755865  0.75250294  0.85935953  1
  K  K20  1  0.34954367  0.41187896  0.79019373  1
  K  K21  1  0.65045633  0.58812104  0.20980627  1
  Cd  Cd22  1  0.94620958  0.95873530  0.71862925  1
  Cd  Cd23  1  0.05379042  0.04126470  0.28137075  1
  Cd  Cd24  1  0.94614019  0.62416786  0.71522442  1
  Cd  Cd25  1  0.05385981  0.37583214  0.28477558  1
  Sb  Sb26  1  0.00095955  0.76521046  0.55534793  1
  Sb  Sb27  1  0.99904045  0.23478954  0.44465207  1
  Sb  Sb28  1  0.66084998  0.45628149  0.69232894  1
  Sb  Sb29  1  0.33915002  0.54371851  0.30767106  1
  Sb  Sb30  1  0.66293620  0.97304053  0.69976110  1
  Sb  Sb31  1  0.33706380  0.02695947  0.30023890  1
  Sb  Sb32  1  0.19196084  0.14785482  0.86556346  1
  Sb  Sb33  1  0.80803916  0.85214518  0.13443654  1
  Sb  Sb34  1  0.18971135  0.63135308  0.86503006  1
  Sb  Sb35  1  0.81028865  0.36864692  0.13496994  1
