# generated using pymatgen
data_LiGa(H2N)4
_symmetry_space_group_name_H-M   'P 1'
_cell_length_a   6.23890600
_cell_length_b   6.95251557
_cell_length_c   14.07062085
_cell_angle_alpha   90.00000000
_cell_angle_beta   90.00000000
_cell_angle_gamma   92.14855978
_symmetry_Int_Tables_number   1
_chemical_formula_structural   LiGa(H2N)4
_chemical_formula_sum   'Li4 Ga4 H32 N16'
_cell_volume   609.89945758
_cell_formula_units_Z   4
loop_
 _symmetry_equiv_pos_site_id
 _symmetry_equiv_pos_as_xyz
  1  'x, y, z'
loop_
 _atom_site_type_symbol
 _atom_site_label
 _atom_site_symmetry_multiplicity
 _atom_site_fract_x
 _atom_site_fract_y
 _atom_site_fract_z
 _atom_site_occupancy
  Li  Li0  1  0.64388272  0.47867109  0.18675125  1
  Li  Li1  1  0.14388272  0.97867109  0.31324875  1
  Li  Li2  1  0.35611728  0.52132891  0.81324875  1
  Li  Li3  1  0.85611728  0.02132891  0.68675125  1
  Ga  Ga4  1  0.64340020  0.96484940  0.17281657  1
  Ga  Ga5  1  0.14340020  0.46484940  0.32718343  1
  Ga  Ga6  1  0.35659980  0.03515060  0.82718343  1
  Ga  Ga7  1  0.85659980  0.53515060  0.67281657  1
  H  H8  1  0.29008135  0.80914569  0.17706323  1
  H  H9  1  0.79008135  0.30914569  0.32293677  1
  H  H10  1  0.70991865  0.19085431  0.82293677  1
  H  H11  1  0.20991865  0.69085431  0.67706323  1
  H  H12  1  0.27142665  0.01454738  0.12479680  1
  H  H13  1  0.77142665  0.51454738  0.37520320  1
  H  H14  1  0.72857335  0.98545262  0.87520320  1
  H  H15  1  0.22857335  0.48545262  0.62479680  1
  H  H16  1  0.65109366  0.72290361  0.04022650  1
  H  H17  1  0.15109366  0.22290361  0.45977350  1
  H  H18  1  0.34890634  0.27709639  0.95977350  1
  H  H19  1  0.84890634  0.77709639  0.54022650  1
  H  H20  1  0.88270155  0.74187536  0.09100272  1
  H  H21  1  0.38270155  0.24187536  0.40899728  1
  H  H22  1  0.11729845  0.25812464  0.90899728  1
  H  H23  1  0.61729845  0.75812464  0.59100272  1
  H  H24  1  0.72020757  0.01257167  0.34482783  1
  H  H25  1  0.22020757  0.51257167  0.15517217  1
  H  H26  1  0.27979243  0.98742833  0.65517217  1
  H  H27  1  0.77979243  0.48742833  0.84482783  1
  H  H28  1  0.79671217  0.80459965  0.30852451  1
  H  H29  1  0.29671217  0.30459965  0.19147549  1
  H  H30  1  0.20328783  0.19540035  0.69147549  1
  H  H31  1  0.70328783  0.69540035  0.80852451  1
  H  H32  1  0.68878069  0.21169372  0.04532144  1
  H  H33  1  0.18878069  0.71169372  0.45467856  1
  H  H34  1  0.31121931  0.78830628  0.95467856  1
  H  H35  1  0.81121931  0.28830628  0.54532144  1
  H  H36  1  0.88668141  0.22630116  0.11931054  1
  H  H37  1  0.38668141  0.72630116  0.38068946  1
  H  H38  1  0.11331859  0.77369884  0.88068946  1
  H  H39  1  0.61331859  0.27369884  0.61931054  1
  N  N40  1  0.33085930  0.95216057  0.18496787  1
  N  N41  1  0.83085930  0.45216057  0.31503213  1
  N  N42  1  0.66914070  0.04783943  0.81503213  1
  N  N43  1  0.16914070  0.54783943  0.68496787  1
  N  N44  1  0.72197280  0.73194646  0.10566030  1
  N  N45  1  0.22197280  0.23194646  0.39433970  1
  N  N46  1  0.27802720  0.26805354  0.89433970  1
  N  N47  1  0.77802720  0.76805354  0.60566030  1
  N  N48  1  0.80126651  0.94759208  0.29099517  1
  N  N49  1  0.30126651  0.44759208  0.20900483  1
  N  N50  1  0.19873349  0.05240792  0.70900483  1
  N  N51  1  0.69873349  0.55240792  0.79099517  1
  N  N52  1  0.72273772  0.21362407  0.11657822  1
  N  N53  1  0.22273772  0.71362407  0.38342178  1
  N  N54  1  0.27726228  0.78637593  0.88342178  1
  N  N55  1  0.77726228  0.28637593  0.61657822  1
