# generated using pymatgen
data_NbTlV2O8
_symmetry_space_group_name_H-M   'P 1'
_cell_length_a   5.70382196
_cell_length_b   9.19728005
_cell_length_c   15.31273248
_cell_angle_alpha   90.00000000
_cell_angle_beta   90.00000000
_cell_angle_gamma   90.00000000
_symmetry_Int_Tables_number   1
_chemical_formula_structural   NbTlV2O8
_chemical_formula_sum   'Nb4 Tl4 V8 O32'
_cell_volume   803.30055462
_cell_formula_units_Z   4
loop_
 _symmetry_equiv_pos_site_id
 _symmetry_equiv_pos_as_xyz
  1  'x, y, z'
loop_
 _atom_site_type_symbol
 _atom_site_label
 _atom_site_symmetry_multiplicity
 _atom_site_fract_x
 _atom_site_fract_y
 _atom_site_fract_z
 _atom_site_occupancy
  Nb  Nb0  1  0.25000000  0.99459323  0.65967822  1
  Nb  Nb1  1  0.25000000  0.50540677  0.15967822  1
  Nb  Nb2  1  0.75000000  0.00540677  0.34032178  1
  Nb  Nb3  1  0.75000000  0.49459323  0.84032178  1
  Tl  Tl4  1  0.25000000  0.43593144  0.59581058  1
  Tl  Tl5  1  0.25000000  0.06406856  0.09581058  1
  Tl  Tl6  1  0.75000000  0.56406856  0.40418942  1
  Tl  Tl7  1  0.75000000  0.93593144  0.90418942  1
  V  V8  1  0.25000000  0.24557088  0.83830209  1
  V  V9  1  0.25000000  0.25442912  0.33830209  1
  V  V10  1  0.75000000  0.75442912  0.16169791  1
  V  V11  1  0.75000000  0.74557088  0.66169791  1
  V  V12  1  0.25000000  0.81825690  0.43869028  1
  V  V13  1  0.25000000  0.68174310  0.93869028  1
  V  V14  1  0.75000000  0.18174310  0.56130972  1
  V  V15  1  0.75000000  0.31825690  0.06130972  1
  O  O16  1  0.99815343  0.34851590  0.81062157  1
  O  O17  1  0.50184657  0.15148410  0.31062157  1
  O  O18  1  0.49815343  0.65148410  0.18937843  1
  O  O19  1  0.00184657  0.84851590  0.68937843  1
  O  O20  1  0.00184657  0.65148410  0.18937843  1
  O  O21  1  0.49815343  0.84851590  0.68937843  1
  O  O22  1  0.50184657  0.34851590  0.81062157  1
  O  O23  1  0.99815343  0.15148410  0.31062157  1
  O  O24  1  0.99582177  0.86155574  0.37652689  1
  O  O25  1  0.50417823  0.63844426  0.87652689  1
  O  O26  1  0.49582177  0.13844426  0.62347311  1
  O  O27  1  0.00417823  0.36155574  0.12347311  1
  O  O28  1  0.00417823  0.13844426  0.62347311  1
  O  O29  1  0.49582177  0.36155574  0.12347311  1
  O  O30  1  0.50417823  0.86155574  0.37652689  1
  O  O31  1  0.99582177  0.63844426  0.87652689  1
  O  O32  1  0.25000000  0.07724381  0.77958091  1
  O  O33  1  0.25000000  0.42275619  0.27958091  1
  O  O34  1  0.75000000  0.92275619  0.22041909  1
  O  O35  1  0.75000000  0.57724381  0.72041909  1
  O  O36  1  0.25000000  0.91644042  0.53660756  1
  O  O37  1  0.25000000  0.58355958  0.03660756  1
  O  O38  1  0.75000000  0.08355958  0.46339244  1
  O  O39  1  0.75000000  0.41644042  0.96339244  1
  O  O40  1  0.25000000  0.21249839  0.94434235  1
  O  O41  1  0.25000000  0.28750161  0.44434235  1
  O  O42  1  0.75000000  0.78750161  0.05565765  1
  O  O43  1  0.75000000  0.71249839  0.55565765  1
  O  O44  1  0.25000000  0.63935768  0.45815710  1
  O  O45  1  0.25000000  0.86064232  0.95815710  1
  O  O46  1  0.75000000  0.36064232  0.54184290  1
  O  O47  1  0.75000000  0.13935768  0.04184290  1
