# generated using pymatgen
data_BaCdSnSe4
_symmetry_space_group_name_H-M   'P 1'
_cell_length_a   13.40270723
_cell_length_b   13.40270723
_cell_length_c   13.61550054
_cell_angle_alpha   105.21534404
_cell_angle_beta   105.21534404
_cell_angle_gamma   117.82490411
_symmetry_Int_Tables_number   1
_chemical_formula_structural   BaCdSnSe4
_chemical_formula_sum   'Ba8 Cd8 Sn8 Se32'
_cell_volume   1862.76211579
_cell_formula_units_Z   8
loop_
 _symmetry_equiv_pos_site_id
 _symmetry_equiv_pos_as_xyz
  1  'x, y, z'
loop_
 _atom_site_type_symbol
 _atom_site_label
 _atom_site_symmetry_multiplicity
 _atom_site_fract_x
 _atom_site_fract_y
 _atom_site_fract_z
 _atom_site_occupancy
  Ba  Ba0  1  0.62477509  0.62477509  -0.00000000  1
  Ba  Ba1  1  0.87477509  0.37477509  0.50000000  1
  Ba  Ba2  1  0.87412617  0.87725361  0.50453412  1
  Ba  Ba3  1  0.37271949  0.36959205  0.49546588  1
  Ba  Ba4  1  0.12725361  0.62412617  0.00453412  1
  Ba  Ba5  1  0.61959205  0.12271949  0.99546588  1
  Ba  Ba6  1  0.12047026  0.12047026  -0.00000000  1
  Ba  Ba7  1  0.37047026  0.87047026  0.50000000  1
  Cd  Cd8  1  0.35683143  0.63103247  0.74870952  1
  Cd  Cd9  1  0.88232295  0.60812191  0.25129048  1
  Cd  Cd10  1  0.88103247  0.10683143  0.24870952  1
  Cd  Cd11  1  0.85812191  0.63232295  0.75129048  1
  Cd  Cd12  1  0.28563848  0.13780450  0.74976543  1
  Cd  Cd13  1  0.38803908  0.53587305  0.25023457  1
  Cd  Cd14  1  0.38780450  0.03563848  0.24976543  1
  Cd  Cd15  1  0.78587305  0.13803908  0.75023457  1
  Sn  Sn16  1  0.63140503  0.35871203  0.74911569  1
  Sn  Sn17  1  0.60959634  0.88228934  0.25088431  1
  Sn  Sn18  1  0.60871203  0.38140503  0.24911569  1
  Sn  Sn19  1  0.13228934  0.35959634  0.75088431  1
  Sn  Sn20  1  0.10601892  0.97100642  0.25084682  1
  Sn  Sn21  1  0.72015960  0.85517210  0.74915318  1
  Sn  Sn22  1  0.22100642  0.85601892  0.75084682  1
  Sn  Sn23  1  0.10517210  0.47015960  0.24915318  1
  Se  Se24  1  0.90118484  0.82219000  0.25340490  1
  Se  Se25  1  0.56878510  0.64777995  0.74659510  1
  Se  Se26  1  0.07219000  0.65118484  0.75340490  1
  Se  Se27  1  0.89777995  0.31878510  0.24659510  1
  Se  Se28  1  0.90952208  0.84738068  0.75137636  1
  Se  Se29  1  0.09600432  0.15814572  0.24862364  1
  Se  Se30  1  0.09738068  0.65952208  0.25137636  1
  Se  Se31  1  0.40814572  0.84600432  0.74862364  1
  Se  Se32  1  0.15298623  0.89561167  0.57773556  1
  Se  Se33  1  0.31787611  0.57525066  0.42226444  1
  Se  Se34  1  0.14561167  0.90298623  0.07773556  1
  Se  Se35  1  0.82525066  0.06787611  0.92226444  1
  Se  Se36  1  0.82612990  0.56673746  0.92165486  1
  Se  Se37  1  0.64508260  0.90447504  0.07834514  1
  Se  Se38  1  0.81673746  0.57612990  0.42165486  1
  Se  Se39  1  0.15447504  0.39508260  0.57834514  1
  Se  Se40  1  0.08966093  0.15466074  0.75344224  1
  Se  Se41  1  0.40121850  0.33621869  0.24655776  1
  Se  Se42  1  0.40466074  0.83966093  0.25344224  1
  Se  Se43  1  0.58621869  0.15121850  0.74655776  1
  Se  Se44  1  0.65550558  0.89889963  0.57783237  1
  Se  Se45  1  0.32106726  0.07767321  0.42216763  1
  Se  Se46  1  0.14889963  0.40550558  0.07783237  1
  Se  Se47  1  0.32767321  0.07106726  0.92216763  1
  Se  Se48  1  0.32864196  0.57002539  0.92093419  1
  Se  Se49  1  0.64909120  0.40770777  0.07906581  1
  Se  Se50  1  0.82002539  0.07864196  0.42093419  1
  Se  Se51  1  0.65770777  0.39909120  0.57906581  1
  Se  Se52  1  0.43544874  0.35262390  0.74897211  1
  Se  Se53  1  0.60365179  0.68647664  0.25102789  1
  Se  Se54  1  0.60262390  0.18544874  0.24897211  1
  Se  Se55  1  0.93647664  0.35365179  0.75102789  1
