# generated using pymatgen
data_Na2LuC2O6F
_symmetry_space_group_name_H-M   'P 1'
_cell_length_a   6.08952137
_cell_length_b   9.25377137
_cell_length_c   11.29741370
_cell_angle_alpha   93.57639595
_cell_angle_beta   90.00000000
_cell_angle_gamma   109.20986045
_symmetry_Int_Tables_number   1
_chemical_formula_structural   Na2LuC2O6F
_chemical_formula_sum   'Na8 Lu4 C8 O24 F4'
_cell_volume   599.86071289
_cell_formula_units_Z   4
loop_
 _symmetry_equiv_pos_site_id
 _symmetry_equiv_pos_as_xyz
  1  'x, y, z'
loop_
 _atom_site_type_symbol
 _atom_site_label
 _atom_site_symmetry_multiplicity
 _atom_site_fract_x
 _atom_site_fract_y
 _atom_site_fract_z
 _atom_site_occupancy
  Na  Na0  1  0.48347645  0.77776675  0.61797461  1
  Na  Na1  1  0.70570970  0.22223325  0.88202539  1
  Na  Na2  1  0.51652355  0.22223325  0.38202539  1
  Na  Na3  1  0.29429030  0.77776675  0.11797461  1
  Na  Na4  1  0.83303074  0.48145406  0.64145730  1
  Na  Na5  1  0.35157668  0.51854594  0.85854270  1
  Na  Na6  1  0.16696926  0.51854594  0.35854270  1
  Na  Na7  1  0.64842332  0.48145406  0.14145730  1
  Lu  Lu8  1  0.09370489  0.87863583  0.87025007  1
  Lu  Lu9  1  0.21506906  0.12136417  0.62974993  1
  Lu  Lu10  1  0.90629511  0.12136417  0.12974993  1
  Lu  Lu11  1  0.78493094  0.87863583  0.37025007  1
  C  C12  1  0.64046467  0.87544489  0.88412511  1
  C  C13  1  0.76501978  0.12455511  0.61587489  1
  C  C14  1  0.35953533  0.12455511  0.11587489  1
  C  C15  1  0.23498022  0.87544489  0.38412511  1
  C  C16  1  0.87435087  0.58708777  0.91940148  1
  C  C17  1  0.28726310  0.41291223  0.58059852  1
  C  C18  1  0.12564913  0.41291223  0.08059852  1
  C  C19  1  0.71273690  0.58708777  0.41940148  1
  O  O20  1  0.42817583  0.84871815  0.91398804  1
  O  O21  1  0.57945768  0.15128185  0.58601196  1
  O  O22  1  0.57182417  0.15128185  0.08601196  1
  O  O23  1  0.42054232  0.84871815  0.41398804  1
  O  O24  1  0.69823300  0.79357227  0.80036654  1
  O  O25  1  0.90466073  0.20642773  0.69963346  1
  O  O26  1  0.30176700  0.20642773  0.19963346  1
  O  O27  1  0.09533927  0.79357227  0.30036654  1
  O  O28  1  0.18839169  0.01357727  0.06277845  1
  O  O29  1  0.17481443  0.98642273  0.43722155  1
  O  O30  1  0.81160831  0.98642273  0.93722155  1
  O  O31  1  0.82518557  0.01357727  0.56277845  1
  O  O32  1  0.99735829  0.61249269  0.82253763  1
  O  O33  1  0.38486560  0.38750731  0.67746237  1
  O  O34  1  0.00264171  0.38750731  0.17746237  1
  O  O35  1  0.61513440  0.61249269  0.32253763  1
  O  O36  1  0.92752090  0.70132459  0.00141966  1
  O  O37  1  0.22619631  0.29867541  0.49858034  1
  O  O38  1  0.07247910  0.29867541  0.99858034  1
  O  O39  1  0.77380369  0.70132459  0.50141966  1
  O  O40  1  0.70809929  0.46284147  0.93263601  1
  O  O41  1  0.24525782  0.53715853  0.56736399  1
  O  O42  1  0.29190071  0.53715853  0.06736399  1
  O  O43  1  0.75474218  0.46284147  0.43263601  1
  F  F44  1  0.17932921  0.88458220  0.68105965  1
  F  F45  1  0.29474700  0.11541780  0.81894035  1
  F  F46  1  0.82067079  0.11541780  0.31894035  1
  F  F47  1  0.70525300  0.88458220  0.18105965  1
