# generated using pymatgen
data_KZnAs3F18
_symmetry_space_group_name_H-M   'P 1'
_cell_length_a   9.72328468
_cell_length_b   10.67050143
_cell_length_c   14.30829321
_cell_angle_alpha   90.00000000
_cell_angle_beta   90.00000000
_cell_angle_gamma   90.00000000
_symmetry_Int_Tables_number   1
_chemical_formula_structural   KZnAs3F18
_chemical_formula_sum   'K4 Zn4 As12 F72'
_cell_volume   1484.51865988
_cell_formula_units_Z   4
loop_
 _symmetry_equiv_pos_site_id
 _symmetry_equiv_pos_as_xyz
  1  'x, y, z'
loop_
 _atom_site_type_symbol
 _atom_site_label
 _atom_site_symmetry_multiplicity
 _atom_site_fract_x
 _atom_site_fract_y
 _atom_site_fract_z
 _atom_site_occupancy
  K  K0  1  0.52483172  0.92272782  0.75000000  1
  K  K1  1  0.97516828  0.42272782  0.75000000  1
  K  K2  1  0.47516828  0.07727218  0.25000000  1
  K  K3  1  0.02483172  0.57727218  0.25000000  1
  Zn  Zn4  1  -0.00000000  0.00000000  0.50000000  1
  Zn  Zn5  1  0.50000000  0.50000000  -0.00000000  1
  Zn  Zn6  1  -0.00000000  0.00000000  -0.00000000  1
  Zn  Zn7  1  0.50000000  0.50000000  0.50000000  1
  As  As8  1  0.10668628  0.02284938  0.75000000  1
  As  As9  1  0.39331372  0.52284938  0.75000000  1
  As  As10  1  0.89331372  0.97715062  0.25000000  1
  As  As11  1  0.60668628  0.47715062  0.25000000  1
  As  As12  1  0.69437197  0.20356189  0.54920339  1
  As  As13  1  0.80562803  0.70356189  0.95079661  1
  As  As14  1  0.30562803  0.79643811  0.04920339  1
  As  As15  1  0.19437197  0.29643811  0.45079661  1
  As  As16  1  0.30562803  0.79643811  0.45079661  1
  As  As17  1  0.19437197  0.29643811  0.04920339  1
  As  As18  1  0.69437197  0.20356189  0.95079661  1
  As  As19  1  0.80562803  0.70356189  0.54920339  1
  F  F20  1  0.10662482  0.02467160  0.62208506  1
  F  F21  1  0.39337518  0.52467160  0.87791494  1
  F  F22  1  0.89337518  0.97532840  0.12208506  1
  F  F23  1  0.60662482  0.47532840  0.37791494  1
  F  F24  1  0.89337518  0.97532840  0.37791494  1
  F  F25  1  0.60662482  0.47532840  0.12208506  1
  F  F26  1  0.10662482  0.02467160  0.87791494  1
  F  F27  1  0.39337518  0.52467160  0.62208506  1
  F  F28  1  0.15618738  0.86601935  0.75000000  1
  F  F29  1  0.34381262  0.36601935  0.75000000  1
  F  F30  1  0.84381262  0.13398065  0.25000000  1
  F  F31  1  0.65618738  0.63398065  0.25000000  1
  F  F32  1  0.28100209  0.06641742  0.75000000  1
  F  F33  1  0.21899791  0.56641742  0.75000000  1
  F  F34  1  0.71899791  0.93358258  0.25000000  1
  F  F35  1  0.78100209  0.43358258  0.25000000  1
  F  F36  1  0.06134869  0.18271808  0.75000000  1
  F  F37  1  0.43865131  0.68271808  0.75000000  1
  F  F38  1  0.93865131  0.81728192  0.25000000  1
  F  F39  1  0.56134869  0.31728192  0.25000000  1
  F  F40  1  0.93326192  0.98138686  0.75000000  1
  F  F41  1  0.56673808  0.48138686  0.75000000  1
  F  F42  1  0.06673808  0.01861314  0.25000000  1
  F  F43  1  0.43326192  0.51861314  0.25000000  1
  F  F44  1  0.82421738  0.07865431  0.55466775  1
  F  F45  1  0.67578262  0.57865431  0.94533225  1
  F  F46  1  0.17578262  0.92134569  0.05466775  1
  F  F47  1  0.32421738  0.42134569  0.44533225  1
  F  F48  1  0.17578262  0.92134569  0.44533225  1
  F  F49  1  0.32421738  0.42134569  0.05466775  1
  F  F50  1  0.82421738  0.07865431  0.94533225  1
  F  F51  1  0.67578262  0.57865431  0.55466775  1
  F  F52  1  0.79158675  0.28387684  0.46672540  1
  F  F53  1  0.70841325  0.78387684  0.03327460  1
  F  F54  1  0.20841325  0.71612316  0.96672540  1
  F  F55  1  0.29158675  0.21612316  0.53327460  1
  F  F56  1  0.20841325  0.71612316  0.53327460  1
  F  F57  1  0.29158675  0.21612316  0.96672540  1
  F  F58  1  0.79158675  0.28387684  0.03327460  1
  F  F59  1  0.70841325  0.78387684  0.46672540  1
  F  F60  1  0.60701296  0.12384509  0.46010333  1
  F  F61  1  0.89298704  0.62384509  0.03989667  1
  F  F62  1  0.39298704  0.87615491  0.96010333  1
  F  F63  1  0.10701296  0.37615491  0.53989667  1
  F  F64  1  0.39298704  0.87615491  0.53989667  1
  F  F65  1  0.10701296  0.37615491  0.96010333  1
  F  F66  1  0.60701296  0.12384509  0.03989667  1
  F  F67  1  0.89298704  0.62384509  0.46010333  1
  F  F68  1  0.56493532  0.32770069  0.54800358  1
  F  F69  1  0.93506468  0.82770069  0.95199642  1
  F  F70  1  0.43506468  0.67229931  0.04800358  1
  F  F71  1  0.06493532  0.17229931  0.45199642  1
  F  F72  1  0.43506468  0.67229931  0.45199642  1
  F  F73  1  0.06493532  0.17229931  0.04800358  1
  F  F74  1  0.56493532  0.32770069  0.95199642  1
  F  F75  1  0.93506468  0.82770069  0.54800358  1
  F  F76  1  0.59753405  0.12177197  0.63288544  1
  F  F77  1  0.90246595  0.62177197  0.86711456  1
  F  F78  1  0.40246595  0.87822803  0.13288544  1
  F  F79  1  0.09753405  0.37822803  0.36711456  1
  F  F80  1  0.40246595  0.87822803  0.36711456  1
  F  F81  1  0.09753405  0.37822803  0.13288544  1
  F  F82  1  0.59753405  0.12177197  0.86711456  1
  F  F83  1  0.90246595  0.62177197  0.63288544  1
  F  F84  1  0.78080156  0.28210528  0.63999817  1
  F  F85  1  0.71919844  0.78210528  0.86000183  1
  F  F86  1  0.21919844  0.71789472  0.13999817  1
  F  F87  1  0.28080156  0.21789472  0.36000183  1
  F  F88  1  0.21919844  0.71789472  0.36000183  1
  F  F89  1  0.28080156  0.21789472  0.13999817  1
  F  F90  1  0.78080156  0.28210528  0.86000183  1
  F  F91  1  0.71919844  0.78210528  0.63999817  1
