# generated using pymatgen
data_K2Mn3V2CO11
_symmetry_space_group_name_H-M   'P 1'
_cell_length_a   5.28264542
_cell_length_b   5.28264387
_cell_length_c   22.73238340
_cell_angle_alpha   90.00000000
_cell_angle_beta   90.00000000
_cell_angle_gamma   119.99988059
_symmetry_Int_Tables_number   1
_chemical_formula_structural   K2Mn3V2CO11
_chemical_formula_sum   'K4 Mn6 V4 C2 O22'
_cell_volume   549.38768648
_cell_formula_units_Z   2
loop_
 _symmetry_equiv_pos_site_id
 _symmetry_equiv_pos_as_xyz
  1  'x, y, z'
loop_
 _atom_site_type_symbol
 _atom_site_label
 _atom_site_symmetry_multiplicity
 _atom_site_fract_x
 _atom_site_fract_y
 _atom_site_fract_z
 _atom_site_occupancy
  K  K0  1  0.66660796  0.33330131  0.65784222  1
  K  K1  1  0.33339204  0.66669869  0.15784222  1
  K  K2  1  0.33339204  0.66669869  0.34215778  1
  K  K3  1  0.66660796  0.33330131  0.84215778  1
  Mn  Mn4  1  0.33337817  0.66668944  0.50455571  1
  Mn  Mn5  1  0.66662183  0.33331056  0.00455571  1
  Mn  Mn6  1  0.66662183  0.33331056  0.49544429  1
  Mn  Mn7  1  0.33337817  0.66668944  0.99544429  1
  Mn  Mn8  1  0.00000866  0.00002491  0.75000000  1
  Mn  Mn9  1  0.99999134  0.99997509  0.25000000  1
  V  V10  1  0.00000009  0.00000369  0.57984065  1
  V  V11  1  -0.00000009  0.99999631  0.07984065  1
  V  V12  1  -0.00000009  0.99999631  0.42015935  1
  V  V13  1  0.00000009  0.00000369  0.92015935  1
  C  C14  1  0.33336983  0.66668521  0.75000000  1
  C  C15  1  0.66663017  0.33331479  0.25000000  1
  O  O16  1  0.99999912  -0.00000077  0.65556612  1
  O  O17  1  0.00000088  0.00000077  0.15556612  1
  O  O18  1  0.00000088  0.00000077  0.34443388  1
  O  O19  1  0.99999912  -0.00000077  0.84443388  1
  O  O20  1  0.37457002  0.93101083  0.75000000  1
  O  O21  1  0.06900224  0.44355623  0.75000000  1
  O  O22  1  0.55645354  0.62544900  0.75000000  1
  O  O23  1  0.62542998  0.06898917  0.25000000  1
  O  O24  1  0.93099776  0.55644377  0.25000000  1
  O  O25  1  0.44354646  0.37455100  0.25000000  1
  O  O26  1  0.32153899  0.01063494  0.55476928  1
  O  O27  1  0.98936557  0.31090289  0.55476869  1
  O  O28  1  0.68909558  0.67845837  0.55476927  1
  O  O29  1  0.67846101  0.98936506  0.05476928  1
  O  O30  1  0.01063443  0.68909711  0.05476869  1
  O  O31  1  0.31090442  0.32154163  0.05476927  1
  O  O32  1  0.67846101  0.98936506  0.44523072  1
  O  O33  1  0.01063443  0.68909711  0.44523131  1
  O  O34  1  0.31090442  0.32154163  0.44523073  1
  O  O35  1  0.32153899  0.01063494  0.94523072  1
  O  O36  1  0.98936557  0.31090289  0.94523131  1
  O  O37  1  0.68909558  0.67845837  0.94523073  1
