# generated using pymatgen
data_Li4Mn3Cu2Sn3O16
_symmetry_space_group_name_H-M   'P 1'
_cell_length_a   6.08433286
_cell_length_b   6.10424730
_cell_length_c   9.81937422
_cell_angle_alpha   89.99063676
_cell_angle_beta   87.51752231
_cell_angle_gamma   120.10967409
_symmetry_Int_Tables_number   1
_chemical_formula_structural   Li4Mn3Cu2Sn3O16
_chemical_formula_sum   'Li4 Mn3 Cu2 Sn3 O16'
_cell_volume   315.08763514
_cell_formula_units_Z   1
loop_
 _symmetry_equiv_pos_site_id
 _symmetry_equiv_pos_as_xyz
  1  'x, y, z'
loop_
 _atom_site_type_symbol
 _atom_site_label
 _atom_site_symmetry_multiplicity
 _atom_site_fract_x
 _atom_site_fract_y
 _atom_site_fract_z
 _atom_site_occupancy
  Li  Li0  1  0.34084287  0.67043453  0.88446689  1
  Li  Li1  1  0.98120545  0.99061118  0.99446252  1
  Li  Li2  1  0.99146062  0.99576502  0.50134305  1
  Li  Li3  1  0.66565106  0.33283618  0.39312896  1
  Mn  Mn4  1  0.66589842  0.83293500  0.21669961  1
  Mn  Mn5  1  0.83237144  0.66375236  0.71533300  1
  Mn  Mn6  1  0.83229563  0.16857372  0.71532846  1
  Cu  Cu7  1  0.33186388  0.66596440  0.49316816  1
  Cu  Cu8  1  0.67226713  0.33614435  0.98534346  1
  Sn  Sn9  1  0.16989931  0.83060977  0.21438611  1
  Sn  Sn10  1  0.16987083  0.33928073  0.21438417  1
  Sn  Sn11  1  0.34187776  0.17098582  0.71326797  1
  O  O12  1  0.15450907  0.83518696  0.60159403  1
  O  O13  1  0.01706143  0.50849792  0.33414069  1
  O  O14  1  0.36627013  0.68316238  0.10052270  1
  O  O15  1  0.97618872  0.98806040  0.31872217  1
  O  O16  1  0.97685708  0.98841092  0.81146102  1
  O  O17  1  0.15448782  0.31938771  0.60158777  1
  O  O18  1  0.48570475  0.95944882  0.33860445  1
  O  O19  1  0.48568288  0.52626279  0.33861365  1
  O  O20  1  0.32691375  0.16349909  0.09274548  1
  O  O21  1  0.69121075  0.84563674  0.61482283  1
  O  O22  1  0.52425523  0.49353078  0.82969485  1
  O  O23  1  0.52417460  0.03067361  0.82965039  1
  O  O24  1  0.69901116  0.34955922  0.60673578  1
  O  O25  1  0.83515310  0.68823359  0.10623500  1
  O  O26  1  0.95186184  0.47591635  0.83521123  1
  O  O27  1  0.83515228  0.14693969  0.10618756  1
