# generated using pymatgen
data_KGd(BH4)4
_symmetry_space_group_name_H-M   'P 1'
_cell_length_a   7.76958054
_cell_length_b   8.25274503
_cell_length_c   7.75594760
_cell_angle_alpha   90.00000000
_cell_angle_beta   101.66364767
_cell_angle_gamma   90.00000000
_symmetry_Int_Tables_number   1
_chemical_formula_structural   KGd(BH4)4
_chemical_formula_sum   'K2 Gd2 B8 H32'
_cell_volume   487.04530355
_cell_formula_units_Z   2
loop_
 _symmetry_equiv_pos_site_id
 _symmetry_equiv_pos_as_xyz
  1  'x, y, z'
loop_
 _atom_site_type_symbol
 _atom_site_label
 _atom_site_symmetry_multiplicity
 _atom_site_fract_x
 _atom_site_fract_y
 _atom_site_fract_z
 _atom_site_occupancy
  K  K0  1  0.50000000  0.50000000  -0.00000000  1
  K  K1  1  0.50000000  0.00000000  0.50000000  1
  Gd  Gd2  1  -0.00000000  0.00000000  -0.00000000  1
  Gd  Gd3  1  -0.00000000  0.50000000  0.50000000  1
  B  B4  1  0.88617860  0.72718624  0.81101453  1
  B  B5  1  0.11382140  0.22718624  0.68898547  1
  B  B6  1  0.11382140  0.27281376  0.18898547  1
  B  B7  1  0.88617860  0.77281376  0.31101453  1
  B  B8  1  0.67216166  0.37934103  0.40158873  1
  B  B9  1  0.32783834  0.87934103  0.09841127  1
  B  B10  1  0.32783834  0.62065897  0.59841127  1
  B  B11  1  0.67216166  0.12065897  0.90158873  1
  H  H12  1  0.89259926  0.73403382  0.97231902  1
  H  H13  1  0.10740074  0.23403382  0.52768098  1
  H  H14  1  0.10740074  0.26596618  0.02768098  1
  H  H15  1  0.89259926  0.76596618  0.47231902  1
  H  H16  1  0.99334693  0.82491004  0.77205712  1
  H  H17  1  0.00665307  0.32491004  0.72794288  1
  H  H18  1  0.00665307  0.17508996  0.22794288  1
  H  H19  1  0.99334693  0.67508996  0.27205712  1
  H  H20  1  0.93651691  0.58865983  0.78416511  1
  H  H21  1  0.06348309  0.08865983  0.71583489  1
  H  H22  1  0.06348309  0.41134017  0.21583489  1
  H  H23  1  0.93651691  0.91134017  0.28416511  1
  H  H24  1  0.73900755  0.75605758  0.73225085  1
  H  H25  1  0.26099245  0.25605758  0.76774915  1
  H  H26  1  0.26099245  0.24394242  0.26774915  1
  H  H27  1  0.73900755  0.74394242  0.23225085  1
  H  H28  1  0.58427489  0.25711268  0.38745344  1
  H  H29  1  0.41572511  0.75711268  0.11254656  1
  H  H30  1  0.41572511  0.74288732  0.61254656  1
  H  H31  1  0.58427489  0.24288732  0.88745344  1
  H  H32  1  0.58249799  0.49688690  0.35050567  1
  H  H33  1  0.41750201  0.99688690  0.14949433  1
  H  H34  1  0.41750201  0.50311310  0.64949433  1
  H  H35  1  0.58249799  0.00311310  0.85050567  1
  H  H36  1  0.74258549  0.40006731  0.55828007  1
  H  H37  1  0.25741451  0.90006731  0.94171993  1
  H  H38  1  0.25741451  0.59993269  0.44171993  1
  H  H39  1  0.74258549  0.09993269  0.05828007  1
  H  H40  1  0.78706647  0.35857981  0.31318587  1
  H  H41  1  0.21293353  0.85857981  0.18681413  1
  H  H42  1  0.21293353  0.64142019  0.68681413  1
  H  H43  1  0.78706647  0.14142019  0.81318587  1
