# generated using pymatgen
data_Ca3(SiP2)2
_symmetry_space_group_name_H-M   'P 1'
_cell_length_a   6.95059336
_cell_length_b   7.10230686
_cell_length_c   17.28262429
_cell_angle_alpha   90.00000000
_cell_angle_beta   90.00000000
_cell_angle_gamma   111.72561135
_symmetry_Int_Tables_number   1
_chemical_formula_structural   Ca3(SiP2)2
_chemical_formula_sum   'Ca12 Si8 P16'
_cell_volume   792.55860042
_cell_formula_units_Z   4
loop_
 _symmetry_equiv_pos_site_id
 _symmetry_equiv_pos_as_xyz
  1  'x, y, z'
loop_
 _atom_site_type_symbol
 _atom_site_label
 _atom_site_symmetry_multiplicity
 _atom_site_fract_x
 _atom_site_fract_y
 _atom_site_fract_z
 _atom_site_occupancy
  Ca  Ca0  1  0.51234125  0.21534158  0.68389546  1
  Ca  Ca1  1  0.98765875  0.78465842  0.18389546  1
  Ca  Ca2  1  0.48765875  0.78465842  0.31610454  1
  Ca  Ca3  1  0.01234125  0.21534158  0.81610454  1
  Ca  Ca4  1  0.51228663  0.25657772  0.93773913  1
  Ca  Ca5  1  0.98771337  0.74342228  0.43773913  1
  Ca  Ca6  1  0.48771337  0.74342228  0.06226087  1
  Ca  Ca7  1  0.01228663  0.25657772  0.56226087  1
  Ca  Ca8  1  0.50494100  0.26127417  0.44189275  1
  Ca  Ca9  1  0.99505900  0.73872583  0.94189275  1
  Ca  Ca10  1  0.49505900  0.73872583  0.55810725  1
  Ca  Ca11  1  0.00494100  0.26127417  0.05810725  1
  Si  Si12  1  0.91454845  0.31683411  0.25810267  1
  Si  Si13  1  0.58545155  0.68316589  0.75810267  1
  Si  Si14  1  0.08545155  0.68316589  0.74189733  1
  Si  Si15  1  0.41454845  0.31683411  0.24189733  1
  Si  Si16  1  0.52860090  0.21210404  0.12838343  1
  Si  Si17  1  0.97139910  0.78789596  0.62838343  1
  Si  Si18  1  0.47139910  0.78789596  0.87161657  1
  Si  Si19  1  0.02860090  0.21210404  0.37161657  1
  P  P20  1  0.72393670  0.50091864  0.30114443  1
  P  P21  1  0.77606330  0.49908136  0.80114443  1
  P  P22  1  0.27606330  0.49908136  0.69885557  1
  P  P23  1  0.22393670  0.50091864  0.19885557  1
  P  P24  1  0.72088405  0.04405276  0.18589838  1
  P  P25  1  0.77911595  0.95594724  0.68589838  1
  P  P26  1  0.27911595  0.95594724  0.81410162  1
  P  P27  1  0.22088405  0.04405276  0.31410162  1
  P  P28  1  0.74026628  0.49411262  0.06841972  1
  P  P29  1  0.75973372  0.50588738  0.56841972  1
  P  P30  1  0.25973372  0.50588738  0.93158028  1
  P  P31  1  0.24026628  0.49411262  0.43158028  1
  P  P32  1  0.75542536  0.00947586  0.43887279  1
  P  P33  1  0.74457464  0.99052414  0.93887279  1
  P  P34  1  0.24457464  0.99052414  0.56112721  1
  P  P35  1  0.25542536  0.00947586  0.06112721  1
