# generated using pymatgen
data_Ba3P3ClO10
_symmetry_space_group_name_H-M   'P 1'
_cell_length_a   5.68313848
_cell_length_b   14.39661185
_cell_length_c   14.50718571
_cell_angle_alpha   90.00000000
_cell_angle_beta   90.00000000
_cell_angle_gamma   90.00000000
_symmetry_Int_Tables_number   1
_chemical_formula_structural   Ba3P3ClO10
_chemical_formula_sum   'Ba12 P12 Cl4 O40'
_cell_volume   1186.94803238
_cell_formula_units_Z   4
loop_
 _symmetry_equiv_pos_site_id
 _symmetry_equiv_pos_as_xyz
  1  'x, y, z'
loop_
 _atom_site_type_symbol
 _atom_site_label
 _atom_site_symmetry_multiplicity
 _atom_site_fract_x
 _atom_site_fract_y
 _atom_site_fract_z
 _atom_site_occupancy
  Ba  Ba0  1  0.98789681  0.67010459  0.94217172  1
  Ba  Ba1  1  0.01210319  0.17010459  0.05782828  1
  Ba  Ba2  1  0.98789681  0.17010459  0.55782828  1
  Ba  Ba3  1  0.01210319  0.67010459  0.44217172  1
  Ba  Ba4  1  0.99775812  0.45692852  0.20274295  1
  Ba  Ba5  1  0.00224188  0.95692852  0.79725705  1
  Ba  Ba6  1  0.99775812  0.95692852  0.29725705  1
  Ba  Ba7  1  0.00224188  0.45692852  0.70274295  1
  Ba  Ba8  1  0.49915676  0.74325816  0.18290800  1
  Ba  Ba9  1  0.50084324  0.24325816  0.81709200  1
  Ba  Ba10  1  0.49915676  0.24325816  0.31709200  1
  Ba  Ba11  1  0.50084324  0.74325816  0.68290800  1
  P  P12  1  0.51405890  0.31058875  0.08476707  1
  P  P13  1  0.48594110  0.81058875  0.91523293  1
  P  P14  1  0.51405890  0.81058875  0.41523293  1
  P  P15  1  0.48594110  0.31058875  0.58476707  1
  P  P16  1  0.50279922  0.51827460  0.03436420  1
  P  P17  1  0.49720078  0.01827460  0.96563580  1
  P  P18  1  0.50279922  0.01827460  0.46563580  1
  P  P19  1  0.49720078  0.51827460  0.53436420  1
  P  P20  1  0.50929528  0.53809157  0.82289229  1
  P  P21  1  0.49070472  0.03809157  0.17710771  1
  P  P22  1  0.50929528  0.03809157  0.67710771  1
  P  P23  1  0.49070472  0.53809157  0.32289229  1
  Cl  Cl24  1  0.99614766  0.80833185  0.12095544  1
  Cl  Cl25  1  0.00385234  0.30833185  0.87904456  1
  Cl  Cl26  1  0.99614766  0.30833185  0.37904456  1
  Cl  Cl27  1  0.00385234  0.80833185  0.62095544  1
  O  O28  1  0.51739681  0.43716598  0.79228680  1
  O  O29  1  0.48260319  0.93716598  0.20771320  1
  O  O30  1  0.51739681  0.93716598  0.70771320  1
  O  O31  1  0.48260319  0.43716598  0.29228680  1
  O  O32  1  0.24632104  0.54004023  0.05053402  1
  O  O33  1  0.75367896  0.04004023  0.94946598  1
  O  O34  1  0.24632104  0.04004023  0.44946598  1
  O  O35  1  0.75367896  0.54004023  0.55053402  1
  O  O36  1  0.51749586  0.23792765  0.00834357  1
  O  O37  1  0.48250414  0.73792765  0.99165643  1
  O  O38  1  0.51749586  0.73792765  0.49165643  1
  O  O39  1  0.48250414  0.23792765  0.50834357  1
  O  O40  1  0.70676109  0.59702911  0.77990718  1
  O  O41  1  0.29323891  0.09702911  0.22009282  1
  O  O42  1  0.70676109  0.09702911  0.72009282  1
  O  O43  1  0.29323891  0.59702911  0.27990718  1
  O  O44  1  0.28140797  0.31276981  0.13811028  1
  O  O45  1  0.71859203  0.81276981  0.86188972  1
  O  O46  1  0.28140797  0.81276981  0.36188972  1
  O  O47  1  0.71859203  0.31276981  0.63811028  1
  O  O48  1  0.26471785  0.58177934  0.81587483  1
  O  O49  1  0.73528215  0.08177934  0.18412517  1
  O  O50  1  0.26471785  0.08177934  0.68412517  1
  O  O51  1  0.73528215  0.58177934  0.31587483  1
  O  O52  1  0.72959504  0.30321211  0.14837599  1
  O  O53  1  0.27040496  0.80321211  0.85162401  1
  O  O54  1  0.72959504  0.80321211  0.35162401  1
  O  O55  1  0.27040496  0.30321211  0.64837599  1
  O  O56  1  0.59029757  0.54467426  0.93272107  1
  O  O57  1  0.40970243  0.04467426  0.06727893  1
  O  O58  1  0.59029757  0.04467426  0.56727893  1
  O  O59  1  0.40970243  0.54467426  0.43272107  1
  O  O60  1  0.54497971  0.40904800  0.02999473  1
  O  O61  1  0.45502029  0.90904800  0.97000527  1
  O  O62  1  0.54497971  0.90904800  0.47000527  1
  O  O63  1  0.45502029  0.40904800  0.52999473  1
  O  O64  1  0.68034327  0.56423547  0.09776421  1
  O  O65  1  0.31965673  0.06423547  0.90223579  1
  O  O66  1  0.68034327  0.06423547  0.40223579  1
  O  O67  1  0.31965673  0.56423547  0.59776421  1
