# generated using pymatgen
data_K3Ba3Li2Al4B6O20F
_symmetry_space_group_name_H-M   'P 1'
_cell_length_a   8.86754438
_cell_length_b   8.86765431
_cell_length_c   16.68983338
_cell_angle_alpha   90.00000000
_cell_angle_beta   90.00000000
_cell_angle_gamma   119.99959738
_symmetry_Int_Tables_number   1
_chemical_formula_structural   K3Ba3Li2Al4B6O20F
_chemical_formula_sum   'K6 Ba6 Li4 Al8 B12 O40 F2'
_cell_volume   1136.57086713
_cell_formula_units_Z   2
loop_
 _symmetry_equiv_pos_site_id
 _symmetry_equiv_pos_as_xyz
  1  'x, y, z'
loop_
 _atom_site_type_symbol
 _atom_site_label
 _atom_site_symmetry_multiplicity
 _atom_site_fract_x
 _atom_site_fract_y
 _atom_site_fract_z
 _atom_site_occupancy
  K  K0  1  0.00000152  0.29471812  0.49999789  1
  K  K1  1  0.29471159  1.00000000  0.50000000  1
  K  K2  1  0.70528340  0.70528188  0.50000211  1
  K  K3  1  0.00000152  0.29471812  0.00000211  1
  K  K4  1  0.29471159  1.00000000  0.00000000  1
  K  K5  1  0.70528340  0.70528188  0.99999789  1
  Ba  Ba6  1  0.01215743  0.31605922  0.75000000  1
  Ba  Ba7  1  0.30391311  0.98785263  0.75000000  1
  Ba  Ba8  1  0.68392470  0.69608196  0.75000000  1
  Ba  Ba9  1  0.69609821  0.68394078  0.25000000  1
  Ba  Ba10  1  0.31606048  0.01214737  0.25000000  1
  Ba  Ba11  1  0.98784274  0.30391804  0.25000000  1
  Li  Li12  1  0.00000031  0.00000131  0.88663617  1
  Li  Li13  1  0.00000031  0.00000131  0.61336383  1
  Li  Li14  1  0.99999899  0.99999869  0.38663617  1
  Li  Li15  1  0.99999899  0.99999869  0.11336383  1
  Al  Al16  1  0.33333402  0.66667181  0.89659435  1
  Al  Al17  1  0.33333402  0.66667181  0.60340565  1
  Al  Al18  1  0.66666221  0.33332819  0.39659435  1
  Al  Al19  1  0.66666221  0.33332819  0.10340565  1
  Al  Al20  1  0.66667076  0.33332098  0.89592943  1
  Al  Al21  1  0.66667076  0.33332098  0.60407057  1
  Al  Al22  1  0.33334978  0.66667902  0.39592943  1
  Al  Al23  1  0.33334978  0.66667902  0.10407057  1
  B  B24  1  0.35037475  0.34490475  0.85822155  1
  B  B25  1  0.99453171  0.64963270  0.85821841  1
  B  B26  1  0.65509598  0.00546277  0.85821746  1
  B  B27  1  0.35037475  0.34490475  0.64177845  1
  B  B28  1  0.99453171  0.64963270  0.64178159  1
  B  B29  1  0.65509598  0.00546277  0.64178254  1
  B  B30  1  0.00547001  0.65509525  0.35822155  1
  B  B31  1  0.34489901  0.35036730  0.35821841  1
  B  B32  1  0.64963320  0.99453723  0.35821746  1
  B  B33  1  0.00547001  0.65509525  0.14177845  1
  B  B34  1  0.34489901  0.35036730  0.14178159  1
  B  B35  1  0.64963320  0.99453723  0.14178254  1
  O  O36  1  0.53169736  0.41421279  0.85952626  1
  O  O37  1  0.88252887  0.46830809  0.85951994  1
  O  O38  1  0.58577940  0.11747201  0.85951781  1
  O  O39  1  0.53169736  0.41421279  0.64047374  1
  O  O40  1  0.88252887  0.46830809  0.64048006  1
  O  O41  1  0.58577940  0.11747201  0.64048219  1
  O  O42  1  0.11748458  0.58578721  0.35952626  1
  O  O43  1  0.41422078  0.53169191  0.35951994  1
  O  O44  1  0.46830739  0.88252799  0.35951781  1
  O  O45  1  0.11748458  0.58578721  0.14047374  1
  O  O46  1  0.41422078  0.53169191  0.14048006  1
  O  O47  1  0.46830739  0.88252799  0.14048219  1
  O  O48  1  0.29180848  0.46522443  0.85649610  1
  O  O49  1  0.17341436  0.70820356  0.85649518  1
  O  O50  1  0.53478755  0.82658603  0.85648980  1
  O  O51  1  0.29180848  0.46522443  0.64350390  1
  O  O52  1  0.17341436  0.70820356  0.64350482  1
  O  O53  1  0.53478755  0.82658603  0.64351020  1
  O  O54  1  0.82658405  0.53477557  0.35649610  1
  O  O55  1  0.46521079  0.29179644  0.35649518  1
  O  O56  1  0.70820152  0.17341397  0.35648980  1
  O  O57  1  0.82658405  0.53477557  0.14350390  1
  O  O58  1  0.46521079  0.29179644  0.14350482  1
  O  O59  1  0.70820152  0.17341397  0.14351020  1
  O  O60  1  0.66668832  0.33330401  0.99995943  1
  O  O61  1  0.66668832  0.33330401  0.50004057  1
  O  O62  1  0.33338431  0.66669599  0.49995943  1
  O  O63  1  0.33338431  0.66669599  0.00004057  1
  O  O64  1  0.23422101  0.17277678  0.85361410  1
  O  O65  1  0.93854307  0.76577069  0.85361607  1
  O  O66  1  0.82722740  0.06144794  0.85361583  1
  O  O67  1  0.23422101  0.17277678  0.64638590  1
  O  O68  1  0.93854307  0.76577069  0.64638393  1
  O  O69  1  0.82722740  0.06144794  0.64638417  1
  O  O70  1  0.06144423  0.82722322  0.35361410  1
  O  O71  1  0.17277237  0.23422931  0.35361607  1
  O  O72  1  0.76577946  0.93855206  0.35361583  1
  O  O73  1  0.06144423  0.82722322  0.14638590  1
  O  O74  1  0.17277237  0.23422931  0.14638393  1
  O  O75  1  0.76577946  0.93855206  0.14638417  1
  F  F76  1  0.99999915  0.00000000  0.00000000  1
  F  F77  1  0.99999915  0.00000000  0.50000000  1
