# generated using pymatgen
data_K2U(Si2O5)3
_symmetry_space_group_name_H-M   'P 1'
_cell_length_a   7.17643086
_cell_length_b   12.81056270
_cell_length_c   17.32783019
_cell_angle_alpha   96.82010785
_cell_angle_beta   90.00000000
_cell_angle_gamma   106.26606510
_symmetry_Int_Tables_number   1
_chemical_formula_structural   K2U(Si2O5)3
_chemical_formula_sum   'K8 U4 Si24 O60'
_cell_volume   1517.50642699
_cell_formula_units_Z   4
loop_
 _symmetry_equiv_pos_site_id
 _symmetry_equiv_pos_as_xyz
  1  'x, y, z'
loop_
 _atom_site_type_symbol
 _atom_site_label
 _atom_site_symmetry_multiplicity
 _atom_site_fract_x
 _atom_site_fract_y
 _atom_site_fract_z
 _atom_site_occupancy
  K  K0  1  0.55248594  0.20607275  0.75858947  1
  K  K1  1  0.34641319  0.79392725  0.74141053  1
  K  K2  1  0.44751406  0.79392725  0.24141053  1
  K  K3  1  0.65358681  0.20607275  0.25858947  1
  K  K4  1  0.36577120  0.68437958  0.00454260  1
  K  K5  1  0.68139161  0.31562042  0.49545740  1
  K  K6  1  0.63422880  0.31562042  0.99545740  1
  K  K7  1  0.31860839  0.68437958  0.50454260  1
  U  U8  1  0.08943380  0.24262090  0.87287452  1
  U  U9  1  0.84681289  0.75737910  0.62712548  1
  U  U10  1  0.91056620  0.75737910  0.12712548  1
  U  U11  1  0.15318711  0.24262090  0.37287452  1
  Si  Si12  1  0.88257491  0.84128849  0.83770916  1
  Si  Si13  1  0.04128642  0.15871151  0.66229084  1
  Si  Si14  1  0.11742509  0.15871151  0.16229084  1
  Si  Si15  1  0.95871358  0.84128849  0.33770916  1
  Si  Si16  1  0.25221897  0.01052240  0.92792798  1
  Si  Si17  1  0.24169657  0.98947760  0.57207202  1
  Si  Si18  1  0.74778103  0.98947760  0.07207202  1
  Si  Si19  1  0.75830343  0.01052240  0.42792798  1
  Si  Si20  1  0.13773687  0.35996305  0.07984550  1
  Si  Si21  1  0.77777381  0.64003695  0.42015450  1
  Si  Si22  1  0.86226313  0.64003695  0.92015450  1
  Si  Si23  1  0.22222619  0.35996305  0.57984550  1
  Si  Si24  1  0.66627251  0.01002613  0.89070123  1
  Si  Si25  1  0.65624638  0.98997387  0.60929877  1
  Si  Si26  1  0.33372749  0.98997387  0.10929877  1
  Si  Si27  1  0.34375362  0.01002613  0.39070123  1
  Si  Si28  1  0.89210019  0.49525555  0.17955353  1
  Si  Si29  1  0.39684464  0.50474445  0.32044647  1
  Si  Si30  1  0.10789981  0.50474445  0.82044647  1
  Si  Si31  1  0.60315536  0.49525555  0.67955353  1
  Si  Si32  1  0.50137626  0.52915261  0.14484065  1
  Si  Si33  1  0.97222366  0.47084739  0.35515935  1
  Si  Si34  1  0.49862374  0.47084739  0.85515935  1
  Si  Si35  1  0.02777634  0.52915261  0.64484065  1
  O  O36  1  0.00731216  0.61964892  0.16820655  1
  O  O37  1  0.38766325  0.38035108  0.33179345  1
  O  O38  1  0.99268784  0.38035108  0.83179345  1
  O  O39  1  0.61233675  0.61964892  0.66820655  1
  O  O40  1  0.66606429  0.46100710  0.14263500  1
  O  O41  1  0.20505719  0.53899290  0.35736500  1
  O  O42  1  0.33393571  0.53899290  0.85736500  1
  O  O43  1  0.79494281  0.46100710  0.64263500  1
  O  O44  1  0.42911793  0.98298617  0.87526546  1
  O  O45  1  0.44613176  0.01701383  0.62473454  1
  O  O46  1  0.57088207  0.01701383  0.12473454  1
  O  O47  1  0.55386824  0.98298617  0.37526546  1
  O  O48  1  0.33354332  0.46476450  0.07712703  1
  O  O49  1  0.86877882  0.53523550  0.42287297  1
  O  O50  1  0.66645668  0.53523550  0.92287297  1
  O  O51  1  0.13122118  0.46476450  0.57712703  1
  O  O52  1  0.97640092  0.39904066  0.13457921  1
  O  O53  1  0.57736026  0.60095934  0.36542079  1
  O  O54  1  0.02359908  0.60095934  0.86542079  1
  O  O55  1  0.42263974  0.39904066  0.63457921  1
  O  O56  1  0.77818975  0.12902224  0.86692202  1
  O  O57  1  0.64916751  0.87097776  0.63307798  1
  O  O58  1  0.22181025  0.87097776  0.13307798  1
  O  O59  1  0.35083249  0.12902224  0.36692202  1
  O  O60  1  0.71358040  0.90593980  0.83700099  1
  O  O61  1  0.80764060  0.09406020  0.66299901  1
  O  O62  1  0.28641960  0.09406020  0.16299901  1
  O  O63  1  0.19235940  0.90593980  0.33700099  1
  O  O64  1  0.59297928  0.65301280  0.12613955  1
  O  O65  1  0.93996648  0.34698720  0.37386045  1
  O  O66  1  0.40702072  0.34698720  0.87386045  1
  O  O67  1  0.06003352  0.65301280  0.62613955  1
  O  O68  1  0.04282555  0.31486657  0.99405825  1
  O  O69  1  0.72795897  0.68513343  0.50594175  1
  O  O70  1  0.95717445  0.68513343  0.00594175  1
  O  O71  1  0.27204103  0.31486657  0.49405825  1
  O  O72  1  0.87064753  0.47221844  0.27064265  1
  O  O73  1  0.39842909  0.52778156  0.22935735  1
  O  O74  1  0.12935247  0.52778156  0.72935735  1
  O  O75  1  0.60157091  0.47221844  0.77064265  1
  O  O76  1  0.13833780  0.18320368  0.74870461  1
  O  O77  1  0.95513412  0.81679632  0.75129539  1
  O  O78  1  0.86166220  0.81679632  0.25129539  1
  O  O79  1  0.04486588  0.18320368  0.24870461  1
  O  O80  1  0.21431138  0.27095914  0.12238751  1
  O  O81  1  0.94335224  0.72904086  0.37761249  1
  O  O82  1  0.78568862  0.72904086  0.87761249  1
  O  O83  1  0.05664776  0.27095914  0.62238751  1
  O  O84  1  0.29377739  0.99694715  0.01786356  1
  O  O85  1  0.29683024  0.00305285  0.48213644  1
  O  O86  1  0.70622261  0.00305285  0.98213644  1
  O  O87  1  0.70316976  0.99694715  0.51786356  1
  O  O88  1  0.23531246  0.13089506  0.91883037  1
  O  O89  1  0.10441740  0.86910494  0.58116963  1
  O  O90  1  0.76468754  0.86910494  0.08116963  1
  O  O91  1  0.89558260  0.13089506  0.41883037  1
  O  O92  1  0.05912164  0.91388628  0.89724973  1
  O  O93  1  0.14523536  0.08611372  0.60275027  1
  O  O94  1  0.94087836  0.08611372  0.10275027  1
  O  O95  1  0.85476464  0.91388628  0.39724973  1
