# generated using pymatgen
data_V3CoSn2(PO4)6
_symmetry_space_group_name_H-M   'P 1'
_cell_length_a   8.94686144
_cell_length_b   8.56805031
_cell_length_c   8.56805141
_cell_angle_alpha   59.99999815
_cell_angle_beta   61.39098759
_cell_angle_gamma   61.39098994
_symmetry_Int_Tables_number   1
_chemical_formula_structural   V3CoSn2(PO4)6
_chemical_formula_sum   'V3 Co1 Sn2 P6 O24'
_cell_volume   473.95563896
_cell_formula_units_Z   1
loop_
 _symmetry_equiv_pos_site_id
 _symmetry_equiv_pos_as_xyz
  1  'x, y, z'
loop_
 _atom_site_type_symbol
 _atom_site_label
 _atom_site_symmetry_multiplicity
 _atom_site_fract_x
 _atom_site_fract_y
 _atom_site_fract_z
 _atom_site_occupancy
  V  V0  1  0.05803053  0.64732349  0.64732349  1
  V  V1  1  0.43634142  0.85455286  0.85455286  1
  V  V2  1  0.94598537  0.35133854  0.35133854  1
  Co  Co3  1  0.55419712  0.14860129  0.14860129  1
  Sn  Sn4  1  0.97428411  0.00857196  0.00857196  1
  Sn  Sn5  1  0.50021341  0.49992920  0.49992920  1
  P  P6  1  0.25391979  0.24868935  0.53357428  1
  P  P7  1  0.25391979  0.96381658  0.24868935  1
  P  P8  1  0.25391979  0.53357428  0.96381658  1
  P  P9  1  0.74941377  0.46464067  0.03647849  1
  P  P10  1  0.74941377  0.03647849  0.74946707  1
  P  P11  1  0.74941377  0.74946707  0.46464067  1
  O  O12  1  0.07938418  0.12963905  0.28414564  1
  O  O13  1  0.07938418  0.50683113  0.12963905  1
  O  O14  1  0.07938418  0.28414564  0.50683113  1
  O  O15  1  0.26649493  0.07653005  0.72059614  1
  O  O16  1  0.42570535  0.22013601  0.36903967  1
  O  O17  1  0.23114850  0.42369582  0.56597743  1
  O  O18  1  0.26649493  0.93637889  0.07653005  1
  O  O19  1  0.23114850  0.77917826  0.42369582  1
  O  O20  1  0.57822597  0.63020821  0.00696102  1
  O  O21  1  0.23114850  0.56597743  0.77917826  1
  O  O22  1  0.73836638  0.27898893  0.05794203  1
  O  O23  1  0.57822597  0.00696102  0.78460581  1
  O  O24  1  0.42570535  0.98511897  0.22013601  1
  O  O25  1  0.26649493  0.72059614  0.93637889  1
  O  O26  1  0.76593135  0.43934792  0.22099678  1
  O  O27  1  0.42570535  0.36903967  0.98511897  1
  O  O28  1  0.76593135  0.22099678  0.57372294  1
  O  O29  1  0.73836638  0.05794203  0.92470267  1
  O  O30  1  0.76593135  0.57372294  0.43934792  1
  O  O31  1  0.57822597  0.78460581  0.63020821  1
  O  O32  1  0.73836638  0.92470267  0.27898893  1
  O  O33  1  0.92172613  0.70815172  0.49702032  1
  O  O34  1  0.92172613  0.49702032  0.87310183  1
  O  O35  1  0.92172613  0.87310183  0.70815172  1
