# generated using pymatgen
data_Al2Si2PbO8
_symmetry_space_group_name_H-M   'P 1'
_cell_length_a   8.49664769
_cell_length_b   13.25331978
_cell_length_c   13.34291924
_cell_angle_alpha   90.00000000
_cell_angle_beta   100.07036822
_cell_angle_gamma   90.00000000
_symmetry_Int_Tables_number   1
_chemical_formula_structural   Al2Si2PbO8
_chemical_formula_sum   'Al16 Si16 Pb8 O64'
_cell_volume   1479.38161273
_cell_formula_units_Z   8
loop_
 _symmetry_equiv_pos_site_id
 _symmetry_equiv_pos_as_xyz
  1  'x, y, z'
loop_
 _atom_site_type_symbol
 _atom_site_label
 _atom_site_symmetry_multiplicity
 _atom_site_fract_x
 _atom_site_fract_y
 _atom_site_fract_z
 _atom_site_occupancy
  Al  Al0  1  0.61169134  0.92726418  0.86697351  1
  Al  Al1  1  0.88830866  0.42726418  0.63302649  1
  Al  Al2  1  0.38830866  0.07273582  0.13302649  1
  Al  Al3  1  0.11169134  0.57273582  0.36697351  1
  Al  Al4  1  0.61589662  0.43105147  0.36680280  1
  Al  Al5  1  0.88410338  0.93105147  0.13319720  1
  Al  Al6  1  0.38410338  0.56894853  0.63319720  1
  Al  Al7  1  0.11589662  0.06894853  0.86680280  1
  Al  Al8  1  0.47362484  0.87087780  0.42029624  1
  Al  Al9  1  0.02637516  0.37087780  0.07970376  1
  Al  Al10  1  0.52637516  0.12912220  0.57970376  1
  Al  Al11  1  0.97362484  0.62912220  0.92029624  1
  Al  Al12  1  0.47709184  0.36849581  0.92175186  1
  Al  Al13  1  0.02290816  0.86849581  0.57824814  1
  Al  Al14  1  0.52290816  0.63150419  0.07824814  1
  Al  Al15  1  0.97709184  0.13150419  0.42175186  1
  Si  Si16  1  0.09846333  0.92354853  0.35952678  1
  Si  Si17  1  0.40153667  0.42354853  0.14047322  1
  Si  Si18  1  0.90153667  0.07645147  0.64047322  1
  Si  Si19  1  0.59846333  0.57645147  0.85952678  1
  Si  Si20  1  0.10165512  0.42535345  0.85931141  1
  Si  Si21  1  0.39834488  0.92535345  0.64068859  1
  Si  Si22  1  0.89834488  0.57464655  0.14068859  1
  Si  Si23  1  0.60165512  0.07464655  0.35931141  1
  Si  Si24  1  0.98465151  0.86217055  0.92466625  1
  Si  Si25  1  0.51534849  0.36217055  0.57533375  1
  Si  Si26  1  0.01534849  0.13782945  0.07533375  1
  Si  Si27  1  0.48465151  0.63782945  0.42466625  1
  Si  Si28  1  0.99161109  0.36497235  0.42452899  1
  Si  Si29  1  0.50838891  0.86497235  0.07547101  1
  Si  Si30  1  0.00838891  0.63502765  0.57547101  1
  Si  Si31  1  0.49161109  0.13502765  0.92452899  1
  Pb  Pb32  1  0.80257201  0.74040483  0.32584015  1
  Pb  Pb33  1  0.69742799  0.24040483  0.17415985  1
  Pb  Pb34  1  0.19742799  0.25959517  0.67415985  1
  Pb  Pb35  1  0.30257201  0.75959517  0.82584015  1
  Pb  Pb36  1  0.80889509  0.23996140  0.82275152  1
  Pb  Pb37  1  0.69110491  0.73996140  0.67724848  1
  Pb  Pb38  1  0.19110491  0.76003860  0.17724848  1
  Pb  Pb39  1  0.30889509  0.26003860  0.32275152  1
  O  O40  1  0.50291098  0.88206218  0.74946066  1
  O  O41  1  0.99708902  0.38206218  0.75053934  1
  O  O42  1  0.49708902  0.11793782  0.25053934  1
  O  O43  1  0.00291098  0.61793782  0.24946066  1
  O  O44  1  0.50855986  0.38419734  0.24975551  1
  O  O45  1  0.99144014  0.88419734  0.25024449  1
  O  O46  1  0.49144014  0.61580266  0.75024449  1
  O  O47  1  0.00855986  0.11580266  0.74975551  1
  O  O48  1  0.05184501  0.74975956  0.89849333  1
  O  O49  1  0.44815499  0.24975956  0.60150667  1
  O  O50  1  0.94815499  0.25024044  0.10150667  1
  O  O51  1  0.55184501  0.75024044  0.39849333  1
  O  O52  1  0.05205412  0.25199843  0.39393349  1
  O  O53  1  0.44794588  0.75199843  0.10606651  1
  O  O54  1  0.94794588  0.74800157  0.60606651  1
  O  O55  1  0.55205412  0.24800157  0.89393349  1
  O  O56  1  0.79988357  0.87449278  0.86858296  1
  O  O57  1  0.70011643  0.37449278  0.63141704  1
  O  O58  1  0.20011643  0.12550722  0.13141704  1
  O  O59  1  0.29988357  0.62550722  0.36858296  1
  O  O60  1  0.80769407  0.38405093  0.37107476  1
  O  O61  1  0.69230593  0.88405093  0.12892524  1
  O  O62  1  0.19230593  0.61594907  0.62892524  1
  O  O63  1  0.30769407  0.11594907  0.87107476  1
  O  O64  1  0.27562193  0.87724535  0.35458710  1
  O  O65  1  0.22437807  0.37724535  0.14541290  1
  O  O66  1  0.72437807  0.12275465  0.64541290  1
  O  O67  1  0.77562193  0.62275465  0.85458710  1
  O  O68  1  0.27916359  0.37893827  0.85835403  1
  O  O69  1  0.22083641  0.87893827  0.64164597  1
  O  O70  1  0.72083641  0.62106173  0.14164597  1
  O  O71  1  0.77916359  0.12106173  0.35835403  1
  O  O72  1  0.61668053  0.05786842  0.88438784  1
  O  O73  1  0.88331947  0.55786842  0.61561216  1
  O  O74  1  0.38331947  0.94213158  0.11561216  1
  O  O75  1  0.11668053  0.44213158  0.38438784  1
  O  O76  1  0.60755715  0.56164074  0.38136360  1
  O  O77  1  0.89244285  0.06164074  0.11863640  1
  O  O78  1  0.39244285  0.43835926  0.61863640  1
  O  O79  1  0.10755715  0.93835926  0.88136360  1
  O  O80  1  0.10241076  0.04461653  0.37572804  1
  O  O81  1  0.39758924  0.54461653  0.12427196  1
  O  O82  1  0.89758924  0.95538347  0.62427196  1
  O  O83  1  0.60241076  0.45538347  0.87572804  1
  O  O84  1  0.10013343  0.54692168  0.86898926  1
  O  O85  1  0.39986657  0.04692168  0.63101074  1
  O  O86  1  0.89986657  0.45307832  0.13101074  1
  O  O87  1  0.60013343  0.95307832  0.36898926  1
  O  O88  1  0.49485213  0.86877084  0.95013083  1
  O  O89  1  0.00514787  0.36877084  0.54986917  1
  O  O90  1  0.50514787  0.13122916  0.04986917  1
  O  O91  1  0.99485213  0.63122916  0.45013083  1
  O  O92  1  0.50427146  0.36985933  0.45082683  1
  O  O93  1  0.99572854  0.86985933  0.04917317  1
  O  O94  1  0.49572854  0.63014067  0.54917317  1
  O  O95  1  0.00427146  0.13014067  0.95082683  1
  O  O96  1  0.00952094  0.86760281  0.44454437  1
  O  O97  1  0.49047906  0.36760281  0.05545563  1
  O  O98  1  0.99047906  0.13239719  0.55545563  1
  O  O99  1  0.50952094  0.63239719  0.94454437  1
  O  O100  1  0.01217504  0.37424173  0.94642602  1
  O  O101  1  0.48782496  0.87424173  0.55357398  1
  O  O102  1  0.98782496  0.62575827  0.05357398  1
  O  O103  1  0.51217504  0.12575827  0.44642602  1
