# generated using pymatgen
data_Na2SrV2CoO8
_symmetry_space_group_name_H-M   'P 1'
_cell_length_a   5.57984962
_cell_length_b   9.70002239
_cell_length_c   13.85622354
_cell_angle_alpha   90.09171613
_cell_angle_beta   90.00000000
_cell_angle_gamma   90.00000000
_symmetry_Int_Tables_number   1
_chemical_formula_structural   Na2SrV2CoO8
_chemical_formula_sum   'Na8 Sr4 V8 Co4 O32'
_cell_volume   749.96251334
_cell_formula_units_Z   4
loop_
 _symmetry_equiv_pos_site_id
 _symmetry_equiv_pos_as_xyz
  1  'x, y, z'
loop_
 _atom_site_type_symbol
 _atom_site_label
 _atom_site_symmetry_multiplicity
 _atom_site_fract_x
 _atom_site_fract_y
 _atom_site_fract_z
 _atom_site_occupancy
  Na  Na0  1  0.51916691  0.18081679  0.91659189  1
  Na  Na1  1  0.01916691  0.31918321  0.08340811  1
  Na  Na2  1  0.48083309  0.81918321  0.08340811  1
  Na  Na3  1  0.98083309  0.68081679  0.91659189  1
  Na  Na4  1  0.48057779  0.84975865  0.58353795  1
  Na  Na5  1  0.98057779  0.65024135  0.41646205  1
  Na  Na6  1  0.51942221  0.15024135  0.41646205  1
  Na  Na7  1  0.01942221  0.34975865  0.58353795  1
  Sr  Sr8  1  0.44555712  0.53811767  0.75046333  1
  Sr  Sr9  1  0.94555712  0.96188233  0.24953667  1
  Sr  Sr10  1  0.55444288  0.46188233  0.24953667  1
  Sr  Sr11  1  0.05444288  0.03811767  0.75046333  1
  V  V12  1  0.53145096  0.18288877  0.63494916  1
  V  V13  1  0.03145096  0.31711123  0.36505084  1
  V  V14  1  0.46854904  0.81711123  0.36505084  1
  V  V15  1  0.96854904  0.68288877  0.63494916  1
  V  V16  1  0.51745488  0.84969038  0.86533152  1
  V  V17  1  0.01745488  0.65030962  0.13466848  1
  V  V18  1  0.48254512  0.15030962  0.13466848  1
  V  V19  1  0.98254512  0.34969038  0.86533152  1
  Co  Co20  1  0.50000000  0.50000000  0.50000000  1
  Co  Co21  1  -0.00000000  0.00000000  0.50000000  1
  Co  Co22  1  0.50000000  0.50000000  0.00000000  1
  Co  Co23  1  0.00000000  0.00000000  0.00000000  1
  O  O24  1  0.50626424  0.36220863  0.61511730  1
  O  O25  1  0.00626424  0.13779137  0.38488270  1
  O  O26  1  0.49373576  0.63779137  0.38488270  1
  O  O27  1  0.99373576  0.86220863  0.61511730  1
  O  O28  1  0.30324411  0.09408828  0.57652461  1
  O  O29  1  0.80324411  0.40591172  0.42347539  1
  O  O30  1  0.69675589  0.90591172  0.42347539  1
  O  O31  1  0.19675589  0.59408828  0.57652461  1
  O  O32  1  0.80590493  0.91944965  0.88287215  1
  O  O33  1  0.30590493  0.58055035  0.11712785  1
  O  O34  1  0.19409507  0.08055035  0.11712785  1
  O  O35  1  0.69409507  0.41944965  0.88287215  1
  O  O36  1  0.29968222  0.95869560  0.91597110  1
  O  O37  1  0.79968222  0.54130440  0.08402890  1
  O  O38  1  0.70031778  0.04130440  0.08402890  1
  O  O39  1  0.20031778  0.45869560  0.91597110  1
  O  O40  1  0.50730985  0.69211313  0.92502536  1
  O  O41  1  0.00730985  0.80788687  0.07497464  1
  O  O42  1  0.49269015  0.30788687  0.07497464  1
  O  O43  1  0.99269015  0.19211313  0.92502536  1
  O  O44  1  0.80423060  0.12708910  0.58561326  1
  O  O45  1  0.30423060  0.37291090  0.41438674  1
  O  O46  1  0.19576940  0.87291090  0.41438674  1
  O  O47  1  0.69576940  0.62708910  0.58561326  1
  O  O48  1  0.52156826  0.14013818  0.75447438  1
  O  O49  1  0.02156826  0.35986182  0.24552562  1
  O  O50  1  0.47843174  0.85986182  0.24552562  1
  O  O51  1  0.97843174  0.64013818  0.75447438  1
  O  O52  1  0.44810080  0.81713049  0.74698771  1
  O  O53  1  0.94810080  0.68286951  0.25301229  1
  O  O54  1  0.55189920  0.18286951  0.25301229  1
  O  O55  1  0.05189920  0.31713049  0.74698771  1
