# generated using pymatgen
data_LaMgAl7Fe2
_symmetry_space_group_name_H-M   'P 1'
_cell_length_a   4.02044794
_cell_length_b   12.98461611
_cell_length_c   14.47813362
_cell_angle_alpha   90.00000000
_cell_angle_beta   90.00000000
_cell_angle_gamma   90.00000000
_symmetry_Int_Tables_number   1
_chemical_formula_structural   LaMgAl7Fe2
_chemical_formula_sum   'La4 Mg4 Al28 Fe8'
_cell_volume   755.81609791
_cell_formula_units_Z   4
loop_
 _symmetry_equiv_pos_site_id
 _symmetry_equiv_pos_as_xyz
  1  'x, y, z'
loop_
 _atom_site_type_symbol
 _atom_site_label
 _atom_site_symmetry_multiplicity
 _atom_site_fract_x
 _atom_site_fract_y
 _atom_site_fract_z
 _atom_site_occupancy
  La  La0  1  -0.00000000  0.83960413  0.18083475  1
  La  La1  1  0.00000000  0.16039587  0.81916525  1
  La  La2  1  -0.00000000  0.33960413  0.31916525  1
  La  La3  1  -0.00000000  0.66039587  0.68083475  1
  Mg  Mg4  1  0.00000000  0.83227972  0.45243486  1
  Mg  Mg5  1  -0.00000000  0.16772028  0.54756514  1
  Mg  Mg6  1  -0.00000000  0.33227972  0.04756514  1
  Mg  Mg7  1  -0.00000000  0.66772028  0.95243486  1
  Al  Al8  1  0.50000000  0.50000000  0.00000000  1
  Al  Al9  1  0.50000000  -0.00000000  0.50000000  1
  Al  Al10  1  0.50000000  0.83465027  0.00529589  1
  Al  Al11  1  0.50000000  0.16534973  0.99470411  1
  Al  Al12  1  0.50000000  0.33465027  0.49470411  1
  Al  Al13  1  0.50000000  0.66534973  0.50529589  1
  Al  Al14  1  -0.00000000  0.50000000  0.50000000  1
  Al  Al15  1  -0.00000000  -0.00000000  0.00000000  1
  Al  Al16  1  0.50000000  0.52599986  0.36704608  1
  Al  Al17  1  0.50000000  0.47400014  0.63295392  1
  Al  Al18  1  0.50000000  0.02599986  0.13295392  1
  Al  Al19  1  0.50000000  0.97400014  0.86704608  1
  Al  Al20  1  0.50000000  0.65645222  0.11996146  1
  Al  Al21  1  0.50000000  0.34354778  0.88003854  1
  Al  Al22  1  0.50000000  0.15645222  0.38003854  1
  Al  Al23  1  0.50000000  0.84354778  0.61996146  1
  Al  Al24  1  -0.00000000  0.59316035  0.24472519  1
  Al  Al25  1  -0.00000000  0.40683965  0.75527481  1
  Al  Al26  1  0.00000000  0.09316035  0.25527481  1
  Al  Al27  1  -0.00000000  0.90683965  0.74472519  1
  Al  Al28  1  0.50000000  0.72918047  0.32743540  1
  Al  Al29  1  0.50000000  0.27081953  0.67256460  1
  Al  Al30  1  0.50000000  0.22918047  0.17256460  1
  Al  Al31  1  0.50000000  0.77081953  0.82743540  1
  Al  Al32  1  0.50000000  0.95261050  0.32214482  1
  Al  Al33  1  0.50000000  0.04738950  0.67785518  1
  Al  Al34  1  0.50000000  0.45261050  0.17785518  1
  Al  Al35  1  0.50000000  0.54738950  0.82214482  1
  Fe  Fe36  1  0.00000000  0.63946561  0.39959651  1
  Fe  Fe37  1  0.00000000  0.36053439  0.60040349  1
  Fe  Fe38  1  0.00000000  0.13946561  0.10040349  1
  Fe  Fe39  1  -0.00000000  0.86053439  0.89959651  1
  Fe  Fe40  1  -0.00000000  0.53379823  0.09135049  1
  Fe  Fe41  1  0.00000000  0.46620177  0.90864951  1
  Fe  Fe42  1  -0.00000000  0.03379823  0.40864951  1
  Fe  Fe43  1  0.00000000  0.96620177  0.59135049  1
