# generated using pymatgen
data_Tb3(Al3Ru)4
_symmetry_space_group_name_H-M   'P 1'
_cell_length_a   8.84364851
_cell_length_b   8.84463106
_cell_length_c   9.60076556
_cell_angle_alpha   90.00000000
_cell_angle_beta   90.00000000
_cell_angle_gamma   119.99119399
_symmetry_Int_Tables_number   1
_chemical_formula_structural   Tb3(Al3Ru)4
_chemical_formula_sum   'Tb6 Al24 Ru8'
_cell_volume   650.40852009
_cell_formula_units_Z   2
loop_
 _symmetry_equiv_pos_site_id
 _symmetry_equiv_pos_as_xyz
  1  'x, y, z'
loop_
 _atom_site_type_symbol
 _atom_site_label
 _atom_site_symmetry_multiplicity
 _atom_site_fract_x
 _atom_site_fract_y
 _atom_site_fract_z
 _atom_site_occupancy
  Tb  Tb0  1  0.61316279  0.80657738  0.75000000  1
  Tb  Tb1  1  0.19339858  0.38685750  0.75000000  1
  Tb  Tb2  1  0.19342724  0.80652442  0.75000000  1
  Tb  Tb3  1  0.38683721  0.19342262  0.25000000  1
  Tb  Tb4  1  0.80660142  0.61314250  0.25000000  1
  Tb  Tb5  1  0.80657276  0.19347558  0.25000000  1
  Al  Al6  1  0.56108205  0.43884341  0.75000000  1
  Al  Al7  1  0.87774808  0.43885804  0.75000000  1
  Al  Al8  1  0.56108418  0.12221082  0.75000000  1
  Al  Al9  1  0.43891795  0.56115659  0.25000000  1
  Al  Al10  1  0.12225192  0.56114196  0.25000000  1
  Al  Al11  1  0.43891582  0.87778918  0.25000000  1
  Al  Al12  1  0.83810291  0.67629926  0.57868153  1
  Al  Al13  1  0.83808771  0.16182354  0.57866096  1
  Al  Al14  1  0.32369487  0.16186389  0.57867942  1
  Al  Al15  1  0.16189709  0.32370074  0.42131847  1
  Al  Al16  1  0.16191229  0.83817646  0.42133904  1
  Al  Al17  1  0.67630513  0.83813611  0.42132058  1
  Al  Al18  1  0.16189709  0.32370074  0.07868153  1
  Al  Al19  1  0.16191229  0.83817646  0.07866096  1
  Al  Al20  1  0.67630513  0.83813611  0.07867942  1
  Al  Al21  1  0.83810291  0.67629926  0.92131847  1
  Al  Al22  1  0.83808771  0.16182354  0.92133904  1
  Al  Al23  1  0.32369487  0.16186389  0.92132058  1
  Al  Al24  1  0.66665458  0.33330650  0.48670449  1
  Al  Al25  1  0.33334542  0.66669350  0.51329551  1
  Al  Al26  1  0.33334542  0.66669350  0.98670449  1
  Al  Al27  1  0.66665458  0.33330650  0.01329551  1
  Al  Al28  1  -0.00001332  0.99998689  0.75000000  1
  Al  Al29  1  0.00001332  0.00001311  0.25000000  1
  Ru  Ru30  1  0.00000000  -0.00000000  0.50000000  1
  Ru  Ru31  1  0.00000000  -0.00000000  0.00000000  1
  Ru  Ru32  1  0.50000000  0.50000000  0.50000000  1
  Ru  Ru33  1  0.00000000  0.50000000  0.50000000  1
  Ru  Ru34  1  0.50000000  -0.00000000  0.50000000  1
  Ru  Ru35  1  0.50000000  0.50000000  0.00000000  1
  Ru  Ru36  1  0.00000000  0.50000000  0.00000000  1
  Ru  Ru37  1  0.50000000  -0.00000000  0.00000000  1
