# generated using pymatgen
data_Sr2ZnWO6
_symmetry_space_group_name_H-M   'P 1'
_cell_length_a   8.05765127
_cell_length_b   8.06256949
_cell_length_c   8.07110091
_cell_angle_alpha   89.99068733
_cell_angle_beta   89.93516802
_cell_angle_gamma   90.00190362
_symmetry_Int_Tables_number   1
_chemical_formula_structural   Sr2ZnWO6
_chemical_formula_sum   'Sr8 Zn4 W4 O24'
_cell_volume   524.34174027
_cell_formula_units_Z   4
loop_
 _symmetry_equiv_pos_site_id
 _symmetry_equiv_pos_as_xyz
  1  'x, y, z'
loop_
 _atom_site_type_symbol
 _atom_site_label
 _atom_site_symmetry_multiplicity
 _atom_site_fract_x
 _atom_site_fract_y
 _atom_site_fract_z
 _atom_site_occupancy
  Sr  Sr0  1  0.74954695  0.49142572  0.49025756  1
  Sr  Sr1  1  0.25045305  0.50857428  0.50974244  1
  Sr  Sr2  1  0.75059249  0.99119763  0.48699184  1
  Sr  Sr3  1  0.24940751  0.00880237  0.51300816  1
  Sr  Sr4  1  0.74964539  0.49094305  0.98668389  1
  Sr  Sr5  1  0.25035461  0.50905695  0.01331611  1
  Sr  Sr6  1  0.25098190  0.01759249  0.00913963  1
  Sr  Sr7  1  0.74901810  0.98240751  0.99086037  1
  Zn  Zn8  1  0.99976988  0.24850511  0.75143768  1
  Zn  Zn9  1  0.00023012  0.75149489  0.24856232  1
  Zn  Zn10  1  0.50101335  0.25141182  0.25059225  1
  Zn  Zn11  1  0.49898665  0.74858818  0.74940775  1
  W  W12  1  0.00028369  0.25228457  0.25043545  1
  W  W13  1  0.99971631  0.74771543  0.74956455  1
  W  W14  1  0.50158816  0.24831519  0.75062844  1
  W  W15  1  0.49841184  0.75168481  0.24937156  1
  O  O16  1  0.96774002  0.01357063  0.21837762  1
  O  O17  1  0.03225998  0.98642937  0.78162238  1
  O  O18  1  0.03038528  0.28039276  0.01151368  1
  O  O19  1  0.96961472  0.71960724  0.98848632  1
  O  O20  1  0.03309760  0.49063220  0.28031604  1
  O  O21  1  0.96690240  0.50936780  0.71968396  1
  O  O22  1  0.97234593  0.22155583  0.49031174  1
  O  O23  1  0.02765407  0.77844417  0.50968826  1
  O  O24  1  0.76123383  0.28963933  0.22895388  1
  O  O25  1  0.23876617  0.71036067  0.77104612  1
  O  O26  1  0.74013885  0.22012645  0.78516391  1
  O  O27  1  0.25986115  0.77987355  0.21483609  1
  O  O28  1  0.76055875  0.78261118  0.72468238  1
  O  O29  1  0.23944125  0.21738882  0.27531762  1
  O  O30  1  0.52996848  0.99098677  0.22461871  1
  O  O31  1  0.47003152  0.00901323  0.77538129  1
  O  O32  1  0.47032613  0.27730707  0.99017232  1
  O  O33  1  0.52967387  0.72269293  0.00982768  1
  O  O34  1  0.53175726  0.22324680  0.51111199  1
  O  O35  1  0.46824274  0.77675320  0.48888801  1
  O  O36  1  0.46684498  0.51249784  0.27446332  1
  O  O37  1  0.53315502  0.48750216  0.72553668  1
  O  O38  1  0.73812128  0.72760239  0.28157229  1
  O  O39  1  0.26187872  0.27239761  0.71842771  1
