# generated using pymatgen
data_Sr2P7I
_symmetry_space_group_name_H-M   'P 1'
_cell_length_a   10.05334395
_cell_length_b   10.05334395
_cell_length_c   10.05334395
_cell_angle_alpha   90.00000000
_cell_angle_beta   90.00000000
_cell_angle_gamma   90.00000000
_symmetry_Int_Tables_number   1
_chemical_formula_structural   Sr2P7I
_chemical_formula_sum   'Sr8 P28 I4'
_cell_volume   1016.08870410
_cell_formula_units_Z   4
loop_
 _symmetry_equiv_pos_site_id
 _symmetry_equiv_pos_as_xyz
  1  'x, y, z'
loop_
 _atom_site_type_symbol
 _atom_site_label
 _atom_site_symmetry_multiplicity
 _atom_site_fract_x
 _atom_site_fract_y
 _atom_site_fract_z
 _atom_site_occupancy
  Sr  Sr0  1  0.15399170  0.65399170  0.84600830  1
  Sr  Sr1  1  0.65399170  0.84600830  0.15399170  1
  Sr  Sr2  1  0.84600830  0.15399170  0.65399170  1
  Sr  Sr3  1  0.34600830  0.34600830  0.34600830  1
  Sr  Sr4  1  0.90191518  0.40191518  0.09808482  1
  Sr  Sr5  1  0.40191518  0.09808482  0.90191518  1
  Sr  Sr6  1  0.09808482  0.90191518  0.40191518  1
  Sr  Sr7  1  0.59808482  0.59808482  0.59808482  1
  P  P8  1  0.71953839  0.21953839  0.28046161  1
  P  P9  1  0.21953839  0.28046161  0.71953839  1
  P  P10  1  0.28046161  0.71953839  0.21953839  1
  P  P11  1  0.78046161  0.78046161  0.78046161  1
  P  P12  1  0.30820615  0.46436796  0.64270159  1
  P  P13  1  0.35729841  0.80820615  0.03563204  1
  P  P14  1  0.96436796  0.85729841  0.69179385  1
  P  P15  1  0.80820615  0.03563204  0.35729841  1
  P  P16  1  0.85729841  0.69179385  0.96436796  1
  P  P17  1  0.46436796  0.64270159  0.30820615  1
  P  P18  1  0.69179385  0.96436796  0.85729841  1
  P  P19  1  0.64270159  0.30820615  0.46436796  1
  P  P20  1  0.03563204  0.35729841  0.80820615  1
  P  P21  1  0.19179385  0.53563204  0.14270159  1
  P  P22  1  0.14270159  0.19179385  0.53563204  1
  P  P23  1  0.53563204  0.14270159  0.19179385  1
  P  P24  1  0.35793694  0.45733096  0.02923099  1
  P  P25  1  0.97076901  0.85793694  0.04266904  1
  P  P26  1  0.95733096  0.47076901  0.64206306  1
  P  P27  1  0.85793694  0.04266904  0.97076901  1
  P  P28  1  0.47076901  0.64206306  0.95733096  1
  P  P29  1  0.45733096  0.02923099  0.35793694  1
  P  P30  1  0.64206306  0.95733096  0.47076901  1
  P  P31  1  0.02923099  0.35793694  0.45733096  1
  P  P32  1  0.04266904  0.97076901  0.85793694  1
  P  P33  1  0.14206306  0.54266904  0.52923099  1
  P  P34  1  0.52923099  0.14206306  0.54266904  1
  P  P35  1  0.54266904  0.52923099  0.14206306  1
  I  I36  1  0.34881097  0.84881097  0.65118903  1
  I  I37  1  0.84881097  0.65118903  0.34881097  1
  I  I38  1  0.65118903  0.34881097  0.84881097  1
  I  I39  1  0.15118903  0.15118903  0.15118903  1
