# generated using pymatgen
data_B3Pb6BrO10
_symmetry_space_group_name_H-M   'P 1'
_cell_length_a   7.30205057
_cell_length_b   11.14773509
_cell_length_c   17.60164915
_cell_angle_alpha   90.00000000
_cell_angle_beta   90.00000000
_cell_angle_gamma   90.00000000
_symmetry_Int_Tables_number   1
_chemical_formula_structural   B3Pb6BrO10
_chemical_formula_sum   'B12 Pb24 Br4 O40'
_cell_volume   1432.79756948
_cell_formula_units_Z   4
loop_
 _symmetry_equiv_pos_site_id
 _symmetry_equiv_pos_as_xyz
  1  'x, y, z'
loop_
 _atom_site_type_symbol
 _atom_site_label
 _atom_site_symmetry_multiplicity
 _atom_site_fract_x
 _atom_site_fract_y
 _atom_site_fract_z
 _atom_site_occupancy
  B  B0  1  0.69695071  0.25000000  0.22935799  1
  B  B1  1  0.30304929  0.75000000  0.77064201  1
  B  B2  1  0.69695071  0.75000000  0.27064201  1
  B  B3  1  0.30304929  0.25000000  0.72935799  1
  B  B4  1  0.28199405  0.50092274  0.50195169  1
  B  B5  1  0.71800595  0.00092274  0.49804831  1
  B  B6  1  0.28199405  0.49907726  0.99804831  1
  B  B7  1  0.71800595  0.99907726  0.00195169  1
  B  B8  1  0.71800595  0.49907726  0.49804831  1
  B  B9  1  0.28199405  0.99907726  0.50195169  1
  B  B10  1  0.71800595  0.50092274  0.00195169  1
  B  B11  1  0.28199405  0.00092274  0.99804831  1
  Pb  Pb12  1  0.07923099  0.25000000  0.52494971  1
  Pb  Pb13  1  0.92076901  0.75000000  0.47505029  1
  Pb  Pb14  1  0.07923099  0.75000000  0.97505029  1
  Pb  Pb15  1  0.92076901  0.25000000  0.02494971  1
  Pb  Pb16  1  0.59072199  0.25000000  0.43698176  1
  Pb  Pb17  1  0.40927801  0.75000000  0.56301824  1
  Pb  Pb18  1  0.59072199  0.75000000  0.06301824  1
  Pb  Pb19  1  0.40927801  0.25000000  0.93698176  1
  Pb  Pb20  1  0.96601349  0.42117388  0.34146156  1
  Pb  Pb21  1  0.03398651  0.92117388  0.65853844  1
  Pb  Pb22  1  0.96601349  0.57882612  0.15853844  1
  Pb  Pb23  1  0.03398651  0.07882612  0.84146156  1
  Pb  Pb24  1  0.03398651  0.57882612  0.65853844  1
  Pb  Pb25  1  0.96601349  0.07882612  0.34146156  1
  Pb  Pb26  1  0.03398651  0.42117388  0.84146156  1
  Pb  Pb27  1  0.96601349  0.92117388  0.15853844  1
  Pb  Pb28  1  0.52397668  0.06334679  0.65470604  1
  Pb  Pb29  1  0.47602332  0.56334679  0.34529396  1
  Pb  Pb30  1  0.52397668  0.93665321  0.84529396  1
  Pb  Pb31  1  0.47602332  0.43665321  0.15470604  1
  Pb  Pb32  1  0.47602332  0.93665321  0.34529396  1
  Pb  Pb33  1  0.52397668  0.43665321  0.65470604  1
  Pb  Pb34  1  0.47602332  0.06334679  0.15470604  1
  Pb  Pb35  1  0.52397668  0.56334679  0.84529396  1
  Br  Br36  1  0.18229492  0.25000000  0.22784491  1
  Br  Br37  1  0.81770508  0.75000000  0.77215509  1
  Br  Br38  1  0.18229492  0.75000000  0.27215509  1
  Br  Br39  1  0.81770508  0.25000000  0.72784491  1
  O  O40  1  0.23113405  0.40205479  0.46019941  1
  O  O41  1  0.76886595  0.90205479  0.53980059  1
  O  O42  1  0.23113405  0.59794521  0.03980059  1
  O  O43  1  0.76886595  0.09794521  0.96019941  1
  O  O44  1  0.76886595  0.59794521  0.53980059  1
  O  O45  1  0.23113405  0.09794521  0.46019941  1
  O  O46  1  0.76886595  0.40205479  0.96019941  1
  O  O47  1  0.23113405  0.90205479  0.03980059  1
  O  O48  1  0.91101030  0.25000000  0.41085805  1
  O  O49  1  0.08898970  0.75000000  0.58914195  1
  O  O50  1  0.91101030  0.75000000  0.08914195  1
  O  O51  1  0.08898970  0.25000000  0.91085805  1
  O  O52  1  0.65638374  0.10547950  0.53319606  1
  O  O53  1  0.34361626  0.60547950  0.46680394  1
  O  O54  1  0.65638374  0.89452050  0.96680394  1
  O  O55  1  0.34361626  0.39452050  0.03319606  1
  O  O56  1  0.34361626  0.89452050  0.46680394  1
  O  O57  1  0.65638374  0.39452050  0.53319606  1
  O  O58  1  0.34361626  0.10547950  0.03319606  1
  O  O59  1  0.65638374  0.60547950  0.96680394  1
  O  O60  1  0.72584188  0.36069005  0.26152424  1
  O  O61  1  0.27415812  0.86069005  0.73847576  1
  O  O62  1  0.72584188  0.63930995  0.23847576  1
  O  O63  1  0.27415812  0.13930995  0.76152424  1
  O  O64  1  0.27415812  0.63930995  0.73847576  1
  O  O65  1  0.72584188  0.13930995  0.26152424  1
  O  O66  1  0.27415812  0.36069005  0.76152424  1
  O  O67  1  0.72584188  0.86069005  0.23847576  1
  O  O68  1  0.38771488  0.25000000  0.65583973  1
  O  O69  1  0.61228512  0.75000000  0.34416027  1
  O  O70  1  0.38771488  0.75000000  0.84416027  1
  O  O71  1  0.61228512  0.25000000  0.15583973  1
  O  O72  1  0.72744542  0.49884518  0.41837430  1
  O  O73  1  0.27255458  0.99884518  0.58162570  1
  O  O74  1  0.72744542  0.50115482  0.08162570  1
  O  O75  1  0.27255458  0.00115482  0.91837430  1
  O  O76  1  0.27255458  0.50115482  0.58162570  1
  O  O77  1  0.72744542  0.00115482  0.41837430  1
  O  O78  1  0.27255458  0.49884518  0.91837430  1
  O  O79  1  0.72744542  0.99884518  0.08162570  1
