# generated using pymatgen
data_Ba9U4(Ag5S12)2
_symmetry_space_group_name_H-M   'P 1'
_cell_length_a   14.11018665
_cell_length_b   14.11018665
_cell_length_c   15.65797989
_cell_angle_alpha   116.78057548
_cell_angle_beta   116.78057548
_cell_angle_gamma   90.00000000
_symmetry_Int_Tables_number   1
_chemical_formula_structural   Ba9U4(Ag5S12)2
_chemical_formula_sum   'Ba18 U8 Ag20 S48'
_cell_volume   2402.60011725
_cell_formula_units_Z   2
loop_
 _symmetry_equiv_pos_site_id
 _symmetry_equiv_pos_as_xyz
  1  'x, y, z'
loop_
 _atom_site_type_symbol
 _atom_site_label
 _atom_site_symmetry_multiplicity
 _atom_site_fract_x
 _atom_site_fract_y
 _atom_site_fract_z
 _atom_site_occupancy
  Ba  Ba0  1  0.17546241  0.45123985  0.80642151  1
  Ba  Ba1  1  0.63095910  0.35518167  0.80642151  1
  Ba  Ba2  1  0.67546241  0.85518167  0.80642151  1
  Ba  Ba3  1  0.13095910  0.95123985  0.80642151  1
  Ba  Ba4  1  0.35518167  0.17546241  0.80642151  1
  Ba  Ba5  1  0.45123985  0.63095910  0.80642151  1
  Ba  Ba6  1  0.95123985  0.67546241  0.80642151  1
  Ba  Ba7  1  0.85518167  0.13095910  0.80642151  1
  Ba  Ba8  1  0.04633929  0.32337548  0.18789886  1
  Ba  Ba9  1  0.14155956  0.86452338  0.18789886  1
  Ba  Ba10  1  0.54633929  0.36452338  0.18789886  1
  Ba  Ba11  1  0.64155956  0.82337548  0.18789886  1
  Ba  Ba12  1  0.86452338  0.04633929  0.18789886  1
  Ba  Ba13  1  0.32337548  0.14155956  0.18789886  1
  Ba  Ba14  1  0.82337548  0.54633929  0.18789886  1
  Ba  Ba15  1  0.36452338  0.64155956  0.18789886  1
  Ba  Ba16  1  0.25278764  0.25278764  0.50557528  1
  Ba  Ba17  1  0.75278764  0.75278764  0.50557528  1
  U  U18  1  0.50687646  0.49846647  0.50534293  1
  U  U19  1  0.99846647  0.00687646  0.50534293  1
  U  U20  1  0.00687646  0.50687646  0.50534293  1
  U  U21  1  0.49846647  0.99846647  0.50534293  1
  U  U22  1  0.49161911  0.99161911  0.98323823  1
  U  U23  1  0.99161911  0.49161911  0.98323823  1
  U  U24  1  0.50009737  0.50009737  0.00019475  1
  U  U25  1  0.00009737  0.00009737  0.00019475  1
  Ag  Ag26  1  0.96050088  0.25123376  0.50147091  1
  Ag  Ag27  1  0.54097003  0.25023716  0.50147091  1
  Ag  Ag28  1  0.46050088  0.75023716  0.50147091  1
  Ag  Ag29  1  0.04097003  0.75123376  0.50147091  1
  Ag  Ag30  1  0.25023716  0.96050088  0.50147091  1
  Ag  Ag31  1  0.25123376  0.54097003  0.50147091  1
  Ag  Ag32  1  0.75123376  0.46050088  0.50147091  1
  Ag  Ag33  1  0.75023716  0.04097003  0.50147091  1
  Ag  Ag34  1  0.82247241  0.67690843  0.99938084  1
  Ag  Ag35  1  0.17690843  0.32247241  0.99938084  1
  Ag  Ag36  1  0.32247241  0.82247241  0.99938084  1
  Ag  Ag37  1  0.67690843  0.17690843  0.99938084  1
  Ag  Ag38  1  0.95095340  0.81606688  0.26702028  1
  Ag  Ag39  1  0.31606688  0.45095340  0.26702028  1
  Ag  Ag40  1  0.45095340  0.95095340  0.26702028  1
  Ag  Ag41  1  0.81606688  0.31606688  0.26702028  1
  Ag  Ag42  1  0.33905722  0.83905722  0.67811444  1
  Ag  Ag43  1  0.83905722  0.33905722  0.67811444  1
  Ag  Ag44  1  0.17520661  0.67520661  0.35041322  1
  Ag  Ag45  1  0.67520661  0.17520661  0.35041322  1
  S  S46  1  0.00119458  0.30099804  0.37127492  1
  S  S47  1  0.37008035  0.07027688  0.37127492  1
  S  S48  1  0.50119458  0.57027688  0.37127492  1
  S  S49  1  0.87008035  0.80099804  0.37127492  1
  S  S50  1  0.07027688  0.00119458  0.37127492  1
  S  S51  1  0.30099804  0.37008035  0.37127492  1
  S  S52  1  0.80099804  0.50119458  0.37127492  1
  S  S53  1  0.57027688  0.87008035  0.37127492  1
  S  S54  1  0.39734350  0.65626769  0.99986872  1
  S  S55  1  0.60252522  0.34360103  0.99986872  1
  S  S56  1  0.89734350  0.84360103  0.99986872  1
  S  S57  1  0.10252522  0.15626769  0.99986872  1
  S  S58  1  0.34360103  0.39734350  0.99986872  1
  S  S59  1  0.65626769  0.60252522  0.99986872  1
  S  S60  1  0.15626769  0.89734350  0.99986872  1
  S  S61  1  0.84360103  0.10252522  0.99986872  1
  S  S62  1  0.20334288  0.50500653  0.62916968  1
  S  S63  1  0.42582679  0.12416314  0.62916968  1
  S  S64  1  0.70334288  0.62416314  0.62916968  1
  S  S65  1  0.92582679  0.00500653  0.62916968  1
  S  S66  1  0.12416314  0.20334288  0.62916968  1
  S  S67  1  0.50500653  0.42582679  0.62916968  1
  S  S68  1  0.00500653  0.70334288  0.62916968  1
  S  S69  1  0.62416314  0.92582679  0.62916968  1
  S  S70  1  0.82247328  0.50947784  0.83195113  1
  S  S71  1  0.00947784  0.32247328  0.83195113  1
  S  S72  1  0.32247328  0.82247328  0.83195112  1
  S  S73  1  0.50947784  0.00947784  0.83195113  1
  S  S74  1  0.56453699  0.31916502  0.38370202  1
  S  S75  1  0.81916502  0.06453699  0.38370202  1
  S  S76  1  0.06453699  0.56453699  0.38370202  1
  S  S77  1  0.31916502  0.81916502  0.38370202  1
  S  S78  1  0.99303090  0.66075721  0.15378811  1
  S  S79  1  0.16075721  0.49303090  0.15378811  1
  S  S80  1  0.49303090  0.99303090  0.15378811  1
  S  S81  1  0.66075721  0.16075721  0.15378811  1
  S  S82  1  0.36537579  0.12838898  0.99376477  1
  S  S83  1  0.62838898  0.86537579  0.99376477  1
  S  S84  1  0.86537579  0.36537579  0.99376477  1
  S  S85  1  0.12838898  0.62838898  0.99376477  1
  S  S86  1  0.17293198  0.94128073  0.61421271  1
  S  S87  1  0.44128073  0.67293198  0.61421271  1
  S  S88  1  0.67293198  0.17293198  0.61421271  1
  S  S89  1  0.94128073  0.44128073  0.61421271  1
  S  S90  1  0.39375844  0.39375844  0.78751688  1
  S  S91  1  0.89375844  0.89375844  0.78751688  1
  S  S92  1  0.10612161  0.10612161  0.21224323  1
  S  S93  1  0.60612161  0.60612161  0.21224323  1
