# generated using pymatgen
data_Cs2MgSn3Se8
_symmetry_space_group_name_H-M   'P 1'
_cell_length_a   8.20284251
_cell_length_b   13.77870351
_cell_length_c   18.85809448
_cell_angle_alpha   90.00000000
_cell_angle_beta   90.00000000
_cell_angle_gamma   90.00000000
_symmetry_Int_Tables_number   1
_chemical_formula_structural   Cs2MgSn3Se8
_chemical_formula_sum   'Cs8 Mg4 Sn12 Se32'
_cell_volume   2131.42735741
_cell_formula_units_Z   4
loop_
 _symmetry_equiv_pos_site_id
 _symmetry_equiv_pos_as_xyz
  1  'x, y, z'
loop_
 _atom_site_type_symbol
 _atom_site_label
 _atom_site_symmetry_multiplicity
 _atom_site_fract_x
 _atom_site_fract_y
 _atom_site_fract_z
 _atom_site_occupancy
  Cs  Cs0  1  0.75103926  0.63331856  0.05336470  1
  Cs  Cs1  1  0.74896074  0.36668144  0.55336470  1
  Cs  Cs2  1  0.25103926  0.86668144  0.94663530  1
  Cs  Cs3  1  0.24896074  0.13331856  0.44663530  1
  Cs  Cs4  1  0.24438587  0.80989919  0.34295297  1
  Cs  Cs5  1  0.25561413  0.19010081  0.84295297  1
  Cs  Cs6  1  0.74438587  0.69010081  0.65704703  1
  Cs  Cs7  1  0.75561413  0.30989919  0.15704703  1
  Mg  Mg8  1  0.98573437  0.50174882  0.34738722  1
  Mg  Mg9  1  0.51426563  0.49825118  0.84738722  1
  Mg  Mg10  1  0.48573437  0.99825118  0.65261278  1
  Mg  Mg11  1  0.01426563  0.00174882  0.15261278  1
  Sn  Sn12  1  0.76365245  0.04690687  0.32006205  1
  Sn  Sn13  1  0.73634755  0.95309313  0.82006205  1
  Sn  Sn14  1  0.26365245  0.45309313  0.67993795  1
  Sn  Sn15  1  0.23634755  0.54690687  0.17993795  1
  Sn  Sn16  1  0.73195310  0.93728235  0.48469376  1
  Sn  Sn17  1  0.76804690  0.06271765  0.98469376  1
  Sn  Sn18  1  0.23195310  0.56271765  0.51530624  1
  Sn  Sn19  1  0.26804690  0.43728235  0.01530624  1
  Sn  Sn20  1  0.51137062  0.98276775  0.15189212  1
  Sn  Sn21  1  0.98862938  0.01723225  0.65189212  1
  Sn  Sn22  1  0.01137062  0.51723225  0.84810788  1
  Sn  Sn23  1  0.48862938  0.48276775  0.34810788  1
  Se  Se24  1  0.98077393  0.61114333  0.23482479  1
  Se  Se25  1  0.51922607  0.38885667  0.73482479  1
  Se  Se26  1  0.48077393  0.88885667  0.76517521  1
  Se  Se27  1  0.01922607  0.11114333  0.26517521  1
  Se  Se28  1  0.97522834  0.61819171  0.45626387  1
  Se  Se29  1  0.52477166  0.38180829  0.95626387  1
  Se  Se30  1  0.47522834  0.88180829  0.54373613  1
  Se  Se31  1  0.02477166  0.11819171  0.04373613  1
  Se  Se32  1  0.76822723  0.88197255  0.15592374  1
  Se  Se33  1  0.73177277  0.11802745  0.65592374  1
  Se  Se34  1  0.26822723  0.61802745  0.84407626  1
  Se  Se35  1  0.23177277  0.38197255  0.34407626  1
  Se  Se36  1  0.75895534  0.62091590  0.85166401  1
  Se  Se37  1  0.74104466  0.37908410  0.35166401  1
  Se  Se38  1  0.25895534  0.87908410  0.14833599  1
  Se  Se39  1  0.24104466  0.12091590  0.64833599  1
  Se  Se40  1  0.75697309  0.86608154  0.35731571  1
  Se  Se41  1  0.74302691  0.13391846  0.85731571  1
  Se  Se42  1  0.25697309  0.63391846  0.64268429  1
  Se  Se43  1  0.24302691  0.36608154  0.14268429  1
  Se  Se44  1  0.73767939  0.11861314  0.44830583  1
  Se  Se45  1  0.76232061  0.88138686  0.94830583  1
  Se  Se46  1  0.23767939  0.38138686  0.55169417  1
  Se  Se47  1  0.26232061  0.61861314  0.05169417  1
  Se  Se48  1  0.50407775  0.60053706  0.23951170  1
  Se  Se49  1  -0.00407775  0.39946294  0.73951170  1
  Se  Se50  1  0.00407775  0.89946294  0.76048830  1
  Se  Se51  1  0.49592225  0.10053706  0.26048830  1
  Se  Se52  1  0.50017980  0.60869817  0.45197387  1
  Se  Se53  1  -0.00017980  0.39130183  0.95197387  1
  Se  Se54  1  0.00017980  0.89130183  0.54802613  1
  Se  Se55  1  0.49982020  0.10869817  0.04802613  1
