# generated using pymatgen
data_MgP6(HN3)4
_symmetry_space_group_name_H-M   'P 1'
_cell_length_a   4.87681403
_cell_length_b   4.90308864
_cell_length_c   21.72405522
_cell_angle_alpha   90.00000000
_cell_angle_beta   90.00000000
_cell_angle_gamma   119.82289059
_symmetry_Int_Tables_number   1
_chemical_formula_structural   MgP6(HN3)4
_chemical_formula_sum   'Mg2 P12 H8 N24'
_cell_volume   450.66079527
_cell_formula_units_Z   2
loop_
 _symmetry_equiv_pos_site_id
 _symmetry_equiv_pos_as_xyz
  1  'x, y, z'
loop_
 _atom_site_type_symbol
 _atom_site_label
 _atom_site_symmetry_multiplicity
 _atom_site_fract_x
 _atom_site_fract_y
 _atom_site_fract_z
 _atom_site_occupancy
  Mg  Mg0  1  0.50000000  -0.00000000  0.50000000  1
  Mg  Mg1  1  -0.00000000  -0.00000000  -0.00000000  1
  P  P2  1  0.82992314  0.67090811  0.41277873  1
  P  P3  1  0.84098497  0.67090811  0.58722127  1
  P  P4  1  0.34098497  0.67090811  0.91277873  1
  P  P5  1  0.32992314  0.67090811  0.08722127  1
  P  P6  1  0.17007686  0.32909189  0.58722127  1
  P  P7  1  0.15901503  0.32909189  0.41277873  1
  P  P8  1  0.65901503  0.32909189  0.08722127  1
  P  P9  1  0.67007686  0.32909189  0.91277873  1
  P  P10  1  0.90601817  -0.00000000  0.28896812  1
  P  P11  1  0.09398183  -0.00000000  0.71103188  1
  P  P12  1  0.59398183  -0.00000000  0.78896812  1
  P  P13  1  0.40601817  -0.00000000  0.21103188  1
  H  H14  1  0.25232305  0.51748309  0.31274529  1
  H  H15  1  0.26516004  0.51748309  0.68725471  1
  H  H16  1  0.76516004  0.51748309  0.81274529  1
  H  H17  1  0.75232305  0.51748309  0.18725471  1
  H  H18  1  0.74767695  0.48251691  0.68725471  1
  H  H19  1  0.73483996  0.48251691  0.31274529  1
  H  H20  1  0.23483996  0.48251691  0.18725471  1
  H  H21  1  0.24767695  0.48251691  0.81274529  1
  N  N22  1  0.12934019  0.30386532  0.33460060  1
  N  N23  1  0.17452513  0.30386532  0.66539940  1
  N  N24  1  0.67452513  0.30386532  0.83460060  1
  N  N25  1  0.62934019  0.30386532  0.16539940  1
  N  N26  1  0.87065981  0.69613468  0.66539940  1
  N  N27  1  0.82547487  0.69613468  0.33460060  1
  N  N28  1  0.32547487  0.69613468  0.16539940  1
  N  N29  1  0.37065981  0.69613468  0.83460060  1
  N  N30  1  0.12761399  0.62921269  0.43410112  1
  N  N31  1  0.50159871  0.62921269  0.56589888  1
  N  N32  1  0.00159871  0.62921269  0.93410112  1
  N  N33  1  0.62761399  0.62921269  0.06589888  1
  N  N34  1  0.87238601  0.37078731  0.56589888  1
  N  N35  1  0.49840129  0.37078731  0.43410112  1
  N  N36  1  0.99840129  0.37078731  0.06589888  1
  N  N37  1  0.37238601  0.37078731  0.93410112  1
  N  N38  1  0.58173432  -0.00000000  0.27306023  1
  N  N39  1  0.41826568  -0.00000000  0.72693977  1
  N  N40  1  0.91826568  -0.00000000  0.77306023  1
  N  N41  1  0.08173432  -0.00000000  0.22693977  1
  N  N42  1  0.86985618  -0.00000000  0.43736513  1
  N  N43  1  0.13014382  -0.00000000  0.56263487  1
  N  N44  1  0.63014382  -0.00000000  0.93736513  1
  N  N45  1  0.36985618  -0.00000000  0.06263487  1
