# generated using pymatgen
data_Na3HoSi2O7
_symmetry_space_group_name_H-M   'P 1'
_cell_length_a   9.49755605
_cell_length_b   9.49748425
_cell_length_c   13.88989308
_cell_angle_alpha   90.00000000
_cell_angle_beta   90.00000000
_cell_angle_gamma   120.00015861
_symmetry_Int_Tables_number   1
_chemical_formula_structural   Na3HoSi2O7
_chemical_formula_sum   'Na18 Ho6 Si12 O42'
_cell_volume   1085.04884111
_cell_formula_units_Z   6
loop_
 _symmetry_equiv_pos_site_id
 _symmetry_equiv_pos_as_xyz
  1  'x, y, z'
loop_
 _atom_site_type_symbol
 _atom_site_label
 _atom_site_symmetry_multiplicity
 _atom_site_fract_x
 _atom_site_fract_y
 _atom_site_fract_z
 _atom_site_occupancy
  Na  Na0  1  0.00000000  0.00000000  0.50000000  1
  Na  Na1  1  0.00000000  0.00000000  0.00000000  1
  Na  Na2  1  0.66662025  0.33331157  0.75000000  1
  Na  Na3  1  0.33337975  0.66668843  0.25000000  1
  Na  Na4  1  0.66661865  0.33331087  0.25000000  1
  Na  Na5  1  0.33338135  0.66668913  0.75000000  1
  Na  Na6  1  0.31715775  0.98648614  0.41077909  1
  Na  Na7  1  0.01351186  0.33067886  0.41077950  1
  Na  Na8  1  0.66933099  0.68283118  0.41077453  1
  Na  Na9  1  0.68284225  0.01351386  0.91077909  1
  Na  Na10  1  0.98648814  0.66932114  0.91077950  1
  Na  Na11  1  0.33066901  0.31716882  0.91077453  1
  Na  Na12  1  0.68284225  0.01351386  0.58922091  1
  Na  Na13  1  0.98648814  0.66932114  0.58922050  1
  Na  Na14  1  0.33066901  0.31716882  0.58922547  1
  Na  Na15  1  0.31715775  0.98648614  0.08922091  1
  Na  Na16  1  0.01351186  0.33067886  0.08922050  1
  Na  Na17  1  0.66933099  0.68283118  0.08922547  1
  Ho  Ho18  1  0.00000094  0.99999680  0.25000000  1
  Ho  Ho19  1  0.99999906  0.00000320  0.75000000  1
  Ho  Ho20  1  0.66664087  0.33332060  0.51874395  1
  Ho  Ho21  1  0.33335913  0.66667940  0.01874395  1
  Ho  Ho22  1  0.33335913  0.66667940  0.48125605  1
  Ho  Ho23  1  0.66664087  0.33332060  0.98125605  1
  Si  Si24  1  0.98194266  0.65378633  0.35932218  1
  Si  Si25  1  0.34620749  0.32815232  0.35931976  1
  Si  Si26  1  0.67185176  0.01806137  0.35931989  1
  Si  Si27  1  0.01805734  0.34621367  0.85932218  1
  Si  Si28  1  0.65379251  0.67184768  0.85931976  1
  Si  Si29  1  0.32814824  0.98193863  0.85931989  1
  Si  Si30  1  0.01805734  0.34621367  0.64067782  1
  Si  Si31  1  0.65379251  0.67184768  0.64068024  1
  Si  Si32  1  0.32814824  0.98193863  0.64068011  1
  Si  Si33  1  0.98194266  0.65378633  0.14067782  1
  Si  Si34  1  0.34620749  0.32815232  0.14068024  1
  Si  Si35  1  0.67185176  0.01806137  0.14068011  1
  O  O36  1  0.82862399  0.55836011  0.43400761  1
  O  O37  1  0.44163000  0.27026507  0.43400372  1
  O  O38  1  0.72972857  0.17136872  0.43400846  1
  O  O39  1  0.17137601  0.44163989  0.93400761  1
  O  O40  1  0.55837000  0.72973493  0.93400372  1
  O  O41  1  0.27027143  0.82863128  0.93400846  1
  O  O42  1  0.17137601  0.44163989  0.56599239  1
  O  O43  1  0.55837000  0.72973493  0.56599628  1
  O  O44  1  0.27027143  0.82863128  0.56599154  1
  O  O45  1  0.82862399  0.55836011  0.06599239  1
  O  O46  1  0.44163000  0.27026507  0.06599628  1
  O  O47  1  0.72972857  0.17136872  0.06599154  1
  O  O48  1  0.04864846  0.84961847  0.36028870  1
  O  O49  1  0.15038034  0.19902947  0.36028822  1
  O  O50  1  0.80097121  0.95135144  0.36028803  1
  O  O51  1  0.95135154  0.15038153  0.86028870  1
  O  O52  1  0.84961966  0.80097053  0.86028822  1
  O  O53  1  0.19902879  0.04864856  0.86028803  1
  O  O54  1  0.95135154  0.15038153  0.63971130  1
  O  O55  1  0.84961966  0.80097053  0.63971178  1
  O  O56  1  0.19902879  0.04864856  0.63971197  1
  O  O57  1  0.04864846  0.84961847  0.13971130  1
  O  O58  1  0.15038034  0.19902947  0.13971178  1
  O  O59  1  0.80097121  0.95135144  0.13971197  1
  O  O60  1  0.60985315  0.48503527  0.62057628  1
  O  O61  1  0.51495913  0.12481865  0.62057762  1
  O  O62  1  0.87517053  0.39013998  0.62057455  1
  O  O63  1  0.39014685  0.51496473  0.12057628  1
  O  O64  1  0.48504087  0.87518135  0.12057762  1
  O  O65  1  0.12482947  0.60986002  0.12057455  1
  O  O66  1  0.39014685  0.51496473  0.37942372  1
  O  O67  1  0.48504087  0.87518135  0.37942238  1
  O  O68  1  0.12482947  0.60986002  0.37942545  1
  O  O69  1  0.60985315  0.48503527  0.87942372  1
  O  O70  1  0.51495913  0.12481865  0.87942238  1
  O  O71  1  0.87517053  0.39013998  0.87942545  1
  O  O72  1  0.89977541  0.58100577  0.25000000  1
  O  O73  1  0.41898771  0.31877344  0.25000000  1
  O  O74  1  0.68122406  0.10021744  0.25000000  1
  O  O75  1  0.10022459  0.41899423  0.75000000  1
  O  O76  1  0.58101229  0.68122656  0.75000000  1
  O  O77  1  0.31877594  0.89978256  0.75000000  1
