# generated using pymatgen
data_K2Mo2Se2O11
_symmetry_space_group_name_H-M   'P 1'
_cell_length_a   6.89882070
_cell_length_b   10.47016378
_cell_length_c   15.08942463
_cell_angle_alpha   90.00000000
_cell_angle_beta   90.00000000
_cell_angle_gamma   90.00000000
_symmetry_Int_Tables_number   1
_chemical_formula_structural   K2Mo2Se2O11
_chemical_formula_sum   'K8 Mo8 Se8 O44'
_cell_volume   1089.93603970
_cell_formula_units_Z   4
loop_
 _symmetry_equiv_pos_site_id
 _symmetry_equiv_pos_as_xyz
  1  'x, y, z'
loop_
 _atom_site_type_symbol
 _atom_site_label
 _atom_site_symmetry_multiplicity
 _atom_site_fract_x
 _atom_site_fract_y
 _atom_site_fract_z
 _atom_site_occupancy
  K  K0  1  0.47026332  0.52759165  0.75000000  1
  K  K1  1  0.02973668  0.02759165  0.75000000  1
  K  K2  1  0.52973668  0.47240835  0.25000000  1
  K  K3  1  0.97026332  0.97240835  0.25000000  1
  K  K4  1  0.50000000  0.50000000  0.50000000  1
  K  K5  1  -0.00000000  -0.00000000  -0.00000000  1
  K  K6  1  0.50000000  0.50000000  -0.00000000  1
  K  K7  1  -0.00000000  -0.00000000  0.50000000  1
  Mo  Mo8  1  0.47883624  0.16382023  0.62688485  1
  Mo  Mo9  1  0.02116376  0.66382023  0.87311515  1
  Mo  Mo10  1  0.52116376  0.83617977  0.12688485  1
  Mo  Mo11  1  0.97883624  0.33617977  0.37311515  1
  Mo  Mo12  1  0.52116376  0.83617977  0.37311515  1
  Mo  Mo13  1  0.97883624  0.33617977  0.12688485  1
  Mo  Mo14  1  0.47883624  0.16382023  0.87311515  1
  Mo  Mo15  1  0.02116376  0.66382023  0.62688485  1
  Se  Se16  1  0.51067024  0.16202438  0.38786076  1
  Se  Se17  1  0.98932976  0.66202438  0.11213924  1
  Se  Se18  1  0.48932976  0.83797562  0.88786076  1
  Se  Se19  1  0.01067024  0.33797562  0.61213924  1
  Se  Se20  1  0.48932976  0.83797562  0.61213924  1
  Se  Se21  1  0.01067024  0.33797562  0.88786076  1
  Se  Se22  1  0.51067024  0.16202438  0.11213924  1
  Se  Se23  1  0.98932976  0.66202438  0.38786076  1
  O  O24  1  0.54440926  0.32236321  0.64452576  1
  O  O25  1  0.95559074  0.82236321  0.85547424  1
  O  O26  1  0.45559074  0.67763679  0.14452576  1
  O  O27  1  0.04440926  0.17763679  0.35547424  1
  O  O28  1  0.45559074  0.67763679  0.35547424  1
  O  O29  1  0.04440926  0.17763679  0.14452576  1
  O  O30  1  0.54440926  0.32236321  0.85547424  1
  O  O31  1  0.95559074  0.82236321  0.64452576  1
  O  O32  1  0.70480371  0.08866580  0.61570431  1
  O  O33  1  0.79519629  0.58866580  0.88429569  1
  O  O34  1  0.29519629  0.91133420  0.11570431  1
  O  O35  1  0.20480371  0.41133420  0.38429569  1
  O  O36  1  0.29519629  0.91133420  0.38429569  1
  O  O37  1  0.20480371  0.41133420  0.11570431  1
  O  O38  1  0.70480371  0.08866580  0.88429569  1
  O  O39  1  0.79519629  0.58866580  0.61570431  1
  O  O40  1  0.42970526  0.11993562  0.75000000  1
  O  O41  1  0.07029474  0.61993562  0.75000000  1
  O  O42  1  0.57029474  0.88006438  0.25000000  1
  O  O43  1  0.92970526  0.38006438  0.25000000  1
  O  O44  1  0.42108992  0.18649822  0.49596190  1
  O  O45  1  0.07891008  0.68649822  0.00403810  1
  O  O46  1  0.57891008  0.81350178  0.99596190  1
  O  O47  1  0.92108992  0.31350178  0.50403810  1
  O  O48  1  0.57891008  0.81350178  0.50403810  1
  O  O49  1  0.92108992  0.31350178  0.99596190  1
  O  O50  1  0.42108992  0.18649822  0.00403810  1
  O  O51  1  0.07891008  0.68649822  0.49596190  1
  O  O52  1  0.66046549  0.29224995  0.37265116  1
  O  O53  1  0.83953451  0.79224995  0.12734884  1
  O  O54  1  0.33953451  0.70775005  0.87265116  1
  O  O55  1  0.16046549  0.20775005  0.62734884  1
  O  O56  1  0.33953451  0.70775005  0.62734884  1
  O  O57  1  0.16046549  0.20775005  0.87265116  1
  O  O58  1  0.66046549  0.29224995  0.12734884  1
  O  O59  1  0.83953451  0.79224995  0.37265116  1
  O  O60  1  0.66388015  0.03332425  0.39670728  1
  O  O61  1  0.83611985  0.53332425  0.10329272  1
  O  O62  1  0.33611985  0.96667575  0.89670728  1
  O  O63  1  0.16388015  0.46667575  0.60329272  1
  O  O64  1  0.33611985  0.96667575  0.60329272  1
  O  O65  1  0.16388015  0.46667575  0.89670728  1
  O  O66  1  0.66388015  0.03332425  0.10329272  1
  O  O67  1  0.83611985  0.53332425  0.39670728  1
