# generated using pymatgen
data_ErCo5P3
_symmetry_space_group_name_H-M   'P 1'
_cell_length_a   3.63311371
_cell_length_b   10.25059742
_cell_length_c   11.69903786
_cell_angle_alpha   90.00000000
_cell_angle_beta   90.00000000
_cell_angle_gamma   90.00000000
_symmetry_Int_Tables_number   1
_chemical_formula_structural   ErCo5P3
_chemical_formula_sum   'Er4 Co20 P12'
_cell_volume   435.69072484
_cell_formula_units_Z   4
loop_
 _symmetry_equiv_pos_site_id
 _symmetry_equiv_pos_as_xyz
  1  'x, y, z'
loop_
 _atom_site_type_symbol
 _atom_site_label
 _atom_site_symmetry_multiplicity
 _atom_site_fract_x
 _atom_site_fract_y
 _atom_site_fract_z
 _atom_site_occupancy
  Er  Er0  1  0.25000000  0.58293532  0.70287113  1
  Er  Er1  1  0.25000000  0.91706468  0.20287113  1
  Er  Er2  1  0.75000000  0.41706468  0.29712887  1
  Er  Er3  1  0.75000000  0.08293532  0.79712887  1
  Co  Co4  1  0.25000000  0.71660411  0.99084019  1
  Co  Co5  1  0.25000000  0.78339589  0.49084019  1
  Co  Co6  1  0.75000000  0.28339589  0.00915981  1
  Co  Co7  1  0.75000000  0.21660411  0.50915981  1
  Co  Co8  1  0.25000000  0.40706968  0.48738184  1
  Co  Co9  1  0.25000000  0.09293032  0.98738184  1
  Co  Co10  1  0.75000000  0.59293032  0.51261816  1
  Co  Co11  1  0.75000000  0.90706968  0.01261816  1
  Co  Co12  1  0.25000000  0.22111588  0.17635195  1
  Co  Co13  1  0.25000000  0.27888412  0.67635195  1
  Co  Co14  1  0.75000000  0.77888412  0.82364805  1
  Co  Co15  1  0.75000000  0.72111588  0.32364805  1
  Co  Co16  1  0.25000000  0.88263188  0.69822324  1
  Co  Co17  1  0.25000000  0.61736812  0.19822324  1
  Co  Co18  1  0.75000000  0.11736812  0.30177676  1
  Co  Co19  1  0.75000000  0.38263188  0.80177676  1
  Co  Co20  1  0.25000000  0.46772767  0.93181633  1
  Co  Co21  1  0.25000000  0.03227233  0.43181633  1
  Co  Co22  1  0.75000000  0.53227233  0.06818367  1
  Co  Co23  1  0.75000000  0.96772767  0.56818367  1
  P  P24  1  0.25000000  0.41819722  0.11229986  1
  P  P25  1  0.25000000  0.08180278  0.61229986  1
  P  P26  1  0.75000000  0.58180278  0.88770014  1
  P  P27  1  0.75000000  0.91819722  0.38770014  1
  P  P28  1  0.25000000  0.27000833  0.87005969  1
  P  P29  1  0.25000000  0.22999167  0.37005969  1
  P  P30  1  0.75000000  0.72999167  0.12994031  1
  P  P31  1  0.75000000  0.77000833  0.62994031  1
  P  P32  1  0.25000000  0.60110148  0.39069212  1
  P  P33  1  0.25000000  0.89889852  0.89069212  1
  P  P34  1  0.75000000  0.39889852  0.60930788  1
  P  P35  1  0.75000000  0.10110148  0.10930788  1
