# generated using pymatgen
data_La11(MnC6)3
_symmetry_space_group_name_H-M   'P 1'
_cell_length_a   10.28214891
_cell_length_b   10.28214891
_cell_length_c   10.28214910
_cell_angle_alpha   95.54260261
_cell_angle_beta   95.54260261
_cell_angle_gamma   95.54260676
_symmetry_Int_Tables_number   1
_chemical_formula_structural   La11(MnC6)3
_chemical_formula_sum   'La22 Mn6 C36'
_cell_volume   1070.74207901
_cell_formula_units_Z   2
loop_
 _symmetry_equiv_pos_site_id
 _symmetry_equiv_pos_as_xyz
  1  'x, y, z'
loop_
 _atom_site_type_symbol
 _atom_site_label
 _atom_site_symmetry_multiplicity
 _atom_site_fract_x
 _atom_site_fract_y
 _atom_site_fract_z
 _atom_site_occupancy
  La  La0  1  0.82683896  0.16453200  0.76774106  1
  La  La1  1  0.16453200  0.76774106  0.82683896  1
  La  La2  1  0.76774106  0.82683896  0.16453200  1
  La  La3  1  0.17316104  0.83546800  0.23225894  1
  La  La4  1  0.83546800  0.23225894  0.17316104  1
  La  La5  1  0.23225894  0.17316104  0.83546800  1
  La  La6  1  0.49539855  0.82357080  0.42327332  1
  La  La7  1  0.82357080  0.42327332  0.49539855  1
  La  La8  1  0.42327332  0.49539855  0.82357080  1
  La  La9  1  0.50460145  0.17642920  0.57672668  1
  La  La10  1  0.17642920  0.57672668  0.50460145  1
  La  La11  1  0.57672668  0.50460145  0.17642920  1
  La  La12  1  0.90242410  0.84143781  0.50919966  1
  La  La13  1  0.84143781  0.50919966  0.90242410  1
  La  La14  1  0.50919966  0.90242410  0.84143781  1
  La  La15  1  0.09757590  0.15856219  0.49080034  1
  La  La16  1  0.15856219  0.49080034  0.09757590  1
  La  La17  1  0.49080034  0.09757590  0.15856219  1
  La  La18  1  0.86325350  0.86325350  0.86325350  1
  La  La19  1  0.13674650  0.13674650  0.13674650  1
  La  La20  1  0.63935890  0.63935890  0.63935890  1
  La  La21  1  0.36064110  0.36064110  0.36064110  1
  Mn  Mn22  1  0.25336181  0.92064015  0.57439573  1
  Mn  Mn23  1  0.92064015  0.57439573  0.25336181  1
  Mn  Mn24  1  0.57439573  0.25336181  0.92064015  1
  Mn  Mn25  1  0.74663819  0.07935985  0.42560427  1
  Mn  Mn26  1  0.07935985  0.42560427  0.74663819  1
  Mn  Mn27  1  0.42560427  0.74663819  0.07935985  1
  C  C28  1  0.62991185  0.33728378  0.78731711  1
  C  C29  1  0.33728378  0.78731711  0.62991185  1
  C  C30  1  0.78731711  0.62991185  0.33728378  1
  C  C31  1  0.37008815  0.66271622  0.21268289  1
  C  C32  1  0.66271622  0.21268289  0.37008815  1
  C  C33  1  0.21268289  0.37008815  0.66271622  1
  C  C34  1  0.70301100  0.98923045  0.56032792  1
  C  C35  1  0.98923045  0.56032792  0.70301100  1
  C  C36  1  0.56032792  0.70301100  0.98923045  1
  C  C37  1  0.29698900  0.01076955  0.43967208  1
  C  C38  1  0.01076955  0.43967208  0.29698900  1
  C  C39  1  0.43967208  0.29698900  0.01076955  1
  C  C40  1  0.11898981  0.96546437  0.66337917  1
  C  C41  1  0.96546437  0.66337917  0.11898981  1
  C  C42  1  0.66337917  0.11898981  0.96546437  1
  C  C43  1  0.88101019  0.03453563  0.33662083  1
  C  C44  1  0.03453563  0.33662083  0.88101019  1
  C  C45  1  0.33662083  0.88101019  0.03453563  1
  C  C46  1  0.68483005  0.91134703  0.65733594  1
  C  C47  1  0.91134703  0.65733594  0.68483005  1
  C  C48  1  0.65733594  0.68483005  0.91134703  1
  C  C49  1  0.31516995  0.08865297  0.34266406  1
  C  C50  1  0.08865297  0.34266406  0.31516995  1
  C  C51  1  0.34266406  0.31516995  0.08865297  1
  C  C52  1  0.68630341  0.67184614  0.39744163  1
  C  C53  1  0.67184614  0.39744163  0.68630341  1
  C  C54  1  0.39744163  0.68630341  0.67184614  1
  C  C55  1  0.31369659  0.32815386  0.60255837  1
  C  C56  1  0.32815386  0.60255837  0.31369659  1
  C  C57  1  0.60255837  0.31369659  0.32815386  1
  C  C58  1  0.01826722  0.00013489  0.72850832  1
  C  C59  1  0.00013489  0.72850832  0.01826722  1
  C  C60  1  0.72850832  0.01826722  0.00013489  1
  C  C61  1  0.98173278  0.99986511  0.27149168  1
  C  C62  1  0.99986511  0.27149168  0.98173278  1
  C  C63  1  0.27149168  0.98173278  0.99986511  1
