# generated using pymatgen
data_SrCdB2O5
_symmetry_space_group_name_H-M   'P 1'
_cell_length_a   6.44724158
_cell_length_b   6.44724158
_cell_length_c   11.26641149
_cell_angle_alpha   95.42985368
_cell_angle_beta   95.42985368
_cell_angle_gamma   106.34600945
_symmetry_Int_Tables_number   1
_chemical_formula_structural   SrCdB2O5
_chemical_formula_sum   'Sr4 Cd4 B8 O20'
_cell_volume   443.74555809
_cell_formula_units_Z   4
loop_
 _symmetry_equiv_pos_site_id
 _symmetry_equiv_pos_as_xyz
  1  'x, y, z'
loop_
 _atom_site_type_symbol
 _atom_site_label
 _atom_site_symmetry_multiplicity
 _atom_site_fract_x
 _atom_site_fract_y
 _atom_site_fract_z
 _atom_site_occupancy
  Sr  Sr0  1  0.63273245  0.36726755  0.75000000  1
  Sr  Sr1  1  0.36726755  0.63273245  0.25000000  1
  Sr  Sr2  1  0.81610909  0.18389091  0.25000000  1
  Sr  Sr3  1  0.18389091  0.81610909  0.75000000  1
  Cd  Cd4  1  0.06663558  0.26257022  0.94319871  1
  Cd  Cd5  1  0.73742978  0.93336442  0.55680129  1
  Cd  Cd6  1  0.93336442  0.73742978  0.05680129  1
  Cd  Cd7  1  0.26257022  0.06663558  0.44319871  1
  B  B8  1  0.54349174  0.27043956  0.99625306  1
  B  B9  1  0.72956044  0.45650826  0.50374694  1
  B  B10  1  0.45650826  0.72956044  0.00374694  1
  B  B11  1  0.27043956  0.54349174  0.49625306  1
  B  B12  1  0.13145464  0.32449557  0.66867298  1
  B  B13  1  0.67550443  0.86854536  0.83132702  1
  B  B14  1  0.86854536  0.67550443  0.33132702  1
  B  B15  1  0.32449557  0.13145464  0.16867298  1
  O  O16  1  0.37926937  0.18756153  0.90372452  1
  O  O17  1  0.81243847  0.62073063  0.59627548  1
  O  O18  1  0.62073063  0.81243847  0.09627548  1
  O  O19  1  0.18756153  0.37926937  0.40372452  1
  O  O20  1  0.02920231  0.38532973  0.75992968  1
  O  O21  1  0.61467027  0.97079769  0.74007032  1
  O  O22  1  0.97079769  0.61467027  0.24007032  1
  O  O23  1  0.38532973  0.02920231  0.25992968  1
  O  O24  1  0.75563758  0.36419426  0.97630346  1
  O  O25  1  0.63580574  0.24436242  0.52369654  1
  O  O26  1  0.24436242  0.63580574  0.02369654  1
  O  O27  1  0.36419426  0.75563758  0.47630346  1
  O  O28  1  0.11578629  0.12795165  0.12756263  1
  O  O29  1  0.87204835  0.88421371  0.37243737  1
  O  O30  1  0.88421371  0.87204835  0.87243737  1
  O  O31  1  0.12795165  0.11578629  0.62756263  1
  O  O32  1  0.50345922  0.26947029  0.11868185  1
  O  O33  1  0.73052971  0.49654078  0.38131815  1
  O  O34  1  0.49654078  0.73052971  0.88131815  1
  O  O35  1  0.26947029  0.50345922  0.61868185  1
