# generated using pymatgen
data_Rb2Th(AsO4)2
_symmetry_space_group_name_H-M   'P 1'
_cell_length_a   8.18269398
_cell_length_b   9.81165652
_cell_length_c   11.59821921
_cell_angle_alpha   90.00000000
_cell_angle_beta   90.00000000
_cell_angle_gamma   111.14534938
_symmetry_Int_Tables_number   1
_chemical_formula_structural   Rb2Th(AsO4)2
_chemical_formula_sum   'Rb8 Th4 As8 O32'
_cell_volume   868.47471309
_cell_formula_units_Z   4
loop_
 _symmetry_equiv_pos_site_id
 _symmetry_equiv_pos_as_xyz
  1  'x, y, z'
loop_
 _atom_site_type_symbol
 _atom_site_label
 _atom_site_symmetry_multiplicity
 _atom_site_fract_x
 _atom_site_fract_y
 _atom_site_fract_z
 _atom_site_occupancy
  Rb  Rb0  1  0.39957651  0.54889792  0.37466173  1
  Rb  Rb1  1  0.89957651  0.04889792  0.12533827  1
  Rb  Rb2  1  0.60042349  0.45110208  0.62533827  1
  Rb  Rb3  1  0.10042349  0.95110208  0.87466173  1
  Rb  Rb4  1  0.62061758  0.95629048  0.38512891  1
  Rb  Rb5  1  0.12061758  0.45629048  0.11487109  1
  Rb  Rb6  1  0.37938242  0.04370952  0.61487109  1
  Rb  Rb7  1  0.87938242  0.54370952  0.88512891  1
  Th  Th8  1  0.97729873  0.72113162  0.36091799  1
  Th  Th9  1  0.47729873  0.22113162  0.13908201  1
  Th  Th10  1  0.02270127  0.27886838  0.63908201  1
  Th  Th11  1  0.52270127  0.77886838  0.86091799  1
  As  As12  1  0.21213906  0.14729327  0.36138202  1
  As  As13  1  0.71213906  0.64729327  0.13861798  1
  As  As14  1  0.78786094  0.85270673  0.63861798  1
  As  As15  1  0.28786094  0.35270673  0.86138202  1
  As  As16  1  0.82825641  0.36610543  0.36785575  1
  As  As17  1  0.32825641  0.86610543  0.13214425  1
  As  As18  1  0.17174359  0.63389457  0.63214425  1
  As  As19  1  0.67174359  0.13389457  0.86785575  1
  O  O20  1  0.20326043  0.23929773  0.48577938  1
  O  O21  1  0.70326043  0.73929773  0.01422062  1
  O  O22  1  0.79673957  0.76070227  0.51422062  1
  O  O23  1  0.29673957  0.26070227  0.98577938  1
  O  O24  1  0.41464661  0.13160549  0.34650506  1
  O  O25  1  0.91464661  0.63160549  0.15349494  1
  O  O26  1  0.58535339  0.86839451  0.65349494  1
  O  O27  1  0.08535339  0.36839451  0.84650506  1
  O  O28  1  0.21584500  0.24993939  0.23985142  1
  O  O29  1  0.71584500  0.74993939  0.26014858  1
  O  O30  1  0.78415500  0.75006061  0.76014858  1
  O  O31  1  0.28415500  0.25006061  0.73985142  1
  O  O32  1  0.03900785  0.49238637  0.35492662  1
  O  O33  1  0.53900785  0.99238637  0.14507338  1
  O  O34  1  0.96099215  0.50761363  0.64507338  1
  O  O35  1  0.46099215  0.00761363  0.85492662  1
  O  O36  1  0.72171819  0.48660844  0.39376096  1
  O  O37  1  0.22171819  0.98660844  0.10623904  1
  O  O38  1  0.27828181  0.51339156  0.60623904  1
  O  O39  1  0.77828181  0.01339156  0.89376096  1
  O  O40  1  0.04569755  0.97843150  0.35743446  1
  O  O41  1  0.54569755  0.47843150  0.14256554  1
  O  O42  1  0.95430245  0.02156850  0.64256554  1
  O  O43  1  0.45430245  0.52156850  0.85743446  1
  O  O44  1  0.81782906  0.24897296  0.48157827  1
  O  O45  1  0.31782906  0.74897296  0.01842173  1
  O  O46  1  0.18217094  0.75102704  0.51842173  1
  O  O47  1  0.68217094  0.25102704  0.98157827  1
  O  O48  1  0.75716704  0.26973542  0.24206369  1
  O  O49  1  0.25716704  0.76973542  0.25793631  1
  O  O50  1  0.24283296  0.73026458  0.75793631  1
  O  O51  1  0.74283296  0.23026458  0.74206369  1
