# generated using pymatgen
data_KUCrNO9
_symmetry_space_group_name_H-M   'P 1'
_cell_length_a   7.33016404
_cell_length_b   10.27194611
_cell_length_c   12.06519583
_cell_angle_alpha   100.05375258
_cell_angle_beta   90.00000000
_cell_angle_gamma   90.00000000
_symmetry_Int_Tables_number   1
_chemical_formula_structural   KUCrNO9
_chemical_formula_sum   'K4 U4 Cr4 N4 O36'
_cell_volume   894.49974509
_cell_formula_units_Z   4
loop_
 _symmetry_equiv_pos_site_id
 _symmetry_equiv_pos_as_xyz
  1  'x, y, z'
loop_
 _atom_site_type_symbol
 _atom_site_label
 _atom_site_symmetry_multiplicity
 _atom_site_fract_x
 _atom_site_fract_y
 _atom_site_fract_z
 _atom_site_occupancy
  K  K0  1  0.56126412  -0.00000754  0.81584736  1
  K  K1  1  0.06126412  0.50000754  0.68415264  1
  K  K2  1  0.43873588  0.00000754  0.18415264  1
  K  K3  1  0.93873588  0.49999246  0.31584736  1
  U  U4  1  0.80046802  0.72205571  0.03908431  1
  U  U5  1  0.30046802  0.77794429  0.46091569  1
  U  U6  1  0.19953198  0.27794429  0.96091569  1
  U  U7  1  0.69953198  0.22205571  0.53908431  1
  Cr  Cr8  1  0.92960462  0.94686733  0.31566412  1
  Cr  Cr9  1  0.42960462  0.55313267  0.18433588  1
  Cr  Cr10  1  0.07039538  0.05313267  0.68433588  1
  Cr  Cr11  1  0.57039538  0.44686733  0.81566412  1
  N  N12  1  0.14156785  0.79679692  0.93108328  1
  N  N13  1  0.64156785  0.70320308  0.56891672  1
  N  N14  1  0.85843215  0.20320308  0.06891672  1
  N  N15  1  0.35843215  0.29679692  0.43108328  1
  O  O16  1  0.92089083  0.60749119  0.11146871  1
  O  O17  1  0.42089083  0.89250881  0.38853129  1
  O  O18  1  0.07910917  0.39250881  0.88853129  1
  O  O19  1  0.57910917  0.10749119  0.61146871  1
  O  O20  1  0.80531370  0.87275380  0.20400516  1
  O  O21  1  0.30531370  0.62724620  0.29599484  1
  O  O22  1  0.19468630  0.12724620  0.79599484  1
  O  O23  1  0.69468630  0.37275380  0.70400516  1
  O  O24  1  0.52658858  0.66904422  0.11960628  1
  O  O25  1  0.02658858  0.83095578  0.38039372  1
  O  O26  1  0.47341142  0.33095578  0.88039372  1
  O  O27  1  0.97341142  0.16904422  0.61960628  1
  O  O28  1  0.68399112  0.84558881  0.97391076  1
  O  O29  1  0.18399112  0.65441119  0.52608924  1
  O  O30  1  0.31600888  0.15441119  0.02608924  1
  O  O31  1  0.81600888  0.34558881  0.47391076  1
  O  O32  1  0.70496821  0.54859050  0.90481586  1
  O  O33  1  0.20496821  0.95140950  0.59518414  1
  O  O34  1  0.29503179  0.45140950  0.09518414  1
  O  O35  1  0.79503179  0.04859050  0.40481586  1
  O  O36  1  0.03088885  0.70668533  0.88260983  1
  O  O37  1  0.53088885  0.79331467  0.61739017  1
  O  O38  1  0.96911115  0.29331467  0.11739017  1
  O  O39  1  0.46911115  0.20668533  0.38260983  1
  O  O40  1  0.09862978  0.84859186  0.03305083  1
  O  O41  1  0.59862978  0.65140814  0.46694917  1
  O  O42  1  0.90137022  0.15140814  0.96694917  1
  O  O43  1  0.40137022  0.34859186  0.53305083  1
  O  O44  1  0.08867072  0.03199999  0.27114460  1
  O  O45  1  0.58867072  0.46800001  0.22885540  1
  O  O46  1  0.91132928  0.96800001  0.72885540  1
  O  O47  1  0.41132928  0.53199999  0.77114460  1
  O  O48  1  0.27716177  0.83038244  0.88361098  1
  O  O49  1  0.77716177  0.66961756  0.61638902  1
  O  O50  1  0.72283823  0.16961756  0.11638902  1
  O  O51  1  0.22283823  0.33038244  0.38361098  1
