# generated using pymatgen
data_Al2H32S3O28
_symmetry_space_group_name_H-M   'P 1'
_cell_length_a   6.06569282
_cell_length_b   7.52260712
_cell_length_c   27.34357618
_cell_angle_alpha   86.91681438
_cell_angle_beta   91.05536631
_cell_angle_gamma   81.75138520
_symmetry_Int_Tables_number   1
_chemical_formula_structural   Al2H32S3O28
_chemical_formula_sum   'Al4 H64 S6 O56'
_cell_volume   1232.55650736
_cell_formula_units_Z   2
loop_
 _symmetry_equiv_pos_site_id
 _symmetry_equiv_pos_as_xyz
  1  'x, y, z'
loop_
 _atom_site_type_symbol
 _atom_site_label
 _atom_site_symmetry_multiplicity
 _atom_site_fract_x
 _atom_site_fract_y
 _atom_site_fract_z
 _atom_site_occupancy
  Al  Al0  1  0.50938412  0.25971769  0.59878716  1
  Al  Al1  1  0.49061588  0.74028231  0.40121284  1
  Al  Al2  1  0.49598750  0.28111840  0.90220650  1
  Al  Al3  1  0.50401250  0.71888160  0.09779350  1
  H  H4  1  0.70293369  0.54049341  0.60589552  1
  H  H5  1  0.29706631  0.45950659  0.39410448  1
  H  H6  1  0.47375001  0.56684467  0.63781774  1
  H  H7  1  0.52624999  0.43315533  0.36218226  1
  H  H8  1  0.30411187  0.48341499  0.53287080  1
  H  H9  1  0.69588813  0.51658501  0.46712920  1
  H  H10  1  0.31823082  0.28438652  0.51098631  1
  H  H11  1  0.68176918  0.71561348  0.48901369  1
  H  H12  1  0.57175269  0.94421021  0.56467279  1
  H  H13  1  0.42824731  0.05578979  0.43532721  1
  H  H14  1  0.31314960  0.97772899  0.58382712  1
  H  H15  1  0.68685040  0.02227101  0.41617288  1
  H  H16  1  0.69765233  0.25925977  0.68328705  1
  H  H17  1  0.30234767  0.74074023  0.31671295  1
  H  H18  1  0.67380118  0.04642339  0.67409749  1
  H  H19  1  0.32619882  0.95357661  0.32590251  1
  H  H20  1  0.12005167  0.40818654  0.61420469  1
  H  H21  1  0.87994833  0.59181346  0.38579531  1
  H  H22  1  0.19471920  0.27892827  0.66366594  1
  H  H23  1  0.80528080  0.72107173  0.33633406  1
  H  H24  1  0.89991954  0.11069966  0.57857374  1
  H  H25  1  0.10008046  0.88930034  0.42142626  1
  H  H26  1  0.80802935  0.24396412  0.53165597  1
  H  H27  1  0.19197065  0.75603588  0.46834403  1
  H  H28  1  0.53641519  0.11615194  0.81985042  1
  H  H29  1  0.46358481  0.88384806  0.18014958  1
  H  H30  1  0.73054330  0.24481280  0.82326811  1
  H  H31  1  0.26945670  0.75518720  0.17673189  1
  H  H32  1  0.55213909  0.95385701  0.93646285  1
  H  H33  1  0.44786091  0.04614299  0.06353715  1
  H  H34  1  0.28775621  0.99796297  0.91803298  1
  H  H35  1  0.71224379  0.00203703  0.08196702  1
  H  H36  1  0.80897180  0.24993785  0.96730609  1
  H  H37  1  0.19102820  0.75006215  0.03269391  1
  H  H38  1  0.88596125  0.11228845  0.92413067  1
  H  H39  1  0.11403875  0.88771155  0.07586933  1
  H  H40  1  0.30778335  0.49669104  0.96535473  1
  H  H41  1  0.69221665  0.50330896  0.03464527  1
  H  H42  1  0.32493664  0.29333559  0.98890751  1
  H  H43  1  0.67506336  0.70666441  0.01109249  1
  H  H44  1  0.69988440  0.55759208  0.89242771  1
  H  H45  1  0.30011560  0.44240792  0.10757229  1
  H  H46  1  0.49407584  0.57123476  0.85073322  1
  H  H47  1  0.50592416  0.42876524  0.14926678  1
  H  H48  1  0.11065020  0.45124627  0.88625876  1
  H  H49  1  0.88934980  0.54875373  0.11374124  1
  H  H50  1  0.13840078  0.32233799  0.84092364  1
  H  H51  1  0.86159922  0.67766201  0.15907636  1
  H  H52  1  0.53031088  0.95988598  0.75675833  1
  H  H53  1  0.46968912  0.04011402  0.24324167  1
  H  H54  1  0.30020157  0.08618237  0.76050132  1
  H  H55  1  0.69979843  0.91381763  0.23949868  1
  H  H56  1  0.37871287  0.77956872  0.79757178  1
  H  H57  1  0.62128713  0.22043128  0.20242822  1
  H  H58  1  0.27697021  0.60409628  0.78552151  1
  H  H59  1  0.72302979  0.39590372  0.21447849  1
  H  H60  1  0.81993397  0.76428294  0.72099665  1
  H  H61  1  0.18006603  0.23571706  0.27900335  1
  H  H62  1  0.57434784  0.78134796  0.69940234  1
  H  H63  1  0.42565216  0.21865204  0.30059766  1
  H  H64  1  0.24250230  0.63222711  0.69897858  1
  H  H65  1  0.75749770  0.36777289  0.30102142  1
  H  H66  1  0.22170023  0.77639248  0.65427207  1
  H  H67  1  0.77829977  0.22360752  0.34572793  1
  S  S68  1  0.98938822  0.75523968  0.56198278  1
  S  S69  1  0.01061178  0.24476032  0.43801722  1
  S  S70  1  0.97725308  0.76572979  0.93875674  1
  S  S71  1  0.02274692  0.23427021  0.06124326  1
  S  S72  1  0.97620628  0.38025480  0.74249217  1
  S  S73  1  0.02379372  0.61974520  0.25750783  1
  O  O74  1  0.77693893  0.82866885  0.53475893  1
  O  O75  1  0.22306107  0.17133115  0.46524107  1
  O  O76  1  0.06503069  0.90296207  0.59020505  1
  O  O77  1  0.93496931  0.09703793  0.40979495  1
  O  O78  1  0.95220176  0.60468167  0.59688840  1
  O  O79  1  0.04779824  0.39531833  0.40311160  1
  O  O80  1  0.16310747  0.69038130  0.52669716  1
  O  O81  1  0.83689253  0.30961870  0.47330284  1
  O  O82  1  0.04280680  0.92964141  0.91290408  1
  O  O83  1  0.95719320  0.07035859  0.08709592  1
  O  O84  1  0.76290710  0.81909529  0.96385400  1
  O  O85  1  0.23709290  0.18090471  0.03614600  1
  O  O86  1  0.15424615  0.68852353  0.97560026  1
  O  O87  1  0.84575385  0.31147647  0.02439974  1
  O  O88  1  0.94657821  0.62923068  0.90265750  1
  O  O89  1  0.05342179  0.37076932  0.09734250  1
  O  O90  1  0.75538546  0.39958336  0.71716389  1
  O  O91  1  0.24461454  0.60041664  0.28283611  1
  O  O92  1  0.13995834  0.24519614  0.71804655  1
  O  O93  1  0.86004166  0.75480386  0.28195345  1
  O  O94  1  0.96130738  0.31423334  0.79451175  1
  O  O95  1  0.03869262  0.68576666  0.20548825  1
  O  O96  1  0.05829473  0.55998336  0.74026652  1
  O  O97  1  0.94170527  0.44001664  0.25973348  1
  O  O98  1  0.55584069  0.49804472  0.61108849  1
  O  O99  1  0.44415931  0.50195528  0.38891151  1
  O  O100  1  0.37885127  0.35560185  0.53660702  1
  O  O101  1  0.62114873  0.64439815  0.46339298  1
  O  O102  1  0.45991823  0.02328634  0.58341505  1
  O  O103  1  0.54008177  0.97671366  0.41658495  1
  O  O104  1  0.65067475  0.17166585  0.65872262  1
  O  O105  1  0.34932525  0.82833415  0.34127738  1
  O  O106  1  0.22472102  0.30097569  0.62709301  1
  O  O107  1  0.77527898  0.69902431  0.37290699  1
  O  O108  1  0.79175939  0.21858607  0.56765421  1
  O  O109  1  0.20824061  0.78141393  0.43234579  1
  O  O110  1  0.61451360  0.19190619  0.84208700  1
  O  O111  1  0.38548640  0.80809381  0.15791300  1
  O  O112  1  0.43272342  0.04666607  0.92087026  1
  O  O113  1  0.56727658  0.95333393  0.07912974  1
  O  O114  1  0.78302543  0.22377549  0.93230953  1
  O  O115  1  0.21697457  0.77622451  0.06769047  1
  O  O116  1  0.38258705  0.36991634  0.96229017  1
  O  O117  1  0.61741295  0.63008366  0.03770983  1
  O  O118  1  0.55577229  0.51522676  0.88436177  1
  O  O119  1  0.44422771  0.48477324  0.11563823  1
  O  O120  1  0.20471444  0.34347755  0.87350405  1
  O  O121  1  0.79528556  0.65652245  0.12649595  1
  O  O122  1  0.41573070  0.00474687  0.78045872  1
  O  O123  1  0.58426930  -0.00474687  0.21954128  1
  O  O124  1  0.40670543  0.64665790  0.80080456  1
  O  O125  1  0.59329457  0.35334210  0.19919544  1
  O  O126  1  0.69151261  0.85300795  0.70903924  1
  O  O127  1  0.30848739  0.14699205  0.29096076  1
  O  O128  1  0.33147698  0.69542814  0.67487959  1
  O  O129  1  0.66852302  0.30457186  0.32512041  1
