# generated using pymatgen
data_V4Pb3O3F19
_symmetry_space_group_name_H-M   'P 1'
_cell_length_a   9.29846166
_cell_length_b   10.41448386
_cell_length_c   10.40766941
_cell_angle_alpha   120.02166396
_cell_angle_beta   89.97304180
_cell_angle_gamma   90.05388119
_symmetry_Int_Tables_number   1
_chemical_formula_structural   V4Pb3O3F19
_chemical_formula_sum   'V8 Pb6 O6 F38'
_cell_volume   872.64566649
_cell_formula_units_Z   2
loop_
 _symmetry_equiv_pos_site_id
 _symmetry_equiv_pos_as_xyz
  1  'x, y, z'
loop_
 _atom_site_type_symbol
 _atom_site_label
 _atom_site_symmetry_multiplicity
 _atom_site_fract_x
 _atom_site_fract_y
 _atom_site_fract_z
 _atom_site_occupancy
  V  V0  1  0.20481567  0.23178059  0.30564538  1
  V  V1  1  0.20472993  0.07374170  0.76856237  1
  V  V2  1  0.20565223  0.69553049  0.92663510  1
  V  V3  1  0.70481567  0.92613521  0.69435462  1
  V  V4  1  0.70472993  0.30517934  0.23143763  1
  V  V5  1  0.70565223  0.76889539  0.07336490  1
  V  V6  1  0.92949004  0.33339485  0.66647395  1
  V  V7  1  0.42949004  0.66692090  0.33352605  1
  Pb  Pb8  1  0.02456011  0.60891430  0.53472818  1
  Pb  Pb9  1  0.02669633  0.92434200  0.39015917  1
  Pb  Pb10  1  0.02663037  0.46464341  0.07670843  1
  Pb  Pb11  1  0.52456011  0.07418612  0.46527182  1
  Pb  Pb12  1  0.52669633  0.53418283  0.60984083  1
  Pb  Pb13  1  0.52663037  0.38793498  0.92329157  1
  O  O14  1  0.29668796  0.16482793  0.15754762  1
  O  O15  1  0.29681373  0.99246750  0.83515668  1
  O  O16  1  0.29745365  0.84368043  0.00790602  1
  O  O17  1  0.79668796  0.00728032  0.84245238  1
  O  O18  1  0.79681373  0.15731082  0.16484332  1
  O  O19  1  0.79745365  0.83577441  0.99209398  1
  F  F20  1  0.08873788  0.36489582  0.27755177  1
  F  F21  1  0.08913969  0.91280753  0.63490062  1
  F  F22  1  0.08880465  0.72166855  0.08615674  1
  F  F23  1  0.58873788  0.08734405  0.72244823  1
  F  F24  1  0.58913969  0.27790691  0.36509938  1
  F  F25  1  0.58880465  0.63551181  0.91384326  1
  F  F26  1  0.05910186  0.09773183  0.25952992  1
  F  F27  1  0.05925338  0.16160370  0.90250800  1
  F  F28  1  0.05915623  0.73990978  0.83830100  1
  F  F29  1  0.55910186  0.83820191  0.74047008  1
  F  F30  1  0.55925338  0.25909570  0.09749200  1
  F  F31  1  0.55915623  0.90160879  0.16169900  1
  F  F32  1  0.29130344  0.13365275  0.39730888  1
  F  F33  1  0.29146120  0.26371410  0.86613157  1
  F  F34  1  0.29146570  0.60297989  0.73629994  1
  F  F35  1  0.79130344  0.73634387  0.60269112  1
  F  F36  1  0.79146120  0.39758253  0.13386843  1
  F  F37  1  0.79146570  0.86667996  0.26370006  1
  F  F38  1  0.31018317  0.39671692  0.44098778  1
  F  F39  1  0.30995648  0.04467918  0.60377305  1
  F  F40  1  0.30947594  0.55917192  0.95491609  1
  F  F41  1  0.81018317  0.95572915  0.55901222  1
  F  F42  1  0.80995648  0.44090613  0.39622695  1
  F  F43  1  0.80947594  0.60425583  0.04508391  1
  F  F44  1  0.05393810  0.36069880  0.53313732  1
  F  F45  1  0.05409992  0.17432477  0.64176477  1
  F  F46  1  0.05285437  0.46317630  0.82271618  1
  F  F47  1  0.55393810  0.82756148  0.46686268  1
  F  F48  1  0.55409992  0.53256000  0.35823523  1
  F  F49  1  0.55285437  0.64046012  0.17728382  1
  F  F50  1  0.81877175  0.49005286  0.68169956  1
  F  F51  1  0.82045009  0.19619764  0.51197072  1
  F  F52  1  0.81965780  0.31603138  0.80793059  1
  F  F53  1  0.31877175  0.80835330  0.31830044  1
  F  F54  1  0.32045009  0.68422692  0.48802928  1
  F  F55  1  0.31965780  0.50810079  0.19206941  1
  F  F56  1  0.01609833  0.66671681  0.33300014  1
  F  F57  1  0.51609833  0.33371667  0.66699986  1
