# generated using pymatgen
data_LaV2IO9
_symmetry_space_group_name_H-M   'P 1'
_cell_length_a   7.17842523
_cell_length_b   7.36772446
_cell_length_c   14.87552909
_cell_angle_alpha   90.00000000
_cell_angle_beta   90.00000000
_cell_angle_gamma   90.00000000
_symmetry_Int_Tables_number   1
_chemical_formula_structural   LaV2IO9
_chemical_formula_sum   'La4 V8 I4 O36'
_cell_volume   786.74678774
_cell_formula_units_Z   4
loop_
 _symmetry_equiv_pos_site_id
 _symmetry_equiv_pos_as_xyz
  1  'x, y, z'
loop_
 _atom_site_type_symbol
 _atom_site_label
 _atom_site_symmetry_multiplicity
 _atom_site_fract_x
 _atom_site_fract_y
 _atom_site_fract_z
 _atom_site_occupancy
  La  La0  1  0.84819363  0.25000000  0.45013065  1
  La  La1  1  0.15180637  0.75000000  0.54986935  1
  La  La2  1  0.84819363  0.75000000  0.04986935  1
  La  La3  1  0.15180637  0.25000000  0.95013065  1
  V  V4  1  0.53182602  0.50000000  0.25000000  1
  V  V5  1  0.46817398  -0.00000000  0.75000000  1
  V  V6  1  0.46817398  0.50000000  0.75000000  1
  V  V7  1  0.53182602  -0.00000000  0.25000000  1
  V  V8  1  0.18209633  0.25000000  0.22904832  1
  V  V9  1  0.81790367  0.75000000  0.77095168  1
  V  V10  1  0.18209633  0.75000000  0.27095168  1
  V  V11  1  0.81790367  0.25000000  0.72904832  1
  I  I12  1  0.29824581  0.25000000  0.55741377  1
  I  I13  1  0.70175419  0.75000000  0.44258623  1
  I  I14  1  0.29824581  0.75000000  0.94258623  1
  I  I15  1  0.70175419  0.25000000  0.05741377  1
  O  O16  1  0.17439381  0.42888229  0.49367052  1
  O  O17  1  0.82560619  0.92888229  0.50632948  1
  O  O18  1  0.17439381  0.57111771  0.00632948  1
  O  O19  1  0.82560619  0.07111771  0.99367052  1
  O  O20  1  0.82560619  0.57111771  0.50632948  1
  O  O21  1  0.17439381  0.07111771  0.49367052  1
  O  O22  1  0.82560619  0.42888229  0.99367052  1
  O  O23  1  0.17439381  0.92888229  0.00632948  1
  O  O24  1  0.52281161  0.25000000  0.50197780  1
  O  O25  1  0.47718839  0.75000000  0.49802220  1
  O  O26  1  0.52281161  0.75000000  0.99802220  1
  O  O27  1  0.47718839  0.25000000  0.00197780  1
  O  O28  1  0.66490079  0.45725999  0.34162572  1
  O  O29  1  0.33509921  0.95725999  0.65837428  1
  O  O30  1  0.66490079  0.54274001  0.15837428  1
  O  O31  1  0.33509921  0.04274001  0.84162572  1
  O  O32  1  0.33509921  0.54274001  0.65837428  1
  O  O33  1  0.66490079  0.04274001  0.34162572  1
  O  O34  1  0.33509921  0.45725999  0.84162572  1
  O  O35  1  0.66490079  0.95725999  0.15837428  1
  O  O36  1  0.46660496  0.25000000  0.22189060  1
  O  O37  1  0.53339504  0.75000000  0.77810940  1
  O  O38  1  0.46660496  0.75000000  0.27810940  1
  O  O39  1  0.53339504  0.25000000  0.72189060  1
  O  O40  1  0.25996537  0.50000000  0.25000000  1
  O  O41  1  0.74003463  -0.00000000  0.75000000  1
  O  O42  1  0.74003463  0.50000000  0.75000000  1
  O  O43  1  0.25996537  -0.00000000  0.25000000  1
  O  O44  1  0.01269754  0.25000000  0.30676706  1
  O  O45  1  0.98730246  0.75000000  0.69323294  1
  O  O46  1  0.01269754  0.75000000  0.19323294  1
  O  O47  1  0.98730246  0.25000000  0.80676706  1
  O  O48  1  0.91327077  0.25000000  0.62607176  1
  O  O49  1  0.08672923  0.75000000  0.37392824  1
  O  O50  1  0.91327077  0.75000000  0.87392824  1
  O  O51  1  0.08672923  0.25000000  0.12607176  1
