# generated using pymatgen
data_Li2La3Ti2Nb2O13
_symmetry_space_group_name_H-M   'P 1'
_cell_length_a   4.01138734
_cell_length_b   17.09735123
_cell_length_c   4.01302804
_cell_angle_alpha   83.39774548
_cell_angle_beta   90.02981988
_cell_angle_gamma   96.73801544
_symmetry_Int_Tables_number   1
_chemical_formula_structural   Li2La3Ti2Nb2O13
_chemical_formula_sum   'Li2 La3 Ti2 Nb2 O13'
_cell_volume   271.49278468
_cell_formula_units_Z   1
loop_
 _symmetry_equiv_pos_site_id
 _symmetry_equiv_pos_as_xyz
  1  'x, y, z'
loop_
 _atom_site_type_symbol
 _atom_site_label
 _atom_site_symmetry_multiplicity
 _atom_site_fract_x
 _atom_site_fract_y
 _atom_site_fract_z
 _atom_site_occupancy
  Li  Li0  1  0.24537400  0.49925334  0.25646211  1
  Li  Li1  1  0.74338671  0.49977108  0.75185480  1
  La  La2  1  0.49603110  0.00060697  0.51158402  1
  La  La3  1  0.62110558  0.23900920  0.36946366  1
  La  La4  1  0.37249595  0.76071708  0.62358904  1
  Ti  Ti5  1  0.05107119  0.11647599  0.94268483  1
  Ti  Ti6  1  0.94012233  0.88382928  0.06111055  1
  Nb  Nb7  1  0.17894202  0.35823236  0.81942582  1
  Nb  Nb8  1  0.81615387  0.64094649  0.18328151  1
  O  O9  1  0.99387882  0.00014059  0.99625594  1
  O  O10  1  0.04932209  0.11482183  0.44304090  1
  O  O11  1  0.55125033  0.11655314  0.94258567  1
  O  O12  1  0.10939147  0.23279126  0.88768355  1
  O  O13  1  0.17249542  0.34154338  0.32883068  1
  O  O14  1  0.66889290  0.34021199  0.82647603  1
  O  O15  1  0.23108622  0.47142474  0.76908732  1
  O  O16  1  0.76034555  0.52786018  0.24240165  1
  O  O17  1  0.32549873  0.65863561  0.17291199  1
  O  O18  1  0.82448211  0.65866793  0.67505287  1
  O  O19  1  0.88258346  0.76711442  0.12408164  1
  O  O20  1  0.43985409  0.88412240  0.05973246  1
  O  O21  1  0.94323708  0.88532875  0.56027096  1
