# generated using pymatgen
data_Er5Pt4
_symmetry_space_group_name_H-M   'P 1'
_cell_length_a   7.43032249
_cell_length_b   7.52755450
_cell_length_c   14.62924074
_cell_angle_alpha   90.00000000
_cell_angle_beta   90.00000000
_cell_angle_gamma   90.00000000
_symmetry_Int_Tables_number   1
_chemical_formula_structural   Er5Pt4
_chemical_formula_sum   'Er20 Pt16'
_cell_volume   818.24499712
_cell_formula_units_Z   4
loop_
 _symmetry_equiv_pos_site_id
 _symmetry_equiv_pos_as_xyz
  1  'x, y, z'
loop_
 _atom_site_type_symbol
 _atom_site_label
 _atom_site_symmetry_multiplicity
 _atom_site_fract_x
 _atom_site_fract_y
 _atom_site_fract_z
 _atom_site_occupancy
  Er  Er0  1  0.34262738  0.83242964  0.87740606  1
  Er  Er1  1  0.84262738  0.66757036  0.62259394  1
  Er  Er2  1  0.65737262  0.16757036  0.37740606  1
  Er  Er3  1  0.15737262  0.33242964  0.12259394  1
  Er  Er4  1  0.65737262  0.16757036  0.12259394  1
  Er  Er5  1  0.15737262  0.33242964  0.37740606  1
  Er  Er6  1  0.34262738  0.83242964  0.62259394  1
  Er  Er7  1  0.84262738  0.66757036  0.87740606  1
  Er  Er8  1  0.49924872  0.31980634  0.90755834  1
  Er  Er9  1  0.99924872  0.18019366  0.59244166  1
  Er  Er10  1  0.50075128  0.68019366  0.40755834  1
  Er  Er11  1  0.00075128  0.81980634  0.09244166  1
  Er  Er12  1  0.50075128  0.68019366  0.09244166  1
  Er  Er13  1  0.00075128  0.81980634  0.40755834  1
  Er  Er14  1  0.49924872  0.31980634  0.59244166  1
  Er  Er15  1  0.99924872  0.18019366  0.90755834  1
  Er  Er16  1  0.18147305  0.48801278  0.75000000  1
  Er  Er17  1  0.68147305  0.01198722  0.75000000  1
  Er  Er18  1  0.81852695  0.51198722  0.25000000  1
  Er  Er19  1  0.31852695  0.98801278  0.25000000  1
  Pt  Pt20  1  0.31733034  0.03285334  0.04156134  1
  Pt  Pt21  1  0.81733034  0.46714666  0.45843866  1
  Pt  Pt22  1  0.68266966  0.96714666  0.54156134  1
  Pt  Pt23  1  0.18266966  0.53285334  0.95843866  1
  Pt  Pt24  1  0.68266966  0.96714666  0.95843866  1
  Pt  Pt25  1  0.18266966  0.53285334  0.54156134  1
  Pt  Pt26  1  0.31733034  0.03285334  0.45843866  1
  Pt  Pt27  1  0.81733034  0.46714666  0.04156134  1
  Pt  Pt28  1  0.54571592  0.61209659  0.75000000  1
  Pt  Pt29  1  0.04571592  0.88790341  0.75000000  1
  Pt  Pt30  1  0.45428408  0.38790341  0.25000000  1
  Pt  Pt31  1  0.95428408  0.11209659  0.25000000  1
  Pt  Pt32  1  0.31580477  0.14314589  0.75000000  1
  Pt  Pt33  1  0.81580477  0.35685411  0.75000000  1
  Pt  Pt34  1  0.68419523  0.85685411  0.25000000  1
  Pt  Pt35  1  0.18419523  0.64314589  0.25000000  1
