# generated using pymatgen
data_AlPH9(CCl)3
_symmetry_space_group_name_H-M   'P 1'
_cell_length_a   6.77471603
_cell_length_b   8.04033372
_cell_length_c   10.87804742
_cell_angle_alpha   90.00000000
_cell_angle_beta   90.00000000
_cell_angle_gamma   113.59925973
_symmetry_Int_Tables_number   1
_chemical_formula_structural   AlPH9(CCl)3
_chemical_formula_sum   'Al2 P2 H18 C6 Cl6'
_cell_volume   542.98269283
_cell_formula_units_Z   2
loop_
 _symmetry_equiv_pos_site_id
 _symmetry_equiv_pos_as_xyz
  1  'x, y, z'
loop_
 _atom_site_type_symbol
 _atom_site_label
 _atom_site_symmetry_multiplicity
 _atom_site_fract_x
 _atom_site_fract_y
 _atom_site_fract_z
 _atom_site_occupancy
  Al  Al0  1  0.40198391  0.92487477  0.75000000  1
  Al  Al1  1  0.59801609  0.07512523  0.25000000  1
  P  P2  1  0.42818789  0.23568172  0.75000000  1
  P  P3  1  0.57181211  0.76431828  0.25000000  1
  H  H4  1  0.37193647  0.25869170  0.53222046  1
  H  H5  1  0.62806353  0.74130830  0.03222046  1
  H  H6  1  0.62806353  0.74130830  0.46777954  1
  H  H7  1  0.37193647  0.25869170  0.96777954  1
  H  H8  1  0.12712618  0.19586952  0.61673468  1
  H  H9  1  0.87287382  0.80413048  0.11673468  1
  H  H10  1  0.87287382  0.80413048  0.38326532  1
  H  H11  1  0.12712618  0.19586952  0.88326532  1
  H  H12  1  0.31899708  0.42694801  0.61870826  1
  H  H13  1  0.68100292  0.57305199  0.11870826  1
  H  H14  1  0.68100292  0.57305199  0.38129174  1
  H  H15  1  0.31899708  0.42694801  0.88129174  1
  H  H16  1  0.70793363  0.54039365  0.75000000  1
  H  H17  1  0.29206637  0.45960635  0.25000000  1
  H  H18  1  0.78830954  0.38496744  0.83217915  1
  H  H19  1  0.21169046  0.61503256  0.33217915  1
  H  H20  1  0.21169046  0.61503256  0.16782085  1
  H  H21  1  0.78830954  0.38496744  0.66782085  1
  C  C22  1  0.29934264  0.28437995  0.61638323  1
  C  C23  1  0.70065736  0.71562005  0.11638323  1
  C  C24  1  0.70065736  0.71562005  0.38361677  1
  C  C25  1  0.29934264  0.28437995  0.88361677  1
  C  C26  1  0.70492769  0.40254377  0.75000000  1
  C  C27  1  0.29507231  0.59745623  0.25000000  1
  Cl  Cl28  1  0.22933512  0.79259880  0.58758296  1
  Cl  Cl29  1  0.77066488  0.20740120  0.08758296  1
  Cl  Cl30  1  0.77066488  0.20740120  0.41241704  1
  Cl  Cl31  1  0.22933512  0.79259880  0.91241704  1
  Cl  Cl32  1  0.72023730  0.92673894  0.75000000  1
  Cl  Cl33  1  0.27976270  0.07326106  0.25000000  1
