# generated using pymatgen
data_K3Bi7(SO6)4
_symmetry_space_group_name_H-M   'P 1'
_cell_length_a   11.50393175
_cell_length_b   15.80182614
_cell_length_c   15.97129618
_cell_angle_alpha   80.23628512
_cell_angle_beta   68.89096397
_cell_angle_gamma   68.65355367
_symmetry_Int_Tables_number   1
_chemical_formula_structural   K3Bi7(SO6)4
_chemical_formula_sum   'K12 Bi28 S16 O96'
_cell_volume   2520.20206135
_cell_formula_units_Z   4
loop_
 _symmetry_equiv_pos_site_id
 _symmetry_equiv_pos_as_xyz
  1  'x, y, z'
loop_
 _atom_site_type_symbol
 _atom_site_label
 _atom_site_symmetry_multiplicity
 _atom_site_fract_x
 _atom_site_fract_y
 _atom_site_fract_z
 _atom_site_occupancy
  K  K0  1  0.80231995  0.14279537  0.49527843  1
  K  K1  1  0.44039375  0.35720463  0.00472157  1
  K  K2  1  0.19768005  0.85720463  0.50472157  1
  K  K3  1  0.55960625  0.64279537  0.99527843  1
  K  K4  1  0.12303822  0.75432037  0.74560699  1
  K  K5  1  0.62296558  0.74567963  0.75439301  1
  K  K6  1  0.87696178  0.24567963  0.25439301  1
  K  K7  1  0.37703442  0.25432037  0.24560699  1
  K  K8  1  0.04007527  0.52645592  0.65936930  1
  K  K9  1  0.22590050  0.97354408  0.84063070  1
  K  K10  1  0.95992473  0.47354408  0.34063070  1
  K  K11  1  0.77409950  0.02645592  0.15936930  1
  Bi  Bi12  1  0.13145243  0.25000000  0.75000000  1
  Bi  Bi13  1  0.86854757  0.75000000  0.25000000  1
  Bi  Bi14  1  0.62424044  0.25000000  0.75000000  1
  Bi  Bi15  1  0.37575956  0.75000000  0.25000000  1
  Bi  Bi16  1  0.29677561  0.15351845  0.51294722  1
  Bi  Bi17  1  0.96324129  0.34648155  0.98705278  1
  Bi  Bi18  1  0.70322439  0.84648155  0.48705278  1
  Bi  Bi19  1  0.03675871  0.65351845  0.01294722  1
  Bi  Bi20  1  0.26016581  0.40211820  0.82464376  1
  Bi  Bi21  1  0.48692777  0.09788180  0.67535624  1
  Bi  Bi22  1  0.73983419  0.59788180  0.17535624  1
  Bi  Bi23  1  0.51307223  0.90211820  0.32464376  1
  Bi  Bi24  1  0.53873583  0.49568444  0.67005186  1
  Bi  Bi25  1  0.70447213  0.00431556  0.82994814  1
  Bi  Bi26  1  0.46126417  0.50431556  0.32994814  1
  Bi  Bi27  1  0.29552787  0.99568444  0.17005186  1
  Bi  Bi28  1  0.41511607  0.33470545  0.59365965  1
  Bi  Bi29  1  0.34348117  0.16529455  0.90634035  1
  Bi  Bi30  1  0.58488393  0.66529455  0.40634035  1
  Bi  Bi31  1  0.65651883  0.83470545  0.09365965  1
  Bi  Bi32  1  0.90944596  0.33061946  0.59449676  1
  Bi  Bi33  1  0.83456218  0.16938054  0.90550324  1
  Bi  Bi34  1  0.09055404  0.66938054  0.40550324  1
  Bi  Bi35  1  0.16543782  0.83061946  0.09449676  1
  Bi  Bi36  1  0.76499818  0.40348092  0.82381737  1
  Bi  Bi37  1  0.99229648  0.09651908  0.67618263  1
  Bi  Bi38  1  0.23500182  0.59651908  0.17618263  1
  Bi  Bi39  1  0.00770352  0.90348092  0.32381737  1
  S  S40  1  0.38714591  0.58423827  0.87958665  1
  S  S41  1  0.85097083  0.91576173  0.62041335  1
  S  S42  1  0.61285409  0.41576173  0.12041335  1
  S  S43  1  0.14902917  0.08423827  0.37958665  1
  S  S44  1  0.35588778  0.92985823  0.61790126  1
  S  S45  1  0.90364727  0.57014177  0.88209874  1
  S  S46  1  0.64411222  0.07014177  0.38209874  1
  S  S47  1  0.09635273  0.42985823  0.11790126  1
  S  S48  1  0.29555543  0.61819123  0.55724627  1
  S  S49  1  0.47099293  0.88180877  0.94275373  1
  S  S50  1  0.70444457  0.38180877  0.44275373  1
  S  S51  1  0.52900707  0.11819123  0.05724627  1
  S  S52  1  0.77705301  0.61241420  0.56731199  1
  S  S53  1  0.95677920  0.88758580  0.93268801  1
  S  S54  1  0.22294699  0.38758580  0.43268801  1
  S  S55  1  0.04322080  0.11241420  0.06731199  1
  O  O56  1  0.44210074  0.49435807  0.82961452  1
  O  O57  1  0.76607334  0.00564193  0.67038548  1
  O  O58  1  0.55789926  0.50564193  0.17038548  1
  O  O59  1  0.23392666  0.99435807  0.32961452  1
  O  O60  1  0.49441315  0.62353994  0.85100247  1
  O  O61  1  0.96895555  0.87646006  0.64899753  1
  O  O62  1  0.50558685  0.37646006  0.14899753  1
  O  O63  1  0.03104445  0.12353994  0.35100247  1
  O  O64  1  0.34964427  0.55757047  0.97702700  1
  O  O65  1  0.88424175  0.94242953  0.52297300  1
  O  O66  1  0.65035573  0.44242953  0.02297300  1
  O  O67  1  0.11575825  0.05757047  0.47702700  1
  O  O68  1  0.27022419  0.64422825  0.85465641  1
  O  O69  1  0.76910885  0.85577175  0.64534359  1
  O  O70  1  0.72977581  0.35577175  0.14534359  1
  O  O71  1  0.23089115  0.14422825  0.35465641  1
  O  O72  1  0.29450351  0.03384351  0.62904399  1
  O  O73  1  0.95739100  0.46615649  0.87095601  1
  O  O74  1  0.70549649  0.96615649  0.37095601  1
  O  O75  1  0.04260900  0.53384351  0.12904399  1
  O  O76  1  0.24551856  0.89297522  0.65275016  1
  O  O77  1  0.79124394  0.60702479  0.84724984  1
  O  O78  1  0.75448144  0.10702478  0.34724984  1
  O  O79  1  0.20875606  0.39297521  0.15275016  1
  O  O80  1  0.44865473  0.89476698  0.66981673  1
  O  O81  1  0.01323844  0.60523302  0.83018327  1
  O  O82  1  0.55134527  0.10523302  0.33018327  1
  O  O83  1  0.98676156  0.39476698  0.16981673  1
  O  O84  1  0.42727926  0.91405365  0.51995413  1
  O  O85  1  0.86128704  0.58594635  0.98004587  1
  O  O86  1  0.57272074  0.08594635  0.48004587  1
  O  O87  1  0.13871296  0.41405365  0.01995413  1
  O  O88  1  0.15317465  0.66342426  0.56789125  1
  O  O89  1  0.38449016  0.83657574  0.93210875  1
  O  O90  1  0.84682535  0.33657574  0.43210875  1
  O  O91  1  0.61550984  0.16342426  0.06789125  1
  O  O92  1  0.35049866  0.68058666  0.57844845  1
  O  O93  1  0.60953376  0.81941334  0.92155155  1
  O  O94  1  0.64950134  0.31941334  0.42155155  1
  O  O95  1  0.39046624  0.18058666  0.07844845  1
  O  O96  1  0.31486265  0.53372386  0.61612260  1
  O  O97  1  0.46470911  0.96627614  0.88387740  1
  O  O98  1  0.68513735  0.46627614  0.38387740  1
  O  O99  1  0.53529089  0.03372386  0.11612260  1
  O  O100  1  0.37115228  0.59487753  0.45948609  1
  O  O101  1  0.42551590  0.90512247  0.04051391  1
  O  O102  1  0.62884772  0.40512247  0.54051391  1
  O  O103  1  0.57448410  0.09487753  0.95948609  1
  O  O104  1  0.68050424  0.70854816  0.56540817  1
  O  O105  1  0.95446057  0.79145184  0.93459183  1
  O  O106  1  0.31949576  0.29145184  0.43459183  1
  O  O107  1  0.04553943  0.20854816  0.06540817  1
  O  O108  1  0.91383406  0.61585797  0.53577864  1
  O  O109  1  0.06547067  0.88414203  0.96422136  1
  O  O110  1  0.08616594  0.38414203  0.46422136  1
  O  O111  1  0.93452933  0.11585797  0.03577864  1
  O  O112  1  0.74245375  0.57638193  0.66170031  1
  O  O113  1  0.98053598  0.92361807  0.83829969  1
  O  O114  1  0.25754625  0.42361807  0.33829969  1
  O  O115  1  0.01946402  0.07638193  0.16170031  1
  O  O116  1  0.76282098  0.55633261  0.50789904  1
  O  O117  1  0.82705263  0.94366739  0.99210096  1
  O  O118  1  0.23717902  0.44366739  0.49210096  1
  O  O119  1  0.17294737  0.05633261  0.00789904  1
  O  O120  1  0.40629764  0.28557452  0.86280183  1
  O  O121  1  0.55467399  0.21442548  0.63719817  1
  O  O122  1  0.59370236  0.71442548  0.13719817  1
  O  O123  1  0.44532601  0.78557452  0.36280183  1
  O  O124  1  0.23420927  0.36238844  0.71000536  1
  O  O125  1  0.30660306  0.13761156  0.78999464  1
  O  O126  1  0.76579073  0.63761156  0.28999464  1
  O  O127  1  0.69339694  0.86238844  0.21000536  1
  O  O128  1  0.33626905  0.20682403  0.61237709  1
  O  O129  1  0.15547017  0.29317597  0.88762291  1
  O  O130  1  0.66373095  0.79317597  0.38762291  1
  O  O131  1  0.84452983  0.70682403  0.11237709  1
  O  O132  1  0.94429217  0.36158597  0.71106489  1
  O  O133  1  0.01694304  0.13841403  0.78893511  1
  O  O134  1  0.05570783  0.63841403  0.28893511  1
  O  O135  1  0.98305696  0.86158597  0.21106489  1
  O  O136  1  0.69464187  0.28772027  0.86058228  1
  O  O137  1  0.84294442  0.21227973  0.63941772  1
  O  O138  1  0.30535813  0.71227973  0.13941772  1
  O  O139  1  0.15705558  0.78772027  0.36058228  1
  O  O140  1  0.45407590  0.38865294  0.70404995  1
  O  O141  1  0.54677880  0.11134706  0.79595005  1
  O  O142  1  0.54592410  0.61134706  0.29595005  1
  O  O143  1  0.45322120  0.88865294  0.20404995  1
  O  O144  1  0.69841752  0.39284356  0.70355732  1
  O  O145  1  0.79481841  0.10715644  0.79644268  1
  O  O146  1  0.30158248  0.60715644  0.29644268  1
  O  O147  1  0.20518159  0.89284356  0.20355732  1
  O  O148  1  0.09446332  0.20610845  0.60184024  1
  O  O149  1  0.90241201  0.29389155  0.89815976  1
  O  O150  1  0.90553668  0.79389155  0.39815976  1
  O  O151  1  0.09758799  0.70610845  0.10184024  1
