# generated using pymatgen
data_Mn3Sb5(IO3)3
_symmetry_space_group_name_H-M   'P 1'
_cell_length_a   8.31093443
_cell_length_b   9.17590673
_cell_length_c   12.56339946
_cell_angle_alpha   78.42345813
_cell_angle_beta   85.24718693
_cell_angle_gamma   70.25022257
_symmetry_Int_Tables_number   1
_chemical_formula_structural   Mn3Sb5(IO3)3
_chemical_formula_sum   'Mn6 Sb10 I6 O18'
_cell_volume   883.27086728
_cell_formula_units_Z   2
loop_
 _symmetry_equiv_pos_site_id
 _symmetry_equiv_pos_as_xyz
  1  'x, y, z'
loop_
 _atom_site_type_symbol
 _atom_site_label
 _atom_site_symmetry_multiplicity
 _atom_site_fract_x
 _atom_site_fract_y
 _atom_site_fract_z
 _atom_site_occupancy
  Mn  Mn0  1  0.70848620  0.98871477  0.35317778  1
  Mn  Mn1  1  0.29151380  0.01128523  0.64682222  1
  Mn  Mn2  1  0.02350006  0.96762310  0.12876703  1
  Mn  Mn3  1  0.97649994  0.03237690  0.87123297  1
  Mn  Mn4  1  0.61049102  0.09079397  0.06827937  1
  Mn  Mn5  1  0.38950898  0.90920603  0.93172063  1
  Sb  Sb6  1  0.88154251  0.18154291  0.49979694  1
  Sb  Sb7  1  0.11845749  0.81845709  0.50020306  1
  Sb  Sb8  1  0.24521798  0.15618435  0.25669948  1
  Sb  Sb9  1  0.75478202  0.84381565  0.74330052  1
  Sb  Sb10  1  0.52758712  0.21108332  0.75805993  1
  Sb  Sb11  1  0.47241288  0.78891668  0.24194007  1
  Sb  Sb12  1  0.18620338  0.26687221  0.98255452  1
  Sb  Sb13  1  0.81379662  0.73312779  0.01744548  1
  Sb  Sb14  1  0.79315691  0.31970261  0.20298884  1
  Sb  Sb15  1  0.20684309  0.68029739  0.79701116  1
  I  I16  1  0.71646880  0.35843990  0.92517984  1
  I  I17  1  0.28353120  0.64156010  0.07482016  1
  I  I18  1  0.90458941  0.67594935  0.31343145  1
  I  I19  1  0.09541059  0.32405065  0.68656855  1
  I  I20  1  0.49086782  0.29488698  0.42423639  1
  I  I21  1  0.50913218  0.70511302  0.57576361  1
  O  O22  1  0.14696372  0.06277740  0.98154504  1
  O  O23  1  0.85303628  0.93722260  0.01845496  1
  O  O24  1  0.86270631  0.97008443  0.48283419  1
  O  O25  1  0.13729369  0.02991557  0.51716581  1
  O  O26  1  0.77619144  0.10905424  0.19683967  1
  O  O27  1  0.22380856  0.89094576  0.80316033  1
  O  O28  1  0.43612616  0.14383780  0.90763614  1
  O  O29  1  0.56387384  0.85616220  0.09236386  1
  O  O30  1  0.77743228  0.05392553  0.76795578  1
  O  O31  1  0.22256772  0.94607447  0.23204422  1
  O  O32  1  0.50356981  0.02463436  0.70898545  1
  O  O33  1  0.49643019  0.97536564  0.29101455  1
  O  O34  1  0.03099098  0.25525118  0.13713113  1
  O  O35  1  0.96900902  0.74474882  0.86286887  1
  O  O36  1  0.07334618  0.76436337  0.65798990  1
  O  O37  1  0.92665382  0.23563663  0.34201010  1
  O  O38  1  0.64650091  0.79930111  0.89348139  1
  O  O39  1  0.35349909  0.20069889  0.10651861  1
