# generated using pymatgen
data_Na2Zn3H4(Se2O7)2
_symmetry_space_group_name_H-M   'P 1'
_cell_length_a   6.69182681
_cell_length_b   8.89230890
_cell_length_c   15.12795038
_cell_angle_alpha   106.12538848
_cell_angle_beta   90.00000000
_cell_angle_gamma   112.10286064
_symmetry_Int_Tables_number   1
_chemical_formula_structural   Na2Zn3H4(Se2O7)2
_chemical_formula_sum   'Na4 Zn6 H8 Se8 O28'
_cell_volume   795.68816208
_cell_formula_units_Z   2
loop_
 _symmetry_equiv_pos_site_id
 _symmetry_equiv_pos_as_xyz
  1  'x, y, z'
loop_
 _atom_site_type_symbol
 _atom_site_label
 _atom_site_symmetry_multiplicity
 _atom_site_fract_x
 _atom_site_fract_y
 _atom_site_fract_z
 _atom_site_occupancy
  Na  Na0  1  0.25871272  0.78956847  0.00911333  1
  Na  Na1  1  0.46914425  0.21043153  0.49088667  1
  Na  Na2  1  0.74128728  0.21043153  0.99088667  1
  Na  Na3  1  0.53085575  0.78956847  0.50911333  1
  Zn  Zn4  1  0.85009517  0.02267338  0.38137928  1
  Zn  Zn5  1  0.82742179  0.97732662  0.11862072  1
  Zn  Zn6  1  0.14990483  0.97732662  0.61862072  1
  Zn  Zn7  1  0.17257821  0.02267338  0.88137928  1
  Zn  Zn8  1  0.32295550  0.00000000  0.25000000  1
  Zn  Zn9  1  0.67704450  1.00000000  0.75000000  1
  H  H10  1  0.78781577  0.58324789  0.11101073  1
  H  H11  1  0.20456788  0.41675211  0.38898927  1
  H  H12  1  0.21218423  0.41675211  0.88898927  1
  H  H13  1  0.79543212  0.58324789  0.61101073  1
  H  H14  1  0.99110068  0.54200505  0.11757898  1
  H  H15  1  0.44909563  0.45799495  0.38242102  1
  H  H16  1  0.00889932  0.45799495  0.88242102  1
  H  H17  1  0.55090437  0.54200505  0.61757898  1
  Se  Se18  1  0.07119414  0.79280528  0.39310301  1
  Se  Se19  1  0.27838886  0.20719472  0.10689699  1
  Se  Se20  1  0.92880586  0.20719472  0.60689699  1
  Se  Se21  1  0.72161114  0.79280528  0.89310301  1
  Se  Se22  1  0.76764260  0.28545623  0.27928606  1
  Se  Se23  1  0.48218637  0.71454377  0.22071394  1
  Se  Se24  1  0.23235740  0.71454377  0.72071394  1
  Se  Se25  1  0.51781363  0.28545623  0.77928606  1
  O  O26  1  0.12183537  0.97234486  0.35152412  1
  O  O27  1  0.14949051  0.02765514  0.14847588  1
  O  O28  1  0.87816463  0.02765514  0.64847588  1
  O  O29  1  0.85050949  0.97234486  0.85152412  1
  O  O30  1  0.24270454  0.88684179  0.49557772  1
  O  O31  1  0.35586275  0.11315821  0.00442228  1
  O  O32  1  0.75729546  0.11315821  0.50442228  1
  O  O33  1  0.64413725  0.88684179  0.99557772  1
  O  O34  1  0.95558877  0.77943062  0.92338986  1
  O  O35  1  0.17615814  0.22056938  0.57661014  1
  O  O36  1  0.04441123  0.22056938  0.07661014  1
  O  O37  1  0.82384186  0.77943062  0.42338986  1
  O  O38  1  0.29232842  0.76106134  0.16736951  1
  O  O39  1  0.53126708  0.23893866  0.33263049  1
  O  O40  1  0.70767158  0.23893866  0.83263049  1
  O  O41  1  0.46873292  0.76106134  0.66736951  1
  O  O42  1  0.83732186  0.48896451  0.09194175  1
  O  O43  1  0.34835735  0.51103549  0.40805825  1
  O  O44  1  0.16267814  0.51103549  0.90805825  1
  O  O45  1  0.65164265  0.48896451  0.59194175  1
  O  O46  1  0.94240821  0.23165898  0.33604279  1
  O  O47  1  0.71074923  0.76834102  0.16395721  1
  O  O48  1  0.05759179  0.76834102  0.66395721  1
  O  O49  1  0.28925077  0.23165898  0.83604279  1
  O  O50  1  0.65553475  0.11306224  0.17997379  1
  O  O51  1  0.54247250  0.88693776  0.32002621  1
  O  O52  1  0.34446525  0.88693776  0.82002621  1
  O  O53  1  0.45752750  0.11306224  0.67997379  1
