# generated using pymatgen
data_La2Mn(SeO)2
_symmetry_space_group_name_H-M   'P 1'
_cell_length_a   4.03370636
_cell_length_b   16.63552167
_cell_length_c   17.84606593
_cell_angle_alpha   90.00000000
_cell_angle_beta   90.00000000
_cell_angle_gamma   90.00000000
_symmetry_Int_Tables_number   1
_chemical_formula_structural   La2Mn(SeO)2
_chemical_formula_sum   'La16 Mn8 Se16 O16'
_cell_volume   1197.52116354
_cell_formula_units_Z   8
loop_
 _symmetry_equiv_pos_site_id
 _symmetry_equiv_pos_as_xyz
  1  'x, y, z'
loop_
 _atom_site_type_symbol
 _atom_site_label
 _atom_site_symmetry_multiplicity
 _atom_site_fract_x
 _atom_site_fract_y
 _atom_site_fract_z
 _atom_site_occupancy
  La  La0  1  0.00052720  0.97763530  0.91126144  1
  La  La1  1  0.50052720  0.02236470  0.08873856  1
  La  La2  1  0.50052720  0.47763530  0.58873856  1
  La  La3  1  0.00052720  0.52236470  0.41126144  1
  La  La4  1  0.50521233  0.48385481  0.91121918  1
  La  La5  1  0.00521233  0.51614519  0.08878082  1
  La  La6  1  0.00521233  0.98385481  0.58878082  1
  La  La7  1  0.50521233  0.01614519  0.41121918  1
  La  La8  1  0.00583944  0.67689290  0.91583634  1
  La  La9  1  0.50583944  0.32310710  0.08416366  1
  La  La10  1  0.50583944  0.17689290  0.58416366  1
  La  La11  1  0.00583944  0.82310710  0.41583634  1
  La  La12  1  0.50163779  0.17035560  0.91358640  1
  La  La13  1  0.00163779  0.82964440  0.08641360  1
  La  La14  1  0.00163779  0.67035560  0.58641360  1
  La  La15  1  0.50163779  0.32964440  0.41358640  1
  Mn  Mn16  1  0.01723127  0.38835128  0.24898811  1
  Mn  Mn17  1  0.51723127  0.61164872  0.75101189  1
  Mn  Mn18  1  0.51723127  0.88835128  0.25101189  1
  Mn  Mn19  1  0.01723127  0.11164872  0.74898811  1
  Mn  Mn20  1  0.50915266  0.83480246  0.72257951  1
  Mn  Mn21  1  0.00915266  0.16519754  0.27742049  1
  Mn  Mn22  1  0.00915266  0.33480246  0.77742049  1
  Mn  Mn23  1  0.50915266  0.66519754  0.22257951  1
  Se  Se24  1  0.00130611  0.01188298  0.25102071  1
  Se  Se25  1  0.50130611  0.98811702  0.74897929  1
  Se  Se26  1  0.50130611  0.51188298  0.24897929  1
  Se  Se27  1  0.00130611  0.48811702  0.75102071  1
  Se  Se28  1  0.00221147  0.33026672  0.92532967  1
  Se  Se29  1  0.50221147  0.66973328  0.07467033  1
  Se  Se30  1  0.50221147  0.83026672  0.57467033  1
  Se  Se31  1  0.00221147  0.16973328  0.42532967  1
  Se  Se32  1  0.50598303  0.82763912  0.93725594  1
  Se  Se33  1  0.00598303  0.17236088  0.06274406  1
  Se  Se34  1  0.00598303  0.32763912  0.56274406  1
  Se  Se35  1  0.50598303  0.67236088  0.43725594  1
  Se  Se36  1  0.00904096  0.75903411  0.25201269  1
  Se  Se37  1  0.50904096  0.24096589  0.74798731  1
  Se  Se38  1  0.50904096  0.25903411  0.24798731  1
  Se  Se39  1  0.00904096  0.74096589  0.75201269  1
  O  O40  1  0.00231904  0.11662711  0.86333635  1
  O  O41  1  0.50231904  0.88337289  0.13666365  1
  O  O42  1  0.50231904  0.61662711  0.63666365  1
  O  O43  1  0.00231904  0.38337289  0.36333635  1
  O  O44  1  0.50660129  0.62164537  0.86627225  1
  O  O45  1  0.00660129  0.37835463  0.13372775  1
  O  O46  1  0.00660129  0.12164537  0.63372775  1
  O  O47  1  0.50660129  0.87835463  0.36627225  1
  O  O48  1  0.00087804  0.53748084  0.54569241  1
  O  O49  1  0.50087804  0.46251916  0.45430759  1
  O  O50  1  0.50087804  0.03748084  0.95430759  1
  O  O51  1  0.00087804  0.96251916  0.04569241  1
  O  O52  1  0.50545935  0.04216162  0.54319720  1
  O  O53  1  0.00545935  0.95783838  0.45680280  1
  O  O54  1  0.00545935  0.54216162  0.95680280  1
  O  O55  1  0.50545935  0.45783838  0.04319720  1
