# generated using pymatgen
data_Li4Mn2NbNi3(PO4)6
_symmetry_space_group_name_H-M   'P 1'
_cell_length_a   8.54865704
_cell_length_b   8.65232906
_cell_length_c   8.64067686
_cell_angle_alpha   62.05682195
_cell_angle_beta   62.33511095
_cell_angle_gamma   62.44966916
_symmetry_Int_Tables_number   1
_chemical_formula_structural   Li4Mn2NbNi3(PO4)6
_chemical_formula_sum   'Li4 Mn2 Nb1 Ni3 P6 O24'
_cell_volume   474.91645856
_cell_formula_units_Z   1
loop_
 _symmetry_equiv_pos_site_id
 _symmetry_equiv_pos_as_xyz
  1  'x, y, z'
loop_
 _atom_site_type_symbol
 _atom_site_label
 _atom_site_symmetry_multiplicity
 _atom_site_fract_x
 _atom_site_fract_y
 _atom_site_fract_z
 _atom_site_occupancy
  Li  Li0  1  0.74363220  0.14965545  0.35448690  1
  Li  Li1  1  0.30518609  0.84026561  0.64368471  1
  Li  Li2  1  0.64074824  0.30515475  0.84297298  1
  Li  Li3  1  0.84188763  0.64011653  0.30904244  1
  Mn  Mn4  1  0.01472934  0.00007826  0.99696542  1
  Mn  Mn5  1  0.48667771  0.50386221  0.49935203  1
  Nb  Nb6  1  0.85331274  0.84782611  0.85138905  1
  Ni  Ni7  1  0.14252261  0.14883062  0.14702511  1
  Ni  Ni8  1  0.35640004  0.35382353  0.35096269  1
  Ni  Ni9  1  0.64706815  0.64983633  0.65277385  1
  P  P10  1  0.05308688  0.74477293  0.44148656  1
  P  P11  1  0.44080070  0.05223597  0.74906763  1
  P  P12  1  0.74798366  0.44107413  0.05067779  1
  P  P13  1  0.25192374  0.53966168  0.95654072  1
  P  P14  1  0.54877434  0.95741229  0.25385086  1
  P  P15  1  0.94659210  0.24965021  0.53786845  1
  O  O16  1  0.11545102  0.29490226  0.49407368  1
  O  O17  1  0.30893381  0.51560757  0.10898041  1
  O  O18  1  0.05776877  0.91057547  0.26100397  1
  O  O19  1  0.54924558  0.10491409  0.30356005  1
  O  O20  1  0.00907061  0.80843475  0.60588609  1
  O  O21  1  0.24174211  0.59283765  0.43233104  1
  O  O22  1  0.25311753  0.08089983  0.90115512  1
  O  O23  1  0.45735893  0.23134279  0.58367479  1
  O  O24  1  0.17671614  0.39615625  0.99139407  1
  O  O25  1  0.59766729  0.43111692  0.24312406  1
  O  O26  1  0.10397119  0.74512685  0.91542948  1
  O  O27  1  0.39020419  0.01092077  0.18905622  1
  O  O28  1  0.60451978  0.00086361  0.82006162  1
  O  O29  1  0.89875795  0.24941167  0.07681100  1
  O  O30  1  0.41155958  0.55758271  0.76226559  1
  O  O31  1  0.81633086  0.60099938  0.00685999  1
  O  O32  1  0.55551600  0.76600175  0.41584208  1
  O  O33  1  0.75003716  0.90847113  0.10324932  1
  O  O34  1  0.75697874  0.41272431  0.56246535  1
  O  O35  1  0.95388904  0.18328989  0.39868667  1
  O  O36  1  0.47087132  0.89452481  0.69288808  1
  O  O37  1  0.91687262  0.09972521  0.74217464  1
  O  O38  1  0.68712076  0.47450544  0.89488243  1
  O  O39  1  0.89497181  0.68180830  0.47899605  1
