# generated using pymatgen
data_La26Ga7Co10
_symmetry_space_group_name_H-M   'P 1'
_cell_length_a   11.94967526
_cell_length_b   11.94967526
_cell_length_c   15.33905529
_cell_angle_alpha   90.00000000
_cell_angle_beta   90.00000000
_cell_angle_gamma   90.00000000
_symmetry_Int_Tables_number   1
_chemical_formula_structural   La26Ga7Co10
_chemical_formula_sum   'La52 Ga14 Co20'
_cell_volume   2190.33639387
_cell_formula_units_Z   2
loop_
 _symmetry_equiv_pos_site_id
 _symmetry_equiv_pos_as_xyz
  1  'x, y, z'
loop_
 _atom_site_type_symbol
 _atom_site_label
 _atom_site_symmetry_multiplicity
 _atom_site_fract_x
 _atom_site_fract_y
 _atom_site_fract_z
 _atom_site_occupancy
  La  La0  1  0.57339235  0.70672670  0.87947644  1
  La  La1  1  0.42660765  0.29327330  0.87947644  1
  La  La2  1  0.92660765  0.20672670  0.87947644  1
  La  La3  1  0.07339235  0.79327330  0.87947644  1
  La  La4  1  0.70672670  0.42660765  0.87947644  1
  La  La5  1  0.29327330  0.57339235  0.87947644  1
  La  La6  1  0.20672670  0.07339235  0.87947644  1
  La  La7  1  0.79327330  0.92660765  0.87947644  1
  La  La8  1  0.42660765  0.29327330  0.12052356  1
  La  La9  1  0.57339235  0.70672670  0.12052356  1
  La  La10  1  0.07339235  0.79327330  0.12052356  1
  La  La11  1  0.92660765  0.20672670  0.12052356  1
  La  La12  1  0.29327330  0.57339235  0.12052356  1
  La  La13  1  0.70672670  0.42660765  0.12052356  1
  La  La14  1  0.79327330  0.92660765  0.12052356  1
  La  La15  1  0.20672670  0.07339235  0.12052356  1
  La  La16  1  0.70778991  0.58260921  0.68746101  1
  La  La17  1  0.29221009  0.41739079  0.68746101  1
  La  La18  1  0.79221009  0.08260921  0.68746101  1
  La  La19  1  0.20778991  0.91739079  0.68746101  1
  La  La20  1  0.58260921  0.29221009  0.68746101  1
  La  La21  1  0.41739079  0.70778991  0.68746101  1
  La  La22  1  0.08260921  0.20778991  0.68746101  1
  La  La23  1  0.91739079  0.79221009  0.68746101  1
  La  La24  1  0.29221009  0.41739079  0.31253899  1
  La  La25  1  0.70778991  0.58260921  0.31253899  1
  La  La26  1  0.20778991  0.91739079  0.31253899  1
  La  La27  1  0.79221009  0.08260921  0.31253899  1
  La  La28  1  0.41739079  0.70778991  0.31253899  1
  La  La29  1  0.58260921  0.29221009  0.31253899  1
  La  La30  1  0.91739079  0.79221009  0.31253899  1
  La  La31  1  0.08260921  0.20778991  0.31253899  1
  La  La32  1  0.58886582  0.70963920  0.50000000  1
  La  La33  1  0.41113418  0.29036080  0.50000000  1
  La  La34  1  0.91113418  0.20963920  0.50000000  1
  La  La35  1  0.08886582  0.79036080  0.50000000  1
  La  La36  1  0.70963920  0.41113418  0.50000000  1
  La  La37  1  0.29036080  0.58886582  0.50000000  1
  La  La38  1  0.20963920  0.08886582  0.50000000  1
  La  La39  1  0.79036080  0.91113418  0.50000000  1
  La  La40  1  0.34019751  0.84019751  0.00000000  1
  La  La41  1  0.65980249  0.15980249  0.00000000  1
  La  La42  1  0.15980249  0.34019751  0.00000000  1
  La  La43  1  0.84019751  0.65980249  0.00000000  1
  La  La44  1  0.00000000  0.50000000  0.61577421  1
  La  La45  1  0.50000000  -0.00000000  0.61577421  1
  La  La46  1  0.00000000  0.50000000  0.38422579  1
  La  La47  1  0.50000000  -0.00000000  0.38422579  1
  La  La48  1  0.00000000  0.50000000  0.84227581  1
  La  La49  1  0.50000000  -0.00000000  0.84227581  1
  La  La50  1  0.00000000  0.50000000  0.15772419  1
  La  La51  1  0.50000000  -0.00000000  0.15772419  1
  Ga  Ga52  1  0.16185538  0.66185538  0.70619121  1
  Ga  Ga53  1  0.83814462  0.33814462  0.70619121  1
  Ga  Ga54  1  0.33814462  0.16185538  0.70619121  1
  Ga  Ga55  1  0.66185538  0.83814462  0.70619121  1
  Ga  Ga56  1  0.83814462  0.33814462  0.29380879  1
  Ga  Ga57  1  0.16185538  0.66185538  0.29380879  1
  Ga  Ga58  1  0.66185538  0.83814462  0.29380879  1
  Ga  Ga59  1  0.33814462  0.16185538  0.29380879  1
  Ga  Ga60  1  0.34834373  0.84834373  0.50000000  1
  Ga  Ga61  1  0.65165627  0.15165627  0.50000000  1
  Ga  Ga62  1  0.15165627  0.34834373  0.50000000  1
  Ga  Ga63  1  0.84834373  0.65165627  0.50000000  1
  Ga  Ga64  1  0.50000000  0.50000000  0.00000000  1
  Ga  Ga65  1  0.00000000  -0.00000000  0.00000000  1
  Co  Co66  1  0.30755002  0.80755002  0.81952283  1
  Co  Co67  1  0.69244998  0.19244998  0.81952283  1
  Co  Co68  1  0.19244998  0.30755002  0.81952283  1
  Co  Co69  1  0.80755002  0.69244998  0.81952283  1
  Co  Co70  1  0.69244998  0.19244998  0.18047717  1
  Co  Co71  1  0.30755002  0.80755002  0.18047717  1
  Co  Co72  1  0.80755002  0.69244998  0.18047717  1
  Co  Co73  1  0.19244998  0.30755002  0.18047717  1
  Co  Co74  1  0.09059586  0.59059586  0.00000000  1
  Co  Co75  1  0.90940414  0.40940414  0.00000000  1
  Co  Co76  1  0.40940414  0.09059586  0.00000000  1
  Co  Co77  1  0.59059586  0.90940414  0.00000000  1
  Co  Co78  1  0.50000000  0.50000000  0.58902008  1
  Co  Co79  1  0.00000000  -0.00000000  0.58902008  1
  Co  Co80  1  0.50000000  0.50000000  0.41097992  1
  Co  Co81  1  0.00000000  -0.00000000  0.41097992  1
  Co  Co82  1  0.50000000  0.50000000  0.77540015  1
  Co  Co83  1  0.00000000  -0.00000000  0.77540015  1
  Co  Co84  1  0.50000000  0.50000000  0.22459985  1
  Co  Co85  1  0.00000000  -0.00000000  0.22459985  1
