# generated using pymatgen
data_B5H4NO8
_symmetry_space_group_name_H-M   'P 1'
_cell_length_a   7.91747397
_cell_length_b   12.07680379
_cell_length_c   15.17452762
_cell_angle_alpha   90.00000000
_cell_angle_beta   90.00000000
_cell_angle_gamma   90.00000000
_symmetry_Int_Tables_number   1
_chemical_formula_structural   B5H4NO8
_chemical_formula_sum   'B40 H32 N8 O64'
_cell_volume   1450.95463823
_cell_formula_units_Z   8
loop_
 _symmetry_equiv_pos_site_id
 _symmetry_equiv_pos_as_xyz
  1  'x, y, z'
loop_
 _atom_site_type_symbol
 _atom_site_label
 _atom_site_symmetry_multiplicity
 _atom_site_fract_x
 _atom_site_fract_y
 _atom_site_fract_z
 _atom_site_occupancy
  B  B0  1  0.04333738  0.27690055  0.37405694  1
  B  B1  1  0.54333738  0.22309945  0.62594306  1
  B  B2  1  0.95666262  0.77690055  0.12594306  1
  B  B3  1  0.45666262  0.72309945  0.87405694  1
  B  B4  1  0.95666262  0.72309945  0.62594306  1
  B  B5  1  0.45666262  0.77690055  0.37405694  1
  B  B6  1  0.04333738  0.22309945  0.87405694  1
  B  B7  1  0.54333738  0.27690055  0.12594306  1
  B  B8  1  0.89520482  0.10107568  0.41955381  1
  B  B9  1  0.39520482  0.39892432  0.58044619  1
  B  B10  1  0.10479518  0.60107568  0.08044619  1
  B  B11  1  0.60479518  0.89892432  0.91955381  1
  B  B12  1  0.10479518  0.89892432  0.58044619  1
  B  B13  1  0.60479518  0.60107568  0.41955381  1
  B  B14  1  0.89520482  0.39892432  0.91955381  1
  B  B15  1  0.39520482  0.10107568  0.08044619  1
  B  B16  1  0.99195007  0.47620759  0.34507040  1
  B  B17  1  0.49195007  0.02379241  0.65492960  1
  B  B18  1  0.00804993  0.97620759  0.15492960  1
  B  B19  1  0.50804993  0.52379241  0.84507040  1
  B  B20  1  0.00804993  0.52379241  0.65492960  1
  B  B21  1  0.50804993  0.97620759  0.34507040  1
  B  B22  1  0.99195007  0.02379241  0.84507040  1
  B  B23  1  0.49195007  0.47620759  0.15492960  1
  B  B24  1  0.19089767  0.42616593  0.45611236  1
  B  B25  1  0.69089767  0.07383407  0.54388764  1
  B  B26  1  0.80910233  0.92616593  0.04388764  1
  B  B27  1  0.30910233  0.57383407  0.95611236  1
  B  B28  1  0.80910233  0.57383407  0.54388764  1
  B  B29  1  0.30910233  0.92616593  0.45611236  1
  B  B30  1  0.19089767  0.07383407  0.95611236  1
  B  B31  1  0.69089767  0.42616593  0.04388764  1
  B  B32  1  0.05561666  0.10339967  0.28690614  1
  B  B33  1  0.55561666  0.39660033  0.71309386  1
  B  B34  1  0.94438334  0.60339967  0.21309386  1
  B  B35  1  0.44438334  0.89660033  0.78690614  1
  B  B36  1  0.94438334  0.89660033  0.71309386  1
  B  B37  1  0.44438334  0.60339967  0.28690614  1
  B  B38  1  0.05561666  0.39660033  0.78690614  1
  B  B39  1  0.55561666  0.10339967  0.21309386  1
  H  H40  1  0.59026638  0.37372601  0.36026741  1
  H  H41  1  0.09026638  0.12627399  0.63973259  1
  H  H42  1  0.40973362  0.87372601  0.13973259  1
  H  H43  1  0.90973362  0.62627399  0.86026741  1
  H  H44  1  0.40973362  0.62627399  0.63973259  1
  H  H45  1  0.90973362  0.87372601  0.36026741  1
  H  H46  1  0.59026638  0.12627399  0.86026741  1
  H  H47  1  0.09026638  0.37372601  0.13973259  1
  H  H48  1  0.58631384  0.23739872  0.33800631  1
  H  H49  1  0.08631384  0.26260128  0.66199369  1
  H  H50  1  0.41368616  0.73739872  0.16199369  1
  H  H51  1  0.91368616  0.76260128  0.83800631  1
  H  H52  1  0.41368616  0.76260128  0.66199369  1
  H  H53  1  0.91368616  0.73739872  0.33800631  1
  H  H54  1  0.58631384  0.26260128  0.83800631  1
  H  H55  1  0.08631384  0.23739872  0.16199369  1
  H  H56  1  0.47724880  0.28698482  0.42540574  1
  H  H57  1  0.97724880  0.21301518  0.57459426  1
  H  H58  1  0.52275120  0.78698482  0.07459426  1
  H  H59  1  0.02275120  0.71301518  0.92540574  1
  H  H60  1  0.52275120  0.71301518  0.57459426  1
  H  H61  1  0.02275120  0.78698482  0.42540574  1
  H  H62  1  0.47724880  0.21301518  0.92540574  1
  H  H63  1  0.97724880  0.28698482  0.07459426  1
  H  H64  1  0.69105493  0.28276126  0.42703114  1
  H  H65  1  0.19105493  0.21723874  0.57296886  1
  H  H66  1  0.30894507  0.78276126  0.07296886  1
  H  H67  1  0.80894507  0.71723874  0.92703114  1
  H  H68  1  0.30894507  0.71723874  0.57296886  1
  H  H69  1  0.80894507  0.78276126  0.42703114  1
  H  H70  1  0.69105493  0.21723874  0.92703114  1
  H  H71  1  0.19105493  0.28276126  0.07296886  1
  N  N72  1  0.58534913  0.29562722  0.38786952  1
  N  N73  1  0.08534913  0.20437278  0.61213048  1
  N  N74  1  0.41465087  0.79562722  0.11213048  1
  N  N75  1  0.91465087  0.70437278  0.88786952  1
  N  N76  1  0.41465087  0.70437278  0.61213048  1
  N  N77  1  0.91465087  0.79562722  0.38786952  1
  N  N78  1  0.58534913  0.20437278  0.88786952  1
  N  N79  1  0.08534913  0.29562722  0.11213048  1
  O  O80  1  0.79531846  0.03884439  0.47572399  1
  O  O81  1  0.29531846  0.46115561  0.52427601  1
  O  O82  1  0.20468154  0.53884439  0.02427601  1
  O  O83  1  0.70468154  0.96115561  0.97572399  1
  O  O84  1  0.20468154  0.96115561  0.52427601  1
  O  O85  1  0.70468154  0.53884439  0.47572399  1
  O  O86  1  0.79531846  0.46115561  0.97572399  1
  O  O87  1  0.29531846  0.03884439  0.02427601  1
  O  O88  1  0.92184152  0.21147396  0.42989703  1
  O  O89  1  0.42184152  0.28852604  0.57010297  1
  O  O90  1  0.07815848  0.71147396  0.07010297  1
  O  O91  1  0.57815848  0.78852604  0.92989703  1
  O  O92  1  0.07815848  0.78852604  0.57010297  1
  O  O93  1  0.57815848  0.71147396  0.42989703  1
  O  O94  1  0.92184152  0.28852604  0.92989703  1
  O  O95  1  0.42184152  0.21147396  0.07010297  1
  O  O96  1  0.11291680  0.20666970  0.30380177  1
  O  O97  1  0.61291680  0.29333030  0.69619823  1
  O  O98  1  0.88708320  0.70666970  0.19619823  1
  O  O99  1  0.38708320  0.79333030  0.80380177  1
  O  O100  1  0.88708320  0.79333030  0.69619823  1
  O  O101  1  0.38708320  0.70666970  0.30380177  1
  O  O102  1  0.11291680  0.29333030  0.80380177  1
  O  O103  1  0.61291680  0.20666970  0.19619823  1
  O  O104  1  0.95182529  0.36919647  0.33109140  1
  O  O105  1  0.45182529  0.13080353  0.66890860  1
  O  O106  1  0.04817471  0.86919647  0.16890860  1
  O  O107  1  0.54817471  0.63080353  0.83109140  1
  O  O108  1  0.04817471  0.63080353  0.66890860  1
  O  O109  1  0.54817471  0.86919647  0.33109140  1
  O  O110  1  0.95182529  0.13080353  0.83109140  1
  O  O111  1  0.45182529  0.36919647  0.16890860  1
  O  O112  1  0.17793040  0.31789441  0.43322352  1
  O  O113  1  0.67793040  0.18210559  0.56677648  1
  O  O114  1  0.82206960  0.81789441  0.06677648  1
  O  O115  1  0.32206960  0.68210559  0.93322352  1
  O  O116  1  0.82206960  0.68210559  0.56677648  1
  O  O117  1  0.32206960  0.81789441  0.43322352  1
  O  O118  1  0.17793040  0.18210559  0.93322352  1
  O  O119  1  0.67793040  0.31789441  0.06677648  1
  O  O120  1  0.57938798  0.06165623  0.29635393  1
  O  O121  1  0.07938798  0.43834377  0.70364607  1
  O  O122  1  0.42061202  0.56165623  0.20364607  1
  O  O123  1  0.92061202  0.93834377  0.79635393  1
  O  O124  1  0.42061202  0.93834377  0.70364607  1
  O  O125  1  0.92061202  0.56165623  0.29635393  1
  O  O126  1  0.57938798  0.43834377  0.79635393  1
  O  O127  1  0.07938798  0.06165623  0.20364607  1
  O  O128  1  0.96549903  0.04189802  0.34949938  1
  O  O129  1  0.46549903  0.45810198  0.65050062  1
  O  O130  1  0.03450097  0.54189802  0.15050062  1
  O  O131  1  0.53450097  0.95810198  0.84949938  1
  O  O132  1  0.03450097  0.95810198  0.65050062  1
  O  O133  1  0.53450097  0.54189802  0.34949938  1
  O  O134  1  0.96549903  0.45810198  0.84949938  1
  O  O135  1  0.46549903  0.04189802  0.15050062  1
  O  O136  1  0.39578364  0.00875900  0.41116599  1
  O  O137  1  0.89578364  0.49124100  0.58883401  1
  O  O138  1  0.60421636  0.50875900  0.08883401  1
  O  O139  1  0.10421636  0.99124100  0.91116599  1
  O  O140  1  0.60421636  0.99124100  0.58883401  1
  O  O141  1  0.10421636  0.50875900  0.41116599  1
  O  O142  1  0.39578364  0.49124100  0.91116599  1
  O  O143  1  0.89578364  0.00875900  0.08883401  1
