# generated using pymatgen
data_Mg5Ta(BO4)3
_symmetry_space_group_name_H-M   'P 1'
_cell_length_a   9.40546234
_cell_length_b   9.45310810
_cell_length_c   9.53027249
_cell_angle_alpha   90.00000000
_cell_angle_beta   90.00000000
_cell_angle_gamma   90.00000000
_symmetry_Int_Tables_number   1
_chemical_formula_structural   Mg5Ta(BO4)3
_chemical_formula_sum   'Mg20 Ta4 B12 O48'
_cell_volume   847.34464907
_cell_formula_units_Z   4
loop_
 _symmetry_equiv_pos_site_id
 _symmetry_equiv_pos_as_xyz
  1  'x, y, z'
loop_
 _atom_site_type_symbol
 _atom_site_label
 _atom_site_symmetry_multiplicity
 _atom_site_fract_x
 _atom_site_fract_y
 _atom_site_fract_z
 _atom_site_occupancy
  Mg  Mg0  1  0.42695378  0.62354300  0.58472627  1
  Mg  Mg1  1  0.07304622  0.12354300  0.91527373  1
  Mg  Mg2  1  0.57304622  0.37645700  0.08472627  1
  Mg  Mg3  1  0.92695378  0.87645700  0.41527373  1
  Mg  Mg4  1  0.57304622  0.37645700  0.41527373  1
  Mg  Mg5  1  0.92695378  0.87645700  0.08472627  1
  Mg  Mg6  1  0.42695378  0.62354300  0.91527373  1
  Mg  Mg7  1  0.07304622  0.12354300  0.58472627  1
  Mg  Mg8  1  0.31985984  0.90225649  0.07620607  1
  Mg  Mg9  1  0.18014016  0.40225649  0.42379393  1
  Mg  Mg10  1  0.68014016  0.09774351  0.57620607  1
  Mg  Mg11  1  0.81985984  0.59774351  0.92379393  1
  Mg  Mg12  1  0.68014016  0.09774351  0.92379393  1
  Mg  Mg13  1  0.81985984  0.59774351  0.57620607  1
  Mg  Mg14  1  0.31985984  0.90225649  0.42379393  1
  Mg  Mg15  1  0.18014016  0.40225649  0.07620607  1
  Mg  Mg16  1  0.80911263  0.60187811  0.25000000  1
  Mg  Mg17  1  0.69088737  0.10187811  0.25000000  1
  Mg  Mg18  1  0.19088737  0.39812189  0.75000000  1
  Mg  Mg19  1  0.30911263  0.89812189  0.75000000  1
  Ta  Ta20  1  0.41435801  0.60069281  0.25000000  1
  Ta  Ta21  1  0.08564199  0.10069281  0.25000000  1
  Ta  Ta22  1  0.58564199  0.39930719  0.75000000  1
  Ta  Ta23  1  0.91435801  0.89930719  0.75000000  1
  B  B24  1  0.12894689  0.67834956  0.25000000  1
  B  B25  1  0.37105311  0.17834956  0.25000000  1
  B  B26  1  0.87105311  0.32165044  0.75000000  1
  B  B27  1  0.62894689  0.82165044  0.75000000  1
  B  B28  1  0.12654084  0.67283232  0.58879505  1
  B  B29  1  0.37345916  0.17283232  0.91120495  1
  B  B30  1  0.87345916  0.32716768  0.08879505  1
  B  B31  1  0.62654084  0.82716768  0.41120495  1
  B  B32  1  0.87345916  0.32716768  0.41120495  1
  B  B33  1  0.62654084  0.82716768  0.08879505  1
  B  B34  1  0.12654084  0.67283232  0.91120495  1
  B  B35  1  0.37345916  0.17283232  0.58879505  1
  O  O36  1  0.15951284  0.53638565  0.25000000  1
  O  O37  1  0.34048716  0.03638565  0.25000000  1
  O  O38  1  0.84048716  0.46361435  0.75000000  1
  O  O39  1  0.65951284  0.96361435  0.75000000  1
  O  O40  1  0.99653064  0.73672723  0.25000000  1
  O  O41  1  0.50346936  0.23672723  0.25000000  1
  O  O42  1  0.00346936  0.26327277  0.75000000  1
  O  O43  1  0.49653064  0.76327277  0.75000000  1
  O  O44  1  0.25496296  0.76137756  0.25000000  1
  O  O45  1  0.24503704  0.26137756  0.25000000  1
  O  O46  1  0.74503704  0.23862244  0.75000000  1
  O  O47  1  0.75496296  0.73862244  0.75000000  1
  O  O48  1  0.12948559  0.52875106  0.58811022  1
  O  O49  1  0.37051441  0.02875106  0.91188978  1
  O  O50  1  0.87051441  0.47124894  0.08811022  1
  O  O51  1  0.62948559  0.97124894  0.41188978  1
  O  O52  1  0.87051441  0.47124894  0.41188978  1
  O  O53  1  0.62948559  0.97124894  0.08811022  1
  O  O54  1  0.12948559  0.52875106  0.91188978  1
  O  O55  1  0.37051441  0.02875106  0.58811022  1
  O  O56  1  0.25081326  0.75219140  0.58285559  1
  O  O57  1  0.24918674  0.25219140  0.91714441  1
  O  O58  1  0.74918674  0.24780860  0.08285559  1
  O  O59  1  0.75081326  0.74780860  0.41714441  1
  O  O60  1  0.74918674  0.24780860  0.41714441  1
  O  O61  1  0.75081326  0.74780860  0.08285559  1
  O  O62  1  0.25081326  0.75219140  0.91714441  1
  O  O63  1  0.24918674  0.25219140  0.58285559  1
  O  O64  1  0.49270425  0.75802821  0.09423907  1
  O  O65  1  0.00729575  0.25802821  0.40576093  1
  O  O66  1  0.50729575  0.24197179  0.59423907  1
  O  O67  1  0.99270425  0.74197179  0.90576093  1
  O  O68  1  0.50729575  0.24197179  0.90576093  1
  O  O69  1  0.99270425  0.74197179  0.59423907  1
  O  O70  1  0.49270425  0.75802821  0.40576093  1
  O  O71  1  0.00729575  0.25802821  0.09423907  1
  O  O72  1  0.89511309  0.02147481  0.25000000  1
  O  O73  1  0.60488691  0.52147481  0.25000000  1
  O  O74  1  0.10488691  0.97852519  0.75000000  1
  O  O75  1  0.39511309  0.47852519  0.75000000  1
  O  O76  1  0.11889426  0.99153450  0.08466307  1
  O  O77  1  0.38110574  0.49153450  0.41533693  1
  O  O78  1  0.88110574  0.00846550  0.58466307  1
  O  O79  1  0.61889426  0.50846550  0.91533693  1
  O  O80  1  0.88110574  0.00846550  0.91533693  1
  O  O81  1  0.61889426  0.50846550  0.58466307  1
  O  O82  1  0.11889426  0.99153450  0.41533693  1
  O  O83  1  0.38110574  0.49153450  0.08466307  1
