# generated using pymatgen
data_Fe2H54N18Cl4O
_symmetry_space_group_name_H-M   'P 1'
_cell_length_a   8.78204863
_cell_length_b   9.95854567
_cell_length_c   11.13516395
_cell_angle_alpha   111.37180466
_cell_angle_beta   105.20602839
_cell_angle_gamma   94.84855691
_symmetry_Int_Tables_number   1
_chemical_formula_structural   Fe2H54N18Cl4O
_chemical_formula_sum   'Fe2 H54 N18 Cl4 O1'
_cell_volume   857.36837084
_cell_formula_units_Z   1
loop_
 _symmetry_equiv_pos_site_id
 _symmetry_equiv_pos_as_xyz
  1  'x, y, z'
loop_
 _atom_site_type_symbol
 _atom_site_label
 _atom_site_symmetry_multiplicity
 _atom_site_fract_x
 _atom_site_fract_y
 _atom_site_fract_z
 _atom_site_occupancy
  Fe  Fe0  1  0.37446335  0.37679597  0.54155754  1
  Fe  Fe1  1  0.62553665  0.62320403  0.45844246  1
  H  H2  1  0.16086264  0.37348711  0.31664486  1
  H  H3  1  0.83913736  0.62651289  0.68335514  1
  H  H4  1  0.04572789  0.35021740  0.40800510  1
  H  H5  1  0.95427211  0.64978260  0.59199490  1
  H  H6  1  0.15153528  0.51578904  0.44777036  1
  H  H7  1  0.84846472  0.48421096  0.55222964  1
  H  H8  1  0.34702110  0.21093539  0.28423979  1
  H  H9  1  0.65297890  0.78906461  0.71576021  1
  H  H10  1  0.48280781  0.15496243  0.37744204  1
  H  H11  1  0.51719219  0.84503757  0.62255796  1
  H  H12  1  0.28514600  0.08627303  0.33601631  1
  H  H13  1  0.71485400  0.91372697  0.66398369  1
  H  H14  1  0.32198520  0.64015915  0.68237510  1
  H  H15  1  0.67801480  0.35984085  0.31762490  1
  H  H16  1  0.47819645  0.60968652  0.78113979  1
  H  H17  1  0.52180355  0.39031348  0.21886021  1
  H  H18  1  0.29177585  0.54676701  0.77444969  1
  H  H19  1  0.70822415  0.45323299  0.22555031  1
  H  H20  1  0.65106756  0.28248362  0.61713210  1
  H  H21  1  0.34893244  0.71751638  0.38286790  1
  H  H22  1  0.55728684  0.27349100  0.72845067  1
  H  H23  1  0.44271316  0.72650900  0.27154933  1
  H  H24  1  0.65042572  0.43424453  0.74288628  1
  H  H25  1  0.34957428  0.56575547  0.25711372  1
  H  H26  1  0.23682902  0.28004873  0.69781292  1
  H  H27  1  0.76317098  0.71995127  0.30218708  1
  H  H28  1  0.09894982  0.21777147  0.54719547  1
  H  H29  1  0.90105018  0.78222853  0.45280453  1
  H  H30  1  0.24774202  0.13106005  0.57509104  1
  H  H31  1  0.75225798  0.86893995  0.42490896  1
  H  H32  1  0.57685627  0.14576413  0.90830243  1
  H  H33  1  0.42314373  0.85423587  0.09169757  1
  H  H34  1  0.41455820  0.21355729  0.91662941  1
  H  H35  1  0.58544180  0.78644271  0.08337059  1
  H  H36  1  0.40370209  0.06100377  0.78942344  1
  H  H37  1  0.59629791  0.93899623  0.21057656  1
  H  H38  1  0.92264304  0.15029996  0.06404291  1
  H  H39  1  0.07735696  0.84970004  0.93595709  1
  H  H40  1  0.79208746  0.99505709  0.00575098  1
  H  H41  1  0.20791254  0.00494291  0.99424902  1
  H  H42  1  0.79793833  0.13124826  0.14620305  1
  H  H43  1  0.20206167  0.86875174  0.85379695  1
  H  H44  1  0.09299773  0.85867985  0.32808523  1
  H  H45  1  0.90700227  0.14132015  0.67191477  1
  H  H46  1  0.04131388  0.86489907  0.17715701  1
  H  H47  1  0.95868612  0.13510093  0.82284299  1
  H  H48  1  0.98106063  0.97408120  0.29780596  1
  H  H49  1  0.01893937  0.02591880  0.70219404  1
  H  H50  1  0.20981208  0.61993659  0.96214548  1
  H  H51  1  0.79018792  0.38006341  0.03785452  1
  H  H52  1  0.17090190  0.44856867  0.94440794  1
  H  H53  1  0.82909810  0.55143133  0.05559206  1
  H  H54  1  0.03631645  0.51665192  0.86282442  1
  H  H55  1  0.96368355  0.48334808  0.13717558  1
  N  N56  1  0.15393519  0.40551501  0.41393969  1
  N  N57  1  0.84606481  0.59448499  0.58606031  1
  N  N58  1  0.37074175  0.18078189  0.36555541  1
  N  N59  1  0.62925825  0.81921811  0.63444459  1
  N  N60  1  0.36191511  0.56262201  0.71696347  1
  N  N61  1  0.63808489  0.43737799  0.28303653  1
  N  N62  1  0.58087734  0.33296022  0.67360452  1
  N  N63  1  0.41912266  0.66703978  0.32639548  1
  N  N64  1  0.22091504  0.23357502  0.59576088  1
  N  N65  1  0.77908496  0.76642498  0.40423912  1
  N  N66  1  0.47451799  0.16368457  0.84995798  1
  N  N67  1  0.52548201  0.83631543  0.15004202  1
  N  N68  1  0.80518381  0.10743436  0.05031100  1
  N  N69  1  0.19481619  0.89256564  0.94968900  1
  N  N70  1  0.07752679  0.92871370  0.27915999  1
  N  N71  1  0.92247321  0.07128630  0.72084001  1
  N  N72  1  0.15682322  0.51509902  0.89154453  1
  N  N73  1  0.84317678  0.48490098  0.10845547  1
  Cl  Cl74  1  0.81170095  0.20645812  0.43753845  1
  Cl  Cl75  1  0.18829905  0.79354188  0.56246155  1
  Cl  Cl76  1  0.77293847  0.69184864  0.89068672  1
  Cl  Cl77  1  0.22706153  0.30815136  0.10931328  1
  O  O78  1  0.50000000  0.50000000  0.50000000  1
