# generated using pymatgen
data_Yb11Bi10
_symmetry_space_group_name_H-M   'P 1'
_cell_length_a   12.31460190
_cell_length_b   12.31460190
_cell_length_c   12.44081633
_cell_angle_alpha   119.66496142
_cell_angle_beta   119.66496142
_cell_angle_gamma   90.00000000
_symmetry_Int_Tables_number   1
_chemical_formula_structural   Yb11Bi10
_chemical_formula_sum   'Yb22 Bi20'
_cell_volume   1347.45617638
_cell_formula_units_Z   2
loop_
 _symmetry_equiv_pos_site_id
 _symmetry_equiv_pos_as_xyz
  1  'x, y, z'
loop_
 _atom_site_type_symbol
 _atom_site_label
 _atom_site_symmetry_multiplicity
 _atom_site_fract_x
 _atom_site_fract_y
 _atom_site_fract_z
 _atom_site_occupancy
  Yb  Yb0  1  0.39653462  0.73738597  0.79306923  1
  Yb  Yb1  1  0.39653462  0.05568326  0.79306923  1
  Yb  Yb2  1  0.73738597  0.39653462  0.79306923  1
  Yb  Yb3  1  0.05568326  0.39653462  0.79306923  1
  Yb  Yb4  1  0.60346538  0.26261403  0.20693077  1
  Yb  Yb5  1  0.60346538  0.94431674  0.20693077  1
  Yb  Yb6  1  0.26261403  0.60346538  0.20693077  1
  Yb  Yb7  1  0.94431674  0.60346538  0.20693077  1
  Yb  Yb8  1  0.19044772  0.44108335  0.38089544  1
  Yb  Yb9  1  0.19044772  0.93981209  0.38089544  1
  Yb  Yb10  1  0.44108335  0.19044772  0.38089544  1
  Yb  Yb11  1  0.93981209  0.19044772  0.38089544  1
  Yb  Yb12  1  0.80955228  0.55891665  0.61910456  1
  Yb  Yb13  1  0.80955228  0.06018791  0.61910456  1
  Yb  Yb14  1  0.55891665  0.80955228  0.61910456  1
  Yb  Yb15  1  0.06018791  0.80955228  0.61910456  1
  Yb  Yb16  1  0.33690540  0.33690540  0.67381080  1
  Yb  Yb17  1  0.66309460  0.66309460  0.32618920  1
  Yb  Yb18  1  0.83816717  0.16183283  -0.00000000  1
  Yb  Yb19  1  0.16183283  0.83816717  -0.00000000  1
  Yb  Yb20  1  0.16183283  0.16183283  1.00000000  1
  Yb  Yb21  1  0.83816717  0.83816717  0.00000000  1
  Bi  Bi22  1  0.25000000  0.75000000  0.50000000  1
  Bi  Bi23  1  0.75000000  0.25000000  0.50000000  1
  Bi  Bi24  1  0.12803455  0.12803455  0.25606911  1
  Bi  Bi25  1  0.87196545  0.87196545  0.74393089  1
  Bi  Bi26  1  0.65110147  1.00000000  1.00000000  1
  Bi  Bi27  1  0.34889853  0.00000000  0.00000000  1
  Bi  Bi28  1  0.00000000  0.34889853  0.00000000  1
  Bi  Bi29  1  1.00000000  0.65110147  1.00000000  1
  Bi  Bi30  1  0.12308069  0.53154202  0.65462272  1
  Bi  Bi31  1  0.53154202  0.12308069  0.65462272  1
  Bi  Bi32  1  0.53154202  0.53154202  0.65462272  1
  Bi  Bi33  1  0.12308069  0.12308069  0.65462272  1
  Bi  Bi34  1  0.87691931  0.46845798  0.34537728  1
  Bi  Bi35  1  0.46845798  0.87691931  0.34537728  1
  Bi  Bi36  1  0.46845798  0.46845798  0.34537728  1
  Bi  Bi37  1  0.87691931  0.87691931  0.34537728  1
  Bi  Bi38  1  0.63281342  0.36718658  -0.00000000  1
  Bi  Bi39  1  0.36718658  0.63281342  -0.00000000  1
  Bi  Bi40  1  0.36718658  0.36718658  1.00000000  1
  Bi  Bi41  1  0.63281342  0.63281342  0.00000000  1
