# generated using pymatgen
data_Y4RuBr5
_symmetry_space_group_name_H-M   'P 1'
_cell_length_a   11.90111854
_cell_length_b   11.90111854
_cell_length_c   17.31977603
_cell_angle_alpha   90.00000000
_cell_angle_beta   90.00000000
_cell_angle_gamma   90.00000000
_symmetry_Int_Tables_number   1
_chemical_formula_structural   Y4RuBr5
_chemical_formula_sum   'Y32 Ru8 Br40'
_cell_volume   2453.11457940
_cell_formula_units_Z   8
loop_
 _symmetry_equiv_pos_site_id
 _symmetry_equiv_pos_as_xyz
  1  'x, y, z'
loop_
 _atom_site_type_symbol
 _atom_site_label
 _atom_site_symmetry_multiplicity
 _atom_site_fract_x
 _atom_site_fract_y
 _atom_site_fract_z
 _atom_site_occupancy
  Y  Y0  1  0.86336328  0.13663672  0.52270867  1
  Y  Y1  1  0.36336328  0.86336328  0.02270867  1
  Y  Y2  1  0.13663672  0.63663672  0.02270867  1
  Y  Y3  1  0.63663672  0.36336328  0.52270867  1
  Y  Y4  1  0.13663672  0.86336328  0.47729133  1
  Y  Y5  1  0.63663672  0.13663672  0.97729133  1
  Y  Y6  1  0.86336328  0.36336328  0.97729133  1
  Y  Y7  1  0.36336328  0.63663672  0.47729133  1
  Y  Y8  1  0.88066601  0.11933399  0.84249954  1
  Y  Y9  1  0.38066601  0.88066601  0.34249954  1
  Y  Y10  1  0.11933399  0.61933399  0.34249954  1
  Y  Y11  1  0.61933399  0.38066601  0.84249954  1
  Y  Y12  1  0.11933399  0.88066601  0.15750046  1
  Y  Y13  1  0.61933399  0.11933399  0.65750046  1
  Y  Y14  1  0.88066601  0.38066601  0.65750046  1
  Y  Y15  1  0.38066601  0.61933399  0.15750046  1
  Y  Y16  1  0.07880473  0.13355696  0.67318649  1
  Y  Y17  1  0.57880473  0.86644304  0.17318649  1
  Y  Y18  1  0.92119527  0.63355696  0.17318649  1
  Y  Y19  1  0.42119527  0.36644304  0.67318649  1
  Y  Y20  1  0.92119527  0.86644304  0.32681351  1
  Y  Y21  1  0.42119527  0.13355696  0.82681351  1
  Y  Y22  1  0.07880473  0.36644304  0.82681351  1
  Y  Y23  1  0.57880473  0.63355696  0.32681351  1
  Y  Y24  1  0.63355696  0.57880473  0.67318649  1
  Y  Y25  1  0.36644304  0.07880473  0.17318649  1
  Y  Y26  1  0.13355696  0.42119527  0.17318649  1
  Y  Y27  1  0.86644304  0.92119527  0.67318649  1
  Y  Y28  1  0.36644304  0.42119527  0.32681351  1
  Y  Y29  1  0.63355696  0.92119527  0.82681351  1
  Y  Y30  1  0.86644304  0.57880473  0.82681351  1
  Y  Y31  1  0.13355696  0.07880473  0.32681351  1
  Ru  Ru32  1  0.85307505  0.14692495  0.67966738  1
  Ru  Ru33  1  0.35307505  0.85307505  0.17966738  1
  Ru  Ru34  1  0.14692495  0.64692495  0.17966738  1
  Ru  Ru35  1  0.64692495  0.35307505  0.67966738  1
  Ru  Ru36  1  0.14692495  0.85307505  0.32033262  1
  Ru  Ru37  1  0.64692495  0.14692495  0.82033262  1
  Ru  Ru38  1  0.85307505  0.35307505  0.82033262  1
  Ru  Ru39  1  0.35307505  0.64692495  0.32033262  1
  Br  Br40  1  0.35034259  0.12698670  0.66251852  1
  Br  Br41  1  0.85034259  0.87301330  0.16251852  1
  Br  Br42  1  0.64965741  0.62698670  0.16251852  1
  Br  Br43  1  0.14965741  0.37301330  0.66251852  1
  Br  Br44  1  0.64965741  0.87301330  0.33748148  1
  Br  Br45  1  0.14965741  0.12698670  0.83748148  1
  Br  Br46  1  0.35034259  0.37301330  0.83748148  1
  Br  Br47  1  0.85034259  0.62698670  0.33748148  1
  Br  Br48  1  0.62698670  0.85034259  0.66251852  1
  Br  Br49  1  0.37301330  0.35034259  0.16251852  1
  Br  Br50  1  0.12698670  0.14965741  0.16251852  1
  Br  Br51  1  0.87301330  0.64965741  0.66251852  1
  Br  Br52  1  0.37301330  0.14965741  0.33748148  1
  Br  Br53  1  0.62698670  0.64965741  0.83748148  1
  Br  Br54  1  0.87301330  0.85034259  0.83748148  1
  Br  Br55  1  0.12698670  0.35034259  0.33748148  1
  Br  Br56  1  0.10854497  0.89145503  0.65985523  1
  Br  Br57  1  0.60854497  0.10854497  0.15985523  1
  Br  Br58  1  0.89145503  0.39145503  0.15985523  1
  Br  Br59  1  0.39145503  0.60854497  0.65985523  1
  Br  Br60  1  0.89145503  0.10854497  0.34014477  1
  Br  Br61  1  0.39145503  0.89145503  0.84014477  1
  Br  Br62  1  0.10854497  0.60854497  0.84014477  1
  Br  Br63  1  0.60854497  0.39145503  0.34014477  1
  Br  Br64  1  0.12497417  0.87502583  0.98093585  1
  Br  Br65  1  0.62497417  0.12497417  0.48093585  1
  Br  Br66  1  0.87502583  0.37502583  0.48093585  1
  Br  Br67  1  0.37502583  0.62497417  0.98093585  1
  Br  Br68  1  0.87502583  0.12497417  0.01906415  1
  Br  Br69  1  0.37502583  0.87502583  0.51906415  1
  Br  Br70  1  0.12497417  0.62497417  0.51906415  1
  Br  Br71  1  0.62497417  0.37502583  0.01906415  1
  Br  Br72  1  0.11678885  0.11678885  0.50000000  1
  Br  Br73  1  0.61678885  0.88321115  0.00000000  1
  Br  Br74  1  0.88321115  0.61678885  0.00000000  1
  Br  Br75  1  0.38321115  0.38321115  0.50000000  1
  Br  Br76  1  0.88321115  0.88321115  0.50000000  1
  Br  Br77  1  0.38321115  0.11678885  0.00000000  1
  Br  Br78  1  0.11678885  0.38321115  0.00000000  1
  Br  Br79  1  0.61678885  0.61678885  0.50000000  1
