# generated using pymatgen
data_Rb8Nb6H28O33
_symmetry_space_group_name_H-M   'P 1'
_cell_length_a   10.36453686
_cell_length_b   11.66517638
_cell_length_c   15.98243334
_cell_angle_alpha   90.00002924
_cell_angle_beta   90.00007842
_cell_angle_gamma   99.83090958
_symmetry_Int_Tables_number   1
_chemical_formula_structural   Rb8Nb6H28O33
_chemical_formula_sum   'Rb16 Nb12 H56 O66'
_cell_volume   1903.96787560
_cell_formula_units_Z   2
loop_
 _symmetry_equiv_pos_site_id
 _symmetry_equiv_pos_as_xyz
  1  'x, y, z'
loop_
 _atom_site_type_symbol
 _atom_site_label
 _atom_site_symmetry_multiplicity
 _atom_site_fract_x
 _atom_site_fract_y
 _atom_site_fract_z
 _atom_site_occupancy
  Rb  Rb0  1  0.62073174  0.60333420  0.64013342  1
  Rb  Rb1  1  0.12072854  0.10333371  0.85986761  1
  Rb  Rb2  1  0.37926826  0.39666580  0.35986658  1
  Rb  Rb3  1  0.87927146  0.89666629  0.14013239  1
  Rb  Rb4  1  0.61669693  0.64906871  0.88939195  1
  Rb  Rb5  1  0.11669466  0.14906939  0.61060628  1
  Rb  Rb6  1  0.38330307  0.35093129  0.11060805  1
  Rb  Rb7  1  0.88330534  0.85093061  0.38939372  1
  Rb  Rb8  1  0.02913157  0.62267772  0.79628415  1
  Rb  Rb9  1  0.52913063  0.12267809  0.70371797  1
  Rb  Rb10  1  0.97086843  0.37732228  0.20371585  1
  Rb  Rb11  1  0.47086937  0.87732191  0.29628203  1
  Rb  Rb12  1  0.82991440  0.33403826  0.92889371  1
  Rb  Rb13  1  0.32991293  0.83403804  0.57110835  1
  Rb  Rb14  1  0.17008560  0.66596174  0.07110629  1
  Rb  Rb15  1  0.67008707  0.16596196  0.42889165  1
  Nb  Nb16  1  0.87142688  0.38411245  0.60687965  1
  Nb  Nb17  1  0.37142509  0.88411064  0.89311913  1
  Nb  Nb18  1  0.12857312  0.61588755  0.39312035  1
  Nb  Nb19  1  0.62857491  0.11588936  0.10688087  1
  Nb  Nb20  1  0.97840381  0.67078322  0.57169270  1
  Nb  Nb21  1  0.47840285  0.17078527  0.92830752  1
  Nb  Nb22  1  0.02159619  0.32921678  0.42830730  1
  Nb  Nb23  1  0.52159715  0.82921473  0.07169248  1
  Nb  Nb24  1  0.19621069  0.48778680  0.57779510  1
  Nb  Nb25  1  0.69621167  0.98778638  0.92220302  1
  Nb  Nb26  1  0.80378931  0.51221320  0.42220490  1
  Nb  Nb27  1  0.30378833  0.01221362  0.07779698  1
  H  H28  1  0.58881204  0.39122495  0.81978181  1
  H  H29  1  0.08881326  0.89122558  0.68021800  1
  H  H30  1  0.41118796  0.60877505  0.18021819  1
  H  H31  1  0.91118674  0.10877442  0.31978200  1
  H  H32  1  0.70851625  0.39633826  0.75788869  1
  H  H33  1  0.20851697  0.89633964  0.74211078  1
  H  H34  1  0.29148375  0.60366174  0.24211131  1
  H  H35  1  0.79148303  0.10366036  0.25788922  1
  H  H36  1  0.35776126  0.39056860  0.89891311  1
  H  H37  1  0.85776126  0.89056845  0.60108705  1
  H  H38  1  0.64223874  0.60943140  0.10108689  1
  H  H39  1  0.14223874  0.10943155  0.39891295  1
  H  H40  1  0.32344736  0.51070371  0.86896801  1
  H  H41  1  0.82344733  0.01070431  0.63103242  1
  H  H42  1  0.67655264  0.48929629  0.13103199  1
  H  H43  1  0.17655267  0.98929569  0.36896758  1
  H  H44  1  0.06298860  0.36918981  0.75790379  1
  H  H45  1  0.56298836  0.86918980  0.74209553  1
  H  H46  1  0.93701140  0.63081019  0.24209621  1
  H  H47  1  0.43701164  0.13081020  0.25790447  1
  H  H48  1  0.14475975  0.38776416  0.84288775  1
  H  H49  1  0.64475866  0.88776381  0.65711276  1
  H  H50  1  0.85524025  0.61223584  0.15711225  1
  H  H51  1  0.35524134  0.11223619  0.34288724  1
  H  H52  1  0.82843657  0.57677412  0.01038316  1
  H  H53  1  0.32843634  0.07677400  0.48961670  1
  H  H54  1  0.17156343  0.42322588  0.98961684  1
  H  H55  1  0.67156366  0.92322600  0.51038330  1
  H  H56  1  0.92070453  0.67970576  0.96548304  1
  H  H57  1  0.42070454  0.17970598  0.53451692  1
  H  H58  1  0.07929547  0.32029424  0.03451696  1
  H  H59  1  0.57929546  0.82029402  0.46548308  1
  H  H60  1  0.86394768  0.78101563  0.72011392  1
  H  H61  1  0.36394722  0.28101548  0.77988572  1
  H  H62  1  0.13605232  0.21898437  0.27988608  1
  H  H63  1  0.63605278  0.71898452  0.22011428  1
  H  H64  1  0.82365865  0.83999695  0.80244079  1
  H  H65  1  0.32365882  0.33999597  0.69755952  1
  H  H66  1  0.17634135  0.16000305  0.19755921  1
  H  H67  1  0.67634118  0.66000403  0.30244048  1
  H  H68  1  0.33915445  0.67335091  0.78580325  1
  H  H69  1  0.83915475  0.17335138  0.71419670  1
  H  H70  1  0.66084555  0.32664909  0.21419675  1
  H  H71  1  0.16084525  0.82664862  0.28580330  1
  H  H72  1  0.35598994  0.55924124  0.73093116  1
  H  H73  1  0.85598944  0.05924075  0.76906926  1
  H  H74  1  0.64401006  0.44075876  0.26906884  1
  H  H75  1  0.14401056  0.94075925  0.23093074  1
  H  H76  1  0.93388146  0.87330276  0.93420223  1
  H  H77  1  0.43388155  0.37330274  0.56579751  1
  H  H78  1  0.06611854  0.12669724  0.06579777  1
  H  H79  1  0.56611845  0.62669726  0.43420249  1
  H  H80  1  0.07854710  0.86343451  0.96825187  1
  H  H81  1  0.57854649  0.36343443  0.53174813  1
  H  H82  1  0.92145290  0.13656549  0.03174813  1
  H  H83  1  0.42145351  0.63656557  0.46825187  1
  O  O84  1  -0.00000000  0.50000000  0.50000000  1
  O  O85  1  0.50000000  0.00000000  0.00000000  1
  O  O86  1  0.91240361  0.26316815  0.52546100  1
  O  O87  1  0.41240291  0.76316797  0.97453895  1
  O  O88  1  0.08759639  0.73683185  0.47453900  1
  O  O89  1  0.58759709  0.23683203  0.02546105  1
  O  O90  1  0.87970710  0.54686084  0.64708712  1
  O  O91  1  0.37970869  0.04686182  0.85291376  1
  O  O92  1  0.12029290  0.45313916  0.35291288  1
  O  O93  1  0.62029131  0.95313818  0.14708624  1
  O  O94  1  0.95841094  0.80300411  0.63236446  1
  O  O95  1  0.45840876  0.30300626  0.86763457  1
  O  O96  1  0.04158906  0.19699589  0.36763554  1
  O  O97  1  0.54159124  0.69699374  0.13236543  1
  O  O98  1  0.34654178  0.47305559  0.63628071  1
  O  O99  1  0.84654139  0.97305692  0.86371955  1
  O  O100  1  0.65345822  0.52694441  0.36371929  1
  O  O101  1  0.15345861  0.02694308  0.13628045  1
  O  O102  1  0.05739911  0.39289546  0.64978025  1
  O  O103  1  0.55739982  0.89289615  0.85022076  1
  O  O104  1  0.94260089  0.60710454  0.35021975  1
  O  O105  1  0.44260018  0.10710385  0.14977924  1
  O  O106  1  0.73196177  0.41525122  0.52390934  1
  O  O107  1  0.23195981  0.91525009  0.97609003  1
  O  O108  1  0.26803823  0.58474878  0.47609066  1
  O  O109  1  0.76804019  0.08474991  0.02390997  1
  O  O110  1  0.77553849  0.29790416  0.68875931  1
  O  O111  1  0.27553526  0.79790147  0.81123860  1
  O  O112  1  0.22446151  0.70209584  0.31124069  1
  O  O113  1  0.72446474  0.20209853  0.18876140  1
  O  O114  1  0.14368830  0.63132585  0.62421461  1
  O  O115  1  0.64368818  0.13132468  0.87578665  1
  O  O116  1  0.85631170  0.36867415  0.37578539  1
  O  O117  1  0.35631182  0.86867532  0.12421335  1
  O  O118  1  0.82022068  0.65121691  0.49879335  1
  O  O119  1  0.32022140  0.15121480  0.00120735  1
  O  O120  1  0.17977932  0.34878309  0.50120665  1
  O  O121  1  0.67977860  0.84878520  0.99879265  1
  O  O122  1  0.66740753  0.44409939  0.79801887  1
  O  O123  1  0.16740986  0.94409825  0.70197989  1
  O  O124  1  0.33259247  0.55590061  0.20198113  1
  O  O125  1  0.83259014  0.05590175  0.29802011  1
  O  O126  1  0.29717207  0.44741666  0.91094773  1
  O  O127  1  0.79717203  0.94741885  0.58905074  1
  O  O128  1  0.70282793  0.55258334  0.08905227  1
  O  O129  1  0.20282797  0.05258115  0.41094926  1
  O  O130  1  0.05598640  0.36484826  0.82023081  1
  O  O131  1  0.55598849  0.86484705  0.67976944  1
  O  O132  1  0.94401360  0.63515174  0.17976919  1
  O  O133  1  0.44401151  0.13515295  0.32023056  1
  O  O134  1  0.89088411  0.59395385  0.96346480  1
  O  O135  1  0.39088308  0.09395056  0.53653564  1
  O  O136  1  0.10911589  0.40604615  0.03653520  1
  O  O137  1  0.60911692  0.90604944  0.46346436  1
  O  O138  1  0.81306757  0.76404699  0.77307282  1
  O  O139  1  0.31306708  0.26404716  0.72692709  1
  O  O140  1  0.18693243  0.23595301  0.22692718  1
  O  O141  1  0.68693292  0.73595284  0.27307291  1
  O  O142  1  0.37619491  0.59970254  0.78529064  1
  O  O143  1  0.87619319  0.09970342  0.71470883  1
  O  O144  1  0.62380509  0.40029746  0.21470936  1
  O  O145  1  0.12380681  0.90029658  0.28529117  1
  O  O146  1  0.98268917  0.82654157  0.96996384  1
  O  O147  1  0.48268698  0.32654163  0.53003525  1
  O  O148  1  0.01731083  0.17345843  0.03003616  1
  O  O149  1  0.51731302  0.67345837  0.46996475  1
