# generated using pymatgen
data_Cs3Y2(H2N)9
_symmetry_space_group_name_H-M   'P 1'
_cell_length_a   9.71006033
_cell_length_b   9.71006033
_cell_length_c   9.71006033
_cell_angle_alpha   82.86421125
_cell_angle_beta   82.86421125
_cell_angle_gamma   82.86421112
_symmetry_Int_Tables_number   1
_chemical_formula_structural   Cs3Y2(H2N)9
_chemical_formula_sum   'Cs6 Y4 H36 N18'
_cell_volume   895.86888565
_cell_formula_units_Z   2
loop_
 _symmetry_equiv_pos_site_id
 _symmetry_equiv_pos_as_xyz
  1  'x, y, z'
loop_
 _atom_site_type_symbol
 _atom_site_label
 _atom_site_symmetry_multiplicity
 _atom_site_fract_x
 _atom_site_fract_y
 _atom_site_fract_z
 _atom_site_occupancy
  Cs  Cs0  1  0.63129498  0.86870502  0.25000000  1
  Cs  Cs1  1  0.86870502  0.25000000  0.63129498  1
  Cs  Cs2  1  0.25000000  0.63129498  0.86870502  1
  Cs  Cs3  1  0.13129498  0.75000000  0.36870502  1
  Cs  Cs4  1  0.75000000  0.36870502  0.13129498  1
  Cs  Cs5  1  0.36870502  0.13129498  0.75000000  1
  Y  Y6  1  0.34379301  0.34379301  0.34379301  1
  Y  Y7  1  0.84379301  0.84379301  0.84379301  1
  Y  Y8  1  0.65620699  0.65620699  0.65620699  1
  Y  Y9  1  0.15620699  0.15620699  0.15620699  1
  H  H10  1  0.03755831  0.40556455  0.32910468  1
  H  H11  1  0.40556455  0.32910468  0.03755831  1
  H  H12  1  0.32910468  0.03755831  0.40556455  1
  H  H13  1  0.53755831  0.82910468  0.90556455  1
  H  H14  1  0.82910468  0.90556455  0.53755831  1
  H  H15  1  0.90556455  0.53755831  0.82910468  1
  H  H16  1  0.96244169  0.59443545  0.67089532  1
  H  H17  1  0.59443545  0.67089532  0.96244169  1
  H  H18  1  0.67089532  0.96244169  0.59443545  1
  H  H19  1  0.46244169  0.17089532  0.09443545  1
  H  H20  1  0.17089532  0.09443545  0.46244169  1
  H  H21  1  0.09443545  0.46244169  0.17089532  1
  H  H22  1  0.91146564  0.65879651  0.12428458  1
  H  H23  1  0.65879651  0.12428458  0.91146564  1
  H  H24  1  0.12428458  0.91146564  0.65879651  1
  H  H25  1  0.41146564  0.62428458  0.15879651  1
  H  H26  1  0.62428458  0.15879651  0.41146564  1
  H  H27  1  0.15879651  0.41146564  0.62428458  1
  H  H28  1  0.08853436  0.34120349  0.87571542  1
  H  H29  1  0.34120349  0.87571542  0.08853436  1
  H  H30  1  0.87571542  0.08853436  0.34120349  1
  H  H31  1  0.58853436  0.37571542  0.84120349  1
  H  H32  1  0.37571542  0.84120349  0.58853436  1
  H  H33  1  0.84120349  0.58853436  0.37571542  1
  H  H34  1  0.92311843  0.98797408  0.21668965  1
  H  H35  1  0.98797408  0.21668965  0.92311843  1
  H  H36  1  0.21668965  0.92311843  0.98797408  1
  H  H37  1  0.42311843  0.71668965  0.48797408  1
  H  H38  1  0.71668965  0.48797408  0.42311843  1
  H  H39  1  0.48797408  0.42311843  0.71668965  1
  H  H40  1  0.07688157  0.01202592  0.78331035  1
  H  H41  1  0.01202592  0.78331035  0.07688157  1
  H  H42  1  0.78331035  0.07688157  0.01202592  1
  H  H43  1  0.57688157  0.28331035  0.51202592  1
  H  H44  1  0.28331035  0.51202592  0.57688157  1
  H  H45  1  0.51202592  0.57688157  0.28331035  1
  N  N46  1  0.11460943  0.38539057  0.25000000  1
  N  N47  1  0.38539057  0.25000000  0.11460943  1
  N  N48  1  0.25000000  0.11460943  0.38539057  1
  N  N49  1  0.61460943  0.75000000  0.88539057  1
  N  N50  1  0.75000000  0.88539057  0.61460943  1
  N  N51  1  0.88539057  0.61460943  0.75000000  1
  N  N52  1  0.92075892  0.74923947  0.05850926  1
  N  N53  1  0.74923947  0.05850926  0.92075892  1
  N  N54  1  0.05850926  0.92075892  0.74923947  1
  N  N55  1  0.42075892  0.55850926  0.24923947  1
  N  N56  1  0.55850926  0.24923947  0.42075892  1
  N  N57  1  0.24923947  0.42075892  0.55850926  1
  N  N58  1  0.07924108  0.25076053  0.94149074  1
  N  N59  1  0.25076053  0.94149074  0.07924108  1
  N  N60  1  0.94149074  0.07924108  0.25076053  1
  N  N61  1  0.57924108  0.44149074  0.75076053  1
  N  N62  1  0.44149074  0.75076053  0.57924108  1
  N  N63  1  0.75076053  0.57924108  0.44149074  1
