# generated using pymatgen
data_Ca2Mg5Si8(HO12)2
_symmetry_space_group_name_H-M   'P 1'
_cell_length_a   5.35041762
_cell_length_b   10.03038863
_cell_length_c   10.42214485
_cell_angle_alpha   61.23582964
_cell_angle_beta   83.10901930
_cell_angle_gamma   75.56193815
_symmetry_Int_Tables_number   1
_chemical_formula_structural   Ca2Mg5Si8(HO12)2
_chemical_formula_sum   'Ca2 Mg5 Si8 H2 O24'
_cell_volume   474.82174548
_cell_formula_units_Z   1
loop_
 _symmetry_equiv_pos_site_id
 _symmetry_equiv_pos_as_xyz
  1  'x, y, z'
loop_
 _atom_site_type_symbol
 _atom_site_label
 _atom_site_symmetry_multiplicity
 _atom_site_fract_x
 _atom_site_fract_y
 _atom_site_fract_z
 _atom_site_occupancy
  Ca  Ca0  1  0.50000000  0.27782545  0.44434910  1
  Ca  Ca1  1  0.50000000  0.72217455  0.55565090  1
  Mg  Mg2  1  0.50000000  0.08805836  0.82388328  1
  Mg  Mg3  1  0.50000000  0.91194164  0.17611672  1
  Mg  Mg4  1  -0.00000000  0.17739078  0.64521845  1
  Mg  Mg5  1  0.00000000  0.82260922  0.35478155  1
  Mg  Mg6  1  0.00000000  0.00000000  -0.00000000  1
  Si  Si7  1  0.70584232  0.36126006  0.83163642  1
  Si  Si8  1  0.70584232  0.19289647  0.16836358  1
  Si  Si9  1  0.29415768  0.63873994  0.16836358  1
  Si  Si10  1  0.29415768  0.80710353  0.83163642  1
  Si  Si11  1  0.19765595  0.45812447  0.65825884  1
  Si  Si12  1  0.19765595  0.11638331  0.34174116  1
  Si  Si13  1  0.80234405  0.54187553  0.34174116  1
  Si  Si14  1  0.80234405  0.88361669  0.65825884  1
  H  H15  1  0.22998135  0.20556277  -0.00000000  1
  H  H16  1  0.77001865  0.79443723  -0.00000000  1
  O  O17  1  0.78343132  0.19703872  0.82624345  1
  O  O18  1  0.78343132  0.02328217  0.17375655  1
  O  O19  1  0.21656868  0.80296128  0.17375655  1
  O  O20  1  0.21656868  0.97671783  0.82624345  1
  O  O21  1  0.27677355  0.29108979  0.65568023  1
  O  O22  1  0.27677355  0.94677002  0.34431977  1
  O  O23  1  0.72322645  0.70891021  0.34431977  1
  O  O24  1  0.72322645  0.05322998  0.65568023  1
  O  O25  1  0.28576445  0.10574633  -0.00000000  1
  O  O26  1  0.71423555  0.89425367  -0.00000000  1
  O  O27  1  0.20584885  0.61411986  0.50686416  1
  O  O28  1  0.20584885  0.12098402  0.49313584  1
  O  O29  1  0.79415115  0.38588014  0.49313584  1
  O  O30  1  0.79415115  0.87901598  0.50686416  1
  O  O31  1  0.90524817  0.47598684  0.73420840  1
  O  O32  1  0.90524817  0.21019524  0.26579160  1
  O  O33  1  0.09475183  0.52401316  0.26579160  1
  O  O34  1  0.09475183  0.78980476  0.73420840  1
  O  O35  1  0.41571896  0.45984307  0.76237325  1
  O  O36  1  0.41571896  0.22221632  0.23762675  1
  O  O37  1  0.58428104  0.54015693  0.23762675  1
  O  O38  1  0.58428104  0.77778368  0.76237325  1
  O  O39  1  0.70893263  0.33250981  -0.00000000  1
  O  O40  1  0.29106737  0.66749019  -0.00000000  1
