# generated using pymatgen
data_H18Se3(NO3)4
_symmetry_space_group_name_H-M   'P 1'
_cell_length_a   7.77781638
_cell_length_b   10.44940408
_cell_length_c   10.84072878
_cell_angle_alpha   113.29165667
_cell_angle_beta   91.80331222
_cell_angle_gamma   107.61479120
_symmetry_Int_Tables_number   1
_chemical_formula_structural   H18Se3(NO3)4
_chemical_formula_sum   'H36 Se6 N8 O24'
_cell_volume   759.73711819
_cell_formula_units_Z   2
loop_
 _symmetry_equiv_pos_site_id
 _symmetry_equiv_pos_as_xyz
  1  'x, y, z'
loop_
 _atom_site_type_symbol
 _atom_site_label
 _atom_site_symmetry_multiplicity
 _atom_site_fract_x
 _atom_site_fract_y
 _atom_site_fract_z
 _atom_site_occupancy
  H  H0  1  0.50810251  0.58597436  0.68548633  1
  H  H1  1  0.49189749  0.41402564  0.31451367  1
  H  H2  1  0.76882824  0.09957027  0.53629034  1
  H  H3  1  0.23117176  0.90042973  0.46370966  1
  H  H4  1  0.35099458  0.21536542  0.71314975  1
  H  H5  1  0.64900542  0.78463458  0.28685025  1
  H  H6  1  0.53912036  0.20679528  0.63764449  1
  H  H7  1  0.46087964  0.79320472  0.36235551  1
  H  H8  1  0.47280646  0.11423190  0.73756589  1
  H  H9  1  0.52719354  0.88576810  0.26243411  1
  H  H10  1  0.56152510  0.30111952  0.80763493  1
  H  H11  1  0.43847490  0.69888048  0.19236507  1
  H  H12  1  0.14090729  0.28093095  0.54470249  1
  H  H13  1  0.85909271  0.71906905  0.45529751  1
  H  H14  1  0.09412565  0.35994309  0.44341987  1
  H  H15  1  0.90587435  0.64005691  0.55658013  1
  H  H16  1  0.29007035  0.31385735  0.43977936  1
  H  H17  1  0.70992965  0.68614265  0.56022064  1
  H  H18  1  0.08271243  0.18229310  0.37332262  1
  H  H19  1  0.91728757  0.81770690  0.62667738  1
  H  H20  1  0.85905581  0.39859228  0.21080221  1
  H  H21  1  0.14094419  0.60140772  0.78919779  1
  H  H22  1  0.75886612  0.38753224  0.06352008  1
  H  H23  1  0.24113388  0.61246776  0.93647992  1
  H  H24  1  0.99154716  0.43842577  0.09880306  1
  H  H25  1  0.00845284  0.56157423  0.90119694  1
  H  H26  1  0.88022861  0.55403732  0.18676536  1
  H  H27  1  0.11977139  0.44596268  0.81323464  1
  H  H28  1  0.28485908  0.94213678  0.05859320  1
  H  H29  1  0.71514092  0.05786322  0.94140680  1
  H  H30  1  0.09392117  0.88145213  0.94463002  1
  H  H31  1  0.90607883  0.11854787  0.05536998  1
  H  H32  1  0.20926771  0.06552527  0.03275537  1
  H  H33  1  0.79073229  0.93447473  0.96724463  1
  H  H34  1  0.30071520  0.95722738  0.90710413  1
  H  H35  1  0.69928480  0.04277262  0.09289587  1
  Se  Se36  1  0.65153975  0.22903967  0.36467868  1
  Se  Se37  1  0.34846025  0.77096033  0.63532132  1
  Se  Se38  1  0.66762608  0.63764853  0.89142323  1
  Se  Se39  1  0.33237392  0.36235147  0.10857677  1
  Se  Se40  1  0.95411444  0.13271949  0.72624244  1
  Se  Se41  1  0.04588556  0.86728051  0.27375756  1
  N  N42  1  0.48069293  0.20831133  0.72309118  1
  N  N43  1  0.51930707  0.79168867  0.27690882  1
  N  N44  1  0.15289215  0.28712948  0.45176490  1
  N  N45  1  0.84710785  0.71287052  0.54823510  1
  N  N46  1  0.87337816  0.44366706  0.13910743  1
  N  N47  1  0.12662184  0.55633294  0.86089257  1
  N  N48  1  0.22351353  0.96112968  0.98512048  1
  N  N49  1  0.77648647  0.03887032  0.01487952  1
  O  O50  1  0.68955825  0.20549888  0.50664073  1
  O  O51  1  0.31044175  0.79450112  0.49335927  1
  O  O52  1  0.84517594  0.33355814  0.33969440  1
  O  O53  1  0.15482406  0.66644186  0.66030560  1
  O  O54  1  0.50329775  0.32169112  0.39087546  1
  O  O55  1  0.49670225  0.67830888  0.60912454  1
  O  O56  1  0.56536045  0.06360758  0.22989335  1
  O  O57  1  0.43463955  0.93639242  0.77010665  1
  O  O58  1  0.53119026  0.51940833  0.72943101  1
  O  O59  1  0.46880974  0.48059167  0.27056899  1
  O  O60  1  0.83792937  0.76838570  0.87347170  1
  O  O61  1  0.16207063  0.23161430  0.12652830  1
  O  O62  1  0.74301452  0.52250188  0.92790830  1
  O  O63  1  0.25698548  0.47749812  0.07209170  1
  O  O64  1  0.53463004  0.71270884  0.99009776  1
  O  O65  1  0.46536996  0.28729116  0.00990224  1
  O  O66  1  0.12954594  0.26123366  0.70763813  1
  O  O67  1  0.87045406  0.73876634  0.29236187  1
  O  O68  1  0.80889817  0.02890936  0.56576822  1
  O  O69  1  0.19110183  0.97109064  0.43423178  1
  O  O70  1  0.01825643  0.00725495  0.75146291  1
  O  O71  1  0.98174357  0.99274505  0.24853709  1
  O  O72  1  0.84001556  0.21269283  0.84014014  1
  O  O73  1  0.15998444  0.78730717  0.15985986  1
