# generated using pymatgen
data_ScCrGe2
_symmetry_space_group_name_H-M   'P 1'
_cell_length_a   8.17332426
_cell_length_b   9.42169549
_cell_length_c   10.12688516
_cell_angle_alpha   90.00000000
_cell_angle_beta   90.00000000
_cell_angle_gamma   90.00000000
_symmetry_Int_Tables_number   1
_chemical_formula_structural   ScCrGe2
_chemical_formula_sum   'Sc12 Cr12 Ge24'
_cell_volume   779.83671444
_cell_formula_units_Z   12
loop_
 _symmetry_equiv_pos_site_id
 _symmetry_equiv_pos_as_xyz
  1  'x, y, z'
loop_
 _atom_site_type_symbol
 _atom_site_label
 _atom_site_symmetry_multiplicity
 _atom_site_fract_x
 _atom_site_fract_y
 _atom_site_fract_z
 _atom_site_occupancy
  Sc  Sc0  1  0.74429947  0.83005983  0.04612935  1
  Sc  Sc1  1  0.74429947  0.16994017  0.95387065  1
  Sc  Sc2  1  0.25570053  0.66994017  0.54612935  1
  Sc  Sc3  1  0.25570053  0.33005983  0.45387065  1
  Sc  Sc4  1  0.25570053  0.16994017  0.95387065  1
  Sc  Sc5  1  0.25570053  0.83005983  0.04612935  1
  Sc  Sc6  1  0.74429947  0.33005983  0.45387065  1
  Sc  Sc7  1  0.74429947  0.66994017  0.54612935  1
  Sc  Sc8  1  0.50000000  0.83467401  0.32011910  1
  Sc  Sc9  1  0.50000000  0.16532599  0.67988090  1
  Sc  Sc10  1  0.50000000  0.66532599  0.82011910  1
  Sc  Sc11  1  0.50000000  0.33467401  0.17988090  1
  Cr  Cr12  1  0.74944296  0.58134271  0.24511875  1
  Cr  Cr13  1  0.74944296  0.41865729  0.75488125  1
  Cr  Cr14  1  0.25055704  0.91865729  0.74511875  1
  Cr  Cr15  1  0.25055704  0.08134271  0.25488125  1
  Cr  Cr16  1  0.25055704  0.41865729  0.75488125  1
  Cr  Cr17  1  0.25055704  0.58134271  0.24511875  1
  Cr  Cr18  1  0.74944296  0.08134271  0.25488125  1
  Cr  Cr19  1  0.74944296  0.91865729  0.74511875  1
  Cr  Cr20  1  0.74493618  -0.00000000  0.50000000  1
  Cr  Cr21  1  0.25506382  0.50000000  0.00000000  1
  Cr  Cr22  1  0.25506382  0.00000000  0.50000000  1
  Cr  Cr23  1  0.74493618  0.50000000  -0.00000000  1
  Ge  Ge24  1  0.84025878  0.83099194  0.31765166  1
  Ge  Ge25  1  0.84025878  0.16900806  0.68234834  1
  Ge  Ge26  1  0.15974122  0.66900806  0.81765166  1
  Ge  Ge27  1  0.15974122  0.33099194  0.18234834  1
  Ge  Ge28  1  0.15974122  0.16900806  0.68234834  1
  Ge  Ge29  1  0.15974122  0.83099194  0.31765166  1
  Ge  Ge30  1  0.84025878  0.33099194  0.18234834  1
  Ge  Ge31  1  0.84025878  0.66900806  0.81765166  1
  Ge  Ge32  1  0.50000000  0.54061490  0.37958816  1
  Ge  Ge33  1  0.50000000  0.45938510  0.62041184  1
  Ge  Ge34  1  0.50000000  0.95938510  0.87958816  1
  Ge  Ge35  1  0.50000000  0.04061490  0.12041184  1
  Ge  Ge36  1  -0.00000000  0.54199091  0.37745212  1
  Ge  Ge37  1  -0.00000000  0.45800909  0.62254788  1
  Ge  Ge38  1  -0.00000000  0.95800909  0.87745212  1
  Ge  Ge39  1  0.00000000  0.04199091  0.12254788  1
  Ge  Ge40  1  0.50000000  0.63294261  0.09971708  1
  Ge  Ge41  1  0.50000000  0.36705739  0.90028292  1
  Ge  Ge42  1  0.50000000  0.86705739  0.59971708  1
  Ge  Ge43  1  0.50000000  0.13294261  0.40028292  1
  Ge  Ge44  1  0.00000000  0.62621987  0.09287396  1
  Ge  Ge45  1  0.00000000  0.37378013  0.90712604  1
  Ge  Ge46  1  -0.00000000  0.87378013  0.59287396  1
  Ge  Ge47  1  -0.00000000  0.12621987  0.40712604  1
