# generated using pymatgen
data_BaCo2As6(H2O7)2
_symmetry_space_group_name_H-M   'P 1'
_cell_length_a   6.08725700
_cell_length_b   14.16490900
_cell_length_c   18.72541818
_cell_angle_alpha   90.00000000
_cell_angle_beta   90.00000000
_cell_angle_gamma   90.00000000
_symmetry_Int_Tables_number   1
_chemical_formula_structural   BaCo2As6(H2O7)2
_chemical_formula_sum   'Ba4 Co8 As24 H16 O56'
_cell_volume   1614.60744918
_cell_formula_units_Z   4
loop_
 _symmetry_equiv_pos_site_id
 _symmetry_equiv_pos_as_xyz
  1  'x, y, z'
loop_
 _atom_site_type_symbol
 _atom_site_label
 _atom_site_symmetry_multiplicity
 _atom_site_fract_x
 _atom_site_fract_y
 _atom_site_fract_z
 _atom_site_occupancy
  Ba  Ba0  1  0.92398009  0.75000000  0.19295536  1
  Ba  Ba1  1  0.57601991  0.75000000  0.69295536  1
  Ba  Ba2  1  0.07601991  0.25000000  0.80704464  1
  Ba  Ba3  1  0.42398009  0.25000000  0.30704464  1
  Co  Co4  1  0.66338339  0.99031235  0.24259425  1
  Co  Co5  1  0.83661661  0.50968765  0.74259425  1
  Co  Co6  1  0.33661661  0.49031235  0.75740575  1
  Co  Co7  1  0.16338339  0.00968765  0.25740575  1
  Co  Co8  1  0.33661661  0.00968765  0.75740575  1
  Co  Co9  1  0.16338339  0.49031235  0.25740575  1
  Co  Co10  1  0.66338339  0.50968765  0.24259425  1
  Co  Co11  1  0.83661661  0.99031235  0.74259425  1
  As  As12  1  0.41910325  0.86988940  0.09708831  1
  As  As13  1  0.08089675  0.63011060  0.59708831  1
  As  As14  1  0.58089675  0.36988940  0.90291169  1
  As  As15  1  0.91910325  0.13011060  0.40291169  1
  As  As16  1  0.58089675  0.13011060  0.90291169  1
  As  As17  1  0.91910325  0.36988940  0.40291169  1
  As  As18  1  0.41910325  0.63011060  0.09708831  1
  As  As19  1  0.08089675  0.86988940  0.59708831  1
  As  As20  1  0.94334961  0.86038746  0.37482567  1
  As  As21  1  0.55665039  0.63961254  0.87482567  1
  As  As22  1  0.05665039  0.36038746  0.62517433  1
  As  As23  1  0.44334961  0.13961254  0.12517433  1
  As  As24  1  0.05665039  0.13961254  0.62517433  1
  As  As25  1  0.44334961  0.36038746  0.12517433  1
  As  As26  1  0.94334961  0.63961254  0.37482567  1
  As  As27  1  0.55665039  0.86038746  0.87482567  1
  As  As28  1  0.98719692  0.01137826  0.10451914  1
  As  As29  1  0.51280308  0.48862174  0.60451914  1
  As  As30  1  0.01280308  0.51137826  0.89548086  1
  As  As31  1  0.48719692  0.98862174  0.39548086  1
  As  As32  1  0.01280308  0.98862174  0.89548086  1
  As  As33  1  0.48719692  0.51137826  0.39548086  1
  As  As34  1  0.98719692  0.48862174  0.10451914  1
  As  As35  1  0.51280308  0.01137826  0.60451914  1
  H  H36  1  0.83609692  0.80495456  0.00059012  1
  H  H37  1  0.66390308  0.69504544  0.50059012  1
  H  H38  1  0.16390308  0.30495456  0.99940988  1
  H  H39  1  0.33609692  0.19504544  0.49940988  1
  H  H40  1  0.16390308  0.19504544  0.99940988  1
  H  H41  1  0.33609692  0.30495456  0.49940988  1
  H  H42  1  0.83609692  0.69504544  0.00059012  1
  H  H43  1  0.66390308  0.80495456  0.50059012  1
  H  H44  1  0.87127956  0.19309719  0.19760959  1
  H  H45  1  0.62872044  0.30690281  0.69760959  1
  H  H46  1  0.12872044  0.69309719  0.80239041  1
  H  H47  1  0.37127956  0.80690281  0.30239041  1
  H  H48  1  0.12872044  0.80690281  0.80239041  1
  H  H49  1  0.37127956  0.69309719  0.30239041  1
  H  H50  1  0.87127956  0.30690281  0.19760959  1
  H  H51  1  0.62872044  0.19309719  0.69760959  1
  O  O52  1  0.92195047  0.91361554  0.28909658  1
  O  O53  1  0.57804953  0.58638446  0.78909658  1
  O  O54  1  0.07804953  0.41361554  0.71090342  1
  O  O55  1  0.42195047  0.08638446  0.21090342  1
  O  O56  1  0.07804953  0.08638446  0.71090342  1
  O  O57  1  0.42195047  0.41361554  0.21090342  1
  O  O58  1  0.92195047  0.58638446  0.28909658  1
  O  O59  1  0.57804953  0.91361554  0.78909658  1
  O  O60  1  0.80623016  0.75000000  0.34646389  1
  O  O61  1  0.69376984  0.75000000  0.84646389  1
  O  O62  1  0.19376984  0.25000000  0.65353611  1
  O  O63  1  0.30623016  0.25000000  0.15353611  1
  O  O64  1  0.92135114  0.06066636  0.18948910  1
  O  O65  1  0.57864886  0.43933364  0.68948910  1
  O  O66  1  0.07864886  0.56066636  0.81051090  1
  O  O67  1  0.42135114  0.93933364  0.31051090  1
  O  O68  1  0.07864886  0.93933364  0.81051090  1
  O  O69  1  0.42135114  0.56066636  0.31051090  1
  O  O70  1  0.92135114  0.43933364  0.18948910  1
  O  O71  1  0.57864886  0.06066636  0.68948910  1
  O  O72  1  0.20394831  0.09331118  0.07571603  1
  O  O73  1  0.29605169  0.40668882  0.57571603  1
  O  O74  1  0.79605169  0.59331118  0.92428397  1
  O  O75  1  0.70394831  0.90668882  0.42428397  1
  O  O76  1  0.79605169  0.90668882  0.92428397  1
  O  O77  1  0.70394831  0.59331118  0.42428397  1
  O  O78  1  0.20394831  0.40668882  0.07571603  1
  O  O79  1  0.29605169  0.09331118  0.57571603  1
  O  O80  1  0.17022912  0.91987125  0.14609765  1
  O  O81  1  0.32977088  0.58012875  0.64609765  1
  O  O82  1  0.82977088  0.41987125  0.85390235  1
  O  O83  1  0.67022912  0.08012875  0.35390235  1
  O  O84  1  0.82977088  0.08012875  0.85390235  1
  O  O85  1  0.67022912  0.41987125  0.35390235  1
  O  O86  1  0.17022912  0.58012875  0.14609765  1
  O  O87  1  0.32977088  0.91987125  0.64609765  1
  O  O88  1  0.62779797  0.89349757  0.15916978  1
  O  O89  1  0.87220203  0.60650243  0.65916978  1
  O  O90  1  0.37220203  0.39349757  0.84083022  1
  O  O91  1  0.12779797  0.10650243  0.34083022  1
  O  O92  1  0.37220203  0.10650243  0.84083022  1
  O  O93  1  0.12779797  0.39349757  0.34083022  1
  O  O94  1  0.62779797  0.60650243  0.15916978  1
  O  O95  1  0.87220203  0.89349757  0.65916978  1
  O  O96  1  0.33804688  0.75000000  0.12657298  1
  O  O97  1  0.16195312  0.75000000  0.62657298  1
  O  O98  1  0.66195312  0.25000000  0.87342702  1
  O  O99  1  0.83804688  0.25000000  0.37342702  1
  O  O100  1  0.77881137  0.25000000  0.20446197  1
  O  O101  1  0.72118863  0.25000000  0.70446197  1
  O  O102  1  0.22118863  0.75000000  0.79553803  1
  O  O103  1  0.27881137  0.75000000  0.29553803  1
  O  O104  1  0.82723345  0.75000000  0.03278450  1
  O  O105  1  0.67276655  0.75000000  0.53278450  1
  O  O106  1  0.17276655  0.25000000  0.96721550  1
  O  O107  1  0.32723345  0.25000000  0.46721550  1
