# generated using pymatgen
data_BaLa2Sc2O7
_symmetry_space_group_name_H-M   'P 1'
_cell_length_a   5.89305225
_cell_length_b   5.89305225
_cell_length_c   20.80108922
_cell_angle_alpha   90.00000000
_cell_angle_beta   90.00000000
_cell_angle_gamma   90.00000000
_symmetry_Int_Tables_number   1
_chemical_formula_structural   BaLa2Sc2O7
_chemical_formula_sum   'Ba4 La8 Sc8 O28'
_cell_volume   722.38157478
_cell_formula_units_Z   4
loop_
 _symmetry_equiv_pos_site_id
 _symmetry_equiv_pos_as_xyz
  1  'x, y, z'
loop_
 _atom_site_type_symbol
 _atom_site_label
 _atom_site_symmetry_multiplicity
 _atom_site_fract_x
 _atom_site_fract_y
 _atom_site_fract_z
 _atom_site_occupancy
  Ba  Ba0  1  0.24076903  0.75923097  0.50000000  1
  Ba  Ba1  1  0.75923097  0.24076903  0.50000000  1
  Ba  Ba2  1  0.25923097  0.25923097  -0.00000000  1
  Ba  Ba3  1  0.74076903  0.74076903  -0.00000000  1
  La  La4  1  0.22679880  0.77320120  0.31620579  1
  La  La5  1  0.77320120  0.22679880  0.31620579  1
  La  La6  1  0.27320120  0.27320120  0.81620579  1
  La  La7  1  0.72679880  0.72679880  0.81620579  1
  La  La8  1  0.77320120  0.22679880  0.68379421  1
  La  La9  1  0.22679880  0.77320120  0.68379421  1
  La  La10  1  0.72679880  0.72679880  0.18379421  1
  La  La11  1  0.27320120  0.27320120  0.18379421  1
  Sc  Sc12  1  0.24280871  0.75719129  0.09953597  1
  Sc  Sc13  1  0.75719129  0.24280871  0.09953597  1
  Sc  Sc14  1  0.25719129  0.25719129  0.59953597  1
  Sc  Sc15  1  0.74280871  0.74280871  0.59953597  1
  Sc  Sc16  1  0.75719129  0.24280871  0.90046403  1
  Sc  Sc17  1  0.24280871  0.75719129  0.90046403  1
  Sc  Sc18  1  0.74280871  0.74280871  0.40046403  1
  Sc  Sc19  1  0.25719129  0.25719129  0.40046403  1
  O  O20  1  0.28333837  0.28333837  0.50000000  1
  O  O21  1  0.71666163  0.71666163  0.50000000  1
  O  O22  1  0.21666163  0.78333837  -0.00000000  1
  O  O23  1  0.78333837  0.21666163  -0.00000000  1
  O  O24  1  0.30741928  0.69258072  0.20848592  1
  O  O25  1  0.69258072  0.30741928  0.20848592  1
  O  O26  1  0.19258072  0.19258072  0.70848592  1
  O  O27  1  0.80741928  0.80741928  0.70848592  1
  O  O28  1  0.69258072  0.30741928  0.79151408  1
  O  O29  1  0.30741928  0.69258072  0.79151408  1
  O  O30  1  0.80741928  0.80741928  0.29151408  1
  O  O31  1  0.19258072  0.19258072  0.29151408  1
  O  O32  1  -0.00000000  0.50000000  0.38965760  1
  O  O33  1  0.50000000  0.00000000  0.88965760  1
  O  O34  1  -0.00000000  0.50000000  0.61034240  1
  O  O35  1  0.50000000  0.00000000  0.11034240  1
  O  O36  1  0.50000000  0.00000000  0.38965760  1
  O  O37  1  -0.00000000  0.50000000  0.88965760  1
  O  O38  1  0.50000000  0.00000000  0.61034240  1
  O  O39  1  -0.00000000  0.50000000  0.11034240  1
  O  O40  1  0.50000000  0.50000000  0.37412078  1
  O  O41  1  -0.00000000  0.00000000  0.87412078  1
  O  O42  1  0.50000000  0.50000000  0.62587922  1
  O  O43  1  -0.00000000  -0.00000000  0.12587922  1
  O  O44  1  0.50000000  0.50000000  0.09463836  1
  O  O45  1  -0.00000000  -0.00000000  0.59463836  1
  O  O46  1  0.50000000  0.50000000  0.90536164  1
  O  O47  1  -0.00000000  0.00000000  0.40536164  1
