# generated using pymatgen
data_ReSi2(PO5)3
_symmetry_space_group_name_H-M   'P 1'
_cell_length_a   7.98536657
_cell_length_b   7.97299651
_cell_length_c   11.00054724
_cell_angle_alpha   85.14039909
_cell_angle_beta   73.04340014
_cell_angle_gamma   60.06992723
_symmetry_Int_Tables_number   1
_chemical_formula_structural   ReSi2(PO5)3
_chemical_formula_sum   'Re2 Si4 P6 O30'
_cell_volume   579.01840204
_cell_formula_units_Z   2
loop_
 _symmetry_equiv_pos_site_id
 _symmetry_equiv_pos_as_xyz
  1  'x, y, z'
loop_
 _atom_site_type_symbol
 _atom_site_label
 _atom_site_symmetry_multiplicity
 _atom_site_fract_x
 _atom_site_fract_y
 _atom_site_fract_z
 _atom_site_occupancy
  Re  Re0  1  0.52970498  0.77030718  0.57567745  1
  Re  Re1  1  0.47029502  0.22969282  0.42432255  1
  Si  Si2  1  0.67837661  0.16167595  0.97402478  1
  Si  Si3  1  0.32162339  0.83832405  0.02597522  1
  Si  Si4  1  0.06954403  0.48232508  0.84751737  1
  Si  Si5  1  0.93045597  0.51767492  0.15248263  1
  P  P6  1  0.68373111  0.83372189  0.82623857  1
  P  P7  1  0.31626889  0.16627811  0.17376143  1
  P  P8  1  0.43309424  0.52105685  0.82714373  1
  P  P9  1  0.56690576  0.47894315  0.17285627  1
  P  P10  1  0.12155022  0.08351354  0.82737453  1
  P  P11  1  0.87844978  0.91648646  0.17262547  1
  O  O12  1  0.50000000  0.00000000  0.50000000  1
  O  O13  1  -0.00000000  0.50000000  0.00000000  1
  O  O14  1  0.62806129  0.86047498  0.70274934  1
  O  O15  1  0.37193871  0.13952502  0.29725066  1
  O  O16  1  0.06781822  0.29894650  0.79357401  1
  O  O17  1  0.93218178  0.70105350  0.20642599  1
  O  O18  1  0.24774112  0.95463799  0.70471329  1
  O  O19  1  0.75225888  0.04536201  0.29528671  1
  O  O20  1  0.28764097  0.69577229  0.92478383  1
  O  O21  1  0.71235903  0.30422771  0.07521617  1
  O  O22  1  0.23651762  0.03729048  0.92788569  1
  O  O23  1  0.76348238  0.96270952  0.07211431  1
  O  O24  1  0.64454636  0.02626640  0.87542895  1
  O  O25  1  0.35545364  0.97373360  0.12457105  1
  O  O26  1  0.29927087  0.44891153  0.79280508  1
  O  O27  1  0.70072913  0.55108847  0.20719492  1
  O  O28  1  0.40454260  0.71833273  0.49502790  1
  O  O29  1  0.59545740  0.28166727  0.50497210  1
  O  O30  1  0.53753009  0.57339392  0.70102926  1
  O  O31  1  0.46246991  0.42660608  0.29897074  1
  O  O32  1  0.57838088  0.74360329  0.92772825  1
  O  O33  1  0.42161912  0.25639671  0.07227175  1
  O  O34  1  0.59749708  0.35799810  0.87578467  1
  O  O35  1  0.40250292  0.64200190  0.12421533  1
  O  O36  1  0.92737340  0.07556026  0.87729946  1
  O  O37  1  0.07262660  0.92443974  0.12270054  1
  O  O38  1  0.77597102  0.62127285  0.48917880  1
  O  O39  1  0.22402898  0.37872715  0.51082120  1
  O  O40  1  0.91805488  0.68087279  0.79440896  1
  O  O41  1  0.08194512  0.31912721  0.20559104  1
