# generated using pymatgen
data_K2ZnH12(SeO7)2
_symmetry_space_group_name_H-M   'P 1'
_cell_length_a   6.41911106
_cell_length_b   9.31134489
_cell_length_c   12.68580711
_cell_angle_alpha   90.00000000
_cell_angle_beta   90.00000000
_cell_angle_gamma   104.45750413
_symmetry_Int_Tables_number   1
_chemical_formula_structural   K2ZnH12(SeO7)2
_chemical_formula_sum   'K4 Zn2 H24 Se4 O28'
_cell_volume   734.22670211
_cell_formula_units_Z   2
loop_
 _symmetry_equiv_pos_site_id
 _symmetry_equiv_pos_as_xyz
  1  'x, y, z'
loop_
 _atom_site_type_symbol
 _atom_site_label
 _atom_site_symmetry_multiplicity
 _atom_site_fract_x
 _atom_site_fract_y
 _atom_site_fract_z
 _atom_site_occupancy
  K  K0  1  0.34667391  0.63219580  0.15204506  1
  K  K1  1  0.65332609  0.86780420  0.65204506  1
  K  K2  1  0.65332609  0.36780420  0.84795494  1
  K  K3  1  0.34667391  0.13219580  0.34795494  1
  Zn  Zn4  1  0.00000000  0.50000000  0.50000000  1
  Zn  Zn5  1  0.00000000  -0.00000000  0.00000000  1
  H  H6  1  0.32369305  0.70933426  0.41367599  1
  H  H7  1  0.67630695  0.79066574  0.91367599  1
  H  H8  1  0.67630695  0.29066574  0.58632401  1
  H  H9  1  0.32369305  0.20933426  0.08632401  1
  H  H10  1  0.10587468  0.74711277  0.37598565  1
  H  H11  1  0.89412532  0.75288723  0.87598565  1
  H  H12  1  0.89412532  0.25288723  0.62401435  1
  H  H13  1  0.10587468  0.24711277  0.12401435  1
  H  H14  1  0.92856430  0.23353873  0.39948375  1
  H  H15  1  0.07143570  0.26646127  0.89948375  1
  H  H16  1  0.07143570  0.76646127  0.60051625  1
  H  H17  1  0.92856430  0.73353873  0.10051625  1
  H  H18  1  0.00690233  0.36116277  0.31461693  1
  H  H19  1  0.99309767  0.13883723  0.81461693  1
  H  H20  1  0.99309767  0.63883723  0.68538307  1
  H  H21  1  0.00690233  0.86116277  0.18538307  1
  H  H22  1  0.32710820  0.39597348  0.55869500  1
  H  H23  1  0.67289180  0.10402652  0.05869500  1
  H  H24  1  0.67289180  0.60402652  0.44130500  1
  H  H25  1  0.32710820  0.89597348  0.94130500  1
  H  H26  1  0.32756360  0.52804575  0.63905227  1
  H  H27  1  0.67243640  0.97195425  0.13905227  1
  H  H28  1  0.67243640  0.47195425  0.36094773  1
  H  H29  1  0.32756360  0.02804575  0.86094773  1
  Se  Se30  1  0.73108835  0.90999410  0.35927657  1
  Se  Se31  1  0.26891165  0.59000590  0.85927657  1
  Se  Se32  1  0.26891165  0.09000590  0.64072343  1
  Se  Se33  1  0.73108835  0.40999410  0.14072343  1
  O  O34  1  0.56883945  0.90365468  0.25476068  1
  O  O35  1  0.43116055  0.59634532  0.75476068  1
  O  O36  1  0.43116055  0.09634532  0.74523932  1
  O  O37  1  0.56883945  0.40365468  0.24523932  1
  O  O38  1  0.75283878  0.06969749  0.42325259  1
  O  O39  1  0.24716122  0.43030251  0.92325259  1
  O  O40  1  0.24716122  0.93030251  0.57674741  1
  O  O41  1  0.75283878  0.56969749  0.07674741  1
  O  O42  1  0.61049676  0.77243228  0.44139393  1
  O  O43  1  0.38950324  0.72756772  0.94139393  1
  O  O44  1  0.38950324  0.22756772  0.55860607  1
  O  O45  1  0.61049676  0.27243228  0.05860607  1
  O  O46  1  0.97416417  0.89053314  0.32118584  1
  O  O47  1  0.02583583  0.60946686  0.82118584  1
  O  O48  1  0.02583583  0.10946686  0.67881416  1
  O  O49  1  0.97416417  0.39053314  0.17881416  1
  O  O50  1  0.17487642  0.66493688  0.38903199  1
  O  O51  1  0.82512358  0.83506312  0.88903199  1
  O  O52  1  0.82512358  0.33506312  0.61096801  1
  O  O53  1  0.17487642  0.16493688  0.11096801  1
  O  O54  1  0.03419001  0.33106381  0.38772217  1
  O  O55  1  0.96580999  0.16893619  0.88772217  1
  O  O56  1  0.96580999  0.66893619  0.61227783  1
  O  O57  1  0.03419001  0.83106381  0.11227783  1
  O  O58  1  0.28958059  0.49300959  0.56558753  1
  O  O59  1  0.71041941  0.00699041  0.06558753  1
  O  O60  1  0.71041941  0.50699041  0.43441247  1
  O  O61  1  0.28958059  0.99300959  0.93441247  1
