# generated using pymatgen
data_MoPbSeO6
_symmetry_space_group_name_H-M   'P 1'
_cell_length_a   7.06184951
_cell_length_b   7.33241942
_cell_length_c   11.09851681
_cell_angle_alpha   99.35413398
_cell_angle_beta   100.09607851
_cell_angle_gamma   89.79061890
_symmetry_Int_Tables_number   1
_chemical_formula_structural   MoPbSeO6
_chemical_formula_sum   'Mo4 Pb4 Se4 O24'
_cell_volume   558.08118076
_cell_formula_units_Z   4
loop_
 _symmetry_equiv_pos_site_id
 _symmetry_equiv_pos_as_xyz
  1  'x, y, z'
loop_
 _atom_site_type_symbol
 _atom_site_label
 _atom_site_symmetry_multiplicity
 _atom_site_fract_x
 _atom_site_fract_y
 _atom_site_fract_z
 _atom_site_occupancy
  Mo  Mo0  1  0.15869824  0.95266974  0.80054531  1
  Mo  Mo1  1  0.84130176  0.04733026  0.19945469  1
  Mo  Mo2  1  0.15936396  0.44996210  0.79735864  1
  Mo  Mo3  1  0.84063604  0.55003790  0.20264136  1
  Pb  Pb4  1  0.75063151  0.86136687  0.50572046  1
  Pb  Pb5  1  0.24936849  0.13863313  0.49427954  1
  Pb  Pb6  1  0.64874538  0.71080146  0.84145062  1
  Pb  Pb7  1  0.35125462  0.28919854  0.15854938  1
  Se  Se8  1  0.29067765  0.64051240  0.53397597  1
  Se  Se9  1  0.70932235  0.35948760  0.46602403  1
  Se  Se10  1  0.60860832  0.19430217  0.78441731  1
  Se  Se11  1  0.39139168  0.80569783  0.21558269  1
  O  O12  1  0.17295803  0.04791721  0.95586463  1
  O  O13  1  0.82704197  0.95208279  0.04413537  1
  O  O14  1  0.90857034  0.88904438  0.75628470  1
  O  O15  1  0.09142966  0.11095562  0.24371530  1
  O  O16  1  0.13798792  0.18477330  0.72793490  1
  O  O17  1  0.86201208  0.81522670  0.27206510  1
  O  O18  1  0.26200112  0.71073926  0.82355310  1
  O  O19  1  0.73799888  0.28926074  0.17644690  1
  O  O20  1  0.18463957  0.84220918  0.59853997  1
  O  O21  1  0.81536043  0.15779082  0.40146003  1
  O  O22  1  0.47394406  0.02325700  0.82527438  1
  O  O23  1  0.52605594  0.97674300  0.17472562  1
  O  O24  1  0.18382346  0.43089369  0.95346513  1
  O  O25  1  0.81617654  0.56910631  0.04653487  1
  O  O26  1  0.91409100  0.50193807  0.75791944  1
  O  O27  1  0.08590900  0.49806193  0.24208056  1
  O  O28  1  0.20478004  0.46563141  0.60338051  1
  O  O29  1  0.79521996  0.53436859  0.39661949  1
  O  O30  1  0.47842355  0.39323524  0.81323254  1
  O  O31  1  0.52157645  0.60676476  0.18676746  1
  O  O32  1  0.52802846  0.67327710  0.60883930  1
  O  O33  1  0.47197154  0.32672290  0.39116070  1
  O  O34  1  0.56354700  0.14005797  0.62325509  1
  O  O35  1  0.43645300  0.85994203  0.37674491  1
