# generated using pymatgen
data_NdCo3P2
_symmetry_space_group_name_H-M   'P 1'
_cell_length_a   3.76704647
_cell_length_b   10.66003727
_cell_length_c   12.40288228
_cell_angle_alpha   90.00000000
_cell_angle_beta   90.00000000
_cell_angle_gamma   90.00000000
_symmetry_Int_Tables_number   1
_chemical_formula_structural   NdCo3P2
_chemical_formula_sum   'Nd6 Co18 P12'
_cell_volume   498.06075483
_cell_formula_units_Z   6
loop_
 _symmetry_equiv_pos_site_id
 _symmetry_equiv_pos_as_xyz
  1  'x, y, z'
loop_
 _atom_site_type_symbol
 _atom_site_label
 _atom_site_symmetry_multiplicity
 _atom_site_fract_x
 _atom_site_fract_y
 _atom_site_fract_z
 _atom_site_occupancy
  Nd  Nd0  1  0.75000000  0.25000000  0.47886826  1
  Nd  Nd1  1  0.25000000  0.75000000  0.52113174  1
  Nd  Nd2  1  0.25000000  0.93116449  0.79406794  1
  Nd  Nd3  1  0.25000000  0.56883551  0.79406794  1
  Nd  Nd4  1  0.75000000  0.06883551  0.20593206  1
  Nd  Nd5  1  0.75000000  0.43116449  0.20593206  1
  Co  Co6  1  0.25000000  0.25000000  0.84217470  1
  Co  Co7  1  0.75000000  0.75000000  0.15782530  1
  Co  Co8  1  0.25000000  0.25000000  0.29445443  1
  Co  Co9  1  0.75000000  0.75000000  0.70554557  1
  Co  Co10  1  0.75000000  0.25000000  0.00908861  1
  Co  Co11  1  0.25000000  0.75000000  0.99091139  1
  Co  Co12  1  0.25000000  0.41701890  0.00246477  1
  Co  Co13  1  0.25000000  0.08298110  0.00246477  1
  Co  Co14  1  0.75000000  0.58298110  0.99753523  1
  Co  Co15  1  0.75000000  0.91701890  0.99753523  1
  Co  Co16  1  0.25000000  0.45387769  0.56958815  1
  Co  Co17  1  0.25000000  0.04612231  0.56958815  1
  Co  Co18  1  0.75000000  0.54612231  0.43041185  1
  Co  Co19  1  0.75000000  0.95387769  0.43041185  1
  Co  Co20  1  0.25000000  0.86839780  0.28979644  1
  Co  Co21  1  0.25000000  0.63160220  0.28979644  1
  Co  Co22  1  0.75000000  0.13160220  0.71020356  1
  Co  Co23  1  0.75000000  0.36839780  0.71020356  1
  P  P24  1  0.25000000  0.25000000  0.11237333  1
  P  P25  1  0.75000000  0.75000000  0.88762667  1
  P  P26  1  0.25000000  0.25000000  0.66012484  1
  P  P27  1  0.75000000  0.75000000  0.33987516  1
  P  P28  1  0.25000000  0.44291071  0.38607641  1
  P  P29  1  0.25000000  0.05708929  0.38607641  1
  P  P30  1  0.75000000  0.55708929  0.61392359  1
  P  P31  1  0.75000000  0.94291071  0.61392359  1
  P  P32  1  0.25000000  0.90244881  0.10587062  1
  P  P33  1  0.25000000  0.59755119  0.10587062  1
  P  P34  1  0.75000000  0.09755119  0.89412938  1
  P  P35  1  0.75000000  0.40244881  0.89412938  1
