# generated using pymatgen
data_Lu5(Ge5Rh2)2
_symmetry_space_group_name_H-M   'P 1'
_cell_length_a   4.21297365
_cell_length_b   13.03180070
_cell_length_c   13.03180070
_cell_angle_alpha   90.00000000
_cell_angle_beta   90.00000000
_cell_angle_gamma   90.00000000
_symmetry_Int_Tables_number   1
_chemical_formula_structural   Lu5(Ge5Rh2)2
_chemical_formula_sum   'Lu10 Ge20 Rh8'
_cell_volume   715.48017065
_cell_formula_units_Z   2
loop_
 _symmetry_equiv_pos_site_id
 _symmetry_equiv_pos_as_xyz
  1  'x, y, z'
loop_
 _atom_site_type_symbol
 _atom_site_label
 _atom_site_symmetry_multiplicity
 _atom_site_fract_x
 _atom_site_fract_y
 _atom_site_fract_z
 _atom_site_occupancy
  Lu  Lu0  1  0.00000000  0.50000000  0.50000000  1
  Lu  Lu1  1  0.00000000  -0.00000000  0.00000000  1
  Lu  Lu2  1  0.50000000  0.17498948  0.67498948  1
  Lu  Lu3  1  0.50000000  0.82501052  0.32501052  1
  Lu  Lu4  1  0.50000000  0.32501052  0.17498948  1
  Lu  Lu5  1  0.50000000  0.67498948  0.82501052  1
  Lu  Lu6  1  0.50000000  0.38686094  0.88686094  1
  Lu  Lu7  1  0.50000000  0.61313906  0.11313906  1
  Lu  Lu8  1  0.50000000  0.11313906  0.38686094  1
  Lu  Lu9  1  0.50000000  0.88686094  0.61313906  1
  Ge  Ge10  1  -0.00000000  0.06622342  0.56622342  1
  Ge  Ge11  1  0.00000000  0.93377658  0.43377658  1
  Ge  Ge12  1  -0.00000000  0.43377658  0.06622342  1
  Ge  Ge13  1  0.00000000  0.56622342  0.93377658  1
  Ge  Ge14  1  0.00000000  0.69954987  0.66189273  1
  Ge  Ge15  1  -0.00000000  0.30045013  0.33810727  1
  Ge  Ge16  1  0.00000000  0.80045013  0.16189273  1
  Ge  Ge17  1  -0.00000000  0.19954987  0.83810727  1
  Ge  Ge18  1  0.00000000  0.66189273  0.30045013  1
  Ge  Ge19  1  -0.00000000  0.33810727  0.69954987  1
  Ge  Ge20  1  -0.00000000  0.16189273  0.19954987  1
  Ge  Ge21  1  0.00000000  0.83810727  0.80045013  1
  Ge  Ge22  1  0.50000000  0.50764621  0.65515653  1
  Ge  Ge23  1  0.50000000  0.49235379  0.34484347  1
  Ge  Ge24  1  0.50000000  0.99235379  0.15515653  1
  Ge  Ge25  1  0.50000000  0.00764621  0.84484347  1
  Ge  Ge26  1  0.50000000  0.65515653  0.49235379  1
  Ge  Ge27  1  0.50000000  0.34484347  0.50764621  1
  Ge  Ge28  1  0.50000000  0.15515653  0.00764621  1
  Ge  Ge29  1  0.50000000  0.84484347  0.99235379  1
  Rh  Rh30  1  -0.00000000  0.52063480  0.74710574  1
  Rh  Rh31  1  0.00000000  0.47936520  0.25289426  1
  Rh  Rh32  1  -0.00000000  0.97936520  0.24710574  1
  Rh  Rh33  1  0.00000000  0.02063480  0.75289426  1
  Rh  Rh34  1  0.00000000  0.74710574  0.47936520  1
  Rh  Rh35  1  -0.00000000  0.25289426  0.52063480  1
  Rh  Rh36  1  -0.00000000  0.24710574  0.02063480  1
  Rh  Rh37  1  0.00000000  0.75289426  0.97936520  1
