# generated using pymatgen
data_KP2H5O8
_symmetry_space_group_name_H-M   'P 1'
_cell_length_a   7.93603248
_cell_length_b   9.68965595
_cell_length_c   10.87105983
_cell_angle_alpha   90.00000000
_cell_angle_beta   90.00000000
_cell_angle_gamma   114.32088954
_symmetry_Int_Tables_number   1
_chemical_formula_structural   KP2H5O8
_chemical_formula_sum   'K4 P8 H20 O32'
_cell_volume   761.76802098
_cell_formula_units_Z   4
loop_
 _symmetry_equiv_pos_site_id
 _symmetry_equiv_pos_as_xyz
  1  'x, y, z'
loop_
 _atom_site_type_symbol
 _atom_site_label
 _atom_site_symmetry_multiplicity
 _atom_site_fract_x
 _atom_site_fract_y
 _atom_site_fract_z
 _atom_site_occupancy
  K  K0  1  0.92997949  0.13974938  0.12351671  1
  K  K1  1  0.57002051  0.36025062  0.62351671  1
  K  K2  1  0.07002051  0.86025062  0.87648329  1
  K  K3  1  0.42997949  0.63974938  0.37648329  1
  P  P4  1  0.63964075  0.28738080  0.27443800  1
  P  P5  1  0.86035925  0.21261920  0.77443800  1
  P  P6  1  0.36035925  0.71261920  0.72556200  1
  P  P7  1  0.13964075  0.78738080  0.22556200  1
  P  P8  1  0.11815798  0.22865980  0.43004567  1
  P  P9  1  0.38184202  0.27134020  0.93004567  1
  P  P10  1  0.88184202  0.77134020  0.56995433  1
  P  P11  1  0.61815798  0.72865980  0.06995433  1
  H  H12  1  0.36188354  0.32803850  0.28962831  1
  H  H13  1  0.13811646  0.17196150  0.78962831  1
  H  H14  1  0.63811646  0.67196150  0.71037169  1
  H  H15  1  0.86188354  0.82803850  0.21037169  1
  H  H16  1  0.91475675  0.48096932  0.24310276  1
  H  H17  1  0.58524325  0.01903068  0.74310276  1
  H  H18  1  0.08524325  0.51903068  0.75689724  1
  H  H19  1  0.41475675  0.98096932  0.25689724  1
  H  H20  1  0.76180546  0.19824050  0.42038131  1
  H  H21  1  0.73819454  0.30175950  0.92038131  1
  H  H22  1  0.23819454  0.80175950  0.57961869  1
  H  H23  1  0.26180546  0.69824050  0.07961869  1
  H  H24  1  0.42449602  0.13311219  0.08062000  1
  H  H25  1  0.07550398  0.36688781  0.58062000  1
  H  H26  1  0.57550398  0.86688781  0.91938000  1
  H  H27  1  0.92449602  0.63311219  0.41938000  1
  H  H28  1  0.17321906  0.04425556  0.52428190  1
  H  H29  1  0.32678094  0.45574444  0.02428190  1
  H  H30  1  0.82678094  0.95574444  0.47571810  1
  H  H31  1  0.67321906  0.54425556  0.97571810  1
  O  O32  1  0.53374097  0.38831583  0.28320250  1
  O  O33  1  0.96625903  0.11168417  0.78320250  1
  O  O34  1  0.46625903  0.61168417  0.71679750  1
  O  O35  1  0.03374097  0.88831583  0.21679750  1
  O  O36  1  0.83411419  0.37516913  0.21094425  1
  O  O37  1  0.66588581  0.12483087  0.71094425  1
  O  O38  1  0.16588581  0.62483087  0.78905575  1
  O  O39  1  0.33411419  0.87516913  0.28905575  1
  O  O40  1  0.67603302  0.25152111  0.41214578  1
  O  O41  1  0.82396698  0.24847889  0.91214578  1
  O  O42  1  0.32396698  0.74847889  0.58785422  1
  O  O43  1  0.17603302  0.75152111  0.08785422  1
  O  O44  1  0.54477008  0.14146288  0.20050461  1
  O  O45  1  0.95522992  0.35853712  0.70050461  1
  O  O46  1  0.45522992  0.85853712  0.79949539  1
  O  O47  1  0.04477008  0.64146288  0.29949539  1
  O  O48  1  0.15451213  0.37943827  0.50347109  1
  O  O49  1  0.34548787  0.12056173  0.00347109  1
  O  O50  1  0.84548787  0.62056173  0.49652891  1
  O  O51  1  0.65451213  0.87943827  0.99652891  1
  O  O52  1  0.23696837  0.15478077  0.49720488  1
  O  O53  1  0.26303163  0.34521923  0.99720488  1
  O  O54  1  0.76303163  0.84521923  0.50279512  1
  O  O55  1  0.73696837  0.65478077  0.00279512  1
  O  O56  1  0.20223143  0.28359961  0.30157476  1
  O  O57  1  0.29776857  0.21640039  0.80157476  1
  O  O58  1  0.79776857  0.71640039  0.69842524  1
  O  O59  1  0.70223143  0.78359961  0.19842524  1
  O  O60  1  0.91386829  0.12323782  0.42455417  1
  O  O61  1  0.58613171  0.37676218  0.92455417  1
  O  O62  1  0.08613171  0.87676218  0.57544583  1
  O  O63  1  0.41386829  0.62323782  0.07544583  1
