# generated using pymatgen
data_CuP4S3Br
_symmetry_space_group_name_H-M   'P 1'
_cell_length_a   7.88796704
_cell_length_b   10.53698162
_cell_length_c   11.85357663
_cell_angle_alpha   90.00000000
_cell_angle_beta   109.43426707
_cell_angle_gamma   90.00000000
_symmetry_Int_Tables_number   1
_chemical_formula_structural   CuP4S3Br
_chemical_formula_sum   'Cu4 P16 S12 Br4'
_cell_volume   929.08059592
_cell_formula_units_Z   4
loop_
 _symmetry_equiv_pos_site_id
 _symmetry_equiv_pos_as_xyz
  1  'x, y, z'
loop_
 _atom_site_type_symbol
 _atom_site_label
 _atom_site_symmetry_multiplicity
 _atom_site_fract_x
 _atom_site_fract_y
 _atom_site_fract_z
 _atom_site_occupancy
  Cu  Cu0  1  0.69503195  -0.00000000  -0.00000000  1
  Cu  Cu1  1  0.19503195  0.50000000  -0.00000000  1
  Cu  Cu2  1  0.30496805  -0.00000000  -0.00000000  1
  Cu  Cu3  1  0.80496805  0.50000000  -0.00000000  1
  P  P4  1  0.21490357  0.02799566  0.42980715  1
  P  P5  1  0.78509643  0.97200434  0.57019285  1
  P  P6  1  0.28509643  0.52799566  0.57019285  1
  P  P7  1  0.71490357  0.47200434  0.42980715  1
  P  P8  1  0.11814808  0.78754451  0.23629616  1
  P  P9  1  0.88185192  0.21245549  0.76370384  1
  P  P10  1  0.38185192  0.28754451  0.76370384  1
  P  P11  1  0.61814808  0.71245549  0.23629616  1
  P  P12  1  0.93900087  0.95884701  0.16235293  1
  P  P13  1  0.77664794  0.04115299  0.83764707  1
  P  P14  1  0.27664794  0.45884701  0.83764707  1
  P  P15  1  0.43900087  0.54115299  0.16235293  1
  P  P16  1  0.06099913  0.04115299  0.83764707  1
  P  P17  1  0.22335206  0.95884701  0.16235293  1
  P  P18  1  0.72335206  0.54115299  0.16235293  1
  P  P19  1  0.56099913  0.45884701  0.83764707  1
  S  S20  1  0.95104181  0.06660631  0.31315997  1
  S  S21  1  0.63788184  0.93339369  0.68684003  1
  S  S22  1  0.13788184  0.56660631  0.68684003  1
  S  S23  1  0.45104181  0.43339369  0.31315997  1
  S  S24  1  0.04895819  0.93339369  0.68684003  1
  S  S25  1  0.36211816  0.06660631  0.31315997  1
  S  S26  1  0.86211816  0.43339369  0.31315997  1
  S  S27  1  0.54895819  0.56660631  0.68684003  1
  S  S28  1  0.21032379  0.82604015  0.42064757  1
  S  S29  1  0.78967621  0.17395985  0.57935243  1
  S  S30  1  0.28967621  0.32604015  0.57935243  1
  S  S31  1  0.71032379  0.67395985  0.42064757  1
  Br  Br32  1  0.47252072  0.82486090  0.94504144  1
  Br  Br33  1  0.52747928  0.17513910  0.05495856  1
  Br  Br34  1  0.02747928  0.32486090  0.05495856  1
  Br  Br35  1  0.97252072  0.67513910  0.94504144  1
