# generated using pymatgen
data_Hf2Be17
_symmetry_space_group_name_H-M   'P 1'
_cell_length_a   7.27173649
_cell_length_b   7.47294107
_cell_length_c   7.47294107
_cell_angle_alpha   120.00111262
_cell_angle_beta   90.00000000
_cell_angle_gamma   90.00000000
_symmetry_Int_Tables_number   1
_chemical_formula_structural   Hf2Be17
_chemical_formula_sum   'Hf4 Be34'
_cell_volume   351.67946557
_cell_formula_units_Z   2
loop_
 _symmetry_equiv_pos_site_id
 _symmetry_equiv_pos_as_xyz
  1  'x, y, z'
loop_
 _atom_site_type_symbol
 _atom_site_label
 _atom_site_symmetry_multiplicity
 _atom_site_fract_x
 _atom_site_fract_y
 _atom_site_fract_z
 _atom_site_occupancy
  Hf  Hf0  1  0.75000000  0.99999179  0.00000821  1
  Hf  Hf1  1  0.25000000  0.00000821  0.99999179  1
  Hf  Hf2  1  0.25000000  0.66666037  0.33333963  1
  Hf  Hf3  1  0.75000000  0.33333963  0.66666037  1
  Be  Be4  1  0.60598231  0.66666644  0.33333356  1
  Be  Be5  1  0.39401769  0.33333356  0.66666644  1
  Be  Be6  1  0.10598231  0.33333356  0.66666644  1
  Be  Be7  1  0.89401769  0.66666644  0.33333356  1
  Be  Be8  1  0.50000000  0.50000000  0.00000000  1
  Be  Be9  1  0.50000000  0.50000000  0.50000000  1
  Be  Be10  1  0.50000000  0.00000000  0.50000000  1
  Be  Be11  1  0.00000000  0.50000000  0.00000000  1
  Be  Be12  1  0.00000000  0.50000000  0.50000000  1
  Be  Be13  1  0.00000000  0.00000000  0.50000000  1
  Be  Be14  1  0.75000000  0.66826729  0.04637511  1
  Be  Be15  1  0.75000000  0.37811026  0.33172941  1
  Be  Be16  1  0.75000000  0.95362281  0.62190106  1
  Be  Be17  1  0.75000000  0.37809894  0.04637719  1
  Be  Be18  1  0.75000000  0.95362489  0.33173271  1
  Be  Be19  1  0.75000000  0.66827059  0.62188974  1
  Be  Be20  1  0.25000000  0.33173271  0.95362489  1
  Be  Be21  1  0.25000000  0.62188974  0.66827059  1
  Be  Be22  1  0.25000000  0.04637719  0.37809894  1
  Be  Be23  1  0.25000000  0.62190106  0.95362281  1
  Be  Be24  1  0.25000000  0.04637511  0.66826729  1
  Be  Be25  1  0.25000000  0.33172941  0.37811026  1
  Be  Be26  1  0.48697392  0.83519280  0.67038510  1
  Be  Be27  1  0.48696187  0.83519798  0.16480202  1
  Be  Be28  1  0.48697392  0.32961490  0.16480720  1
  Be  Be29  1  0.51302608  0.16480720  0.32961490  1
  Be  Be30  1  0.51303813  0.16480202  0.83519798  1
  Be  Be31  1  0.51302608  0.67038510  0.83519280  1
  Be  Be32  1  0.98697392  0.16480720  0.32961490  1
  Be  Be33  1  0.98696187  0.16480202  0.83519798  1
  Be  Be34  1  0.98697392  0.67038510  0.83519280  1
  Be  Be35  1  0.01302608  0.83519280  0.67038510  1
  Be  Be36  1  0.01303813  0.83519798  0.16480202  1
  Be  Be37  1  0.01302608  0.32961490  0.16480720  1
