# generated using pymatgen
data_Na2Y3Te4(ClO4)3
_symmetry_space_group_name_H-M   'P 1'
_cell_length_a   5.59558810
_cell_length_b   12.39251571
_cell_length_c   12.44823785
_cell_angle_alpha   85.26773252
_cell_angle_beta   77.01157618
_cell_angle_gamma   76.95214607
_symmetry_Int_Tables_number   1
_chemical_formula_structural   Na2Y3Te4(ClO4)3
_chemical_formula_sum   'Na4 Y6 Te8 Cl6 O24'
_cell_volume   818.94383743
_cell_formula_units_Z   2
loop_
 _symmetry_equiv_pos_site_id
 _symmetry_equiv_pos_as_xyz
  1  'x, y, z'
loop_
 _atom_site_type_symbol
 _atom_site_label
 _atom_site_symmetry_multiplicity
 _atom_site_fract_x
 _atom_site_fract_y
 _atom_site_fract_z
 _atom_site_occupancy
  Na  Na0  1  0.10837059  0.25714277  0.07411687  1
  Na  Na1  1  0.43963023  0.24285723  0.42588313  1
  Na  Na2  1  0.89162941  0.74285723  0.92588313  1
  Na  Na3  1  0.56036977  0.75714277  0.57411687  1
  Y  Y4  1  0.24937930  0.25000000  0.75000000  1
  Y  Y5  1  0.75062070  0.75000000  0.25000000  1
  Y  Y6  1  0.24955417  0.91615936  0.08593412  1
  Y  Y7  1  0.25164765  0.58384064  0.41406588  1
  Y  Y8  1  0.75044583  0.08384064  0.91406588  1
  Y  Y9  1  0.74835235  0.41615936  0.58593412  1
  Te  Te10  1  0.66529749  0.36721466  0.90355184  1
  Te  Te11  1  0.93606398  0.13278534  0.59644816  1
  Te  Te12  1  0.33470251  0.63278534  0.09644816  1
  Te  Te13  1  0.06393602  0.86721466  0.40355184  1
  Te  Te14  1  0.16263088  0.56861432  0.69667764  1
  Te  Te15  1  0.42792284  0.93138568  0.80332236  1
  Te  Te16  1  0.83736912  0.43138568  0.30332236  1
  Te  Te17  1  0.57207716  0.06861432  0.19667764  1
  Cl  Cl18  1  -0.00000000  0.50000000  -0.00000000  1
  Cl  Cl19  1  0.50000000  -0.00000000  0.50000000  1
  Cl  Cl20  1  0.00340941  0.83092733  0.66871976  1
  Cl  Cl21  1  0.50305650  0.66907267  0.83128024  1
  Cl  Cl22  1  0.99659059  0.16907267  0.33128024  1
  Cl  Cl23  1  0.49694350  0.33092733  0.16871976  1
  O  O24  1  0.47822129  0.26152097  0.88477446  1
  O  O25  1  0.62451671  0.23847903  0.61522554  1
  O  O26  1  0.52177871  0.73847903  0.11522554  1
  O  O27  1  0.37548329  0.76152097  0.38477446  1
  O  O28  1  0.00335832  0.88553223  0.25703563  1
  O  O29  1  0.14592618  0.61446777  0.24296437  1
  O  O30  1  0.99664168  0.11446777  0.74296437  1
  O  O31  1  0.85407382  0.38553223  0.75703563  1
  O  O32  1  0.93076805  0.24571434  0.92661143  1
  O  O33  1  0.10309381  0.25428566  0.57338857  1
  O  O34  1  0.06923195  0.75428566  0.07338857  1
  O  O35  1  0.89690619  0.74571434  0.42661143  1
  O  O36  1  0.98313469  0.54794622  0.59043618  1
  O  O37  1  0.12151709  0.95205378  0.90956382  1
  O  O38  1  0.01686531  0.45205378  0.40956382  1
  O  O39  1  0.87848291  0.04794622  0.09043618  1
  O  O40  1  0.35322772  0.42195158  0.71103990  1
  O  O41  1  0.48621920  0.07804842  0.78896010  1
  O  O42  1  0.64677228  0.57804842  0.28896010  1
  O  O43  1  0.51378080  0.92195158  0.21103990  1
  O  O44  1  0.40000056  0.09209482  0.07671543  1
  O  O45  1  0.56881081  0.40790518  0.42328457  1
  O  O46  1  0.59999944  0.90790518  0.92328457  1
  O  O47  1  0.43118919  0.59209482  0.57671543  1
