# generated using pymatgen
data_LiFeF5
_symmetry_space_group_name_H-M   'P 1'
_cell_length_a   13.51641445
_cell_length_b   5.37373046
_cell_length_c   10.87202312
_cell_angle_alpha   90.00000000
_cell_angle_beta   90.00000000
_cell_angle_gamma   90.00000000
_symmetry_Int_Tables_number   1
_chemical_formula_structural   LiFeF5
_chemical_formula_sum   'Li8 Fe8 F40'
_cell_volume   789.67383102
_cell_formula_units_Z   8
loop_
 _symmetry_equiv_pos_site_id
 _symmetry_equiv_pos_as_xyz
  1  'x, y, z'
loop_
 _atom_site_type_symbol
 _atom_site_label
 _atom_site_symmetry_multiplicity
 _atom_site_fract_x
 _atom_site_fract_y
 _atom_site_fract_z
 _atom_site_occupancy
  Li  Li0  1  0.05860279  0.75000000  0.40000012  1
  Li  Li1  1  0.18950410  0.25000000  0.86688054  1
  Li  Li2  1  0.31049590  0.75000000  0.36688054  1
  Li  Li3  1  0.44139721  0.25000000  0.90000012  1
  Li  Li4  1  0.55860279  0.75000000  0.09999988  1
  Li  Li5  1  0.68950410  0.25000000  0.63311946  1
  Li  Li6  1  0.81049590  0.75000000  0.13311946  1
  Li  Li7  1  0.94139721  0.25000000  0.59999988  1
  Fe  Fe8  1  0.05090996  0.25000000  0.17166275  1
  Fe  Fe9  1  0.29427316  0.75000000  0.06088786  1
  Fe  Fe10  1  0.20572684  0.25000000  0.56088786  1
  Fe  Fe11  1  0.44909004  0.75000000  0.67166275  1
  Fe  Fe12  1  0.55090996  0.25000000  0.32833725  1
  Fe  Fe13  1  0.79427316  0.75000000  0.43911214  1
  Fe  Fe14  1  0.70572684  0.25000000  0.93911214  1
  Fe  Fe15  1  0.94909004  0.75000000  0.82833725  1
  F  F16  1  0.05564542  0.01577704  0.29121916  1
  F  F17  1  0.05564542  0.48422296  0.29121916  1
  F  F18  1  0.08340840  0.75000000  0.84850977  1
  F  F19  1  0.09103608  0.01993822  0.06455782  1
  F  F20  1  0.09103608  0.48006278  0.06455782  1
  F  F21  1  0.06904730  0.25000000  0.53619885  1
  F  F22  1  0.21232040  0.02521216  0.68294627  1
  F  F23  1  0.21232040  0.47478784  0.68294627  1
  F  F24  1  0.22698966  0.00666795  0.44724231  1
  F  F25  1  0.22698966  0.49333205  0.44724231  1
  F  F26  1  0.27301034  0.50666795  0.94724231  1
  F  F27  1  0.27301034  0.99333205  0.94724231  1
  F  F28  1  0.28767960  0.52521216  0.18294627  1
  F  F29  1  0.28767960  0.97478784  0.18294627  1
  F  F30  1  0.43095270  0.75000000  0.03619885  1
  F  F31  1  0.40896392  0.51993822  0.56455782  1
  F  F32  1  0.40896392  0.98006178  0.56455782  1
  F  F33  1  0.41659160  0.25000000  0.34850977  1
  F  F34  1  0.44435458  0.51577704  0.79121916  1
  F  F35  1  0.44435458  0.98422296  0.79121916  1
  F  F36  1  0.55564542  0.01577704  0.20878084  1
  F  F37  1  0.55564542  0.48422296  0.20878084  1
  F  F38  1  0.58340840  0.75000000  0.65149023  1
  F  F39  1  0.59103608  0.01993822  0.43544218  1
  F  F40  1  0.59103608  0.48006278  0.43544218  1
  F  F41  1  0.56904730  0.25000000  0.96380115  1
  F  F42  1  0.71232040  0.02521216  0.81705373  1
  F  F43  1  0.71232040  0.47478784  0.81705373  1
  F  F44  1  0.72698966  0.00666795  0.05275769  1
  F  F45  1  0.72698966  0.49333205  0.05275769  1
  F  F46  1  0.77301034  0.50666795  0.55275769  1
  F  F47  1  0.77301034  0.99333205  0.55275769  1
  F  F48  1  0.78767960  0.52521216  0.31705373  1
  F  F49  1  0.78767960  0.97478784  0.31705373  1
  F  F50  1  0.93095270  0.75000000  0.46380115  1
  F  F51  1  0.90896392  0.51993822  0.93544218  1
  F  F52  1  0.90896392  0.98006178  0.93544218  1
  F  F53  1  0.91659160  0.25000000  0.15149023  1
  F  F54  1  0.94435458  0.51577704  0.70878084  1
  F  F55  1  0.94435458  0.98422296  0.70878084  1
