# generated using pymatgen
data_HfMnGa2
_symmetry_space_group_name_H-M   'P 1'
_cell_length_a   8.43815017
_cell_length_b   9.00788655
_cell_length_c   10.05634382
_cell_angle_alpha   90.00000000
_cell_angle_beta   90.00000000
_cell_angle_gamma   90.00000000
_symmetry_Int_Tables_number   1
_chemical_formula_structural   HfMnGa2
_chemical_formula_sum   'Hf12 Mn12 Ga24'
_cell_volume   764.38168232
_cell_formula_units_Z   12
loop_
 _symmetry_equiv_pos_site_id
 _symmetry_equiv_pos_as_xyz
  1  'x, y, z'
loop_
 _atom_site_type_symbol
 _atom_site_label
 _atom_site_symmetry_multiplicity
 _atom_site_fract_x
 _atom_site_fract_y
 _atom_site_fract_z
 _atom_site_occupancy
  Hf  Hf0  1  0.47364850  0.16885386  0.95048562  1
  Hf  Hf1  1  0.02635150  0.33114614  0.45048562  1
  Hf  Hf2  1  0.97364850  0.83114614  0.04951438  1
  Hf  Hf3  1  0.52635150  0.66885386  0.54951438  1
  Hf  Hf4  1  0.52635150  0.83114614  0.04951438  1
  Hf  Hf5  1  0.97364850  0.66885386  0.54951438  1
  Hf  Hf6  1  0.02635150  0.16885386  0.95048562  1
  Hf  Hf7  1  0.47364850  0.33114614  0.45048562  1
  Hf  Hf8  1  0.25000000  0.16331313  0.67966878  1
  Hf  Hf9  1  0.25000000  0.33668687  0.17966878  1
  Hf  Hf10  1  0.75000000  0.83668687  0.32033122  1
  Hf  Hf11  1  0.75000000  0.66331313  0.82033122  1
  Mn  Mn12  1  0.49993299  0.42186625  0.74996318  1
  Mn  Mn13  1  0.00006701  0.07813375  0.24996318  1
  Mn  Mn14  1  -0.00006701  0.57813375  0.25003682  1
  Mn  Mn15  1  0.50006701  0.92186625  0.75003682  1
  Mn  Mn16  1  0.50006701  0.57813375  0.25003682  1
  Mn  Mn17  1  -0.00006701  0.92186625  0.75003682  1
  Mn  Mn18  1  0.00006701  0.42186625  0.74996318  1
  Mn  Mn19  1  0.49993299  0.07813375  0.24996318  1
  Mn  Mn20  1  -0.00000000  -0.00000000  0.50000000  1
  Mn  Mn21  1  0.50000000  0.50000000  0.00000000  1
  Mn  Mn22  1  0.50000000  0.00000000  0.50000000  1
  Mn  Mn23  1  0.00000000  0.50000000  0.00000000  1
  Ga  Ga24  1  0.92058853  0.17320989  0.68034751  1
  Ga  Ga25  1  0.57941147  0.32679011  0.18034751  1
  Ga  Ga26  1  0.42058853  0.82679011  0.31965249  1
  Ga  Ga27  1  0.07941147  0.67320989  0.81965249  1
  Ga  Ga28  1  0.07941147  0.82679011  0.31965249  1
  Ga  Ga29  1  0.42058853  0.67320989  0.81965249  1
  Ga  Ga30  1  0.57941147  0.17320989  0.68034751  1
  Ga  Ga31  1  0.92058853  0.32679011  0.18034751  1
  Ga  Ga32  1  0.25000000  0.56582550  0.38109528  1
  Ga  Ga33  1  0.25000000  0.93417450  0.88109528  1
  Ga  Ga34  1  0.75000000  0.43417450  0.61890472  1
  Ga  Ga35  1  0.75000000  0.06582550  0.11890472  1
  Ga  Ga36  1  0.25000000  0.48695548  0.62760365  1
  Ga  Ga37  1  0.25000000  0.01304452  0.12760365  1
  Ga  Ga38  1  0.75000000  0.51304452  0.37239635  1
  Ga  Ga39  1  0.75000000  0.98695548  0.87239635  1
  Ga  Ga40  1  0.25000000  0.64297411  0.09547246  1
  Ga  Ga41  1  0.25000000  0.85702589  0.59547246  1
  Ga  Ga42  1  0.75000000  0.35702589  0.90452754  1
  Ga  Ga43  1  0.75000000  0.14297411  0.40452754  1
  Ga  Ga44  1  0.25000000  0.38876326  0.89520366  1
  Ga  Ga45  1  0.25000000  0.11123674  0.39520366  1
  Ga  Ga46  1  0.75000000  0.61123674  0.10479634  1
  Ga  Ga47  1  0.75000000  0.88876326  0.60479634  1
