# generated using pymatgen
data_Cs3Nd(MoO4)3
_symmetry_space_group_name_H-M   'P 1'
_cell_length_a   6.52583652
_cell_length_b   9.53602455
_cell_length_c   26.42226423
_cell_angle_alpha   90.00000000
_cell_angle_beta   90.00000000
_cell_angle_gamma   90.00000000
_symmetry_Int_Tables_number   1
_chemical_formula_structural   Cs3Nd(MoO4)3
_chemical_formula_sum   'Cs12 Nd4 Mo12 O48'
_cell_volume   1644.27169876
_cell_formula_units_Z   4
loop_
 _symmetry_equiv_pos_site_id
 _symmetry_equiv_pos_as_xyz
  1  'x, y, z'
loop_
 _atom_site_type_symbol
 _atom_site_label
 _atom_site_symmetry_multiplicity
 _atom_site_fract_x
 _atom_site_fract_y
 _atom_site_fract_z
 _atom_site_occupancy
  Cs  Cs0  1  0.75000000  0.47528291  0.09211841  1
  Cs  Cs1  1  0.75000000  0.97528291  0.40788159  1
  Cs  Cs2  1  0.25000000  0.52471709  0.90788159  1
  Cs  Cs3  1  0.25000000  0.02471709  0.59211841  1
  Cs  Cs4  1  0.75000000  0.39614630  0.67990229  1
  Cs  Cs5  1  0.75000000  0.89614630  0.82009771  1
  Cs  Cs6  1  0.25000000  0.60385370  0.32009771  1
  Cs  Cs7  1  0.25000000  0.10385370  0.17990229  1
  Cs  Cs8  1  0.75000000  0.31157480  0.25898478  1
  Cs  Cs9  1  0.75000000  0.81157480  0.24101522  1
  Cs  Cs10  1  0.25000000  0.68842520  0.74101522  1
  Cs  Cs11  1  0.25000000  0.18842520  0.75898478  1
  Nd  Nd12  1  0.75000000  0.18147512  0.95924601  1
  Nd  Nd13  1  0.75000000  0.68147512  0.54075399  1
  Nd  Nd14  1  0.25000000  0.81852488  0.04075399  1
  Nd  Nd15  1  0.25000000  0.31852488  0.45924601  1
  Mo  Mo16  1  0.75000000  0.74728440  0.97580519  1
  Mo  Mo17  1  0.75000000  0.24728440  0.52419481  1
  Mo  Mo18  1  0.25000000  0.25271560  0.02419481  1
  Mo  Mo19  1  0.25000000  0.75271560  0.47580519  1
  Mo  Mo20  1  0.75000000  0.01938657  0.09945009  1
  Mo  Mo21  1  0.75000000  0.51938657  0.40054991  1
  Mo  Mo22  1  0.25000000  0.98061343  0.90054991  1
  Mo  Mo23  1  0.25000000  0.48061343  0.59945009  1
  Mo  Mo24  1  0.75000000  0.38475901  0.82569407  1
  Mo  Mo25  1  0.75000000  0.88475901  0.67430593  1
  Mo  Mo26  1  0.25000000  0.61524099  0.17430593  1
  Mo  Mo27  1  0.25000000  0.11524099  0.32569407  1
  O  O28  1  0.75000000  0.69830272  0.91151943  1
  O  O29  1  0.75000000  0.19830272  0.58848057  1
  O  O30  1  0.25000000  0.30169728  0.08848057  1
  O  O31  1  0.25000000  0.80169728  0.41151943  1
  O  O32  1  0.52606241  0.67834593  0.00785627  1
  O  O33  1  0.97393759  0.17834593  0.49214373  1
  O  O34  1  0.02606241  0.32165407  0.99214373  1
  O  O35  1  0.47393759  0.82165407  0.50785627  1
  O  O36  1  0.47393759  0.32165407  0.99214373  1
  O  O37  1  0.02606241  0.82165407  0.50785627  1
  O  O38  1  0.97393759  0.67834593  0.00785627  1
  O  O39  1  0.52606241  0.17834593  0.49214373  1
  O  O40  1  0.75000000  0.93590483  0.98124645  1
  O  O41  1  0.75000000  0.43590483  0.51875355  1
  O  O42  1  0.25000000  0.06409517  0.01875355  1
  O  O43  1  0.25000000  0.56409517  0.48124645  1
  O  O44  1  0.75000000  0.09600486  0.16128570  1
  O  O45  1  0.75000000  0.59600486  0.33871430  1
  O  O46  1  0.25000000  0.90399514  0.83871430  1
  O  O47  1  0.25000000  0.40399514  0.66128570  1
  O  O48  1  0.75000000  0.15818319  0.05358323  1
  O  O49  1  0.75000000  0.65818319  0.44641677  1
  O  O50  1  0.25000000  0.84181681  0.94641677  1
  O  O51  1  0.25000000  0.34181681  0.55358323  1
  O  O52  1  0.52095770  0.91418887  0.09412465  1
  O  O53  1  0.97904230  0.41418887  0.40587535  1
  O  O54  1  0.02095770  0.08581113  0.90587535  1
  O  O55  1  0.47904230  0.58581113  0.59412465  1
  O  O56  1  0.47904230  0.08581113  0.90587535  1
  O  O57  1  0.02095770  0.58581113  0.59412465  1
  O  O58  1  0.97904230  0.91418887  0.09412465  1
  O  O59  1  0.52095770  0.41418887  0.40587535  1
  O  O60  1  0.97592004  0.47857569  0.80667465  1
  O  O61  1  0.52407996  0.97857569  0.69332535  1
  O  O62  1  0.47592004  0.52142431  0.19332535  1
  O  O63  1  0.02407996  0.02142431  0.30667465  1
  O  O64  1  0.02407996  0.52142431  0.19332535  1
  O  O65  1  0.47592004  0.02142431  0.30667465  1
  O  O66  1  0.52407996  0.47857569  0.80667465  1
  O  O67  1  0.97592004  0.97857569  0.69332535  1
  O  O68  1  0.75000000  0.22088155  0.79215720  1
  O  O69  1  0.75000000  0.72088155  0.70784280  1
  O  O70  1  0.25000000  0.77911845  0.20784280  1
  O  O71  1  0.25000000  0.27911845  0.29215720  1
  O  O72  1  0.75000000  0.35266905  0.89384695  1
  O  O73  1  0.75000000  0.85266905  0.60615305  1
  O  O74  1  0.25000000  0.64733095  0.10615305  1
  O  O75  1  0.25000000  0.14733095  0.39384695  1
