# generated using pymatgen
data_YbFe5P3
_symmetry_space_group_name_H-M   'P 1'
_cell_length_a   3.64420311
_cell_length_b   10.28067816
_cell_length_c   11.82258214
_cell_angle_alpha   90.00000000
_cell_angle_beta   90.00000000
_cell_angle_gamma   90.00000000
_symmetry_Int_Tables_number   1
_chemical_formula_structural   YbFe5P3
_chemical_formula_sum   'Yb4 Fe20 P12'
_cell_volume   442.93161317
_cell_formula_units_Z   4
loop_
 _symmetry_equiv_pos_site_id
 _symmetry_equiv_pos_as_xyz
  1  'x, y, z'
loop_
 _atom_site_type_symbol
 _atom_site_label
 _atom_site_symmetry_multiplicity
 _atom_site_fract_x
 _atom_site_fract_y
 _atom_site_fract_z
 _atom_site_occupancy
  Yb  Yb0  1  0.25000000  0.58127728  0.70534044  1
  Yb  Yb1  1  0.25000000  0.91872272  0.20534044  1
  Yb  Yb2  1  0.75000000  0.41872272  0.29465956  1
  Yb  Yb3  1  0.75000000  0.08127728  0.79465956  1
  Fe  Fe4  1  0.25000000  0.70760416  0.98752919  1
  Fe  Fe5  1  0.25000000  0.79239584  0.48752919  1
  Fe  Fe6  1  0.75000000  0.29239584  0.01247081  1
  Fe  Fe7  1  0.75000000  0.20760416  0.51247081  1
  Fe  Fe8  1  0.25000000  0.40640390  0.49149690  1
  Fe  Fe9  1  0.25000000  0.09359610  0.99149690  1
  Fe  Fe10  1  0.75000000  0.59359610  0.50850310  1
  Fe  Fe11  1  0.75000000  0.90640390  0.00850310  1
  Fe  Fe12  1  0.25000000  0.21722601  0.17851706  1
  Fe  Fe13  1  0.25000000  0.28277399  0.67851706  1
  Fe  Fe14  1  0.75000000  0.78277399  0.82148294  1
  Fe  Fe15  1  0.75000000  0.71722601  0.32148294  1
  Fe  Fe16  1  0.25000000  0.87509071  0.70217416  1
  Fe  Fe17  1  0.25000000  0.62490929  0.20217416  1
  Fe  Fe18  1  0.75000000  0.12490929  0.29782584  1
  Fe  Fe19  1  0.75000000  0.37509071  0.79782584  1
  Fe  Fe20  1  0.25000000  0.46360694  0.93272088  1
  Fe  Fe21  1  0.25000000  0.03639306  0.43272088  1
  Fe  Fe22  1  0.75000000  0.53639306  0.06727912  1
  Fe  Fe23  1  0.75000000  0.96360694  0.56727912  1
  P  P24  1  0.25000000  0.42092515  0.11312817  1
  P  P25  1  0.25000000  0.07907485  0.61312817  1
  P  P26  1  0.75000000  0.57907485  0.88687183  1
  P  P27  1  0.75000000  0.92092515  0.38687183  1
  P  P28  1  0.25000000  0.26401464  0.87348841  1
  P  P29  1  0.25000000  0.23598536  0.37348841  1
  P  P30  1  0.75000000  0.73598536  0.12651159  1
  P  P31  1  0.75000000  0.76401464  0.62651159  1
  P  P32  1  0.25000000  0.59916613  0.39644383  1
  P  P33  1  0.25000000  0.90083387  0.89644383  1
  P  P34  1  0.75000000  0.40083387  0.60355617  1
  P  P35  1  0.75000000  0.09916613  0.10355617  1
