# generated using pymatgen
data_Hf5As3
_symmetry_space_group_name_H-M   'P 1'
_cell_length_a   3.61957205
_cell_length_b   12.40546349
_cell_length_c   27.68553662
_cell_angle_alpha   90.00000000
_cell_angle_beta   90.00000000
_cell_angle_gamma   90.00000000
_symmetry_Int_Tables_number   1
_chemical_formula_structural   Hf5As3
_chemical_formula_sum   'Hf40 As24'
_cell_volume   1243.14894749
_cell_formula_units_Z   8
loop_
 _symmetry_equiv_pos_site_id
 _symmetry_equiv_pos_as_xyz
  1  'x, y, z'
loop_
 _atom_site_type_symbol
 _atom_site_label
 _atom_site_symmetry_multiplicity
 _atom_site_fract_x
 _atom_site_fract_y
 _atom_site_fract_z
 _atom_site_occupancy
  Hf  Hf0  1  0.25000000  0.88012018  0.72688387  1
  Hf  Hf1  1  0.25000000  0.61987982  0.22688387  1
  Hf  Hf2  1  0.75000000  0.11987982  0.27311613  1
  Hf  Hf3  1  0.75000000  0.38012018  0.77311613  1
  Hf  Hf4  1  0.25000000  0.53941987  0.82345171  1
  Hf  Hf5  1  0.25000000  0.96058013  0.32345171  1
  Hf  Hf6  1  0.75000000  0.46058013  0.17654829  1
  Hf  Hf7  1  0.75000000  0.03941987  0.67654829  1
  Hf  Hf8  1  0.25000000  0.92659922  0.60136643  1
  Hf  Hf9  1  0.25000000  0.57340078  0.10136643  1
  Hf  Hf10  1  0.75000000  0.07340078  0.39863357  1
  Hf  Hf11  1  0.75000000  0.42659922  0.89863357  1
  Hf  Hf12  1  0.25000000  0.20879443  0.62376120  1
  Hf  Hf13  1  0.25000000  0.29120557  0.12376120  1
  Hf  Hf14  1  0.75000000  0.79120557  0.37623880  1
  Hf  Hf15  1  0.75000000  0.70879443  0.87623880  1
  Hf  Hf16  1  0.25000000  0.65098327  0.63769318  1
  Hf  Hf17  1  0.25000000  0.84901673  0.13769318  1
  Hf  Hf18  1  0.75000000  0.34901673  0.36230682  1
  Hf  Hf19  1  0.75000000  0.15098327  0.86230682  1
  Hf  Hf20  1  0.25000000  0.15957915  0.76129517  1
  Hf  Hf21  1  0.25000000  0.34042085  0.26129517  1
  Hf  Hf22  1  0.75000000  0.84042085  0.23870483  1
  Hf  Hf23  1  0.75000000  0.65957915  0.73870483  1
  Hf  Hf24  1  0.25000000  0.94302250  0.84921176  1
  Hf  Hf25  1  0.25000000  0.55697750  0.34921176  1
  Hf  Hf26  1  0.75000000  0.05697750  0.15078824  1
  Hf  Hf27  1  0.75000000  0.44302250  0.65078824  1
  Hf  Hf28  1  0.25000000  0.80328258  0.95539106  1
  Hf  Hf29  1  0.25000000  0.69671742  0.45539106  1
  Hf  Hf30  1  0.75000000  0.19671742  0.04460894  1
  Hf  Hf31  1  0.75000000  0.30328258  0.54460894  1
  Hf  Hf32  1  0.25000000  0.08387804  0.96790398  1
  Hf  Hf33  1  0.25000000  0.41612196  0.46790398  1
  Hf  Hf34  1  0.75000000  0.91612196  0.03209602  1
  Hf  Hf35  1  0.75000000  0.58387804  0.53209602  1
  Hf  Hf36  1  0.25000000  0.38882699  0.99867059  1
  Hf  Hf37  1  0.25000000  0.11117301  0.49867059  1
  Hf  Hf38  1  0.75000000  0.61117301  0.00132941  1
  Hf  Hf39  1  0.75000000  0.88882699  0.50132941  1
  As  As40  1  0.25000000  0.75021060  0.54884032  1
  As  As41  1  0.25000000  0.74978940  0.04884032  1
  As  As42  1  0.75000000  0.24978940  0.45115968  1
  As  As43  1  0.75000000  0.25021060  0.95115968  1
  As  As44  1  0.25000000  0.44983279  0.57667401  1
  As  As45  1  0.25000000  0.05016721  0.07667401  1
  As  As46  1  0.75000000  0.55016721  0.42332599  1
  As  As47  1  0.75000000  0.94983279  0.92332599  1
  As  As48  1  0.25000000  0.50233384  0.72051376  1
  As  As49  1  0.25000000  0.99766616  0.22051376  1
  As  As50  1  0.75000000  0.49766616  0.27948624  1
  As  As51  1  0.75000000  0.00233384  0.77948624  1
  As  As52  1  0.25000000  0.75078208  0.80260333  1
  As  As53  1  0.25000000  0.74921792  0.30260333  1
  As  As54  1  0.75000000  0.24921792  0.19739667  1
  As  As55  1  0.75000000  0.25078208  0.69739667  1
  As  As56  1  0.25000000  0.31141671  0.83958430  1
  As  As57  1  0.25000000  0.18858329  0.33958430  1
  As  As58  1  0.75000000  0.68858329  0.16041570  1
  As  As59  1  0.75000000  0.81141671  0.66041570  1
  As  As60  1  0.25000000  0.57968426  0.92743638  1
  As  As61  1  0.25000000  0.92031574  0.42743638  1
  As  As62  1  0.75000000  0.42031574  0.07256362  1
  As  As63  1  0.75000000  0.07968426  0.57256362  1
