# generated using pymatgen
data_ZnH6(SO4)4
_symmetry_space_group_name_H-M   'P 1'
_cell_length_a   5.13529874
_cell_length_b   8.59220103
_cell_length_c   15.50720570
_cell_angle_alpha   90.00000000
_cell_angle_beta   90.00000000
_cell_angle_gamma   102.32832467
_symmetry_Int_Tables_number   1
_chemical_formula_structural   ZnH6(SO4)4
_chemical_formula_sum   'Zn2 H12 S8 O32'
_cell_volume   668.45418339
_cell_formula_units_Z   2
loop_
 _symmetry_equiv_pos_site_id
 _symmetry_equiv_pos_as_xyz
  1  'x, y, z'
loop_
 _atom_site_type_symbol
 _atom_site_label
 _atom_site_symmetry_multiplicity
 _atom_site_fract_x
 _atom_site_fract_y
 _atom_site_fract_z
 _atom_site_occupancy
  Zn  Zn0  1  0.00000000  0.50000000  0.50000000  1
  Zn  Zn1  1  0.00000000  0.00000000  0.00000000  1
  H  H2  1  0.69708317  0.87176322  0.51937693  1
  H  H3  1  0.30291683  0.62823678  0.01937693  1
  H  H4  1  0.30291683  0.12823678  0.48062307  1
  H  H5  1  0.69708317  0.37176322  0.98062307  1
  H  H6  1  0.58779407  0.66347779  0.76274127  1
  H  H7  1  0.41220593  0.83652221  0.26274127  1
  H  H8  1  0.41220593  0.33652221  0.23725873  1
  H  H9  1  0.58779407  0.16347779  0.73725873  1
  H  H10  1  0.18861912  0.80804762  0.76052549  1
  H  H11  1  0.81138088  0.69195238  0.26052549  1
  H  H12  1  0.81138088  0.19195238  0.23947451  1
  H  H13  1  0.18861912  0.30804762  0.73947451  1
  S  S14  1  0.56742853  0.71776885  0.41205958  1
  S  S15  1  0.43257147  0.78223115  0.91205958  1
  S  S16  1  0.43257147  0.28223115  0.58794042  1
  S  S17  1  0.56742853  0.21776885  0.08794042  1
  S  S18  1  0.87641286  0.74472546  0.66255660  1
  S  S19  1  0.12358714  0.75527454  0.16255660  1
  S  S20  1  0.12358714  0.25527454  0.33744340  1
  S  S21  1  0.87641286  0.24472546  0.83744340  1
  O  O22  1  0.60069200  0.75418727  0.31867586  1
  O  O23  1  0.39930800  0.74581273  0.81867586  1
  O  O24  1  0.39930800  0.24581273  0.68132414  1
  O  O25  1  0.60069200  0.25418727  0.18132414  1
  O  O26  1  0.71325360  0.59668543  0.43780383  1
  O  O27  1  0.28674640  0.90331457  0.93780383  1
  O  O28  1  0.28674640  0.40331457  0.56219617  1
  O  O29  1  0.71325360  0.09668543  0.06219617  1
  O  O30  1  0.28556321  0.67703987  0.43673394  1
  O  O31  1  0.71443679  0.82296013  0.93673394  1
  O  O32  1  0.71443679  0.32296013  0.56326606  1
  O  O33  1  0.28556321  0.17703987  0.06326606  1
  O  O34  1  0.69612078  0.88135429  0.45423134  1
  O  O35  1  0.30387922  0.61864571  0.95423134  1
  O  O36  1  0.30387922  0.11864571  0.54576866  1
  O  O37  1  0.69612078  0.38135429  0.04576866  1
  O  O38  1  0.02776041  0.65990340  0.60756155  1
  O  O39  1  0.97223959  0.84009660  0.10756155  1
  O  O40  1  0.97223959  0.34009660  0.39243845  1
  O  O41  1  0.02776041  0.15990340  0.89243845  1
  O  O42  1  0.71231395  0.84059323  0.62162104  1
  O  O43  1  0.28768605  0.65940677  0.12162104  1
  O  O44  1  0.28768605  0.15940677  0.37837896  1
  O  O45  1  0.71231395  0.34059323  0.87837896  1
  O  O46  1  0.70617762  0.61601045  0.72124621  1
  O  O47  1  0.29382238  0.88398955  0.22124621  1
  O  O48  1  0.29382238  0.38398955  0.27875379  1
  O  O49  1  0.70617762  0.11601045  0.77875379  1
  O  O50  1  0.06600132  0.85951232  0.72293531  1
  O  O51  1  0.93399868  0.64048768  0.22293531  1
  O  O52  1  0.93399868  0.14048768  0.27706469  1
  O  O53  1  0.06600132  0.35951232  0.77706469  1
