# generated using pymatgen
data_La2HfS5
_symmetry_space_group_name_H-M   'P 1'
_cell_length_a   7.47653503
_cell_length_b   8.13319537
_cell_length_c   11.71371669
_cell_angle_alpha   90.00000000
_cell_angle_beta   90.00000000
_cell_angle_gamma   90.00000000
_symmetry_Int_Tables_number   1
_chemical_formula_structural   La2HfS5
_chemical_formula_sum   'La8 Hf4 S20'
_cell_volume   712.28909118
_cell_formula_units_Z   4
loop_
 _symmetry_equiv_pos_site_id
 _symmetry_equiv_pos_as_xyz
  1  'x, y, z'
loop_
 _atom_site_type_symbol
 _atom_site_label
 _atom_site_symmetry_multiplicity
 _atom_site_fract_x
 _atom_site_fract_y
 _atom_site_fract_z
 _atom_site_occupancy
  La  La0  1  0.03557077  0.99951403  0.82413480  1
  La  La1  1  0.46442923  0.50048597  0.32413480  1
  La  La2  1  0.96442923  0.49951403  0.17586520  1
  La  La3  1  0.53557077  0.00048597  0.67586520  1
  La  La4  1  0.96442923  0.00048597  0.17586520  1
  La  La5  1  0.53557077  0.49951403  0.67586520  1
  La  La6  1  0.03557077  0.50048597  0.82413480  1
  La  La7  1  0.46442923  0.99951403  0.32413480  1
  Hf  Hf8  1  0.57259546  0.25000000  0.99231093  1
  Hf  Hf9  1  0.92740454  0.25000000  0.49231093  1
  Hf  Hf10  1  0.42740454  0.75000000  0.00768907  1
  Hf  Hf11  1  0.07259546  0.75000000  0.50768907  1
  S  S12  1  0.33570414  0.46522665  0.08149289  1
  S  S13  1  0.16429586  0.03477335  0.58149289  1
  S  S14  1  0.66429586  0.96522665  0.91850711  1
  S  S15  1  0.83570414  0.53477335  0.41850711  1
  S  S16  1  0.66429586  0.53477335  0.91850711  1
  S  S17  1  0.83570414  0.96522665  0.41850711  1
  S  S18  1  0.33570414  0.03477335  0.08149289  1
  S  S19  1  0.16429586  0.46522665  0.58149289  1
  S  S20  1  0.34722731  0.25000000  0.81732168  1
  S  S21  1  0.15277269  0.25000000  0.31732168  1
  S  S22  1  0.65277269  0.75000000  0.18267832  1
  S  S23  1  0.84722731  0.75000000  0.68267832  1
  S  S24  1  0.93820432  0.25000000  0.99337263  1
  S  S25  1  0.56179568  0.25000000  0.49337263  1
  S  S26  1  0.06179568  0.75000000  0.00662737  1
  S  S27  1  0.43820432  0.75000000  0.50662737  1
  S  S28  1  0.67594305  0.25000000  0.20351915  1
  S  S29  1  0.82405695  0.25000000  0.70351915  1
  S  S30  1  0.32405695  0.75000000  0.79648085  1
  S  S31  1  0.17594305  0.75000000  0.29648085  1
