# generated using pymatgen
data_AlH7C2SCl4
_symmetry_space_group_name_H-M   'P 1'
_cell_length_a   11.46491269
_cell_length_b   13.09498323
_cell_length_c   15.32075723
_cell_angle_alpha   90.48683629
_cell_angle_beta   90.00000000
_cell_angle_gamma   90.00000000
_symmetry_Int_Tables_number   1
_chemical_formula_structural   AlH7C2SCl4
_chemical_formula_sum   'Al8 H56 C16 S8 Cl32'
_cell_volume   2300.06575290
_cell_formula_units_Z   8
loop_
 _symmetry_equiv_pos_site_id
 _symmetry_equiv_pos_as_xyz
  1  'x, y, z'
loop_
 _atom_site_type_symbol
 _atom_site_label
 _atom_site_symmetry_multiplicity
 _atom_site_fract_x
 _atom_site_fract_y
 _atom_site_fract_z
 _atom_site_occupancy
  Al  Al0  1  0.77071903  0.39930255  0.37633006  1
  Al  Al1  1  0.27071903  0.10069745  0.62366994  1
  Al  Al2  1  0.22928097  0.60069745  0.62366994  1
  Al  Al3  1  0.72928097  0.89930255  0.37633006  1
  Al  Al4  1  0.27028638  0.52897001  0.12445834  1
  Al  Al5  1  0.77028638  0.97102999  0.87554166  1
  Al  Al6  1  0.72971362  0.47102999  0.87554166  1
  Al  Al7  1  0.22971362  0.02897001  0.12445834  1
  H  H8  1  0.35322876  0.35192550  0.48286786  1
  H  H9  1  0.85322876  0.14807450  0.51713214  1
  H  H10  1  0.64677124  0.64807450  0.51713214  1
  H  H11  1  0.14677124  0.85192550  0.48286786  1
  H  H12  1  0.88693573  0.15432028  0.22217093  1
  H  H13  1  0.38693573  0.34567972  0.77782907  1
  H  H14  1  0.11306427  0.84567972  0.77782907  1
  H  H15  1  0.61306427  0.65432028  0.22217093  1
  H  H16  1  0.49540535  0.23915360  0.37443116  1
  H  H17  1  0.99540535  0.26084640  0.62556884  1
  H  H18  1  0.50459465  0.76084640  0.62556884  1
  H  H19  1  0.00459465  0.73915360  0.37443116  1
  H  H20  1  0.34969249  0.18873889  0.38963454  1
  H  H21  1  0.84969249  0.31126111  0.61036546  1
  H  H22  1  0.65030751  0.81126111  0.61036546  1
  H  H23  1  0.15030751  0.68873889  0.38963454  1
  H  H24  1  0.39107102  0.24552235  0.28737242  1
  H  H25  1  0.89107102  0.25447765  0.71262758  1
  H  H26  1  0.60892898  0.75447765  0.71262758  1
  H  H27  1  0.10892898  0.74552235  0.28737242  1
  H  H28  1  0.17165503  0.44723386  0.39681788  1
  H  H29  1  0.67165503  0.05276614  0.60318212  1
  H  H30  1  0.82834497  0.55276614  0.60318212  1
  H  H31  1  0.32834497  0.94723386  0.39681788  1
  H  H32  1  0.19701565  0.37098812  0.30072893  1
  H  H33  1  0.69701565  0.12901188  0.69927107  1
  H  H34  1  0.80298435  0.62901188  0.69927107  1
  H  H35  1  0.30298435  0.87098812  0.30072893  1
  H  H36  1  0.16092683  0.30973489  0.40225771  1
  H  H37  1  0.66092683  0.19026511  0.59774229  1
  H  H38  1  0.83907317  0.69026511  0.59774229  1
  H  H39  1  0.33907317  0.80973489  0.40225771  1
  H  H40  1  0.69022883  0.07273017  0.14231906  1
  H  H41  1  0.19022883  0.42726983  0.85768094  1
  H  H42  1  0.30977117  0.92726983  0.85768094  1
  H  H43  1  0.80977117  0.57273017  0.14231906  1
  H  H44  1  0.68434385  0.20768874  0.16889150  1
  H  H45  1  0.18434385  0.29231126  0.83110850  1
  H  H46  1  0.31565615  0.79231126  0.83110850  1
  H  H47  1  0.81565615  0.70768874  0.16889150  1
  H  H48  1  0.70007552  0.16553713  0.05730616  1
  H  H49  1  0.20007552  0.33446287  0.94269384  1
  H  H50  1  0.29992448  0.83446287  0.94269384  1
  H  H51  1  0.79992448  0.66553713  0.05730616  1
  H  H52  1  0.01830005  0.27470288  0.11356715  1
  H  H53  1  0.51830005  0.22529712  0.88643285  1
  H  H54  1  0.98169995  0.72529712  0.88643285  1
  H  H55  1  0.48169995  0.77470288  0.11356715  1
  H  H56  1  0.89723435  0.28761632  0.04010591  1
  H  H57  1  0.39723435  0.21238368  0.95989409  1
  H  H58  1  0.10276565  0.71238368  0.95989409  1
  H  H59  1  0.60276565  0.78761632  0.04010591  1
  H  H60  1  0.88195272  0.32859888  0.15194909  1
  H  H61  1  0.38195272  0.17140112  0.84805091  1
  H  H62  1  0.11804728  0.67140112  0.84805091  1
  H  H63  1  0.61804728  0.82859888  0.15194909  1
  C  C64  1  0.40296256  0.24731093  0.35842803  1
  C  C65  1  0.90296256  0.25268907  0.64157197  1
  C  C66  1  0.59703744  0.75268907  0.64157197  1
  C  C67  1  0.09703744  0.74731093  0.35842803  1
  C  C68  1  0.20525930  0.37436599  0.37194799  1
  C  C69  1  0.70525930  0.12563401  0.62805201  1
  C  C70  1  0.79474070  0.62563401  0.62805201  1
  C  C71  1  0.29474070  0.87436599  0.37194799  1
  C  C72  1  0.72115066  0.14932604  0.12543494  1
  C  C73  1  0.22115066  0.35067396  0.87456506  1
  C  C74  1  0.27884934  0.85067396  0.87456506  1
  C  C75  1  0.77884934  0.64932604  0.12543494  1
  C  C76  1  0.92297522  0.27337073  0.10771632  1
  C  C77  1  0.42297522  0.22662927  0.89228368  1
  C  C78  1  0.07702478  0.72662927  0.89228368  1
  C  C79  1  0.57702478  0.77337073  0.10771632  1
  S  S80  1  0.35922498  0.37237411  0.39576943  1
  S  S81  1  0.85922498  0.12762589  0.60423057  1
  S  S82  1  0.64077502  0.62762589  0.60423057  1
  S  S83  1  0.14077502  0.87237411  0.39576943  1
  S  S84  1  0.87803215  0.14528306  0.13380364  1
  S  S85  1  0.37803215  0.35471694  0.86619636  1
  S  S86  1  0.12196785  0.85471694  0.86619636  1
  S  S87  1  0.62196785  0.64528306  0.13380364  1
  Cl  Cl88  1  0.66046846  0.38147188  0.49041559  1
  Cl  Cl89  1  0.16046846  0.11852812  0.50958441  1
  Cl  Cl90  1  0.33953154  0.61852812  0.50958441  1
  Cl  Cl91  1  0.83953154  0.88147188  0.49041559  1
  Cl  Cl92  1  0.66341557  0.40241681  0.26102482  1
  Cl  Cl93  1  0.16341557  0.09758319  0.73897518  1
  Cl  Cl94  1  0.33658443  0.59758319  0.73897518  1
  Cl  Cl95  1  0.83658443  0.90241681  0.26102482  1
  Cl  Cl96  1  0.86780822  0.53877325  0.38947712  1
  Cl  Cl97  1  0.36780822  0.96122675  0.61052288  1
  Cl  Cl98  1  0.13219178  0.46122675  0.61052288  1
  Cl  Cl99  1  0.63219178  0.03877325  0.38947712  1
  Cl  Cl100  1  0.88774474  0.26851632  0.36902593  1
  Cl  Cl101  1  0.38774474  0.23148368  0.63097407  1
  Cl  Cl102  1  0.11225526  0.73148368  0.63097407  1
  Cl  Cl103  1  0.61225526  0.76851632  0.36902593  1
  Cl  Cl104  1  0.08341464  0.54588668  0.12966221  1
  Cl  Cl105  1  0.58341464  0.95411332  0.87033779  1
  Cl  Cl106  1  0.91658536  0.45411332  0.87033779  1
  Cl  Cl107  1  0.41658536  0.04588668  0.12966221  1
  Cl  Cl108  1  0.34853111  0.60055249  0.23855199  1
  Cl  Cl109  1  0.84853111  0.89944751  0.76144801  1
  Cl  Cl110  1  0.65146889  0.39944751  0.76144801  1
  Cl  Cl111  1  0.15146889  0.10055249  0.23855199  1
  Cl  Cl112  1  0.31317814  0.36789222  0.12508601  1
  Cl  Cl113  1  0.81317814  0.13210778  0.87491399  1
  Cl  Cl114  1  0.68682186  0.63210778  0.87491399  1
  Cl  Cl115  1  0.18682186  0.86789222  0.12508601  1
  Cl  Cl116  1  0.33972469  0.59803003  0.00841847  1
  Cl  Cl117  1  0.83972469  0.90196997  0.99158153  1
  Cl  Cl118  1  0.66027531  0.40196997  0.99158153  1
  Cl  Cl119  1  0.16027531  0.09803003  0.00841847  1
