# generated using pymatgen
data_EuV(SeO4)2
_symmetry_space_group_name_H-M   'P 1'
_cell_length_a   6.91163234
_cell_length_b   7.10712373
_cell_length_c   13.78421830
_cell_angle_alpha   90.00000000
_cell_angle_beta   91.20497687
_cell_angle_gamma   90.00000000
_symmetry_Int_Tables_number   1
_chemical_formula_structural   EuV(SeO4)2
_chemical_formula_sum   'Eu4 V4 Se8 O32'
_cell_volume   676.95624086
_cell_formula_units_Z   4
loop_
 _symmetry_equiv_pos_site_id
 _symmetry_equiv_pos_as_xyz
  1  'x, y, z'
loop_
 _atom_site_type_symbol
 _atom_site_label
 _atom_site_symmetry_multiplicity
 _atom_site_fract_x
 _atom_site_fract_y
 _atom_site_fract_z
 _atom_site_occupancy
  Eu  Eu0  1  0.62245945  0.25000000  0.86314779  1
  Eu  Eu1  1  0.37754055  0.75000000  0.13685221  1
  Eu  Eu2  1  0.07512001  0.25000000  0.06944379  1
  Eu  Eu3  1  0.92487999  0.75000000  0.93055621  1
  V  V4  1  0.62609881  0.50836725  0.38702037  1
  V  V5  1  0.37390119  0.00836725  0.61297963  1
  V  V6  1  0.37390119  0.49163275  0.61297963  1
  V  V7  1  0.62609881  0.99163275  0.38702037  1
  Se  Se8  1  0.03196453  0.25000000  0.35228063  1
  Se  Se9  1  0.96803547  0.75000000  0.64771937  1
  Se  Se10  1  0.55074162  0.25000000  0.13842655  1
  Se  Se11  1  0.44925838  0.75000000  0.86157345  1
  Se  Se12  1  0.78965728  0.25000000  0.59171656  1
  Se  Se13  1  0.21034272  0.75000000  0.40828344  1
  Se  Se14  1  0.10414849  0.25000000  0.83982268  1
  Se  Se15  1  0.89585151  0.75000000  0.16017732  1
  O  O16  1  0.90211478  0.44470885  0.39550751  1
  O  O17  1  0.09788522  0.94470885  0.60449249  1
  O  O18  1  0.09788522  0.55529115  0.60449249  1
  O  O19  1  0.90211478  0.05529115  0.39550751  1
  O  O20  1  0.97942623  0.25000000  0.23212385  1
  O  O21  1  0.02057377  0.75000000  0.76787615  1
  O  O22  1  0.38429992  0.07552521  0.10780274  1
  O  O23  1  0.61570008  0.57552521  0.89219726  1
  O  O24  1  0.61570008  0.92447479  0.89219726  1
  O  O25  1  0.38429992  0.42447479  0.10780274  1
  O  O26  1  0.70937668  0.25000000  0.04368187  1
  O  O27  1  0.29062332  0.75000000  0.95631813  1
  O  O28  1  0.63720207  0.05531772  0.56260756  1
  O  O29  1  0.36279793  0.55531772  0.43739244  1
  O  O30  1  0.36279793  0.94468228  0.43739244  1
  O  O31  1  0.63720207  0.44468228  0.56260756  1
  O  O32  1  0.79088181  0.25000000  0.71401796  1
  O  O33  1  0.20911819  0.75000000  0.28598204  1
  O  O34  1  0.02971367  0.57755464  0.10125946  1
  O  O35  1  0.97028633  0.07755464  0.89874054  1
  O  O36  1  0.97028633  0.42244536  0.89874054  1
  O  O37  1  0.02971367  0.92244536  0.10125946  1
  O  O38  1  0.30167772  0.25000000  0.91833994  1
  O  O39  1  0.69832228  0.75000000  0.08166006  1
  O  O40  1  0.41147829  0.44027987  0.72923491  1
  O  O41  1  0.58852171  0.94027987  0.27076509  1
  O  O42  1  0.58852171  0.55972013  0.27076509  1
  O  O43  1  0.41147829  0.05972013  0.72923491  1
  O  O44  1  0.69542443  0.75000000  0.42741337  1
  O  O45  1  0.30457557  0.25000000  0.57258663  1
  O  O46  1  0.57731833  0.25000000  0.38404982  1
  O  O47  1  0.42268167  0.75000000  0.61595018  1
