# generated using pymatgen
data_EuCuGe
_symmetry_space_group_name_H-M   'P 1'
_cell_length_a   4.50095529
_cell_length_b   7.63756238
_cell_length_c   22.47916837
_cell_angle_alpha   90.00000000
_cell_angle_beta   90.00000000
_cell_angle_gamma   90.00000000
_symmetry_Int_Tables_number   1
_chemical_formula_structural   EuCuGe
_chemical_formula_sum   'Eu12 Cu12 Ge12'
_cell_volume   772.75123801
_cell_formula_units_Z   12
loop_
 _symmetry_equiv_pos_site_id
 _symmetry_equiv_pos_as_xyz
  1  'x, y, z'
loop_
 _atom_site_type_symbol
 _atom_site_label
 _atom_site_symmetry_multiplicity
 _atom_site_fract_x
 _atom_site_fract_y
 _atom_site_fract_z
 _atom_site_occupancy
  Eu  Eu0  1  0.25848034  0.71425242  0.50198733  1
  Eu  Eu1  1  0.75848034  0.28574758  0.49801267  1
  Eu  Eu2  1  0.75848034  0.21425242  0.99801267  1
  Eu  Eu3  1  0.25848034  0.78574758  0.00198733  1
  Eu  Eu4  1  0.75698770  0.20695336  0.33379727  1
  Eu  Eu5  1  0.25698770  0.79304664  0.66620273  1
  Eu  Eu6  1  0.25698770  0.70695336  0.16620273  1
  Eu  Eu7  1  0.75698770  0.29304664  0.83379727  1
  Eu  Eu8  1  0.25681336  0.79411094  0.33324558  1
  Eu  Eu9  1  0.75681336  0.20588906  0.66675442  1
  Eu  Eu10  1  0.75681336  0.29411094  0.16675442  1
  Eu  Eu11  1  0.25681336  0.70588906  0.83324558  1
  Cu  Cu12  1  0.75504317  0.58392948  0.40272035  1
  Cu  Cu13  1  0.25504317  0.41607052  0.59727965  1
  Cu  Cu14  1  0.25504317  0.08392948  0.09727965  1
  Cu  Cu15  1  0.75504317  0.91607052  0.90272035  1
  Cu  Cu16  1  0.75533516  0.58690854  0.26425801  1
  Cu  Cu17  1  0.25533516  0.41309146  0.73574199  1
  Cu  Cu18  1  0.25533516  0.08690854  0.23574199  1
  Cu  Cu19  1  0.75533516  0.91309146  0.76425801  1
  Cu  Cu20  1  0.25752964  0.07997922  0.43599529  1
  Cu  Cu21  1  0.75752964  0.92002078  0.56400471  1
  Cu  Cu22  1  0.75752964  0.57997922  0.06400471  1
  Cu  Cu23  1  0.25752964  0.42002078  0.93599529  1
  Ge  Ge24  1  0.25655310  0.41853619  0.27048441  1
  Ge  Ge25  1  0.75655310  0.58146381  0.72951559  1
  Ge  Ge26  1  0.75655310  0.91853619  0.22951559  1
  Ge  Ge27  1  0.25655310  0.08146381  0.77048441  1
  Ge  Ge28  1  0.75767842  0.90844300  0.43093035  1
  Ge  Ge29  1  0.25767842  0.09155700  0.56906965  1
  Ge  Ge30  1  0.25767842  0.40844300  0.06906965  1
  Ge  Ge31  1  0.75767842  0.59155700  0.93093035  1
  Ge  Ge32  1  0.25557910  0.41522098  0.39747297  1
  Ge  Ge33  1  0.75557910  0.58477902  0.60252703  1
  Ge  Ge34  1  0.75557910  0.91522098  0.10252703  1
  Ge  Ge35  1  0.25557910  0.08477902  0.89747297  1
