# generated using pymatgen
data_Ta3As
_symmetry_space_group_name_H-M   'P 1'
_cell_length_a   5.22642173
_cell_length_b   10.31967810
_cell_length_c   10.31967810
_cell_angle_alpha   90.00000000
_cell_angle_beta   90.00000000
_cell_angle_gamma   90.00000000
_symmetry_Int_Tables_number   1
_chemical_formula_structural   Ta3As
_chemical_formula_sum   'Ta24 As8'
_cell_volume   556.59173377
_cell_formula_units_Z   8
loop_
 _symmetry_equiv_pos_site_id
 _symmetry_equiv_pos_as_xyz
  1  'x, y, z'
loop_
 _atom_site_type_symbol
 _atom_site_label
 _atom_site_symmetry_multiplicity
 _atom_site_fract_x
 _atom_site_fract_y
 _atom_site_fract_z
 _atom_site_occupancy
  Ta  Ta0  1  0.27530362  0.83502725  0.15302211  1
  Ta  Ta1  1  0.27530362  0.66497275  0.34697789  1
  Ta  Ta2  1  0.77530362  0.65302211  0.16497275  1
  Ta  Ta3  1  0.77530362  0.84697789  0.33502725  1
  Ta  Ta4  1  0.72469638  0.16497275  0.84697789  1
  Ta  Ta5  1  0.72469638  0.33502725  0.65302211  1
  Ta  Ta6  1  0.22469638  0.34697789  0.83502725  1
  Ta  Ta7  1  0.22469638  0.15302211  0.66497275  1
  Ta  Ta8  1  0.97811322  0.26694369  0.10013264  1
  Ta  Ta9  1  0.97811322  0.23305631  0.39986736  1
  Ta  Ta10  1  0.47811322  0.60013264  0.73305631  1
  Ta  Ta11  1  0.47811322  0.89986736  0.76694369  1
  Ta  Ta12  1  0.02188678  0.73305631  0.89986736  1
  Ta  Ta13  1  0.02188678  0.76694369  0.60013264  1
  Ta  Ta14  1  0.52188678  0.39986736  0.26694369  1
  Ta  Ta15  1  0.52188678  0.10013264  0.23305631  1
  Ta  Ta16  1  0.23999007  0.43855445  0.53604769  1
  Ta  Ta17  1  0.23999007  0.06144555  0.96395231  1
  Ta  Ta18  1  0.73999007  0.03604769  0.56144555  1
  Ta  Ta19  1  0.73999007  0.46395231  0.93855445  1
  Ta  Ta20  1  0.76000993  0.56144555  0.46395231  1
  Ta  Ta21  1  0.76000993  0.93855445  0.03604769  1
  Ta  Ta22  1  0.26000993  0.96395231  0.43855445  1
  Ta  Ta23  1  0.26000993  0.53604769  0.06144555  1
  As  As24  1  0.47733932  0.27673087  0.04488929  1
  As  As25  1  0.47733932  0.22326913  0.45511071  1
  As  As26  1  0.97733932  0.54488929  0.72326913  1
  As  As27  1  0.97733932  0.95511071  0.77673087  1
  As  As28  1  0.52266068  0.72326913  0.95511071  1
  As  As29  1  0.52266068  0.77673087  0.54488929  1
  As  As30  1  0.02266068  0.45511071  0.27673087  1
  As  As31  1  0.02266068  0.04488929  0.22326913  1
