# generated using pymatgen
data_TlV2I3O13
_symmetry_space_group_name_H-M   'P 1'
_cell_length_a   8.22485882
_cell_length_b   9.67139409
_cell_length_c   9.67139409
_cell_angle_alpha   65.85773825
_cell_angle_beta   64.83568006
_cell_angle_gamma   64.83568006
_symmetry_Int_Tables_number   1
_chemical_formula_structural   TlV2I3O13
_chemical_formula_sum   'Tl2 V4 I6 O26'
_cell_volume   605.27475023
_cell_formula_units_Z   2
loop_
 _symmetry_equiv_pos_site_id
 _symmetry_equiv_pos_as_xyz
  1  'x, y, z'
loop_
 _atom_site_type_symbol
 _atom_site_label
 _atom_site_symmetry_multiplicity
 _atom_site_fract_x
 _atom_site_fract_y
 _atom_site_fract_z
 _atom_site_occupancy
  Tl  Tl0  1  0.62410628  0.14112358  0.35887642  1
  Tl  Tl1  1  0.12410628  0.85887642  0.64112358  1
  V  V2  1  0.97331287  0.35495269  0.38762688  1
  V  V3  1  0.71589244  0.64504731  0.61237312  1
  V  V4  1  0.21589244  0.11237312  0.14504731  1
  V  V5  1  0.47331287  0.88762688  0.85495269  1
  I  I6  1  0.34278475  0.47161534  0.02838466  1
  I  I7  1  0.84278475  0.52838466  0.97161534  1
  I  I8  1  0.62556320  0.24621642  0.73531920  1
  I  I9  1  0.60709883  0.75378358  0.26468080  1
  I  I10  1  0.10709883  0.76468080  0.25378358  1
  I  I11  1  0.12556320  0.23531920  0.74621642  1
  O  O12  1  0.54531673  0.40430817  0.09569183  1
  O  O13  1  0.04531673  0.59569183  0.90430817  1
  O  O14  1  0.15867840  0.47408250  0.22928078  1
  O  O15  1  0.86204168  0.52591750  0.77071922  1
  O  O16  1  0.36204168  0.27071922  0.02591750  1
  O  O17  1  0.65867840  0.72928078  0.97408250  1
  O  O18  1  0.57776123  0.44447427  0.75423025  1
  O  O19  1  0.77646575  0.55552573  0.24576975  1
  O  O20  1  0.27646575  0.74576975  0.05552573  1
  O  O21  1  0.07776123  0.25423025  0.94447427  1
  O  O22  1  0.82784987  0.13013567  0.80710700  1
  O  O23  1  0.76509255  0.86986433  0.19289300  1
  O  O24  1  0.26509255  0.69289300  0.36986433  1
  O  O25  1  0.32784987  0.30710700  0.63013567  1
  O  O26  1  0.74569261  0.28601077  0.51241566  1
  O  O27  1  0.54411903  0.71398923  0.48758434  1
  O  O28  1  0.04411903  0.98758434  0.21398923  1
  O  O29  1  0.24569261  0.01241566  0.78601077  1
  O  O30  1  0.01361178  0.26554285  0.23445715  1
  O  O31  1  0.51361178  0.73445715  0.76554285  1
  O  O32  1  0.88876434  0.50000000  0.50000000  1
  O  O33  1  0.38876434  1.00000000  1.00000000  1
  O  O34  1  0.11894047  0.21101382  0.48651290  1
  O  O35  1  0.81646720  0.78898618  0.51348710  1
  O  O36  1  0.31646720  0.01348710  0.28898618  1
  O  O37  1  0.61894047  0.98651290  0.71101382  1
