# generated using pymatgen
data_Ti3V5O16
_symmetry_space_group_name_H-M   'P 1'
_cell_length_a   5.90747085
_cell_length_b   5.96261959
_cell_length_c   9.02114750
_cell_angle_alpha   90.01655359
_cell_angle_beta   89.88933644
_cell_angle_gamma   120.30385906
_symmetry_Int_Tables_number   1
_chemical_formula_structural   Ti3V5O16
_chemical_formula_sum   'Ti3 V5 O16'
_cell_volume   274.34196121
_cell_formula_units_Z   1
loop_
 _symmetry_equiv_pos_site_id
 _symmetry_equiv_pos_as_xyz
  1  'x, y, z'
loop_
 _atom_site_type_symbol
 _atom_site_label
 _atom_site_symmetry_multiplicity
 _atom_site_fract_x
 _atom_site_fract_y
 _atom_site_fract_z
 _atom_site_occupancy
  Ti  Ti0  1  0.17365327  0.83799076  0.21199924  1
  Ti  Ti1  1  0.17366618  0.33499021  0.21103167  1
  Ti  Ti2  1  0.32814920  0.16398292  0.70736847  1
  V  V3  1  0.33674713  0.66752946  0.48593367  1
  V  V4  1  0.66538234  0.83171406  0.20483361  1
  V  V5  1  0.67663715  0.33688269  0.98533852  1
  V  V6  1  0.82999620  0.16616526  0.71027887  1
  V  V7  1  0.82979904  0.66290018  0.71074668  1
  O  O8  1  0.16099956  0.82570691  0.60573639  1
  O  O9  1  0.05378818  0.52833915  0.34517794  1
  O  O10  1  0.32956633  0.66646897  0.09777213  1
  O  O11  1  0.00231694  0.00109239  0.31259783  1
  O  O12  1  0.99709834  0.99851377  0.81362213  1
  O  O13  1  0.16034313  0.33506259  0.60550977  1
  O  O14  1  0.48448134  0.95165632  0.33718980  1
  O  O15  1  0.48013397  0.52891858  0.33889455  1
  O  O16  1  0.34393545  0.17286748  0.10435068  1
  O  O17  1  0.64428468  0.82254695  0.60323280  1
  O  O18  1  0.52919177  0.47801676  0.83881533  1
  O  O19  1  0.52950947  0.05142643  0.83941931  1
  O  O20  1  0.66154244  0.33052817  0.59952127  1
  O  O21  1  0.82596539  0.65600075  0.10494989  1
  O  O22  1  0.95299156  0.47626498  0.83766781  1
  O  O23  1  0.82982197  0.17463126  0.10373064  1
