# generated using pymatgen
data_Hg3H4(IO6)2
_symmetry_space_group_name_H-M   'P 1'
_cell_length_a   8.91569998
_cell_length_b   9.74075515
_cell_length_c   12.38806390
_cell_angle_alpha   90.00000000
_cell_angle_beta   90.00000000
_cell_angle_gamma   90.99951998
_symmetry_Int_Tables_number   1
_chemical_formula_structural   Hg3H4(IO6)2
_chemical_formula_sum   'Hg12 H16 I8 O48'
_cell_volume   1075.68576839
_cell_formula_units_Z   4
loop_
 _symmetry_equiv_pos_site_id
 _symmetry_equiv_pos_as_xyz
  1  'x, y, z'
loop_
 _atom_site_type_symbol
 _atom_site_label
 _atom_site_symmetry_multiplicity
 _atom_site_fract_x
 _atom_site_fract_y
 _atom_site_fract_z
 _atom_site_occupancy
  Hg  Hg0  1  0.90418528  0.37726881  0.88454451  1
  Hg  Hg1  1  0.09581472  0.12273119  0.38454451  1
  Hg  Hg2  1  0.09581472  0.62273119  0.11545549  1
  Hg  Hg3  1  0.90418528  0.87726881  0.61545549  1
  Hg  Hg4  1  0.75260265  0.49021307  0.51574017  1
  Hg  Hg5  1  0.24739735  0.00978693  0.01574017  1
  Hg  Hg6  1  0.24739735  0.50978693  0.48425983  1
  Hg  Hg7  1  0.75260265  0.99021307  0.98425983  1
  Hg  Hg8  1  0.40204539  0.12040086  0.61173791  1
  Hg  Hg9  1  0.59795461  0.37959914  0.11173791  1
  Hg  Hg10  1  0.59795461  0.87959914  0.38826209  1
  Hg  Hg11  1  0.40204539  0.62040086  0.88826209  1
  H  H12  1  0.96689364  0.40977286  0.27456337  1
  H  H13  1  0.03310636  0.09022714  0.77456337  1
  H  H14  1  0.03310636  0.59022714  0.72543663  1
  H  H15  1  0.96689364  0.90977286  0.22543663  1
  H  H16  1  0.75837657  0.20810045  0.67804891  1
  H  H17  1  0.24162343  0.29189955  0.17804891  1
  H  H18  1  0.24162343  0.79189955  0.32195109  1
  H  H19  1  0.75837657  0.70810045  0.82195109  1
  H  H20  1  0.52018161  0.41695339  0.72611765  1
  H  H21  1  0.47981839  0.08304661  0.22611765  1
  H  H22  1  0.47981839  0.58304661  0.27388235  1
  H  H23  1  0.52018161  0.91695339  0.77388235  1
  H  H24  1  0.24917440  0.28112952  0.82805339  1
  H  H25  1  0.75082560  0.21887048  0.32805339  1
  H  H26  1  0.75082560  0.71887048  0.17194661  1
  H  H27  1  0.24917440  0.78112952  0.67194661  1
  I  I28  1  0.98004639  0.22977648  0.12902413  1
  I  I29  1  0.01995361  0.27022352  0.62902413  1
  I  I30  1  0.01995361  0.77022352  0.87097587  1
  I  I31  1  0.98004639  0.72977648  0.37097587  1
  I  I32  1  0.51537144  0.23295287  0.86717493  1
  I  I33  1  0.48462856  0.26704713  0.36717493  1
  I  I34  1  0.48462856  0.76704713  0.13282507  1
  I  I35  1  0.51537144  0.73295287  0.63282507  1
  O  O36  1  0.95263477  0.34903970  0.50099086  1
  O  O37  1  0.04736523  0.15096030  0.00099086  1
  O  O38  1  0.04736523  0.65096030  0.49900914  1
  O  O39  1  0.95263477  0.84903970  0.99900914  1
  O  O40  1  0.92570299  0.40873083  0.71643134  1
  O  O41  1  0.07429701  0.09126917  0.21643134  1
  O  O42  1  0.07429701  0.59126917  0.28356866  1
  O  O43  1  0.92570299  0.90873083  0.78356866  1
  O  O44  1  0.91091563  0.32135842  0.26216101  1
  O  O45  1  0.08908437  0.17864158  0.76216101  1
  O  O46  1  0.08908437  0.67864158  0.73783899  1
  O  O47  1  0.91091563  0.82135842  0.23783899  1
  O  O48  1  0.90044136  0.38673812  0.05485945  1
  O  O49  1  0.09955864  0.11326188  0.55485945  1
  O  O50  1  0.09955864  0.61326188  0.94514055  1
  O  O51  1  0.90044136  0.88673812  0.44514055  1
  O  O52  1  0.83538536  0.15621943  0.63828069  1
  O  O53  1  0.16461464  0.34378057  0.13828069  1
  O  O54  1  0.16461464  0.84378057  0.36171931  1
  O  O55  1  0.83538536  0.65621943  0.86171931  1
  O  O56  1  0.79547566  0.13960592  0.13038895  1
  O  O57  1  0.20452434  0.36039408  0.63038895  1
  O  O58  1  0.20452434  0.86039408  0.86961105  1
  O  O59  1  0.79547566  0.63960592  0.36961105  1
  O  O60  1  0.70513465  0.15320954  0.85748321  1
  O  O61  1  0.29486535  0.34679046  0.35748321  1
  O  O62  1  0.29486535  0.84679046  0.14251679  1
  O  O63  1  0.70513465  0.65320954  0.64251679  1
  O  O64  1  0.59890890  0.39167464  0.94086613  1
  O  O65  1  0.40109110  0.10832536  0.44086613  1
  O  O66  1  0.40109110  0.60832536  0.05913387  1
  O  O67  1  0.59890890  0.89167464  0.55913387  1
  O  O68  1  0.57494339  0.32913653  0.73320982  1
  O  O69  1  0.42505661  0.17086347  0.23320982  1
  O  O70  1  0.42505661  0.67086347  0.26679018  1
  O  O71  1  0.57494339  0.82913653  0.76679018  1
  O  O72  1  0.46316765  0.14635282  0.99533158  1
  O  O73  1  0.53683235  0.35364718  0.49533158  1
  O  O74  1  0.53683235  0.85364718  0.00466842  1
  O  O75  1  0.46316765  0.64635282  0.50466842  1
  O  O76  1  0.42176554  0.09101683  0.78029690  1
  O  O77  1  0.57823446  0.40898317  0.28029690  1
  O  O78  1  0.57823446  0.90898317  0.21970310  1
  O  O79  1  0.42176554  0.59101683  0.71970310  1
  O  O80  1  0.32832306  0.33699125  0.86584876  1
  O  O81  1  0.67167694  0.16300875  0.36584876  1
  O  O82  1  0.67167694  0.66300875  0.13415124  1
  O  O83  1  0.32832306  0.83699125  0.63415124  1
