# generated using pymatgen
data_CuPb5Se4(ClO3)4
_symmetry_space_group_name_H-M   'P 1'
_cell_length_a   5.52102139
_cell_length_b   12.90879260
_cell_length_c   14.38775677
_cell_angle_alpha   100.43538221
_cell_angle_beta   90.00000000
_cell_angle_gamma   102.34791084
_symmetry_Int_Tables_number   1
_chemical_formula_structural   CuPb5Se4(ClO3)4
_chemical_formula_sum   'Cu2 Pb10 Se8 Cl8 O24'
_cell_volume   984.32151178
_cell_formula_units_Z   2
loop_
 _symmetry_equiv_pos_site_id
 _symmetry_equiv_pos_as_xyz
  1  'x, y, z'
loop_
 _atom_site_type_symbol
 _atom_site_label
 _atom_site_symmetry_multiplicity
 _atom_site_fract_x
 _atom_site_fract_y
 _atom_site_fract_z
 _atom_site_occupancy
  Cu  Cu0  1  0.50000000  -0.00000000  -0.00000000  1
  Cu  Cu1  1  0.50000000  -0.00000000  0.50000000  1
  Pb  Pb2  1  0.94827203  0.77831048  0.32371358  1
  Pb  Pb3  1  0.16996155  0.22168952  0.17628642  1
  Pb  Pb4  1  0.05172797  0.22168952  0.67628642  1
  Pb  Pb5  1  0.83003845  0.77831048  0.82371358  1
  Pb  Pb6  1  0.74571828  0.46213458  0.13082902  1
  Pb  Pb7  1  0.28358370  0.53786542  0.36917098  1
  Pb  Pb8  1  0.25428172  0.53786542  0.86917098  1
  Pb  Pb9  1  0.71641630  0.46213458  0.63082902  1
  Pb  Pb10  1  0.56475699  -0.00000000  0.25000000  1
  Pb  Pb11  1  0.43524301  -0.00000000  0.75000000  1
  Se  Se12  1  0.34000679  0.67471433  0.17702100  1
  Se  Se13  1  0.66529246  0.32528567  0.32297900  1
  Se  Se14  1  0.65999321  0.32528567  0.82297900  1
  Se  Se15  1  0.33470754  0.67471433  0.67702100  1
  Se  Se16  1  0.96578116  0.90998803  0.08252812  1
  Se  Se17  1  0.05579313  0.09001197  0.41747188  1
  Se  Se18  1  0.03421884  0.09001197  0.91747188  1
  Se  Se19  1  0.94420687  0.90998803  0.58252812  1
  Cl  Cl20  1  0.19708779  0.41681562  0.04153651  1
  Cl  Cl21  1  0.78027217  0.58318438  0.45846349  1
  Cl  Cl22  1  0.80291221  0.58318438  0.95846349  1
  Cl  Cl23  1  0.21972783  0.41681562  0.54153651  1
  Cl  Cl24  1  0.41869815  0.77413897  0.96192764  1
  Cl  Cl25  1  0.64455917  0.22586103  0.53807236  1
  Cl  Cl26  1  0.58130185  0.22586103  0.03807236  1
  Cl  Cl27  1  0.35544083  0.77413897  0.46192764  1
  O  O28  1  0.55324892  0.62907726  0.23902743  1
  O  O29  1  0.92417167  0.37092274  0.26097257  1
  O  O30  1  0.44675108  0.37092274  0.76097257  1
  O  O31  1  0.07582833  0.62907726  0.73902743  1
  O  O32  1  0.88217870  0.87268870  0.18789268  1
  O  O33  1  0.00949000  0.12731130  0.31210732  1
  O  O34  1  0.11782130  0.12731130  0.81210732  1
  O  O35  1  0.99051000  0.87268870  0.68789268  1
  O  O36  1  0.06665634  0.61200024  0.22536520  1
  O  O37  1  0.45465610  0.38799976  0.27463480  1
  O  O38  1  0.93334366  0.38799976  0.77463480  1
  O  O39  1  0.54534390  0.61200024  0.72536520  1
  O  O40  1  0.26229045  0.99713775  0.10705717  1
  O  O41  1  0.26515270  0.00286225  0.39294283  1
  O  O42  1  0.73770955  0.00286225  0.89294283  1
  O  O43  1  0.73484730  0.99713775  0.60705717  1
  O  O44  1  0.79755321  0.01308393  0.08611300  1
  O  O45  1  0.78446928  0.98691607  0.41388700  1
  O  O46  1  0.20244679  0.98691607  0.91388700  1
  O  O47  1  0.21553072  0.01308393  0.58611300  1
  O  O48  1  0.34357435  0.80217585  0.23934512  1
  O  O49  1  0.54139850  0.19782415  0.26065488  1
  O  O50  1  0.65642565  0.19782415  0.76065488  1
  O  O51  1  0.45860150  0.80217585  0.73934512  1
