# generated using pymatgen
data_Rb2MnH12(SeO7)2
_symmetry_space_group_name_H-M   'P 1'
_cell_length_a   6.50574642
_cell_length_b   9.57620237
_cell_length_c   13.01427642
_cell_angle_alpha   90.00000000
_cell_angle_beta   90.00000000
_cell_angle_gamma   105.08848100
_symmetry_Int_Tables_number   1
_chemical_formula_structural   Rb2MnH12(SeO7)2
_chemical_formula_sum   'Rb4 Mn2 H24 Se4 O28'
_cell_volume   782.84176985
_cell_formula_units_Z   2
loop_
 _symmetry_equiv_pos_site_id
 _symmetry_equiv_pos_as_xyz
  1  'x, y, z'
loop_
 _atom_site_type_symbol
 _atom_site_label
 _atom_site_symmetry_multiplicity
 _atom_site_fract_x
 _atom_site_fract_y
 _atom_site_fract_z
 _atom_site_occupancy
  Rb  Rb0  1  0.34452150  0.62592406  0.14860782  1
  Rb  Rb1  1  0.65547850  0.87407594  0.64860782  1
  Rb  Rb2  1  0.65547850  0.37407594  0.85139218  1
  Rb  Rb3  1  0.34452150  0.12592406  0.35139218  1
  Mn  Mn4  1  -0.00000000  0.50000000  0.50000000  1
  Mn  Mn5  1  -0.00000000  0.00000000  0.00000000  1
  H  H6  1  0.32765457  0.71497842  0.40664663  1
  H  H7  1  0.67234543  0.78502158  0.90664663  1
  H  H8  1  0.67234543  0.28502158  0.59335337  1
  H  H9  1  0.32765457  0.21497842  0.09335337  1
  H  H10  1  0.10560126  0.74607311  0.37106609  1
  H  H11  1  0.89439874  0.75392689  0.87106609  1
  H  H12  1  0.89439874  0.25392689  0.62893391  1
  H  H13  1  0.10560126  0.24607311  0.12893391  1
  H  H14  1  0.92488395  0.22857861  0.39831487  1
  H  H15  1  0.07511605  0.27142139  0.89831487  1
  H  H16  1  0.07511605  0.77142139  0.60168513  1
  H  H17  1  0.92488395  0.72857861  0.10168513  1
  H  H18  1  0.99143858  0.35015274  0.31246656  1
  H  H19  1  0.00856142  0.14984726  0.81246656  1
  H  H20  1  0.00856142  0.64984726  0.68753344  1
  H  H21  1  0.99143858  0.85015274  0.18753344  1
  H  H22  1  0.34013980  0.39644101  0.56301740  1
  H  H23  1  0.65986020  0.10355899  0.06301740  1
  H  H24  1  0.65986020  0.60355899  0.43698260  1
  H  H25  1  0.34013980  0.89644101  0.93698260  1
  H  H26  1  0.33438387  0.52287325  0.64142355  1
  H  H27  1  0.66561613  0.97712675  0.14142355  1
  H  H28  1  0.66561613  0.47712675  0.35857645  1
  H  H29  1  0.33438387  0.02287325  0.85857645  1
  Se  Se30  1  0.73189020  0.90357156  0.35773313  1
  Se  Se31  1  0.26810980  0.59642844  0.85773313  1
  Se  Se32  1  0.26810980  0.09642844  0.64226687  1
  Se  Se33  1  0.73189020  0.40357156  0.14226687  1
  O  O34  1  0.57394302  0.91081935  0.25669018  1
  O  O35  1  0.42605698  0.58918065  0.75669018  1
  O  O36  1  0.42605698  0.08918065  0.74330982  1
  O  O37  1  0.57394302  0.41081935  0.24330982  1
  O  O38  1  0.77525624  0.05639999  0.42554311  1
  O  O39  1  0.22474376  0.44360001  0.92554311  1
  O  O40  1  0.22474376  0.94360001  0.57445689  1
  O  O41  1  0.77525624  0.55639999  0.07445689  1
  O  O42  1  0.59953580  0.76780594  0.43461805  1
  O  O43  1  0.40046420  0.73219406  0.93461805  1
  O  O44  1  0.40046420  0.23219406  0.56538195  1
  O  O45  1  0.59953580  0.26780594  0.06538195  1
  O  O46  1  0.96329983  0.87386856  0.31785112  1
  O  O47  1  0.03670017  0.62613144  0.81785112  1
  O  O48  1  0.03670017  0.12613144  0.68214888  1
  O  O49  1  0.96329983  0.37386856  0.18214888  1
  O  O50  1  0.17593529  0.66929215  0.38856579  1
  O  O51  1  0.82406471  0.83070785  0.88856579  1
  O  O52  1  0.82406471  0.33070785  0.61143421  1
  O  O53  1  0.17593529  0.16929215  0.11143421  1
  O  O54  1  0.01703962  0.32810590  0.38564159  1
  O  O55  1  0.98296038  0.17189410  0.88564159  1
  O  O56  1  0.98296038  0.67189410  0.61435841  1
  O  O57  1  0.01703962  0.82810590  0.11435841  1
  O  O58  1  0.29611597  0.48804508  0.56992242  1
  O  O59  1  0.70388403  0.01195492  0.06992242  1
  O  O60  1  0.70388403  0.51195492  0.43007758  1
  O  O61  1  0.29611597  0.98804508  0.93007758  1
