# generated using pymatgen
data_H12PdC2(N3Cl2)2
_symmetry_space_group_name_H-M   'P 1'
_cell_length_a   11.06553615
_cell_length_b   11.06553615
_cell_length_c   11.34379427
_cell_angle_alpha   90.00000000
_cell_angle_beta   90.00000000
_cell_angle_gamma   90.00000000
_symmetry_Int_Tables_number   1
_chemical_formula_structural   H12PdC2(N3Cl2)2
_chemical_formula_sum   'H48 Pd4 C8 N24 Cl16'
_cell_volume   1389.00325738
_cell_formula_units_Z   4
loop_
 _symmetry_equiv_pos_site_id
 _symmetry_equiv_pos_as_xyz
  1  'x, y, z'
loop_
 _atom_site_type_symbol
 _atom_site_label
 _atom_site_symmetry_multiplicity
 _atom_site_fract_x
 _atom_site_fract_y
 _atom_site_fract_z
 _atom_site_occupancy
  H  H0  1  0.59462183  0.28028744  0.44517935  1
  H  H1  1  0.90537817  0.21971256  0.44517935  1
  H  H2  1  0.78028744  0.40537817  0.94517935  1
  H  H3  1  0.71971256  0.09462183  0.94517935  1
  H  H4  1  0.40537817  0.71971256  0.55482065  1
  H  H5  1  0.09462183  0.78028744  0.55482065  1
  H  H6  1  0.21971256  0.59462183  0.05482065  1
  H  H7  1  0.28028744  0.90537817  0.05482065  1
  H  H8  1  0.59150107  0.37144581  0.31833827  1
  H  H9  1  0.90849893  0.12855419  0.31833827  1
  H  H10  1  0.87144581  0.40849893  0.81833827  1
  H  H11  1  0.62855419  0.09150107  0.81833827  1
  H  H12  1  0.40849893  0.62855419  0.68166173  1
  H  H13  1  0.09150107  0.87144581  0.68166173  1
  H  H14  1  0.12855419  0.59150107  0.18166173  1
  H  H15  1  0.37144581  0.90849893  0.18166173  1
  H  H16  1  0.30599195  0.50279974  0.38676628  1
  H  H17  1  0.19400805  0.99720026  0.38676628  1
  H  H18  1  0.00279974  0.69400805  0.88676628  1
  H  H19  1  0.49720026  0.80599195  0.88676628  1
  H  H20  1  0.69400805  0.49720026  0.61323372  1
  H  H21  1  0.80599195  0.00279974  0.61323372  1
  H  H22  1  0.99720026  0.30599195  0.11323372  1
  H  H23  1  0.50279974  0.19400805  0.11323372  1
  H  H24  1  0.42748024  0.50368482  0.28945722  1
  H  H25  1  0.07251976  0.99631518  0.28945722  1
  H  H26  1  0.00368482  0.57251976  0.78945722  1
  H  H27  1  0.49631518  0.92748024  0.78945722  1
  H  H28  1  0.57251976  0.49631518  0.71054278  1
  H  H29  1  0.92748024  0.00368482  0.71054278  1
  H  H30  1  0.99631518  0.42748024  0.21054278  1
  H  H31  1  0.50368482  0.07251976  0.21054278  1
  H  H32  1  0.31222819  0.37767257  0.55569217  1
  H  H33  1  0.18777181  0.12232743  0.55569217  1
  H  H34  1  0.87767257  0.68777181  0.05569217  1
  H  H35  1  0.62232743  0.81222819  0.05569217  1
  H  H36  1  0.68777181  0.62232743  0.44430783  1
  H  H37  1  0.81222819  0.87767257  0.44430783  1
  H  H38  1  0.12232743  0.31222819  0.94430783  1
  H  H39  1  0.37767257  0.18777181  0.94430783  1
  H  H40  1  0.43604109  0.28103036  0.57592973  1
  H  H41  1  0.06395891  0.21896964  0.57592973  1
  H  H42  1  0.78103036  0.56395891  0.07592973  1
  H  H43  1  0.71896964  0.93604109  0.07592973  1
  H  H44  1  0.56395891  0.71896964  0.42407027  1
  H  H45  1  0.93604109  0.78103036  0.42407027  1
  H  H46  1  0.21896964  0.43604109  0.92407027  1
  H  H47  1  0.28103036  0.06395891  0.92407027  1
  Pd  Pd48  1  0.50000000  -0.00000000  0.50000000  1
  Pd  Pd49  1  -0.00000000  0.50000000  0.50000000  1
  Pd  Pd50  1  0.50000000  0.50000000  -0.00000000  1
  Pd  Pd51  1  -0.00000000  -0.00000000  -0.00000000  1
  C  C52  1  0.44264288  0.38338649  0.42620918  1
  C  C53  1  0.05735712  0.11661351  0.42620918  1
  C  C54  1  0.88338649  0.55735712  0.92620918  1
  C  C55  1  0.61661351  0.94264288  0.92620918  1
  C  C56  1  0.55735712  0.61661351  0.57379082  1
  C  C57  1  0.94264288  0.88338649  0.57379082  1
  C  C58  1  0.11661351  0.44264288  0.07379082  1
  C  C59  1  0.38338649  0.05735712  0.07379082  1
  N  N60  1  0.55223933  0.34389607  0.39500291  1
  N  N61  1  0.94776067  0.15610393  0.39500291  1
  N  N62  1  0.84389607  0.44776067  0.89500291  1
  N  N63  1  0.65610393  0.05223933  0.89500291  1
  N  N64  1  0.44776067  0.65610393  0.60499709  1
  N  N65  1  0.05223933  0.84389607  0.60499709  1
  N  N66  1  0.15610393  0.55223933  0.10499709  1
  N  N67  1  0.34389607  0.94776067  0.10499709  1
  N  N68  1  0.38415450  0.46354309  0.35848808  1
  N  N69  1  0.11584550  0.03645691  0.35848808  1
  N  N70  1  0.96354309  0.61584550  0.85848808  1
  N  N71  1  0.53645691  0.88415450  0.85848808  1
  N  N72  1  0.61584550  0.53645691  0.64151192  1
  N  N73  1  0.88415450  0.96354309  0.64151192  1
  N  N74  1  0.03645691  0.38415450  0.14151192  1
  N  N75  1  0.46354309  0.11584550  0.14151192  1
  N  N76  1  0.39119798  0.34168831  0.52485186  1
  N  N77  1  0.10880202  0.15831169  0.52485186  1
  N  N78  1  0.84168831  0.60880202  0.02485186  1
  N  N79  1  0.65831169  0.89119798  0.02485186  1
  N  N80  1  0.60880202  0.65831169  0.47514814  1
  N  N81  1  0.89119798  0.84168831  0.47514814  1
  N  N82  1  0.15831169  0.39119798  0.97514814  1
  N  N83  1  0.34168831  0.10880202  0.97514814  1
  Cl  Cl84  1  0.64551066  0.97890122  0.35283460  1
  Cl  Cl85  1  0.85448934  0.52109878  0.35283460  1
  Cl  Cl86  1  0.47890122  0.35448934  0.85283460  1
  Cl  Cl87  1  0.02109878  0.14551066  0.85283460  1
  Cl  Cl88  1  0.35448934  0.02109878  0.64716540  1
  Cl  Cl89  1  0.14551066  0.47890122  0.64716540  1
  Cl  Cl90  1  0.52109878  0.64551066  0.14716540  1
  Cl  Cl91  1  0.97890122  0.85448934  0.14716540  1
  Cl  Cl92  1  0.37428732  0.86532809  0.39958213  1
  Cl  Cl93  1  0.12571268  0.63467191  0.39958213  1
  Cl  Cl94  1  0.36532809  0.62571268  0.89958213  1
  Cl  Cl95  1  0.13467191  0.87428732  0.89958213  1
  Cl  Cl96  1  0.62571268  0.13467191  0.60041787  1
  Cl  Cl97  1  0.87428732  0.36532809  0.60041787  1
  Cl  Cl98  1  0.63467191  0.37428732  0.10041787  1
  Cl  Cl99  1  0.86532809  0.12571268  0.10041787  1
