# generated using pymatgen
data_K2EuSi4O10F
_symmetry_space_group_name_H-M   'P 1'
_cell_length_a   8.69532686
_cell_length_b   11.88809517
_cell_length_c   12.01798133
_cell_angle_alpha   113.23521000
_cell_angle_beta   90.00000000
_cell_angle_gamma   90.00000000
_symmetry_Int_Tables_number   1
_chemical_formula_structural   K2EuSi4O10F
_chemical_formula_sum   'K8 Eu4 Si16 O40 F4'
_cell_volume   1141.54934503
_cell_formula_units_Z   4
loop_
 _symmetry_equiv_pos_site_id
 _symmetry_equiv_pos_as_xyz
  1  'x, y, z'
loop_
 _atom_site_type_symbol
 _atom_site_label
 _atom_site_symmetry_multiplicity
 _atom_site_fract_x
 _atom_site_fract_y
 _atom_site_fract_z
 _atom_site_occupancy
  K  K0  1  0.75000000  0.94223183  0.55509432  1
  K  K1  1  0.25000000  0.05776817  0.44490568  1
  K  K2  1  0.75000000  0.41165456  0.91962672  1
  K  K3  1  0.25000000  0.58834544  0.08037328  1
  K  K4  1  0.75000000  0.49140786  0.52848562  1
  K  K5  1  0.25000000  0.50859214  0.47151438  1
  K  K6  1  0.75000000  0.03258754  0.96571001  1
  K  K7  1  0.25000000  0.96741246  0.03428999  1
  Eu  Eu8  1  0.49462568  0.78941754  0.71144091  1
  Eu  Eu9  1  0.99462568  0.21058246  0.28855909  1
  Eu  Eu10  1  0.50537432  0.21058246  0.28855909  1
  Eu  Eu11  1  0.00537432  0.78941754  0.71144091  1
  Si  Si12  1  0.57240707  0.71974634  0.96829153  1
  Si  Si13  1  0.07240707  0.28025366  0.03170847  1
  Si  Si14  1  0.42759293  0.28025366  0.03170847  1
  Si  Si15  1  0.92759293  0.71974634  0.96829153  1
  Si  Si16  1  0.42906070  0.51048426  0.75750495  1
  Si  Si17  1  0.92906070  0.48951574  0.24249505  1
  Si  Si18  1  0.57093930  0.48951574  0.24249505  1
  Si  Si19  1  0.07093930  0.51048426  0.75750495  1
  Si  Si20  1  0.57203789  0.25219083  0.62074220  1
  Si  Si21  1  0.07203789  0.74780917  0.37925780  1
  Si  Si22  1  0.42796211  0.74780917  0.37925780  1
  Si  Si23  1  0.92796211  0.25219083  0.62074220  1
  Si  Si24  1  0.56502814  0.88829844  0.23507303  1
  Si  Si25  1  0.06502814  0.11170156  0.76492697  1
  Si  Si26  1  0.43497186  0.11170156  0.76492697  1
  Si  Si27  1  0.93497186  0.88829844  0.23507303  1
  O  O28  1  0.46444526  0.00693399  0.25010453  1
  O  O29  1  0.96444526  0.99306601  0.74989547  1
  O  O30  1  0.53555474  0.99306601  0.74989547  1
  O  O31  1  0.03555474  0.00693399  0.25010453  1
  O  O32  1  0.55316830  0.81935119  0.91034104  1
  O  O33  1  0.05316830  0.18064881  0.08965896  1
  O  O34  1  0.44683170  0.18064881  0.08965896  1
  O  O35  1  0.94683170  0.81935119  0.91034104  1
  O  O36  1  0.46361882  0.58206446  0.67112957  1
  O  O37  1  0.96361882  0.41793554  0.32887043  1
  O  O38  1  0.53638118  0.41793554  0.32887043  1
  O  O39  1  0.03638118  0.58206446  0.67112957  1
  O  O40  1  0.54571414  0.24874788  0.48838993  1
  O  O41  1  0.04571414  0.75125212  0.51161007  1
  O  O42  1  0.45428586  0.75125212  0.51161007  1
  O  O43  1  0.95428586  0.24874788  0.48838993  1
  O  O44  1  0.75000000  0.66735936  0.96344492  1
  O  O45  1  0.25000000  0.33264064  0.03655508  1
  O  O46  1  0.51396468  0.77018932  0.11083605  1
  O  O47  1  0.01396468  0.22981068  0.88916395  1
  O  O48  1  0.48603532  0.22981068  0.88916395  1
  O  O49  1  0.98603532  0.77018932  0.11083605  1
  O  O50  1  0.46507993  0.59524985  0.90260067  1
  O  O51  1  0.96507993  0.40475015  0.09739933  1
  O  O52  1  0.53492007  0.40475015  0.09739933  1
  O  O53  1  0.03492007  0.59524985  0.90260067  1
  O  O54  1  0.54139030  0.38986313  0.72725157  1
  O  O55  1  0.04139030  0.61013687  0.27274843  1
  O  O56  1  0.45860970  0.61013687  0.27274843  1
  O  O57  1  0.95860970  0.38986313  0.72725157  1
  O  O58  1  0.25000000  0.46267096  0.75096356  1
  O  O59  1  0.75000000  0.53732904  0.24903644  1
  O  O60  1  0.53763405  0.84718916  0.35052992  1
  O  O61  1  0.03763405  0.15281084  0.64947008  1
  O  O62  1  0.46236595  0.15281084  0.64947008  1
  O  O63  1  0.96236595  0.84718916  0.35052992  1
  O  O64  1  0.75000000  0.91163647  0.22847304  1
  O  O65  1  0.25000000  0.08836353  0.77152696  1
  O  O66  1  0.75000000  0.21670044  0.64596653  1
  O  O67  1  0.25000000  0.78329956  0.35403347  1
  F  F68  1  0.25000000  0.82739967  0.78335742  1
  F  F69  1  0.75000000  0.17260033  0.21664258  1
  F  F70  1  0.75000000  0.75193137  0.65674848  1
  F  F71  1  0.25000000  0.24806863  0.34325152  1
