# generated using pymatgen
data_Er2B6Os
_symmetry_space_group_name_H-M   'P 1'
_cell_length_a   3.63734092
_cell_length_b   9.11342821
_cell_length_c   11.48448297
_cell_angle_alpha   90.00000000
_cell_angle_beta   90.00000000
_cell_angle_gamma   90.00000000
_symmetry_Int_Tables_number   1
_chemical_formula_structural   Er2B6Os
_chemical_formula_sum   'Er8 B24 Os4'
_cell_volume   380.69505300
_cell_formula_units_Z   4
loop_
 _symmetry_equiv_pos_site_id
 _symmetry_equiv_pos_as_xyz
  1  'x, y, z'
loop_
 _atom_site_type_symbol
 _atom_site_label
 _atom_site_symmetry_multiplicity
 _atom_site_fract_x
 _atom_site_fract_y
 _atom_site_fract_z
 _atom_site_occupancy
  Er  Er0  1  -0.00000000  0.32149182  0.41383096  1
  Er  Er1  1  -0.00000000  0.67850818  0.58616904  1
  Er  Er2  1  -0.00000000  0.82149182  0.08616904  1
  Er  Er3  1  0.00000000  0.17850818  0.91383096  1
  Er  Er4  1  -0.00000000  0.94530456  0.37329931  1
  Er  Er5  1  -0.00000000  0.05469544  0.62670069  1
  Er  Er6  1  0.00000000  0.44530456  0.12670069  1
  Er  Er7  1  0.00000000  0.55469544  0.87329931  1
  B  B8  1  0.50000000  0.55421170  0.43361510  1
  B  B9  1  0.50000000  0.44578830  0.56638490  1
  B  B10  1  0.50000000  0.05421170  0.06638490  1
  B  B11  1  0.50000000  0.94578830  0.93361510  1
  B  B12  1  0.50000000  0.74921783  0.42085150  1
  B  B13  1  0.50000000  0.25078217  0.57914850  1
  B  B14  1  0.50000000  0.24921783  0.07914850  1
  B  B15  1  0.50000000  0.75078217  0.92085150  1
  B  B16  1  0.50000000  0.79233893  0.26709181  1
  B  B17  1  0.50000000  0.20766107  0.73290819  1
  B  B18  1  0.50000000  0.29233893  0.23290819  1
  B  B19  1  0.50000000  0.70766107  0.76709181  1
  B  B20  1  0.50000000  0.63269168  0.18574688  1
  B  B21  1  0.50000000  0.36730832  0.81425312  1
  B  B22  1  0.50000000  0.13269168  0.31425312  1
  B  B23  1  0.50000000  0.86730832  0.68574688  1
  B  B24  1  0.50000000  0.98401012  0.21282800  1
  B  B25  1  0.50000000  0.01598988  0.78717200  1
  B  B26  1  0.50000000  0.48401012  0.28717200  1
  B  B27  1  0.50000000  0.51598988  0.71282800  1
  B  B28  1  0.50000000  0.60973987  0.03063447  1
  B  B29  1  0.50000000  0.39026013  0.96936553  1
  B  B30  1  0.50000000  0.10973987  0.46936553  1
  B  B31  1  0.50000000  0.89026013  0.53063447  1
  Os  Os32  1  -0.00000000  0.63840844  0.32160836  1
  Os  Os33  1  -0.00000000  0.36159156  0.67839164  1
  Os  Os34  1  0.00000000  0.13840844  0.17839164  1
  Os  Os35  1  0.00000000  0.86159156  0.82160836  1
