# generated using pymatgen
data_V2Co3TePb3O14
_symmetry_space_group_name_H-M   'P 1'
_cell_length_a   5.28148508
_cell_length_b   15.19193103
_cell_length_c   26.23218433
_cell_angle_alpha   90.00000000
_cell_angle_beta   90.00000000
_cell_angle_gamma   89.98220385
_symmetry_Int_Tables_number   1
_chemical_formula_structural   V2Co3TePb3O14
_chemical_formula_sum   'V12 Co18 Te6 Pb18 O84'
_cell_volume   2104.76431401
_cell_formula_units_Z   6
loop_
 _symmetry_equiv_pos_site_id
 _symmetry_equiv_pos_as_xyz
  1  'x, y, z'
loop_
 _atom_site_type_symbol
 _atom_site_label
 _atom_site_symmetry_multiplicity
 _atom_site_fract_x
 _atom_site_fract_y
 _atom_site_fract_z
 _atom_site_occupancy
  V  V0  1  0.45595919  0.83267613  0.16369144  1
  V  V1  1  0.54404081  0.16732387  0.16369144  1
  V  V2  1  0.54697832  0.66423659  0.66606913  1
  V  V3  1  0.45302168  0.33576341  0.66606913  1
  V  V4  1  0.44676024  0.83742367  0.82701937  1
  V  V5  1  0.55323976  0.16257633  0.82701937  1
  V  V6  1  0.53889771  0.66722802  0.32655890  1
  V  V7  1  0.46110229  0.33277198  0.32655890  1
  V  V8  1  0.49162541  0.82690790  0.49782807  1
  V  V9  1  0.50837459  0.17309210  0.49782807  1
  V  V10  1  0.54830958  0.67265898  0.99510913  1
  V  V11  1  0.45169042  0.32734102  0.99510913  1
  Co  Co12  1  0.50000000  -0.00000000  0.57522035  1
  Co  Co13  1  0.50000000  0.50000000  0.07849547  1
  Co  Co14  1  0.50000000  -0.00000000  0.91597259  1
  Co  Co15  1  0.50000000  0.50000000  0.41758816  1
  Co  Co16  1  0.50000000  -0.00000000  0.25298521  1
  Co  Co17  1  0.50000000  0.50000000  0.75417227  1
  Co  Co18  1  0.50080626  0.88126004  0.03778094  1
  Co  Co19  1  0.49919374  0.11873996  0.03778094  1
  Co  Co20  1  0.48465596  0.38220347  0.54071630  1
  Co  Co21  1  0.51534404  0.61779653  0.54071630  1
  Co  Co22  1  0.49345451  0.88078595  0.69827266  1
  Co  Co23  1  0.50654549  0.11921405  0.69827266  1
  Co  Co24  1  0.49570370  0.38133007  0.19941278  1
  Co  Co25  1  0.50429630  0.61866993  0.19941278  1
  Co  Co26  1  0.50998968  0.87375820  0.37296063  1
  Co  Co27  1  0.49001032  0.12624180  0.37296063  1
  Co  Co28  1  0.51163448  0.37507876  0.86999464  1
  Co  Co29  1  0.48836552  0.62492124  0.86999464  1
  Te  Te30  1  0.00000000  -0.00000000  0.65448459  1
  Te  Te31  1  0.00000000  0.50000000  0.15659627  1
  Te  Te32  1  0.00000000  -0.00000000  0.99800877  1
  Te  Te33  1  0.00000000  0.50000000  0.49320990  1
  Te  Te34  1  0.00000000  -0.00000000  0.33761068  1
  Te  Te35  1  0.00000000  0.50000000  0.83362680  1
  Pb  Pb36  1  0.00000000  -0.00000000  0.47357358  1
  Pb  Pb37  1  0.00000000  0.50000000  0.96296997  1
  Pb  Pb38  1  0.00000000  -0.00000000  0.78636483  1
  Pb  Pb39  1  0.00000000  0.50000000  0.28655055  1
  Pb  Pb40  1  0.00000000  -0.00000000  0.12865853  1
  Pb  Pb41  1  0.00000000  0.50000000  0.62526698  1
  Pb  Pb42  1  0.00507129  0.70238630  0.09673086  1
  Pb  Pb43  1  0.99492871  0.29761370  0.09673086  1
  Pb  Pb44  1  0.01226804  0.20620794  0.59705214  1
  Pb  Pb45  1  0.98773196  0.79379206  0.59705214  1
  Pb  Pb46  1  0.99523671  0.69527719  0.76706663  1
  Pb  Pb47  1  0.00476329  0.30472281  0.76706663  1
  Pb  Pb48  1  0.99802468  0.19104944  0.26772707  1
  Pb  Pb49  1  0.00197532  0.80895056  0.26772707  1
  Pb  Pb50  1  0.98190574  0.69475748  0.42124568  1
  Pb  Pb51  1  0.01809426  0.30524252  0.42124568  1
  Pb  Pb52  1  0.99908207  0.19489708  0.93200325  1
  Pb  Pb53  1  0.00091793  0.80510292  0.93200325  1
  O  O54  1  0.78401331  0.95863090  0.71061353  1
  O  O55  1  0.21598669  0.04136910  0.71061353  1
  O  O56  1  0.78009530  0.10417418  0.64799497  1
  O  O57  1  0.21990470  0.89582582  0.64799497  1
  O  O58  1  0.78644808  0.93733431  0.60583542  1
  O  O59  1  0.21355192  0.06266569  0.60583542  1
  O  O60  1  0.78327519  0.45927023  0.21277558  1
  O  O61  1  0.21672481  0.54072977  0.21277558  1
  O  O62  1  0.78585314  0.60487299  0.15185930  1
  O  O63  1  0.21414686  0.39512701  0.15185930  1
  O  O64  1  0.78704291  0.43736340  0.10814061  1
  O  O65  1  0.21295709  0.56263660  0.10814061  1
  O  O66  1  0.78439805  0.95889608  0.05406065  1
  O  O67  1  0.21560195  0.04110392  0.05406065  1
  O  O68  1  0.78093573  0.93851134  0.94964925  1
  O  O69  1  0.21906427  0.06148866  0.94964925  1
  O  O70  1  0.78610455  0.10453191  0.99130610  1
  O  O71  1  0.21389545  0.89546809  0.99130610  1
  O  O72  1  0.78931925  0.45466479  0.54892923  1
  O  O73  1  0.21068075  0.54533521  0.54892923  1
  O  O74  1  0.77391124  0.60159622  0.48767384  1
  O  O75  1  0.22608876  0.39840378  0.48767384  1
  O  O76  1  0.79616819  0.43526016  0.44259661  1
  O  O77  1  0.20383181  0.56473984  0.44259661  1
  O  O78  1  0.77625621  0.95854904  0.39171446  1
  O  O79  1  0.22374379  0.04145096  0.39171446  1
  O  O80  1  0.79435208  0.10731213  0.33114833  1
  O  O81  1  0.20564792  0.89268787  0.33114833  1
  O  O82  1  0.78498803  0.94155151  0.28642867  1
  O  O83  1  0.21501197  0.05844849  0.28642867  1
  O  O84  1  0.78915642  0.45443022  0.88915020  1
  O  O85  1  0.21084358  0.54556978  0.88915020  1
  O  O86  1  0.78167502  0.60324402  0.82621265  1
  O  O87  1  0.21832498  0.39675598  0.82621265  1
  O  O88  1  0.78431714  0.43728918  0.78522790  1
  O  O89  1  0.21568286  0.56271082  0.78522790  1
  O  O90  1  0.77935223  0.83103327  0.16094844  1
  O  O91  1  0.22064777  0.16896673  0.16094844  1
  O  O92  1  0.32818900  0.86798911  0.10520912  1
  O  O93  1  0.67181100  0.13201089  0.10520912  1
  O  O94  1  0.34634025  0.90341152  0.21202040  1
  O  O95  1  0.65365975  0.09658848  0.21202040  1
  O  O96  1  0.33314386  0.72683023  0.17454069  1
  O  O97  1  0.66685614  0.27316977  0.17454069  1
  O  O98  1  0.22378365  0.66501836  0.66492526  1
  O  O99  1  0.77621635  0.33498164  0.66492526  1
  O  O100  1  0.66190219  0.59819495  0.71570975  1
  O  O101  1  0.33809781  0.40180505  0.71570975  1
  O  O102  1  0.66845120  0.77109704  0.67452086  1
  O  O103  1  0.33154880  0.22890296  0.67452086  1
  O  O104  1  0.67534895  0.62059969  0.60921537  1
  O  O105  1  0.32465105  0.37940031  0.60921537  1
  O  O106  1  0.76950596  0.83671526  0.82689518  1
  O  O107  1  0.23049404  0.16328474  0.82689518  1
  O  O108  1  0.32828847  0.90955992  0.87358094  1
  O  O109  1  0.67171153  0.09044008  0.87358094  1
  O  O110  1  0.32566849  0.73181676  0.84084405  1
  O  O111  1  0.67433151  0.26818324  0.84084405  1
  O  O112  1  0.32911179  0.86999691  0.76691977  1
  O  O113  1  0.67088821  0.13000309  0.76691977  1
  O  O114  1  0.21384413  0.67226256  0.32725711  1
  O  O115  1  0.78615587  0.32773744  0.32725711  1
  O  O116  1  0.65319322  0.59847404  0.37499160  1
  O  O117  1  0.34680678  0.40152596  0.37499160  1
  O  O118  1  0.67526174  0.77159335  0.33647897  1
  O  O119  1  0.32473826  0.22840665  0.33647897  1
  O  O120  1  0.65762219  0.62736281  0.26855086  1
  O  O121  1  0.34237781  0.37263719  0.26855086  1
  O  O122  1  0.81625153  0.83797447  0.49917808  1
  O  O123  1  0.18374847  0.16202553  0.49917808  1
  O  O124  1  0.34644270  0.92201780  0.52251515  1
  O  O125  1  0.65355730  0.07798220  0.52251515  1
  O  O126  1  0.39913780  0.74082300  0.53793329  1
  O  O127  1  0.60086220  0.25917700  0.53793329  1
  O  O128  1  0.39060325  0.80892498  0.43496079  1
  O  O129  1  0.60939675  0.19107502  0.43496079  1
  O  O130  1  0.22377767  0.67783414  0.99438644  1
  O  O131  1  0.77622233  0.32216586  0.99438644  1
  O  O132  1  0.66148868  0.59623298  0.03945391  1
  O  O133  1  0.33851132  0.40376702  0.03945391  1
  O  O134  1  0.68055508  0.77560358  0.01063962  1
  O  O135  1  0.31944492  0.22439642  0.01063962  1
  O  O136  1  0.66924888  0.64144641  0.93559970  1
  O  O137  1  0.33075112  0.35855359  0.93559970  1
