# generated using pymatgen
data_V9O22
_symmetry_space_group_name_H-M   'P 1'
_cell_length_a   9.71175619
_cell_length_b   5.61139632
_cell_length_c   13.97734213
_cell_angle_alpha   89.80075659
_cell_angle_beta   89.76506921
_cell_angle_gamma   90.37298461
_symmetry_Int_Tables_number   1
_chemical_formula_structural   V9O22
_chemical_formula_sum   'V18 O44'
_cell_volume   761.68918651
_cell_formula_units_Z   2
loop_
 _symmetry_equiv_pos_site_id
 _symmetry_equiv_pos_as_xyz
  1  'x, y, z'
loop_
 _atom_site_type_symbol
 _atom_site_label
 _atom_site_symmetry_multiplicity
 _atom_site_fract_x
 _atom_site_fract_y
 _atom_site_fract_z
 _atom_site_occupancy
  V  V0  1  0.00698706  0.97200178  0.85676089  1
  V  V1  1  0.01917122  0.51849335  0.49099858  1
  V  V2  1  0.16791782  0.50218984  0.21761416  1
  V  V3  1  0.22457152  0.24296588  0.00943505  1
  V  V4  1  0.27896629  0.21428961  0.51794215  1
  V  V5  1  0.33370545  0.00973982  0.78675770  1
  V  V6  1  0.49501528  0.50914437  0.86445621  1
  V  V7  1  0.48625052  0.50466313  0.36266028  1
  V  V8  1  0.50330439  0.47539269  0.64424874  1
  V  V9  1  0.50724424  0.96763989  0.01638695  1
  V  V10  1  0.52100530  0.48038200  0.14450705  1
  V  V11  1  0.66579597  0.98509639  0.27883534  1
  V  V12  1  0.72114437  0.75499648  0.49819219  1
  V  V13  1  0.77123103  0.27987672  0.97806631  1
  V  V14  1  0.83244111  0.51467768  0.71241642  1
  V  V15  1  0.97280248  0.98953129  0.13986405  1
  V  V16  1  0.99325089  0.00271687  0.63710713  1
  V  V17  1  0.01437449  0.02304274  0.35806262  1
  O  O18  1  0.07119437  0.75914696  0.58278188  1
  O  O19  1  0.07230212  0.75387962  0.91456262  1
  O  O20  1  0.07888968  0.23760194  0.25401194  1
  O  O21  1  0.08255007  0.76550233  0.25032036  1
  O  O22  1  0.08621965  0.25791382  0.57417216  1
  O  O23  1  0.09848135  0.23235243  0.92001519  1
  O  O24  1  0.16194778  0.51123733  0.42801058  1
  O  O25  1  0.15655755  0.01443355  0.75491828  1
  O  O26  1  0.15689774  0.02504001  0.08302148  1
  O  O27  1  0.16093301  0.01822829  0.42056068  1
  O  O28  1  0.17212346  0.48615535  0.09214520  1
  O  O29  1  0.32755022  0.00455082  0.59022673  1
  O  O30  1  0.34494933  0.48424247  0.92243528  1
  O  O31  1  0.33918022  0.47578402  0.58731271  1
  O  O32  1  0.33610670  0.02095992  0.91185585  1
  O  O33  1  0.34157515  0.48569332  0.24814634  1
  O  O34  1  0.40978142  0.23033185  0.06966156  1
  O  O35  1  0.40638962  0.25024290  0.42466816  1
  O  O36  1  0.41742752  0.74716375  0.75863430  1
  O  O37  1  0.41043235  0.73036796  0.41036835  1
  O  O38  1  0.42775265  0.74463340  0.08196726  1
  O  O39  1  0.42675958  0.27885183  0.75444912  1
  O  O40  1  0.57262110  0.23925344  0.24813622  1
  O  O41  1  0.56838272  0.75842805  0.91626791  1
  O  O42  1  0.57947929  0.71283074  0.24880545  1
  O  O43  1  0.58228819  0.26442886  0.58985632  1
  O  O44  1  0.59071409  0.26100371  0.92013486  1
  O  O45  1  0.58936296  0.74334066  0.58288602  1
  O  O46  1  0.65868927  0.51382436  0.74707730  1
  O  O47  1  0.65798460  0.00009631  0.07111590  1
  O  O48  1  0.65281375  0.51511864  0.41752434  1
  O  O49  1  0.66568557  0.46775795  0.07886637  1
  O  O50  1  0.67213867  0.98639259  0.40081107  1
  O  O51  1  0.83152268  0.49682130  0.91337662  1
  O  O52  1  0.84430701  0.00221322  0.57800597  1
  O  O53  1  0.84379307  0.02888666  0.91262828  1
  O  O54  1  0.83484023  0.52467647  0.58669214  1
  O  O55  1  0.84734857  0.99172813  0.25115357  1
  O  O56  1  0.90070176  0.23142769  0.07974510  1
  O  O57  1  0.91918756  0.74746669  0.42578525  1
  O  O58  1  0.91795346  0.75839786  0.08437782  1
  O  O59  1  0.92371740  0.79048793  0.74507817  1
  O  O60  1  0.93452125  0.25254070  0.41746714  1
  O  O61  1  0.92232884  0.25869461  0.73734731  1
