# generated using pymatgen
data_Y5(Ge5Rh2)2
_symmetry_space_group_name_H-M   'P 1'
_cell_length_a   4.31792596
_cell_length_b   13.10458797
_cell_length_c   13.10458797
_cell_angle_alpha   90.00000000
_cell_angle_beta   90.00000000
_cell_angle_gamma   90.00000000
_symmetry_Int_Tables_number   1
_chemical_formula_structural   Y5(Ge5Rh2)2
_chemical_formula_sum   'Y10 Ge20 Rh8'
_cell_volume   741.51840037
_cell_formula_units_Z   2
loop_
 _symmetry_equiv_pos_site_id
 _symmetry_equiv_pos_as_xyz
  1  'x, y, z'
loop_
 _atom_site_type_symbol
 _atom_site_label
 _atom_site_symmetry_multiplicity
 _atom_site_fract_x
 _atom_site_fract_y
 _atom_site_fract_z
 _atom_site_occupancy
  Y  Y0  1  -0.00000000  0.50000000  0.50000000  1
  Y  Y1  1  -0.00000000  0.00000000  0.00000000  1
  Y  Y2  1  0.50000000  0.17571926  0.67571926  1
  Y  Y3  1  0.50000000  0.82428074  0.32428074  1
  Y  Y4  1  0.50000000  0.32428074  0.17571926  1
  Y  Y5  1  0.50000000  0.67571926  0.82428074  1
  Y  Y6  1  0.50000000  0.38664789  0.88664789  1
  Y  Y7  1  0.50000000  0.61335211  0.11335211  1
  Y  Y8  1  0.50000000  0.11335211  0.38664789  1
  Y  Y9  1  0.50000000  0.88664789  0.61335211  1
  Ge  Ge10  1  -0.00000000  0.06629060  0.56629060  1
  Ge  Ge11  1  0.00000000  0.93370940  0.43370940  1
  Ge  Ge12  1  -0.00000000  0.43370940  0.06629060  1
  Ge  Ge13  1  0.00000000  0.56629060  0.93370940  1
  Ge  Ge14  1  0.00000000  0.69990661  0.66113503  1
  Ge  Ge15  1  -0.00000000  0.30009339  0.33886497  1
  Ge  Ge16  1  0.00000000  0.80009339  0.16113503  1
  Ge  Ge17  1  -0.00000000  0.19990661  0.83886497  1
  Ge  Ge18  1  0.00000000  0.66113503  0.30009339  1
  Ge  Ge19  1  -0.00000000  0.33886497  0.69990661  1
  Ge  Ge20  1  -0.00000000  0.16113503  0.19990661  1
  Ge  Ge21  1  0.00000000  0.83886497  0.80009339  1
  Ge  Ge22  1  0.50000000  0.50302945  0.65940221  1
  Ge  Ge23  1  0.50000000  0.49697055  0.34059779  1
  Ge  Ge24  1  0.50000000  0.99697055  0.15940221  1
  Ge  Ge25  1  0.50000000  0.00302945  0.84059779  1
  Ge  Ge26  1  0.50000000  0.65940221  0.49697055  1
  Ge  Ge27  1  0.50000000  0.34059779  0.50302945  1
  Ge  Ge28  1  0.50000000  0.15940221  0.00302945  1
  Ge  Ge29  1  0.50000000  0.84059779  0.99697055  1
  Rh  Rh30  1  0.00000000  0.52199855  0.74567187  1
  Rh  Rh31  1  -0.00000000  0.47800145  0.25432813  1
  Rh  Rh32  1  0.00000000  0.97800145  0.24567187  1
  Rh  Rh33  1  -0.00000000  0.02199855  0.75432813  1
  Rh  Rh34  1  -0.00000000  0.74567187  0.47800145  1
  Rh  Rh35  1  0.00000000  0.25432813  0.52199855  1
  Rh  Rh36  1  0.00000000  0.24567187  0.02199855  1
  Rh  Rh37  1  -0.00000000  0.75432813  0.97800145  1
