# generated using pymatgen
data_K9Y3Si12(O16F)2
_symmetry_space_group_name_H-M   'P 1'
_cell_length_a   6.93545477
_cell_length_b   11.52128664
_cell_length_c   11.53353914
_cell_angle_alpha   87.86343453
_cell_angle_beta   89.74344648
_cell_angle_gamma   80.44703368
_symmetry_Int_Tables_number   1
_chemical_formula_structural   K9Y3Si12(O16F)2
_chemical_formula_sum   'K9 Y3 Si12 O32 F2'
_cell_volume   908.17838028
_cell_formula_units_Z   1
loop_
 _symmetry_equiv_pos_site_id
 _symmetry_equiv_pos_as_xyz
  1  'x, y, z'
loop_
 _atom_site_type_symbol
 _atom_site_label
 _atom_site_symmetry_multiplicity
 _atom_site_fract_x
 _atom_site_fract_y
 _atom_site_fract_z
 _atom_site_occupancy
  K  K0  1  0.73377302  0.38634280  0.98341165  1
  K  K1  1  0.26622698  0.61365720  0.01658835  1
  K  K2  1  0.82875974  0.19406348  0.22382847  1
  K  K3  1  0.17124026  0.80593652  0.77617153  1
  K  K4  1  0.83712853  0.15489386  0.78591753  1
  K  K5  1  0.16287147  0.84510614  0.21408247  1
  K  K6  1  0.50000000  -0.00000000  0.00000000  1
  K  K7  1  0.97802598  0.66931766  0.48932723  1
  K  K8  1  0.02197402  0.33068234  0.51067277  1
  Y  Y9  1  0.00000000  -0.00000000  0.50000000  1
  Y  Y10  1  0.51165586  0.51077549  0.66297057  1
  Y  Y11  1  0.48834414  0.48922451  0.33702943  1
  Si  Si12  1  0.44213759  0.76745145  0.48955408  1
  Si  Si13  1  0.55786241  0.23254855  0.51044592  1
  Si  Si14  1  0.66261409  0.86485948  0.68916528  1
  Si  Si15  1  0.33738591  0.13514052  0.31083472  1
  Si  Si16  1  0.34394339  0.09120863  0.69652515  1
  Si  Si17  1  0.65605661  0.90879137  0.30347485  1
  Si  Si18  1  0.31035670  0.30538515  0.84062843  1
  Si  Si19  1  0.68964330  0.69461485  0.15937157  1
  Si  Si20  1  0.01415467  0.51265611  0.74179944  1
  Si  Si21  1  0.98584533  0.48734389  0.25820056  1
  Si  Si22  1  0.71296675  0.66688641  0.87901399  1
  Si  Si23  1  0.28703325  0.33311359  0.12098601  1
  O  O24  1  0.47035730  0.62429961  0.48536120  1
  O  O25  1  0.52964270  0.37570039  0.51463880  1
  O  O26  1  0.50909615  0.79242898  0.62511826  1
  O  O27  1  0.49090385  0.20757102  0.37488174  1
  O  O28  1  0.60978440  0.81440355  0.40517291  1
  O  O29  1  0.39021560  0.18559645  0.59482709  1
  O  O30  1  0.22615535  0.83718882  0.46100845  1
  O  O31  1  0.77384465  0.16281118  0.53899155  1
  O  O32  1  0.85489690  0.87682684  0.61644389  1
  O  O33  1  0.14510310  0.12317316  0.38355611  1
  O  O34  1  0.71985228  0.79765151  0.81681514  1
  O  O35  1  0.28014772  0.20234849  0.18318486  1
  O  O36  1  0.54202098  0.99422209  0.72683103  1
  O  O37  1  0.45797902  0.00577791  0.27316897  1
  O  O38  1  0.30821032  0.16423996  0.81836914  1
  O  O39  1  0.69178968  0.83576004  0.18163086  1
  O  O40  1  0.15659881  0.03404028  0.66586141  1
  O  O41  1  0.84340119  0.96595972  0.33413859  1
  O  O42  1  0.09605100  0.37425733  0.79029066  1
  O  O43  1  0.90394900  0.62574267  0.20970934  1
  O  O44  1  0.30155418  0.31521171  0.98152128  1
  O  O45  1  0.69844582  0.68478829  0.01847872  1
  O  O46  1  0.49635939  0.35321683  0.78539230  1
  O  O47  1  0.50364061  0.64678317  0.21460770  1
  O  O48  1  0.83583347  0.50767603  0.65375179  1
  O  O49  1  0.16416653  0.49232397  0.34624821  1
  O  O50  1  0.18914484  0.57181816  0.68555385  1
  O  O51  1  0.81085516  0.42818184  0.31444615  1
  O  O52  1  0.93235394  0.58513677  0.86104356  1
  O  O53  1  0.06764606  0.41486323  0.13895644  1
  O  O54  1  0.53870823  0.60450009  0.83445136  1
  O  O55  1  0.46129177  0.39549991  0.16554864  1
  F  F56  1  0.75324802  0.15894360  0.00470326  1
  F  F57  1  0.24675198  0.84105640  0.99529674  1
