# generated using pymatgen
data_Li3MnP2(O3F2)2
_symmetry_space_group_name_H-M   'P 1'
_cell_length_a   6.45053361
_cell_length_b   7.52178255
_cell_length_c   7.74995347
_cell_angle_alpha   90.00000000
_cell_angle_beta   90.91696122
_cell_angle_gamma   90.00000000
_symmetry_Int_Tables_number   1
_chemical_formula_structural   Li3MnP2(O3F2)2
_chemical_formula_sum   'Li6 Mn2 P4 O12 F8'
_cell_volume   375.97579953
_cell_formula_units_Z   2
loop_
 _symmetry_equiv_pos_site_id
 _symmetry_equiv_pos_as_xyz
  1  'x, y, z'
loop_
 _atom_site_type_symbol
 _atom_site_label
 _atom_site_symmetry_multiplicity
 _atom_site_fract_x
 _atom_site_fract_y
 _atom_site_fract_z
 _atom_site_occupancy
  Li  Li0  1  0.25911471  0.23595823  0.82421723  1
  Li  Li1  1  0.74088529  0.73595823  0.67578277  1
  Li  Li2  1  0.74088529  0.76404177  0.17578277  1
  Li  Li3  1  0.25911471  0.26404177  0.32421723  1
  Li  Li4  1  0.50000000  0.50000000  0.00000000  1
  Li  Li5  1  0.50000000  -0.00000000  0.50000000  1
  Mn  Mn6  1  0.00000000  0.50000000  0.00000000  1
  Mn  Mn7  1  0.00000000  0.00000000  0.50000000  1
  P  P8  1  0.25096029  0.83919015  0.14025951  1
  P  P9  1  0.74903971  0.33919015  0.35974049  1
  P  P10  1  0.74903971  0.16080985  0.85974049  1
  P  P11  1  0.25096029  0.66080985  0.64025951  1
  O  O12  1  0.23478759  0.54135643  0.79826630  1
  O  O13  1  0.76521241  0.04135643  0.70173370  1
  O  O14  1  0.76521241  0.45864357  0.20173370  1
  O  O15  1  0.23478759  0.95864357  0.29826630  1
  O  O16  1  0.94878416  0.27421363  0.88324869  1
  O  O17  1  0.05121584  0.77421363  0.61675131  1
  O  O18  1  0.05121584  0.72578637  0.11675131  1
  O  O19  1  0.94878416  0.22578637  0.38324869  1
  O  O20  1  0.55114394  0.26340423  0.87936452  1
  O  O21  1  0.44885606  0.76340423  0.62063548  1
  O  O22  1  0.44885606  0.73659577  0.12063548  1
  O  O23  1  0.55114394  0.23659577  0.37936452  1
  F  F24  1  0.23137723  0.38862474  0.11027238  1
  F  F25  1  0.76862277  0.88862474  0.38972762  1
  F  F26  1  0.76862277  0.61137526  0.88972762  1
  F  F27  1  0.23137723  0.11137526  0.61027238  1
  F  F28  1  0.23804278  0.97293642  0.97904428  1
  F  F29  1  0.76195722  0.47293642  0.52095572  1
  F  F30  1  0.76195722  0.02706358  0.02095572  1
  F  F31  1  0.23804278  0.52706358  0.47904428  1
