# generated using pymatgen
data_HoCo5P3
_symmetry_space_group_name_H-M   'P 1'
_cell_length_a   3.63928404
_cell_length_b   10.26344427
_cell_length_c   11.70290095
_cell_angle_alpha   90.00000000
_cell_angle_beta   90.00000000
_cell_angle_gamma   90.00000000
_symmetry_Int_Tables_number   1
_chemical_formula_structural   HoCo5P3
_chemical_formula_sum   'Ho4 Co20 P12'
_cell_volume   437.12194554
_cell_formula_units_Z   4
loop_
 _symmetry_equiv_pos_site_id
 _symmetry_equiv_pos_as_xyz
  1  'x, y, z'
loop_
 _atom_site_type_symbol
 _atom_site_label
 _atom_site_symmetry_multiplicity
 _atom_site_fract_x
 _atom_site_fract_y
 _atom_site_fract_z
 _atom_site_occupancy
  Ho  Ho0  1  0.25000000  0.58299322  0.70296409  1
  Ho  Ho1  1  0.25000000  0.91700678  0.20296409  1
  Ho  Ho2  1  0.75000000  0.41700678  0.29703591  1
  Ho  Ho3  1  0.75000000  0.08299322  0.79703591  1
  Co  Co4  1  0.25000000  0.71624419  0.99022176  1
  Co  Co5  1  0.25000000  0.78375581  0.49022176  1
  Co  Co6  1  0.75000000  0.28375581  0.00977824  1
  Co  Co7  1  0.75000000  0.21624419  0.50977824  1
  Co  Co8  1  0.25000000  0.40665172  0.48757192  1
  Co  Co9  1  0.25000000  0.09334828  0.98757192  1
  Co  Co10  1  0.75000000  0.59334828  0.51242808  1
  Co  Co11  1  0.75000000  0.90665172  0.01242808  1
  Co  Co12  1  0.25000000  0.22092399  0.17627797  1
  Co  Co13  1  0.25000000  0.27907601  0.67627797  1
  Co  Co14  1  0.75000000  0.77907601  0.82372203  1
  Co  Co15  1  0.75000000  0.72092399  0.32372203  1
  Co  Co16  1  0.25000000  0.88263035  0.69810415  1
  Co  Co17  1  0.25000000  0.61736965  0.19810415  1
  Co  Co18  1  0.75000000  0.11736965  0.30189585  1
  Co  Co19  1  0.75000000  0.38263035  0.80189585  1
  Co  Co20  1  0.25000000  0.46737263  0.93172751  1
  Co  Co21  1  0.25000000  0.03262737  0.43172751  1
  Co  Co22  1  0.75000000  0.53262737  0.06827249  1
  Co  Co23  1  0.75000000  0.96737263  0.56827249  1
  P  P24  1  0.25000000  0.41840745  0.11220418  1
  P  P25  1  0.25000000  0.08159255  0.61220418  1
  P  P26  1  0.75000000  0.58159255  0.88779582  1
  P  P27  1  0.75000000  0.91840745  0.38779582  1
  P  P28  1  0.25000000  0.27042176  0.86988932  1
  P  P29  1  0.25000000  0.22957824  0.36988932  1
  P  P30  1  0.75000000  0.72957824  0.13011068  1
  P  P31  1  0.75000000  0.77042176  0.63011068  1
  P  P32  1  0.25000000  0.60151441  0.39095344  1
  P  P33  1  0.25000000  0.89848559  0.89095344  1
  P  P34  1  0.75000000  0.39848559  0.60904656  1
  P  P35  1  0.75000000  0.10151441  0.10904656  1
