# generated using pymatgen
data_SrV2TeO8
_symmetry_space_group_name_H-M   'P 1'
_cell_length_a   10.33801510
_cell_length_b   11.32277325
_cell_length_c   14.16198070
_cell_angle_alpha   84.00659259
_cell_angle_beta   70.67202133
_cell_angle_gamma   72.59645299
_symmetry_Int_Tables_number   1
_chemical_formula_structural   SrV2TeO8
_chemical_formula_sum   'Sr8 V16 Te8 O64'
_cell_volume   1492.66218456
_cell_formula_units_Z   8
loop_
 _symmetry_equiv_pos_site_id
 _symmetry_equiv_pos_as_xyz
  1  'x, y, z'
loop_
 _atom_site_type_symbol
 _atom_site_label
 _atom_site_symmetry_multiplicity
 _atom_site_fract_x
 _atom_site_fract_y
 _atom_site_fract_z
 _atom_site_occupancy
  Sr  Sr0  1  0.57226502  0.35056256  0.87152465  1
  Sr  Sr1  1  0.42773498  0.64943744  0.12847535  1
  Sr  Sr2  1  0.93139184  0.18497937  0.43256484  1
  Sr  Sr3  1  0.06860816  0.81502063  0.56743516  1
  Sr  Sr4  1  0.93393890  0.17295481  0.93370178  1
  Sr  Sr5  1  0.06606110  0.82704519  0.06629822  1
  Sr  Sr6  1  0.44275104  0.64228574  0.63370539  1
  Sr  Sr7  1  0.55724896  0.35771426  0.36629461  1
  V  V8  1  0.48045703  0.76602278  0.37853482  1
  V  V9  1  0.51954297  0.23397722  0.62146518  1
  V  V10  1  0.65795941  0.91505360  0.55899993  1
  V  V11  1  0.34204059  0.08494640  0.44100007  1
  V  V12  1  0.05933511  0.83235339  0.31824348  1
  V  V13  1  0.94066489  0.16764661  0.68175652  1
  V  V14  1  0.83108981  0.47431112  0.61963052  1
  V  V15  1  0.16891019  0.52568888  0.38036948  1
  V  V16  1  0.34641318  0.08189505  0.94048480  1
  V  V17  1  0.65358682  0.91810495  0.05951520  1
  V  V18  1  0.49275583  0.76656471  0.88365288  1
  V  V19  1  0.50724417  0.23343529  0.11634712  1
  V  V20  1  0.80955554  0.48183803  0.12215161  1
  V  V21  1  0.19044446  0.51816197  0.87784839  1
  V  V22  1  0.07407705  0.82501669  0.81790752  1
  V  V23  1  0.92592295  0.17498331  0.18209248  1
  Te  Te24  1  0.70849550  0.93327947  0.29889127  1
  Te  Te25  1  0.29150450  0.06672053  0.70110873  1
  Te  Te26  1  0.78590954  0.54710373  0.38184359  1
  Te  Te27  1  0.21409046  0.45289627  0.61815641  1
  Te  Te28  1  0.72186344  0.93150973  0.79943404  1
  Te  Te29  1  0.27813656  0.06849027  0.20056596  1
  Te  Te30  1  0.79540272  0.54485232  0.87517521  1
  Te  Te31  1  0.20459728  0.45514768  0.12482479  1
  O  O32  1  0.68336902  0.77312082  0.32823377  1
  O  O33  1  0.31663098  0.22687918  0.67176623  1
  O  O34  1  0.46747980  0.95198648  0.36645317  1
  O  O35  1  0.53252020  0.04801352  0.63354683  1
  O  O36  1  0.71763507  0.96209465  0.42939524  1
  O  O37  1  0.28236493  0.03790535  0.57060476  1
  O  O38  1  0.91968117  0.85221792  0.26228079  1
  O  O39  1  0.08031883  0.14778208  0.73771921  1
  O  O40  1  0.57848705  0.59767994  0.40666436  1
  O  O41  1  0.42151295  0.40232006  0.59333564  1
  O  O42  1  0.79593047  0.38337078  0.36701388  1
  O  O43  1  0.20406953  0.61662922  0.63298612  1
  O  O44  1  0.72882812  0.52885670  0.53486906  1
  O  O45  1  0.27117188  0.47114330  0.46513094  1
  O  O46  1  0.42840057  0.74498556  0.28499203  1
  O  O47  1  0.57159943  0.25501444  0.71500797  1
  O  O48  1  0.33945010  0.78116884  0.48532063  1
  O  O49  1  0.66054990  0.21883116  0.51467937  1
  O  O50  1  0.57247348  0.80859035  0.56842407  1
  O  O51  1  0.42752652  0.19140965  0.43157593  1
  O  O52  1  0.79825732  0.86161323  0.60485343  1
  O  O53  1  0.20174268  0.13838677  0.39514657  1
  O  O54  1  0.19846819  0.83147843  0.21437352  1
  O  O55  1  0.80153181  0.16852157  0.78562648  1
  O  O56  1  0.08198128  0.69329687  0.39652352  1
  O  O57  1  0.91801872  0.30670313  0.60347648  1
  O  O58  1  0.03316722  0.94634397  0.39593712  1
  O  O59  1  0.96683278  0.05365603  0.60406288  1
  O  O60  1  0.71031426  0.49741452  0.73598215  1
  O  O61  1  0.28968574  0.50258548  0.26401785  1
  O  O62  1  0.95492389  0.54729497  0.60890752  1
  O  O63  1  0.04507611  0.45270503  0.39109248  1
  O  O64  1  0.69772265  0.77173701  0.83120059  1
  O  O65  1  0.30227735  0.22826299  0.16879941  1
  O  O66  1  0.47999514  0.95050455  0.86784089  1
  O  O67  1  0.52000486  0.04949545  0.13215911  1
  O  O68  1  0.72561000  0.96369658  0.93023060  1
  O  O69  1  0.27439000  0.03630342  0.06976940  1
  O  O70  1  0.93287344  0.84954158  0.76172343  1
  O  O71  1  0.06712656  0.15045842  0.23827657  1
  O  O72  1  0.82793584  0.56234751  0.00312730  1
  O  O73  1  0.17206416  0.43765249  0.99687270  1
  O  O74  1  0.79810251  0.38004534  0.89833427  1
  O  O75  1  0.20189749  0.61995466  0.10166573  1
  O  O76  1  0.58705553  0.60611030  0.93224658  1
  O  O77  1  0.41294447  0.39388970  0.06775342  1
  O  O78  1  0.42976894  0.18877345  0.93377733  1
  O  O79  1  0.57023106  0.81122655  0.06622267  1
  O  O80  1  0.21153809  0.13259810  0.88883224  1
  O  O81  1  0.78846191  0.86740190  0.11116776  1
  O  O82  1  0.34067529  0.78788781  0.98252011  1
  O  O83  1  0.65932471  0.21211219  0.01747989  1
  O  O84  1  0.45841142  0.73616943  0.78469569  1
  O  O85  1  0.54158858  0.26383057  0.21530431  1
  O  O86  1  0.87996930  0.54156497  0.19190005  1
  O  O87  1  0.12003070  0.45843503  0.80809995  1
  O  O88  1  0.63635662  0.49689233  0.18505838  1
  O  O89  1  0.36364338  0.50310767  0.81494162  1
  O  O90  1  0.04113199  0.93867929  0.89840609  1
  O  O91  1  0.95886801  0.06132071  0.10159391  1
  O  O92  1  0.09870331  0.68565512  0.89415966  1
  O  O93  1  0.90129669  0.31434488  0.10584034  1
  O  O94  1  0.21595839  0.82856010  0.71779310  1
  O  O95  1  0.78404161  0.17143990  0.28220690  1
