# generated using pymatgen
data_Lu6Te2Au
_symmetry_space_group_name_H-M   'P 1'
_cell_length_a   4.01646363
_cell_length_b   11.35872694
_cell_length_c   21.23374173
_cell_angle_alpha   90.00000000
_cell_angle_beta   90.00000000
_cell_angle_gamma   90.00000000
_symmetry_Int_Tables_number   1
_chemical_formula_structural   Lu6Te2Au
_chemical_formula_sum   'Lu24 Te8 Au4'
_cell_volume   968.72393141
_cell_formula_units_Z   4
loop_
 _symmetry_equiv_pos_site_id
 _symmetry_equiv_pos_as_xyz
  1  'x, y, z'
loop_
 _atom_site_type_symbol
 _atom_site_label
 _atom_site_symmetry_multiplicity
 _atom_site_fract_x
 _atom_site_fract_y
 _atom_site_fract_z
 _atom_site_occupancy
  Lu  Lu0  1  0.25000000  0.18628533  0.60858494  1
  Lu  Lu1  1  0.25000000  0.31371467  0.10858494  1
  Lu  Lu2  1  0.75000000  0.81371467  0.39141506  1
  Lu  Lu3  1  0.75000000  0.68628533  0.89141506  1
  Lu  Lu4  1  0.25000000  0.46995281  0.65773158  1
  Lu  Lu5  1  0.25000000  0.03004719  0.15773158  1
  Lu  Lu6  1  0.75000000  0.53004719  0.34226842  1
  Lu  Lu7  1  0.75000000  0.96995281  0.84226842  1
  Lu  Lu8  1  0.25000000  0.76008280  0.76753345  1
  Lu  Lu9  1  0.25000000  0.73991720  0.26753345  1
  Lu  Lu10  1  0.75000000  0.23991720  0.23246655  1
  Lu  Lu11  1  0.75000000  0.26008280  0.73246655  1
  Lu  Lu12  1  0.25000000  0.12199989  0.97454588  1
  Lu  Lu13  1  0.25000000  0.37800011  0.47454588  1
  Lu  Lu14  1  0.75000000  0.87800011  0.02545412  1
  Lu  Lu15  1  0.75000000  0.62199989  0.52545412  1
  Lu  Lu16  1  0.25000000  0.43801427  0.86011606  1
  Lu  Lu17  1  0.25000000  0.06198573  0.36011606  1
  Lu  Lu18  1  0.75000000  0.56198573  0.13988394  1
  Lu  Lu19  1  0.75000000  0.93801427  0.63988394  1
  Lu  Lu20  1  0.25000000  0.88907818  0.50684251  1
  Lu  Lu21  1  0.25000000  0.61092182  0.00684251  1
  Lu  Lu22  1  0.75000000  0.11092182  0.49315749  1
  Lu  Lu23  1  0.75000000  0.38907818  0.99315749  1
  Te  Te24  1  0.25000000  0.04337293  0.73664771  1
  Te  Te25  1  0.25000000  0.45662707  0.23664771  1
  Te  Te26  1  0.75000000  0.95662707  0.26335229  1
  Te  Te27  1  0.75000000  0.54337293  0.76335229  1
  Te  Te28  1  0.25000000  0.73227414  0.62595007  1
  Te  Te29  1  0.25000000  0.76772586  0.12595007  1
  Te  Te30  1  0.75000000  0.26772586  0.37404993  1
  Te  Te31  1  0.75000000  0.23227414  0.87404993  1
  Au  Au32  1  0.25000000  0.86805124  0.92424951  1
  Au  Au33  1  0.25000000  0.63194876  0.42424951  1
  Au  Au34  1  0.75000000  0.13194876  0.07575049  1
  Au  Au35  1  0.75000000  0.36805124  0.57575049  1
