# generated using pymatgen
data_Li3V2NiO6
_symmetry_space_group_name_H-M   'P 1'
_cell_length_a   15.33399942
_cell_length_b   9.83232362
_cell_length_c   9.83232358
_cell_angle_alpha   17.45498421
_cell_angle_beta   16.70139850
_cell_angle_gamma   16.70140021
_symmetry_Int_Tables_number   1
_chemical_formula_structural   Li3V2NiO6
_chemical_formula_sum   'Li3 V2 Ni1 O6'
_cell_volume   109.79509957
_cell_formula_units_Z   1
loop_
 _symmetry_equiv_pos_site_id
 _symmetry_equiv_pos_as_xyz
  1  'x, y, z'
loop_
 _atom_site_type_symbol
 _atom_site_label
 _atom_site_symmetry_multiplicity
 _atom_site_fract_x
 _atom_site_fract_y
 _atom_site_fract_z
 _atom_site_occupancy
  Li  Li0  1  0.16666700  0.50000000  0.50000000  1
  Li  Li1  1  0.50188818  0.50236391  0.50236391  1
  Li  Li2  1  0.83144482  0.49763609  0.49763609  1
  V  V3  1  0.00520098  0.99654107  0.99654107  1
  V  V4  1  0.32813302  0.00345893  0.00345893  1
  Ni  Ni5  1  0.66666700  0.00000000  0.00000000  1
  O  O6  1  0.22467444  0.27365259  0.27365259  1
  O  O7  1  0.58168191  0.25723596  0.25723596  1
  O  O8  1  0.10865856  0.72634741  0.72634741  1
  O  O9  1  0.93839383  0.23869652  0.23869652  1
  O  O10  1  0.39493917  0.76130348  0.76130348  1
  O  O11  1  0.75165209  0.74276404  0.74276404  1
