# generated using pymatgen
data_AgSb3IF24
_symmetry_space_group_name_H-M   'P 1'
_cell_length_a   9.82899798
_cell_length_b   10.59032768
_cell_length_c   10.68003547
_cell_angle_alpha   120.28060950
_cell_angle_beta   86.97959619
_cell_angle_gamma   91.52246838
_symmetry_Int_Tables_number   1
_chemical_formula_structural   AgSb3IF24
_chemical_formula_sum   'Ag2 Sb6 I2 F48'
_cell_volume   958.70120114
_cell_formula_units_Z   2
loop_
 _symmetry_equiv_pos_site_id
 _symmetry_equiv_pos_as_xyz
  1  'x, y, z'
loop_
 _atom_site_type_symbol
 _atom_site_label
 _atom_site_symmetry_multiplicity
 _atom_site_fract_x
 _atom_site_fract_y
 _atom_site_fract_z
 _atom_site_occupancy
  Ag  Ag0  1  0.50000039  0.99999987  0.99999973  1
  Ag  Ag1  1  0.00000039  0.00000013  0.99999986  1
  Sb  Sb2  1  0.75150616  0.83260056  0.17458126  1
  Sb  Sb3  1  0.74849400  0.83260140  0.65801904  1
  Sb  Sb4  1  0.74999940  0.34282954  0.17141630  1
  Sb  Sb5  1  0.25150616  0.16739944  0.34198070  1
  Sb  Sb6  1  0.24999940  0.65717046  0.82858676  1
  Sb  Sb7  1  0.24849400  0.16739860  0.82541763  1
  I  I8  1  0.75000008  0.33318117  0.66659051  1
  I  I9  1  0.25000008  0.66681883  0.33340934  1
  F  F10  1  0.85321613  0.99043122  0.31803682  1
  F  F11  1  0.84030348  0.68506102  0.67383792  1
  F  F12  1  0.85288419  0.32816175  0.00858722  1
  F  F13  1  0.35321613  0.00956878  0.32760560  1
  F  F14  1  0.35288419  0.67183825  0.68042547  1
  F  F15  1  0.34030348  0.31493898  0.98877691  1
  F  F16  1  0.14678411  0.00956762  0.68196155  1
  F  F17  1  0.15969670  0.31494020  0.32616167  1
  F  F18  1  0.14711507  0.67183849  0.99141513  1
  F  F19  1  0.64678411  0.99043238  0.67239393  1
  F  F20  1  0.64711507  0.32816151  0.31957664  1
  F  F21  1  0.65969670  0.68505980  0.01122147  1
  F  F22  1  0.62537278  0.82614887  0.31166938  1
  F  F23  1  0.62584995  0.69245096  0.52732593  1
  F  F24  1  0.62836524  0.48045367  0.17449825  1
  F  F25  1  0.12537278  0.17385113  0.48552051  1
  F  F26  1  0.12836524  0.51954633  0.69404458  1
  F  F27  1  0.12584995  0.30754904  0.83487498  1
  F  F28  1  0.37462708  0.17384953  0.68832881  1
  F  F29  1  0.37415002  0.30755037  0.47267341  1
  F  F30  1  0.37163413  0.51954661  0.82550419  1
  F  F31  1  0.87462708  0.82615047  0.51447928  1
  F  F32  1  0.87163413  0.48045339  0.30595758  1
  F  F33  1  0.87415002  0.69244963  0.16512304  1
  F  F34  1  0.86135404  0.33382172  0.52457589  1
  F  F35  1  0.85612628  0.47327869  0.80372291  1
  F  F36  1  0.85616272  0.19219565  0.66263854  1
  F  F37  1  0.36135404  0.66617828  0.19075417  1
  F  F38  1  0.35616272  0.80780435  0.47044289  1
  F  F39  1  0.35612628  0.52672131  0.33044422  1
  F  F40  1  0.13864611  0.66617802  0.47542359  1
  F  F41  1  0.14387405  0.52672122  0.19627659  1
  F  F42  1  0.14383761  0.80780445  0.33736105  1
  F  F43  1  0.63864611  0.33382198  0.80924558  1
  F  F44  1  0.64383761  0.19219555  0.52955660  1
  F  F45  1  0.64387405  0.47327878  0.66955537  1
  F  F46  1  0.64089794  0.97756566  0.16690464  1
  F  F47  1  0.62547702  0.84549179  0.82188614  1
  F  F48  1  0.63507885  0.18415462  0.02721607  1
  F  F49  1  0.14089794  0.02243434  0.18933898  1
  F  F50  1  0.13507885  0.81584538  0.84306145  1
  F  F51  1  0.12547702  0.15450821  0.97639435  1
  F  F52  1  0.35910246  0.02243274  0.83309359  1
  F  F53  1  0.37452312  0.15450901  0.17811363  1
  F  F54  1  0.36492088  0.81584573  0.97278631  1
  F  F55  1  0.85910246  0.97756726  0.81066085  1
  F  F56  1  0.86492088  0.18415427  0.15694058  1
  F  F57  1  0.87452312  0.84549099  0.02360462  1
