# generated using pymatgen
data_BaBPF10
_symmetry_space_group_name_H-M   'P 1'
_cell_length_a   6.30707733
_cell_length_b   10.54561723
_cell_length_c   10.54542455
_cell_angle_alpha   120.00060649
_cell_angle_beta   90.00000000
_cell_angle_gamma   90.00000000
_symmetry_Int_Tables_number   1
_chemical_formula_structural   BaBPF10
_chemical_formula_sum   'Ba3 B3 P3 F30'
_cell_volume   607.42436189
_cell_formula_units_Z   3
loop_
 _symmetry_equiv_pos_site_id
 _symmetry_equiv_pos_as_xyz
  1  'x, y, z'
loop_
 _atom_site_type_symbol
 _atom_site_label
 _atom_site_symmetry_multiplicity
 _atom_site_fract_x
 _atom_site_fract_y
 _atom_site_fract_z
 _atom_site_occupancy
  Ba  Ba0  1  0.50000000  0.00000396  0.00000000  1
  Ba  Ba1  1  -0.00000000  0.66668418  0.33332599  1
  Ba  Ba2  1  -0.00000000  0.33335819  0.66667401  1
  B  B3  1  -0.00000000  0.24771816  0.00000000  1
  B  B4  1  -0.00000000  0.75228820  0.75228176  1
  B  B5  1  -0.00000000  0.00000644  0.24771824  1
  P  P6  1  0.50000000  0.56101786  0.00000000  1
  P  P7  1  0.50000000  0.43898538  0.43898394  1
  P  P8  1  0.50000000  0.00000144  0.56101606  1
  F  F9  1  0.50000000  0.40845599  1.00000000  1
  F  F10  1  0.50000000  0.59154656  0.59154768  1
  F  F11  1  0.50000000  0.99999888  0.40845232  1
  F  F12  1  0.50000000  0.71578145  1.00000000  1
  F  F13  1  0.50000000  0.28421430  0.28421296  1
  F  F14  1  0.50000000  0.00000134  0.71578704  1
  F  F15  1  0.31540860  0.62622520  0.12758701  1
  F  F16  1  0.31540565  0.50136118  0.37377307  1
  F  F17  1  0.31540773  0.87241490  0.49863896  1
  F  F18  1  0.68459140  0.62622520  0.12758701  1
  F  F19  1  0.68459435  0.50136118  0.37377307  1
  F  F20  1  0.68459227  0.87241490  0.49863896  1
  F  F21  1  0.31540860  0.49863819  0.87241299  1
  F  F22  1  0.31540565  0.12758811  0.62622693  1
  F  F23  1  0.31540773  0.37377593  0.50136104  1
  F  F24  1  0.68459140  0.49863819  0.87241299  1
  F  F25  1  0.68459435  0.12758811  0.62622693  1
  F  F26  1  0.68459227  0.37377593  0.50136104  1
  F  F27  1  0.18308853  0.17099934  1.00000000  1
  F  F28  1  0.18308961  0.82900285  0.82900021  1
  F  F29  1  0.18308961  0.00000264  0.17099979  1
  F  F30  1  0.81691147  0.17099934  1.00000000  1
  F  F31  1  0.81691039  0.82900285  0.82900021  1
  F  F32  1  0.81691039  0.00000264  0.17099979  1
  F  F33  1  -0.00000000  0.87364356  0.26273041  1
  F  F34  1  -0.00000000  0.38909650  0.12636231  1
  F  F35  1  -0.00000000  0.73726725  0.61090088  1
  F  F36  1  -0.00000000  0.61091315  0.73726959  1
  F  F37  1  -0.00000000  0.26273419  0.87363769  1
  F  F38  1  -0.00000000  0.12636637  0.38909912  1
