# generated using pymatgen
data_RbP2H5O8
_symmetry_space_group_name_H-M   'P 1'
_cell_length_a   6.70366464
_cell_length_b   6.70366464
_cell_length_c   9.64457315
_cell_angle_alpha   83.40828990
_cell_angle_beta   83.40828990
_cell_angle_gamma   71.20687694
_symmetry_Int_Tables_number   1
_chemical_formula_structural   RbP2H5O8
_chemical_formula_sum   'Rb2 P4 H10 O16'
_cell_volume   406.20212931
_cell_formula_units_Z   2
loop_
 _symmetry_equiv_pos_site_id
 _symmetry_equiv_pos_as_xyz
  1  'x, y, z'
loop_
 _atom_site_type_symbol
 _atom_site_label
 _atom_site_symmetry_multiplicity
 _atom_site_fract_x
 _atom_site_fract_y
 _atom_site_fract_z
 _atom_site_occupancy
  Rb  Rb0  1  -0.00000000  -0.00000000  0.50000000  1
  Rb  Rb1  1  -0.00000000  -0.00000000  0.00000000  1
  P  P2  1  0.73356055  0.63082163  0.30094084  1
  P  P3  1  0.36917837  0.26643945  0.19905916  1
  P  P4  1  0.26643945  0.36917837  0.69905916  1
  P  P5  1  0.63082163  0.73356055  0.80094084  1
  H  H6  1  0.68741938  0.31258062  0.25000000  1
  H  H7  1  0.31258062  0.68741938  0.75000000  1
  H  H8  1  0.07599408  0.54450903  0.32728092  1
  H  H9  1  0.45549097  0.92400592  0.17271908  1
  H  H10  1  0.92400592  0.45549097  0.67271908  1
  H  H11  1  0.54450903  0.07599408  0.82728092  1
  H  H12  1  0.61974875  0.70186484  0.51654524  1
  H  H13  1  0.29813516  0.38025125  0.98345476  1
  H  H14  1  0.38025125  0.29813516  0.48345476  1
  H  H15  1  0.70186484  0.61974875  0.01654524  1
  O  O16  1  0.64451890  0.73481955  0.16237456  1
  O  O17  1  0.26518045  0.35548110  0.33762544  1
  O  O18  1  0.35548110  0.26518045  0.83762544  1
  O  O19  1  0.73481955  0.64451890  0.66237456  1
  O  O20  1  0.78357387  0.38865424  0.31481111  1
  O  O21  1  0.61134576  0.21642613  0.18518889  1
  O  O22  1  0.21642613  0.61134576  0.68518889  1
  O  O23  1  0.38865424  0.78357387  0.81481111  1
  O  O24  1  0.56463929  0.74056383  0.42009799  1
  O  O25  1  0.25943617  0.43536071  0.07990201  1
  O  O26  1  0.43536071  0.25943617  0.57990201  1
  O  O27  1  0.74056383  0.56463929  0.92009799  1
  O  O28  1  0.94317151  0.67935395  0.32250397  1
  O  O29  1  0.32064605  0.05682849  0.17749603  1
  O  O30  1  0.05682849  0.32064605  0.67749603  1
  O  O31  1  0.67935395  0.94317151  0.82250397  1
