# generated using pymatgen
data_Tb2Co17
_symmetry_space_group_name_H-M   'P 1'
_cell_length_a   8.10983329
_cell_length_b   8.30122036
_cell_length_c   8.30122036
_cell_angle_alpha   120.03547206
_cell_angle_beta   90.00000000
_cell_angle_gamma   90.00000000
_symmetry_Int_Tables_number   1
_chemical_formula_structural   Tb2Co17
_chemical_formula_sum   'Tb4 Co34'
_cell_volume   483.80583102
_cell_formula_units_Z   2
loop_
 _symmetry_equiv_pos_site_id
 _symmetry_equiv_pos_as_xyz
  1  'x, y, z'
loop_
 _atom_site_type_symbol
 _atom_site_label
 _atom_site_symmetry_multiplicity
 _atom_site_fract_x
 _atom_site_fract_y
 _atom_site_fract_z
 _atom_site_occupancy
  Tb  Tb0  1  0.75000000  0.00001507  -0.00001507  1
  Tb  Tb1  1  0.25000000  -0.00001507  0.00001507  1
  Tb  Tb2  1  0.25000000  0.66688789  0.33311211  1
  Tb  Tb3  1  0.75000000  0.33311211  0.66688789  1
  Co  Co4  1  0.60702586  0.66674143  0.33325857  1
  Co  Co5  1  0.39297414  0.33325857  0.66674143  1
  Co  Co6  1  0.10702586  0.33325857  0.66674143  1
  Co  Co7  1  0.89297414  0.66674143  0.33325857  1
  Co  Co8  1  0.50000000  0.50000000  -0.00000000  1
  Co  Co9  1  0.50000000  0.50000000  0.50000000  1
  Co  Co10  1  0.50000000  0.00000000  0.50000000  1
  Co  Co11  1  -0.00000000  0.50000000  -0.00000000  1
  Co  Co12  1  -0.00000000  0.50000000  0.50000000  1
  Co  Co13  1  -0.00000000  0.00000000  0.50000000  1
  Co  Co14  1  0.75000000  0.67128181  0.04764551  1
  Co  Co15  1  0.75000000  0.37632735  0.32866737  1
  Co  Co16  1  0.75000000  0.95242050  0.62366355  1
  Co  Co17  1  0.75000000  0.37633645  0.04757950  1
  Co  Co18  1  0.75000000  0.95235449  0.32871819  1
  Co  Co19  1  0.75000000  0.67133263  0.62367265  1
  Co  Co20  1  0.25000000  0.32871819  0.95235449  1
  Co  Co21  1  0.25000000  0.62367265  0.67133263  1
  Co  Co22  1  0.25000000  0.04757950  0.37633645  1
  Co  Co23  1  0.25000000  0.62366355  0.95242050  1
  Co  Co24  1  0.25000000  0.04764551  0.67128181  1
  Co  Co25  1  0.25000000  0.32866737  0.37632735  1
  Co  Co26  1  0.47886032  0.83351672  0.66672739  1
  Co  Co27  1  0.47878275  0.83335518  0.16664482  1
  Co  Co28  1  0.47886032  0.33327261  0.16648328  1
  Co  Co29  1  0.52113968  0.16648328  0.33327261  1
  Co  Co30  1  0.52121725  0.16664482  0.83335518  1
  Co  Co31  1  0.52113968  0.66672739  0.83351672  1
  Co  Co32  1  0.97886032  0.16648328  0.33327261  1
  Co  Co33  1  0.97878275  0.16664482  0.83335518  1
  Co  Co34  1  0.97886032  0.66672739  0.83351672  1
  Co  Co35  1  0.02113968  0.83351672  0.66672739  1
  Co  Co36  1  0.02121725  0.83335518  0.16664482  1
  Co  Co37  1  0.02113968  0.33327261  0.16648328  1
