# generated using pymatgen
data_Hf2As
_symmetry_space_group_name_H-M   'P 1'
_cell_length_a   3.66451460
_cell_length_b   12.55987819
_cell_length_c   15.51604573
_cell_angle_alpha   90.00000000
_cell_angle_beta   90.00000000
_cell_angle_gamma   90.00000000
_symmetry_Int_Tables_number   1
_chemical_formula_structural   Hf2As
_chemical_formula_sum   'Hf24 As12'
_cell_volume   714.13930200
_cell_formula_units_Z   12
loop_
 _symmetry_equiv_pos_site_id
 _symmetry_equiv_pos_as_xyz
  1  'x, y, z'
loop_
 _atom_site_type_symbol
 _atom_site_label
 _atom_site_symmetry_multiplicity
 _atom_site_fract_x
 _atom_site_fract_y
 _atom_site_fract_z
 _atom_site_occupancy
  Hf  Hf0  1  0.50000000  0.65143472  0.47817714  1
  Hf  Hf1  1  0.50000000  0.34856528  0.52182286  1
  Hf  Hf2  1  0.00000000  0.84856528  0.97817714  1
  Hf  Hf3  1  0.00000000  0.15143472  0.02182286  1
  Hf  Hf4  1  0.50000000  0.59268107  0.24469792  1
  Hf  Hf5  1  0.50000000  0.40731893  0.75530208  1
  Hf  Hf6  1  0.00000000  0.90731893  0.74469792  1
  Hf  Hf7  1  0.00000000  0.09268107  0.25530208  1
  Hf  Hf8  1  0.50000000  0.08335171  0.42437362  1
  Hf  Hf9  1  0.50000000  0.91664829  0.57562638  1
  Hf  Hf10  1  -0.00000000  0.41664829  0.92437362  1
  Hf  Hf11  1  -0.00000000  0.58335171  0.07562638  1
  Hf  Hf12  1  0.50000000  0.97128276  0.10693896  1
  Hf  Hf13  1  0.50000000  0.02871724  0.89306104  1
  Hf  Hf14  1  -0.00000000  0.52871724  0.60693896  1
  Hf  Hf15  1  0.00000000  0.47128276  0.39306104  1
  Hf  Hf16  1  0.50000000  0.30767612  0.29263063  1
  Hf  Hf17  1  0.50000000  0.69232388  0.70736937  1
  Hf  Hf18  1  0.00000000  0.19232388  0.79263063  1
  Hf  Hf19  1  -0.00000000  0.80767612  0.20736937  1
  Hf  Hf20  1  0.50000000  0.38246028  0.07989211  1
  Hf  Hf21  1  0.50000000  0.61753972  0.92010789  1
  Hf  Hf22  1  0.00000000  0.11753972  0.57989211  1
  Hf  Hf23  1  -0.00000000  0.88246028  0.42010789  1
  As  As24  1  0.50000000  0.93453152  0.29002378  1
  As  As25  1  0.50000000  0.06546848  0.70997622  1
  As  As26  1  0.00000000  0.56546848  0.79002378  1
  As  As27  1  -0.00000000  0.43453152  0.20997622  1
  As  As28  1  0.50000000  0.74352482  0.08703259  1
  As  As29  1  0.50000000  0.25647518  0.91296741  1
  As  As30  1  -0.00000000  0.75647518  0.58703259  1
  As  As31  1  0.00000000  0.24352482  0.41296741  1
  As  As32  1  0.50000000  0.18596700  0.14955903  1
  As  As33  1  0.50000000  0.81403300  0.85044097  1
  As  As34  1  0.00000000  0.31403300  0.64955903  1
  As  As35  1  -0.00000000  0.68596700  0.35044097  1
