# generated using pymatgen
data_Ce5GeBi2
_symmetry_space_group_name_H-M   'P 1'
_cell_length_a   8.08072918
_cell_length_b   9.61088242
_cell_length_c   12.14980514
_cell_angle_alpha   90.00000000
_cell_angle_beta   90.00000000
_cell_angle_gamma   90.00000000
_symmetry_Int_Tables_number   1
_chemical_formula_structural   Ce5GeBi2
_chemical_formula_sum   'Ce20 Ge4 Bi8'
_cell_volume   943.58956350
_cell_formula_units_Z   4
loop_
 _symmetry_equiv_pos_site_id
 _symmetry_equiv_pos_as_xyz
  1  'x, y, z'
loop_
 _atom_site_type_symbol
 _atom_site_label
 _atom_site_symmetry_multiplicity
 _atom_site_fract_x
 _atom_site_fract_y
 _atom_site_fract_z
 _atom_site_occupancy
  Ce  Ce0  1  0.68732329  0.94608874  0.44560206  1
  Ce  Ce1  1  0.81267671  0.55391126  0.94560206  1
  Ce  Ce2  1  0.31267671  0.44608874  0.55439794  1
  Ce  Ce3  1  0.18732329  0.05391126  0.05439794  1
  Ce  Ce4  1  0.31267671  0.05391126  0.55439794  1
  Ce  Ce5  1  0.18732329  0.44608874  0.05439794  1
  Ce  Ce6  1  0.68732329  0.55391126  0.44560206  1
  Ce  Ce7  1  0.81267671  0.94608874  0.94560206  1
  Ce  Ce8  1  0.01641635  0.75000000  0.49611055  1
  Ce  Ce9  1  0.48358365  0.75000000  0.99611055  1
  Ce  Ce10  1  0.98358365  0.25000000  0.50388945  1
  Ce  Ce11  1  0.51641635  0.25000000  0.00388945  1
  Ce  Ce12  1  0.33404708  0.75000000  0.28183335  1
  Ce  Ce13  1  0.16595292  0.75000000  0.78183335  1
  Ce  Ce14  1  0.66595292  0.25000000  0.71816665  1
  Ce  Ce15  1  0.83404708  0.25000000  0.21816665  1
  Ce  Ce16  1  0.84843331  0.75000000  0.21332826  1
  Ce  Ce17  1  0.65156669  0.75000000  0.71332826  1
  Ce  Ce18  1  0.15156669  0.25000000  0.78667174  1
  Ce  Ce19  1  0.34843331  0.25000000  0.28667174  1
  Ge  Ge20  1  0.10033121  0.75000000  0.03185520  1
  Ge  Ge21  1  0.39966879  0.75000000  0.53185520  1
  Ge  Ge22  1  0.89966879  0.25000000  0.96814480  1
  Ge  Ge23  1  0.60033121  0.25000000  0.46814480  1
  Bi  Bi24  1  0.56906397  0.99408808  0.17756667  1
  Bi  Bi25  1  0.93093603  0.50591192  0.67756667  1
  Bi  Bi26  1  0.43093603  0.49408808  0.82243333  1
  Bi  Bi27  1  0.06906397  0.00591192  0.32243333  1
  Bi  Bi28  1  0.43093603  0.00591192  0.82243333  1
  Bi  Bi29  1  0.06906397  0.49408808  0.32243333  1
  Bi  Bi30  1  0.56906397  0.50591192  0.17756667  1
  Bi  Bi31  1  0.93093603  0.99408808  0.67756667  1
