# generated using pymatgen
data_TiFeGe2
_symmetry_space_group_name_H-M   'P 1'
_cell_length_a   7.77302631
_cell_length_b   8.86065193
_cell_length_c   9.93787835
_cell_angle_alpha   90.00000000
_cell_angle_beta   90.00000000
_cell_angle_gamma   90.00000000
_symmetry_Int_Tables_number   1
_chemical_formula_structural   TiFeGe2
_chemical_formula_sum   'Ti12 Fe12 Ge24'
_cell_volume   684.46223423
_cell_formula_units_Z   12
loop_
 _symmetry_equiv_pos_site_id
 _symmetry_equiv_pos_as_xyz
  1  'x, y, z'
loop_
 _atom_site_type_symbol
 _atom_site_label
 _atom_site_symmetry_multiplicity
 _atom_site_fract_x
 _atom_site_fract_y
 _atom_site_fract_z
 _atom_site_occupancy
  Ti  Ti0  1  0.74159402  0.82752877  0.04876243  1
  Ti  Ti1  1  0.74159402  0.17247123  0.95123757  1
  Ti  Ti2  1  0.25840598  0.67247123  0.54876243  1
  Ti  Ti3  1  0.25840598  0.32752877  0.45123757  1
  Ti  Ti4  1  0.25840598  0.17247123  0.95123757  1
  Ti  Ti5  1  0.25840598  0.82752877  0.04876243  1
  Ti  Ti6  1  0.74159402  0.32752877  0.45123757  1
  Ti  Ti7  1  0.74159402  0.67247123  0.54876243  1
  Ti  Ti8  1  0.50000000  0.83534448  0.32096253  1
  Ti  Ti9  1  0.50000000  0.16465552  0.67903747  1
  Ti  Ti10  1  0.50000000  0.66465552  0.82096253  1
  Ti  Ti11  1  0.50000000  0.33534448  0.17903747  1
  Fe  Fe12  1  0.74738251  0.59199750  0.25282324  1
  Fe  Fe13  1  0.74738251  0.40800250  0.74717676  1
  Fe  Fe14  1  0.25261749  0.90800250  0.75282324  1
  Fe  Fe15  1  0.25261749  0.09199750  0.24717676  1
  Fe  Fe16  1  0.25261749  0.40800250  0.74717676  1
  Fe  Fe17  1  0.25261749  0.59199750  0.25282324  1
  Fe  Fe18  1  0.74738251  0.09199750  0.24717676  1
  Fe  Fe19  1  0.74738251  0.90800250  0.75282324  1
  Fe  Fe20  1  0.74374855  0.00000000  0.50000000  1
  Fe  Fe21  1  0.25625145  0.50000000  -0.00000000  1
  Fe  Fe22  1  0.25625145  0.00000000  0.50000000  1
  Fe  Fe23  1  0.74374855  0.50000000  -0.00000000  1
  Ge  Ge24  1  0.83789278  0.83955601  0.31807771  1
  Ge  Ge25  1  0.83789278  0.16044399  0.68192229  1
  Ge  Ge26  1  0.16210722  0.66044399  0.81807771  1
  Ge  Ge27  1  0.16210722  0.33955601  0.18192229  1
  Ge  Ge28  1  0.16210722  0.16044399  0.68192229  1
  Ge  Ge29  1  0.16210722  0.83955601  0.31807771  1
  Ge  Ge30  1  0.83789278  0.33955601  0.18192229  1
  Ge  Ge31  1  0.83789278  0.66044399  0.81807771  1
  Ge  Ge32  1  0.50000000  0.53940336  0.38009099  1
  Ge  Ge33  1  0.50000000  0.46059664  0.61990901  1
  Ge  Ge34  1  0.50000000  0.96059664  0.88009099  1
  Ge  Ge35  1  0.50000000  0.03940336  0.11990901  1
  Ge  Ge36  1  0.00000000  0.54664988  0.38048052  1
  Ge  Ge37  1  -0.00000000  0.45335012  0.61951948  1
  Ge  Ge38  1  -0.00000000  0.95335012  0.88048052  1
  Ge  Ge39  1  0.00000000  0.04664988  0.11951948  1
  Ge  Ge40  1  0.50000000  0.63323508  0.09989049  1
  Ge  Ge41  1  0.50000000  0.36676492  0.90010951  1
  Ge  Ge42  1  0.50000000  0.86676492  0.59989049  1
  Ge  Ge43  1  0.50000000  0.13323508  0.40010951  1
  Ge  Ge44  1  -0.00000000  0.63082420  0.09626134  1
  Ge  Ge45  1  0.00000000  0.36917580  0.90373866  1
  Ge  Ge46  1  0.00000000  0.86917580  0.59626134  1
  Ge  Ge47  1  -0.00000000  0.13082420  0.40373866  1
