# generated using pymatgen
data_CaFe2P2HO9
_symmetry_space_group_name_H-M   'P 1'
_cell_length_a   6.48598911
_cell_length_b   9.68371167
_cell_length_c   10.93044248
_cell_angle_alpha   90.00000000
_cell_angle_beta   90.00000000
_cell_angle_gamma   90.00000000
_symmetry_Int_Tables_number   1
_chemical_formula_structural   CaFe2P2HO9
_chemical_formula_sum   'Ca4 Fe8 P8 H4 O36'
_cell_volume   686.52413289
_cell_formula_units_Z   4
loop_
 _symmetry_equiv_pos_site_id
 _symmetry_equiv_pos_as_xyz
  1  'x, y, z'
loop_
 _atom_site_type_symbol
 _atom_site_label
 _atom_site_symmetry_multiplicity
 _atom_site_fract_x
 _atom_site_fract_y
 _atom_site_fract_z
 _atom_site_occupancy
  Ca  Ca0  1  -0.00000000  0.93132997  0.26766664  1
  Ca  Ca1  1  -0.00000000  0.06867003  0.73233336  1
  Ca  Ca2  1  0.00000000  0.43132997  0.23233336  1
  Ca  Ca3  1  0.00000000  0.56867003  0.76766664  1
  Fe  Fe4  1  0.26251673  0.50000000  0.50000000  1
  Fe  Fe5  1  0.73748327  0.00000000  -0.00000000  1
  Fe  Fe6  1  0.73748327  0.50000000  0.50000000  1
  Fe  Fe7  1  0.26251673  0.00000000  -0.00000000  1
  Fe  Fe8  1  0.50000000  0.84042913  0.44238722  1
  Fe  Fe9  1  0.50000000  0.15957087  0.55761278  1
  Fe  Fe10  1  0.50000000  0.34042913  0.05761278  1
  Fe  Fe11  1  0.50000000  0.65957087  0.94238722  1
  P  P12  1  0.50000000  0.58878998  0.25474420  1
  P  P13  1  0.50000000  0.41121002  0.74525580  1
  P  P14  1  0.50000000  0.08878998  0.24525580  1
  P  P15  1  0.50000000  0.91121002  0.75474420  1
  P  P16  1  0.00000000  0.70663618  0.02161710  1
  P  P17  1  -0.00000000  0.29336382  0.97838290  1
  P  P18  1  0.00000000  0.20663618  0.47838290  1
  P  P19  1  -0.00000000  0.79336382  0.52161710  1
  H  H20  1  0.50000000  0.82308943  0.11536019  1
  H  H21  1  0.50000000  0.17691057  0.88463981  1
  H  H22  1  0.50000000  0.32308943  0.38463981  1
  H  H23  1  0.50000000  0.67691057  0.61536019  1
  O  O24  1  0.30425641  0.52437928  0.31282893  1
  O  O25  1  0.30425641  0.47562072  0.68717107  1
  O  O26  1  0.69574359  0.02437928  0.18717107  1
  O  O27  1  0.69574359  0.97562072  0.81282893  1
  O  O28  1  0.69574359  0.47562072  0.68717107  1
  O  O29  1  0.69574359  0.52437928  0.31282893  1
  O  O30  1  0.30425641  0.97562072  0.81282893  1
  O  O31  1  0.30425641  0.02437928  0.18717107  1
  O  O32  1  0.50000000  0.74819089  0.27124364  1
  O  O33  1  0.50000000  0.25180911  0.72875636  1
  O  O34  1  0.50000000  0.24819089  0.22875636  1
  O  O35  1  0.50000000  0.75180911  0.77124364  1
  O  O36  1  0.50000000  0.55004762  0.11454393  1
  O  O37  1  0.50000000  0.44995238  0.88545607  1
  O  O38  1  0.50000000  0.05004762  0.38545607  1
  O  O39  1  0.50000000  0.94995238  0.61454393  1
  O  O40  1  0.00000000  0.86869642  0.03302818  1
  O  O41  1  0.00000000  0.13130358  0.96697182  1
  O  O42  1  -0.00000000  0.36869642  0.46697182  1
  O  O43  1  -0.00000000  0.63130358  0.53302818  1
  O  O44  1  0.18681816  0.84163451  0.44076295  1
  O  O45  1  0.18681816  0.15836549  0.55923705  1
  O  O46  1  0.81318184  0.34163451  0.05923705  1
  O  O47  1  0.81318184  0.65836549  0.94076295  1
  O  O48  1  0.81318184  0.15836549  0.55923705  1
  O  O49  1  0.81318184  0.84163451  0.44076295  1
  O  O50  1  0.18681816  0.65836549  0.94076295  1
  O  O51  1  0.18681816  0.34163451  0.05923705  1
  O  O52  1  0.00000000  0.65159607  0.15114037  1
  O  O53  1  -0.00000000  0.34840393  0.84885963  1
  O  O54  1  0.00000000  0.15159607  0.34885963  1
  O  O55  1  -0.00000000  0.84840393  0.65114037  1
  O  O56  1  0.50000000  0.83866637  0.02589080  1
  O  O57  1  0.50000000  0.16133363  0.97410920  1
  O  O58  1  0.50000000  0.33866637  0.47410920  1
  O  O59  1  0.50000000  0.66133363  0.52589080  1
