# generated using pymatgen
data_Li4FeO3F
_symmetry_space_group_name_H-M   'P 1'
_cell_length_a   5.21955322
_cell_length_b   5.17214901
_cell_length_c   8.08290500
_cell_angle_alpha   84.33944138
_cell_angle_beta   71.04150465
_cell_angle_gamma   69.88323764
_symmetry_Int_Tables_number   1
_chemical_formula_structural   Li4FeO3F
_chemical_formula_sum   'Li8 Fe2 O6 F2'
_cell_volume   193.76060320
_cell_formula_units_Z   2
loop_
 _symmetry_equiv_pos_site_id
 _symmetry_equiv_pos_as_xyz
  1  'x, y, z'
loop_
 _atom_site_type_symbol
 _atom_site_label
 _atom_site_symmetry_multiplicity
 _atom_site_fract_x
 _atom_site_fract_y
 _atom_site_fract_z
 _atom_site_occupancy
  Li  Li0  1  0.09961933  0.21518251  0.72975275  1
  Li  Li1  1  0.01403928  0.75630781  0.94596895  1
  Li  Li2  1  0.42249690  0.75484932  0.07883118  1
  Li  Li3  1  0.23241107  0.76758767  0.50547085  1
  Li  Li4  1  0.76758893  0.23241233  0.49452915  1
  Li  Li5  1  0.57750310  0.24515068  0.92116882  1
  Li  Li6  1  0.98596072  0.24369219  0.05403105  1
  Li  Li7  1  0.90038067  0.78481749  0.27024725  1
  Fe  Fe8  1  0.33690089  0.21806414  0.26015430  1
  Fe  Fe9  1  0.66309911  0.78193586  0.73984570  1
  O  O10  1  0.11435293  0.99029650  0.31688913  1
  O  O11  1  0.19385308  0.49225226  0.11404720  1
  O  O12  1  0.69786118  0.01715257  0.12067596  1
  O  O13  1  0.30213882  0.98284743  0.87932404  1
  O  O14  1  0.80614692  0.50774774  0.88595280  1
  O  O15  1  0.88564707  0.00970350  0.68311087  1
  F  F16  1  0.34119002  0.34266784  0.49121321  1
  F  F17  1  0.65880998  0.65733216  0.50878679  1
