# generated using pymatgen
data_Li2B6O9F2
_symmetry_space_group_name_H-M   'P 1'
_cell_length_a   4.88896091
_cell_length_b   8.52748732
_cell_length_c   10.16533101
_cell_angle_alpha   89.38437322
_cell_angle_beta   87.85194483
_cell_angle_gamma   73.34196665
_symmetry_Int_Tables_number   1
_chemical_formula_structural   Li2B6O9F2
_chemical_formula_sum   'Li4 B12 O18 F4'
_cell_volume   405.72729948
_cell_formula_units_Z   2
loop_
 _symmetry_equiv_pos_site_id
 _symmetry_equiv_pos_as_xyz
  1  'x, y, z'
loop_
 _atom_site_type_symbol
 _atom_site_label
 _atom_site_symmetry_multiplicity
 _atom_site_fract_x
 _atom_site_fract_y
 _atom_site_fract_z
 _atom_site_occupancy
  Li  Li0  1  0.15402291  0.92676144  0.62101362  1
  Li  Li1  1  0.08078434  0.07323856  0.12101362  1
  Li  Li2  1  0.45295507  0.48514385  0.45120015  1
  Li  Li3  1  0.93809892  0.51485615  0.95120015  1
  B  B4  1  0.79094907  0.73408683  0.51604210  1
  B  B5  1  0.52503589  0.26591317  0.01604210  1
  B  B6  1  0.89700885  0.93205165  0.35556529  1
  B  B7  1  0.82906050  0.06794835  0.85556529  1
  B  B8  1  0.45216182  0.29381914  0.77788673  1
  B  B9  1  0.74598096  0.70618086  0.27788673  1
  B  B10  1  0.08908278  0.51210758  0.65875472  1
  B  B11  1  0.60119035  0.48789242  0.15875472  1
  B  B12  1  0.30232659  0.32551456  0.24356345  1
  B  B13  1  0.62784116  0.67448544  0.74356345  1
  B  B14  1  0.02534748  0.18765298  0.41235111  1
  B  B15  1  0.21300046  0.81234702  0.91235111  1
  O  O16  1  0.58033242  0.76335393  0.62919231  1
  O  O17  1  0.34368636  0.23664607  0.12919231  1
  O  O18  1  0.87068592  0.88474906  0.48371888  1
  O  O19  1  0.75543498  0.11525094  0.98371888  1
  O  O20  1  0.68741003  0.16167504  0.75264381  1
  O  O21  1  0.84908507  0.83832496  0.25264381  1
  O  O22  1  0.34100539  0.39075904  0.67157573  1
  O  O23  1  0.73176443  0.60924096  0.17157573  1
  O  O24  1  0.33937488  0.32795604  0.90357898  1
  O  O25  1  0.66733092  0.67204396  0.40357898  1
  O  O26  1  0.06283487  0.60737421  0.54937346  1
  O  O27  1  0.67020907  0.39262579  0.04937346  1
  O  O28  1  0.87334465  0.53931696  0.75465304  1
  O  O29  1  0.41266162  0.46068304  0.25465304  1
  O  O30  1  0.15865897  0.30092558  0.35279064  1
  O  O31  1  0.45958455  0.69907442  0.85279064  1
  O  O32  1  0.98043799  0.06760463  0.31866876  1
  O  O33  1  0.04804262  0.93239537  0.81866876  1
  F  F34  1  0.19592974  0.10431143  0.51813876  1
  F  F35  1  0.30024117  0.89568857  0.01813876  1
  F  F36  1  0.75672489  0.28064741  0.46978848  1
  F  F37  1  0.03737230  0.71935259  0.96978848  1
