# generated using pymatgen
data_KMn6As7O24
_symmetry_space_group_name_H-M   'P 1'
_cell_length_a   5.61727851
_cell_length_b   6.90803697
_cell_length_c   28.17731131
_cell_angle_alpha   90.00000000
_cell_angle_beta   90.00000000
_cell_angle_gamma   107.33726193
_symmetry_Int_Tables_number   1
_chemical_formula_structural   KMn6As7O24
_chemical_formula_sum   'K2 Mn12 As14 O48'
_cell_volume   1043.72640020
_cell_formula_units_Z   2
loop_
 _symmetry_equiv_pos_site_id
 _symmetry_equiv_pos_as_xyz
  1  'x, y, z'
loop_
 _atom_site_type_symbol
 _atom_site_label
 _atom_site_symmetry_multiplicity
 _atom_site_fract_x
 _atom_site_fract_y
 _atom_site_fract_z
 _atom_site_occupancy
  K  K0  1  0.19974874  0.58673730  0.75000000  1
  K  K1  1  0.80025126  0.41326270  0.25000000  1
  Mn  Mn2  1  0.68209472  0.67867109  0.54351663  1
  Mn  Mn3  1  0.31790528  0.32132891  0.04351663  1
  Mn  Mn4  1  0.31790528  0.32132891  0.45648337  1
  Mn  Mn5  1  0.68209472  0.67867109  0.95648337  1
  Mn  Mn6  1  0.28381446  0.89874818  0.59807424  1
  Mn  Mn7  1  0.71618554  0.10125182  0.09807424  1
  Mn  Mn8  1  0.71618554  0.10125182  0.40192576  1
  Mn  Mn9  1  0.28381446  0.89874818  0.90192576  1
  Mn  Mn10  1  0.60905779  0.24750490  0.68431319  1
  Mn  Mn11  1  0.39094221  0.75249510  0.18431319  1
  Mn  Mn12  1  0.39094221  0.75249510  0.31568681  1
  Mn  Mn13  1  0.60905779  0.24750490  0.81568681  1
  As  As14  1  0.77185013  0.19687543  0.52308332  1
  As  As15  1  0.22814987  0.80312457  0.02308332  1
  As  As16  1  0.22814987  0.80312457  0.47691668  1
  As  As17  1  0.77185013  0.19687543  0.97691668  1
  As  As18  1  0.02956465  0.06184854  0.75000000  1
  As  As19  1  0.97043535  0.93815146  0.25000000  1
  As  As20  1  0.72720018  0.77088066  0.66401274  1
  As  As21  1  0.27279982  0.22911934  0.16401274  1
  As  As22  1  0.27279982  0.22911934  0.33598726  1
  As  As23  1  0.72720018  0.77088066  0.83598726  1
  As  As24  1  0.18384729  0.37447429  0.61399396  1
  As  As25  1  0.81615271  0.62552571  0.11399396  1
  As  As26  1  0.81615271  0.62552571  0.38600604  1
  As  As27  1  0.18384729  0.37447429  0.88600604  1
  O  O28  1  0.99948645  0.89592191  0.70125366  1
  O  O29  1  0.00051355  0.10407809  0.20125366  1
  O  O30  1  0.00051355  0.10407809  0.29874634  1
  O  O31  1  0.99948645  0.89592191  0.79874634  1
  O  O32  1  0.98260202  0.37375764  0.65814972  1
  O  O33  1  0.01739798  0.62624236  0.15814972  1
  O  O34  1  0.01739798  0.62624236  0.34185028  1
  O  O35  1  0.98260202  0.37375764  0.84185028  1
  O  O36  1  0.60823342  0.36865718  0.51977895  1
  O  O37  1  0.39176658  0.63134282  0.01977895  1
  O  O38  1  0.39176658  0.63134282  0.48022105  1
  O  O39  1  0.60823342  0.36865718  0.98022105  1
  O  O40  1  0.92080026  0.17472624  0.47132324  1
  O  O41  1  0.07919974  0.82527376  0.97132324  1
  O  O42  1  0.07919974  0.82527376  0.52867676  1
  O  O43  1  0.92080026  0.17472624  0.02867676  1
  O  O44  1  0.04175394  0.29831372  0.55803609  1
  O  O45  1  0.95824606  0.70168628  0.05803609  1
  O  O46  1  0.95824606  0.70168628  0.44196391  1
  O  O47  1  0.04175394  0.29831372  0.94196391  1
  O  O48  1  0.81368973  0.18912550  0.75000000  1
  O  O49  1  0.18631027  0.81087450  0.25000000  1
  O  O50  1  0.60463661  0.97178692  0.54808915  1
  O  O51  1  0.39536339  0.02821308  0.04808915  1
  O  O52  1  0.39536339  0.02821308  0.45191085  1
  O  O53  1  0.60463661  0.97178692  0.95191085  1
  O  O54  1  0.89137015  0.76265958  0.61341528  1
  O  O55  1  0.10862985  0.23734042  0.11341528  1
  O  O56  1  0.10862985  0.23734042  0.38658472  1
  O  O57  1  0.89137015  0.76265958  0.88658472  1
  O  O58  1  0.37658812  0.60992662  0.59839672  1
  O  O59  1  0.62341188  0.39007338  0.09839672  1
  O  O60  1  0.62341188  0.39007338  0.40160328  1
  O  O61  1  0.37658812  0.60992662  0.90160328  1
  O  O62  1  0.54761981  0.93217811  0.66337811  1
  O  O63  1  0.45238019  0.06782189  0.16337811  1
  O  O64  1  0.45238019  0.06782189  0.33662189  1
  O  O65  1  0.54761981  0.93217811  0.83662189  1
  O  O66  1  0.33392382  0.19869017  0.75000000  1
  O  O67  1  0.66607618  0.80130983  0.25000000  1
  O  O68  1  0.59235038  0.55271517  0.69351253  1
  O  O69  1  0.40764962  0.44728483  0.19351253  1
  O  O70  1  0.40764962  0.44728483  0.30648747  1
  O  O71  1  0.59235038  0.55271517  0.80648747  1
  O  O72  1  0.35118943  0.20700425  0.62386326  1
  O  O73  1  0.64881057  0.79299575  0.12386326  1
  O  O74  1  0.64881057  0.79299575  0.37613674  1
  O  O75  1  0.35118943  0.20700425  0.87613674  1
