# generated using pymatgen
data_HoSi3Ni5
_symmetry_space_group_name_H-M   'P 1'
_cell_length_a   3.76665138
_cell_length_b   6.69234933
_cell_length_c   18.62395743
_cell_angle_alpha   90.00000000
_cell_angle_beta   90.00000000
_cell_angle_gamma   90.00000000
_symmetry_Int_Tables_number   1
_chemical_formula_structural   HoSi3Ni5
_chemical_formula_sum   'Ho4 Si12 Ni20'
_cell_volume   469.46800404
_cell_formula_units_Z   4
loop_
 _symmetry_equiv_pos_site_id
 _symmetry_equiv_pos_as_xyz
  1  'x, y, z'
loop_
 _atom_site_type_symbol
 _atom_site_label
 _atom_site_symmetry_multiplicity
 _atom_site_fract_x
 _atom_site_fract_y
 _atom_site_fract_z
 _atom_site_occupancy
  Ho  Ho0  1  0.25000000  0.62211991  0.64355782  1
  Ho  Ho1  1  0.25000000  0.87788009  0.14355782  1
  Ho  Ho2  1  0.75000000  0.37788009  0.35644218  1
  Ho  Ho3  1  0.75000000  0.12211991  0.85644218  1
  Si  Si4  1  0.25000000  0.41296035  0.91543971  1
  Si  Si5  1  0.25000000  0.08703965  0.41543971  1
  Si  Si6  1  0.75000000  0.58703965  0.08456029  1
  Si  Si7  1  0.75000000  0.91296035  0.58456029  1
  Si  Si8  1  0.25000000  0.12184914  0.73728525  1
  Si  Si9  1  0.25000000  0.37815086  0.23728525  1
  Si  Si10  1  0.75000000  0.87815086  0.26271475  1
  Si  Si11  1  0.75000000  0.62184914  0.76271475  1
  Si  Si12  1  0.25000000  0.84691670  0.92440469  1
  Si  Si13  1  0.25000000  0.65308330  0.42440469  1
  Si  Si14  1  0.75000000  0.15308330  0.07559531  1
  Si  Si15  1  0.75000000  0.34691670  0.57559531  1
  Ni  Ni16  1  0.25000000  0.81453864  0.79874335  1
  Ni  Ni17  1  0.25000000  0.68546136  0.29874335  1
  Ni  Ni18  1  0.75000000  0.18546136  0.20125665  1
  Ni  Ni19  1  0.75000000  0.31453864  0.70125665  1
  Ni  Ni20  1  0.25000000  0.13158380  0.99380568  1
  Ni  Ni21  1  0.25000000  0.36841620  0.49380568  1
  Ni  Ni22  1  0.75000000  0.86841620  0.00619432  1
  Ni  Ni23  1  0.75000000  0.63158380  0.50619432  1
  Ni  Ni24  1  0.25000000  0.88113554  0.51384870  1
  Ni  Ni25  1  0.25000000  0.61886446  0.01384870  1
  Ni  Ni26  1  0.75000000  0.11886446  0.48615130  1
  Ni  Ni27  1  0.75000000  0.38113554  0.98615130  1
  Ni  Ni28  1  0.25000000  0.14417720  0.61390227  1
  Ni  Ni29  1  0.25000000  0.35582280  0.11390227  1
  Ni  Ni30  1  0.75000000  0.85582280  0.38609773  1
  Ni  Ni31  1  0.75000000  0.64417720  0.88609773  1
  Ni  Ni32  1  0.25000000  0.42929717  0.79475076  1
  Ni  Ni33  1  0.25000000  0.07070283  0.29475076  1
  Ni  Ni34  1  0.75000000  0.57070283  0.20524924  1
  Ni  Ni35  1  0.75000000  0.92929717  0.70524924  1
