# generated using pymatgen
data_Gd2ZrS5
_symmetry_space_group_name_H-M   'P 1'
_cell_length_a   7.30517029
_cell_length_b   7.83678898
_cell_length_c   11.61509696
_cell_angle_alpha   90.00000000
_cell_angle_beta   90.00000000
_cell_angle_gamma   90.00000000
_symmetry_Int_Tables_number   1
_chemical_formula_structural   Gd2ZrS5
_chemical_formula_sum   'Gd8 Zr4 S20'
_cell_volume   664.95359214
_cell_formula_units_Z   4
loop_
 _symmetry_equiv_pos_site_id
 _symmetry_equiv_pos_as_xyz
  1  'x, y, z'
loop_
 _atom_site_type_symbol
 _atom_site_label
 _atom_site_symmetry_multiplicity
 _atom_site_fract_x
 _atom_site_fract_y
 _atom_site_fract_z
 _atom_site_occupancy
  Gd  Gd0  1  0.97734370  0.00200992  0.17860747  1
  Gd  Gd1  1  0.52265630  0.49799008  0.67860747  1
  Gd  Gd2  1  0.02265630  0.50200992  0.82139253  1
  Gd  Gd3  1  0.47734370  0.99799008  0.32139253  1
  Gd  Gd4  1  0.02265630  0.99799008  0.82139253  1
  Gd  Gd5  1  0.47734370  0.50200992  0.32139253  1
  Gd  Gd6  1  0.97734370  0.49799008  0.17860747  1
  Gd  Gd7  1  0.52265630  0.00200992  0.67860747  1
  Zr  Zr8  1  0.42077959  0.75000000  0.00734100  1
  Zr  Zr9  1  0.07922041  0.75000000  0.50734100  1
  Zr  Zr10  1  0.57922041  0.25000000  0.99265900  1
  Zr  Zr11  1  0.92077959  0.25000000  0.49265900  1
  S  S12  1  0.66043891  0.53781519  0.90741046  1
  S  S13  1  0.83956109  0.96218481  0.40741046  1
  S  S14  1  0.33956109  0.03781519  0.09258954  1
  S  S15  1  0.16043891  0.46218481  0.59258954  1
  S  S16  1  0.33956109  0.46218481  0.09258954  1
  S  S17  1  0.16043891  0.03781519  0.59258954  1
  S  S18  1  0.66043891  0.96218481  0.90741046  1
  S  S19  1  0.83956109  0.53781519  0.40741046  1
  S  S20  1  0.66629882  0.75000000  0.18241756  1
  S  S21  1  0.83370118  0.75000000  0.68241756  1
  S  S22  1  0.33370118  0.25000000  0.81758244  1
  S  S23  1  0.16629882  0.25000000  0.31758244  1
  S  S24  1  0.05091531  0.75000000  0.00342178  1
  S  S25  1  0.44908469  0.75000000  0.50342178  1
  S  S26  1  0.94908469  0.25000000  0.99657822  1
  S  S27  1  0.55091531  0.25000000  0.49657822  1
  S  S28  1  0.30971431  0.75000000  0.79172939  1
  S  S29  1  0.19028569  0.75000000  0.29172939  1
  S  S30  1  0.69028569  0.25000000  0.20827061  1
  S  S31  1  0.80971431  0.25000000  0.70827061  1
