# generated using pymatgen
data_Gd2ZrSe5
_symmetry_space_group_name_H-M   'P 1'
_cell_length_a   7.66505901
_cell_length_b   8.18955021
_cell_length_c   12.18436281
_cell_angle_alpha   90.00000000
_cell_angle_beta   90.00000000
_cell_angle_gamma   90.00000000
_symmetry_Int_Tables_number   1
_chemical_formula_structural   Gd2ZrSe5
_chemical_formula_sum   'Gd8 Zr4 Se20'
_cell_volume   764.85370527
_cell_formula_units_Z   4
loop_
 _symmetry_equiv_pos_site_id
 _symmetry_equiv_pos_as_xyz
  1  'x, y, z'
loop_
 _atom_site_type_symbol
 _atom_site_label
 _atom_site_symmetry_multiplicity
 _atom_site_fract_x
 _atom_site_fract_y
 _atom_site_fract_z
 _atom_site_occupancy
  Gd  Gd0  1  0.47480633  0.99678714  0.67853975  1
  Gd  Gd1  1  0.02519367  0.50321286  0.17853975  1
  Gd  Gd2  1  0.52519367  0.49678714  0.32146025  1
  Gd  Gd3  1  0.97480633  0.00321286  0.82146025  1
  Gd  Gd4  1  0.52519367  0.00321286  0.32146025  1
  Gd  Gd5  1  0.97480633  0.49678714  0.82146025  1
  Gd  Gd6  1  0.47480633  0.50321286  0.67853975  1
  Gd  Gd7  1  0.02519367  0.99678714  0.17853975  1
  Zr  Zr8  1  0.92314384  0.25000000  0.50642090  1
  Zr  Zr9  1  0.57685616  0.25000000  0.00642090  1
  Zr  Zr10  1  0.07685616  0.75000000  0.49357910  1
  Zr  Zr11  1  0.42314384  0.75000000  0.99357910  1
  Se  Se12  1  0.33660779  0.03723250  0.90763465  1
  Se  Se13  1  0.16339221  0.46276750  0.40763465  1
  Se  Se14  1  0.66339221  0.53723250  0.09236535  1
  Se  Se15  1  0.83660779  0.96276750  0.59236535  1
  Se  Se16  1  0.66339221  0.96276750  0.09236535  1
  Se  Se17  1  0.83660779  0.53723250  0.59236535  1
  Se  Se18  1  0.33660779  0.46276750  0.90763465  1
  Se  Se19  1  0.16339221  0.03723250  0.40763465  1
  Se  Se20  1  0.16734452  0.25000000  0.68214676  1
  Se  Se21  1  0.33265548  0.25000000  0.18214676  1
  Se  Se22  1  0.83265548  0.75000000  0.31785324  1
  Se  Se23  1  0.66734452  0.75000000  0.81785324  1
  Se  Se24  1  0.94800098  0.25000000  0.00321034  1
  Se  Se25  1  0.55199902  0.25000000  0.50321034  1
  Se  Se26  1  0.05199902  0.75000000  0.99678966  1
  Se  Se27  1  0.44800098  0.75000000  0.49678966  1
  Se  Se28  1  0.68692198  0.25000000  0.79160987  1
  Se  Se29  1  0.81307802  0.25000000  0.29160987  1
  Se  Se30  1  0.31307802  0.75000000  0.20839013  1
  Se  Se31  1  0.18692198  0.75000000  0.70839013  1
