# generated using pymatgen
data_Cs8Ga11
_symmetry_space_group_name_H-M   'P 1'
_cell_length_a   10.12991406
_cell_length_b   10.12991406
_cell_length_c   18.13348316
_cell_angle_alpha   73.78066373
_cell_angle_beta   73.78066373
_cell_angle_gamma   59.99999556
_symmetry_Int_Tables_number   1
_chemical_formula_structural   Cs8Ga11
_chemical_formula_sum   'Cs16 Ga22'
_cell_volume   1525.35837664
_cell_formula_units_Z   2
loop_
 _symmetry_equiv_pos_site_id
 _symmetry_equiv_pos_as_xyz
  1  'x, y, z'
loop_
 _atom_site_type_symbol
 _atom_site_label
 _atom_site_symmetry_multiplicity
 _atom_site_fract_x
 _atom_site_fract_y
 _atom_site_fract_z
 _atom_site_occupancy
  Cs  Cs0  1  0.81363770  0.59711045  0.43157452  1
  Cs  Cs1  1  0.59711045  0.15767732  0.43157452  1
  Cs  Cs2  1  0.15767732  0.81363770  0.43157452  1
  Cs  Cs3  1  0.31363770  0.65767732  0.93157452  1
  Cs  Cs4  1  0.65767732  0.09711045  0.93157452  1
  Cs  Cs5  1  0.09711045  0.31363770  0.93157452  1
  Cs  Cs6  1  0.18636230  0.40288955  0.56842548  1
  Cs  Cs7  1  0.40288955  0.84232268  0.56842548  1
  Cs  Cs8  1  0.84232268  0.18636230  0.56842548  1
  Cs  Cs9  1  0.68636230  0.34232268  0.06842548  1
  Cs  Cs10  1  0.34232268  0.90288955  0.06842548  1
  Cs  Cs11  1  0.90288955  0.68636230  0.06842548  1
  Cs  Cs12  1  0.57781641  0.57781641  0.26655078  1
  Cs  Cs13  1  0.07781641  0.07781641  0.76655078  1
  Cs  Cs14  1  0.42218359  0.42218359  0.73344922  1
  Cs  Cs15  1  0.92218359  0.92218359  0.23344922  1
  Ga  Ga16  1  0.93688648  0.56311352  0.75000000  1
  Ga  Ga17  1  0.56311352  0.75000000  0.75000000  1
  Ga  Ga18  1  0.75000000  0.93688648  0.75000000  1
  Ga  Ga19  1  0.43688648  0.25000000  0.25000000  1
  Ga  Ga20  1  0.25000000  0.06311352  0.25000000  1
  Ga  Ga21  1  0.06311352  0.43688648  0.25000000  1
  Ga  Ga22  1  0.20587328  0.20587328  0.38238016  1
  Ga  Ga23  1  0.70587328  0.70587328  0.88238016  1
  Ga  Ga24  1  0.79412672  0.79412672  0.61761984  1
  Ga  Ga25  1  0.29412672  0.29412672  0.11761984  1
  Ga  Ga26  1  0.47507677  0.96715658  0.33130579  1
  Ga  Ga27  1  0.96715658  0.22646086  0.33130579  1
  Ga  Ga28  1  0.22646086  0.47507677  0.33130579  1
  Ga  Ga29  1  0.97507677  0.72646086  0.83130579  1
  Ga  Ga30  1  0.72646086  0.46715658  0.83130579  1
  Ga  Ga31  1  0.46715658  0.97507677  0.83130579  1
  Ga  Ga32  1  0.52492323  0.03284342  0.66869421  1
  Ga  Ga33  1  0.03284342  0.77353914  0.66869421  1
  Ga  Ga34  1  0.77353914  0.52492323  0.66869421  1
  Ga  Ga35  1  0.02492323  0.27353914  0.16869421  1
  Ga  Ga36  1  0.27353914  0.53284342  0.16869421  1
  Ga  Ga37  1  0.53284342  0.02492323  0.16869421  1
