# generated using pymatgen
data_Ho11(In3Si2)2
_symmetry_space_group_name_H-M   'P 1'
_cell_length_a   11.41714079
_cell_length_b   11.41714079
_cell_length_c   11.41714079
_cell_angle_alpha   90.20475703
_cell_angle_beta   119.88185397
_cell_angle_gamma   119.88185397
_symmetry_Int_Tables_number   1
_chemical_formula_structural   Ho11(In3Si2)2
_chemical_formula_sum   'Ho22 In12 Si8'
_cell_volume   1054.21436370
_cell_formula_units_Z   2
loop_
 _symmetry_equiv_pos_site_id
 _symmetry_equiv_pos_as_xyz
  1  'x, y, z'
loop_
 _atom_site_type_symbol
 _atom_site_label
 _atom_site_symmetry_multiplicity
 _atom_site_fract_x
 _atom_site_fract_y
 _atom_site_fract_z
 _atom_site_occupancy
  Ho  Ho0  1  0.74900854  0.06520586  0.31619732  1
  Ho  Ho1  1  0.25099146  0.56718878  0.31619732  1
  Ho  Ho2  1  0.74900854  0.31619732  0.06520586  1
  Ho  Ho3  1  0.25099146  0.31619732  0.56718878  1
  Ho  Ho4  1  0.25099146  0.93479414  0.68380268  1
  Ho  Ho5  1  0.74900854  0.43281122  0.68380268  1
  Ho  Ho6  1  0.25099146  0.68380268  0.93479414  1
  Ho  Ho7  1  0.74900854  0.68380268  0.43281122  1
  Ho  Ho8  1  0.65296258  0.75439455  0.10143197  1
  Ho  Ho9  1  0.34703742  0.44846938  0.10143197  1
  Ho  Ho10  1  0.65296258  0.10143197  0.75439455  1
  Ho  Ho11  1  0.34703742  0.10143197  0.44846938  1
  Ho  Ho12  1  0.34703742  0.24560545  0.89856803  1
  Ho  Ho13  1  0.65296258  0.55153062  0.89856803  1
  Ho  Ho14  1  0.34703742  0.89856803  0.24560545  1
  Ho  Ho15  1  0.65296258  0.89856803  0.55153062  1
  Ho  Ho16  1  0.33605806  0.66802903  0.66802903  1
  Ho  Ho17  1  0.66394194  0.33197097  0.33197097  1
  Ho  Ho18  1  -0.00000000  0.33197097  0.66802903  1
  Ho  Ho19  1  -0.00000000  0.66802903  0.33197097  1
  Ho  Ho20  1  0.00000000  0.17163520  0.17163520  1
  Ho  Ho21  1  0.00000000  0.82836480  0.82836480  1
  In  In22  1  0.58931151  0.96609667  0.96609667  1
  In  In23  1  0.41068849  0.37678516  0.37678516  1
  In  In24  1  0.00000000  0.37678516  0.96609667  1
  In  In25  1  0.00000000  0.96609667  0.37678516  1
  In  In26  1  0.41068849  0.03390333  0.03390333  1
  In  In27  1  0.58931151  0.62321484  0.62321484  1
  In  In28  1  0.00000000  0.62321484  0.03390333  1
  In  In29  1  0.00000000  0.03390333  0.62321484  1
  In  In30  1  0.74258162  0.87129081  0.87129081  1
  In  In31  1  0.25741838  0.12870919  0.12870919  1
  In  In32  1  -0.00000000  0.12870919  0.87129081  1
  In  In33  1  0.00000000  0.87129081  0.12870919  1
  Si  Si34  1  0.34753837  0.50000000  0.84753837  1
  Si  Si35  1  0.65246163  0.50000000  0.15246163  1
  Si  Si36  1  0.65246163  0.15246163  0.50000000  1
  Si  Si37  1  0.34753837  0.84753837  0.50000000  1
  Si  Si38  1  0.00000000  0.38337729  0.38337729  1
  Si  Si39  1  0.00000000  0.61662271  0.61662271  1
  Si  Si40  1  0.50000000  0.75000000  0.25000000  1
  Si  Si41  1  0.50000000  0.25000000  0.75000000  1
