# generated using pymatgen
data_Nb2As
_symmetry_space_group_name_H-M   'P 1'
_cell_length_a   3.53991348
_cell_length_b   14.31065831
_cell_length_c   18.61888570
_cell_angle_alpha   90.00000000
_cell_angle_beta   90.00000000
_cell_angle_gamma   90.00000000
_symmetry_Int_Tables_number   1
_chemical_formula_structural   Nb2As
_chemical_formula_sum   'Nb36 As18'
_cell_volume   943.20467711
_cell_formula_units_Z   18
loop_
 _symmetry_equiv_pos_site_id
 _symmetry_equiv_pos_as_xyz
  1  'x, y, z'
loop_
 _atom_site_type_symbol
 _atom_site_label
 _atom_site_symmetry_multiplicity
 _atom_site_fract_x
 _atom_site_fract_y
 _atom_site_fract_z
 _atom_site_occupancy
  Nb  Nb0  1  -0.00000000  0.00000000  0.50000000  1
  Nb  Nb1  1  -0.00000000  0.00000000  -0.00000000  1
  Nb  Nb2  1  0.50000000  0.50000000  0.50000000  1
  Nb  Nb3  1  0.50000000  0.50000000  -0.00000000  1
  Nb  Nb4  1  0.00000000  0.11979128  0.25000000  1
  Nb  Nb5  1  -0.00000000  0.88020872  0.75000000  1
  Nb  Nb6  1  0.00000000  0.38027221  0.25000000  1
  Nb  Nb7  1  0.00000000  0.61972779  0.75000000  1
  Nb  Nb8  1  0.00000000  0.88771277  0.25000000  1
  Nb  Nb9  1  -0.00000000  0.11228723  0.75000000  1
  Nb  Nb10  1  0.50000000  0.55514820  0.25000000  1
  Nb  Nb11  1  0.50000000  0.44485180  0.75000000  1
  Nb  Nb12  1  -0.00000000  0.33972374  0.43665174  1
  Nb  Nb13  1  -0.00000000  0.66027626  0.56334826  1
  Nb  Nb14  1  0.00000000  0.33972374  0.06334826  1
  Nb  Nb15  1  -0.00000000  0.66027626  0.93665174  1
  Nb  Nb16  1  -0.00000000  0.56823106  0.38042844  1
  Nb  Nb17  1  0.00000000  0.43176894  0.61957156  1
  Nb  Nb18  1  -0.00000000  0.56823106  0.11957156  1
  Nb  Nb19  1  -0.00000000  0.43176894  0.88042844  1
  Nb  Nb20  1  0.50000000  0.15705514  0.49854302  1
  Nb  Nb21  1  0.50000000  0.84294486  0.50145698  1
  Nb  Nb22  1  0.50000000  0.15705514  0.00145698  1
  Nb  Nb23  1  0.50000000  0.84294486  0.99854302  1
  Nb  Nb24  1  0.50000000  0.00309676  0.34907438  1
  Nb  Nb25  1  0.50000000  0.99690324  0.65092562  1
  Nb  Nb26  1  0.50000000  0.00309676  0.15092562  1
  Nb  Nb27  1  0.50000000  0.99690324  0.84907438  1
  Nb  Nb28  1  0.50000000  0.24056500  0.33312101  1
  Nb  Nb29  1  0.50000000  0.75943500  0.66687899  1
  Nb  Nb30  1  0.50000000  0.24056500  0.16687899  1
  Nb  Nb31  1  0.50000000  0.75943500  0.83312101  1
  Nb  Nb32  1  0.50000000  0.23827341  0.83553711  1
  Nb  Nb33  1  0.50000000  0.76172659  0.16446289  1
  Nb  Nb34  1  0.50000000  0.23827341  0.66446289  1
  Nb  Nb35  1  0.50000000  0.76172659  0.33553711  1
  As  As36  1  -0.00000000  0.68521430  0.25000000  1
  As  As37  1  -0.00000000  0.31478570  0.75000000  1
  As  As38  1  0.00000000  0.13405680  0.39516584  1
  As  As39  1  -0.00000000  0.86594320  0.60483416  1
  As  As40  1  0.00000000  0.13405680  0.10483416  1
  As  As41  1  -0.00000000  0.86594320  0.89516584  1
  As  As42  1  -0.00000000  0.12779627  0.89502475  1
  As  As43  1  0.00000000  0.87220373  0.10497525  1
  As  As44  1  -0.00000000  0.12779627  0.60497525  1
  As  As45  1  -0.00000000  0.87220373  0.39502475  1
  As  As46  1  0.50000000  0.42956536  0.35680018  1
  As  As47  1  0.50000000  0.57043464  0.64319982  1
  As  As48  1  0.50000000  0.42956536  0.14319982  1
  As  As49  1  0.50000000  0.57043464  0.85680018  1
  As  As50  1  0.50000000  0.32722834  0.95513829  1
  As  As51  1  0.50000000  0.67277166  0.04486171  1
  As  As52  1  0.50000000  0.32722834  0.54486171  1
  As  As53  1  0.50000000  0.67277166  0.45513829  1
