# generated using pymatgen
data_CsAu(IO3)4
_symmetry_space_group_name_H-M   'P 1'
_cell_length_a   7.98190237
_cell_length_b   8.11574664
_cell_length_c   11.22072170
_cell_angle_alpha   75.43623170
_cell_angle_beta   71.30599333
_cell_angle_gamma   84.53575851
_symmetry_Int_Tables_number   1
_chemical_formula_structural   CsAu(IO3)4
_chemical_formula_sum   'Cs2 Au2 I8 O24'
_cell_volume   666.31327320
_cell_formula_units_Z   2
loop_
 _symmetry_equiv_pos_site_id
 _symmetry_equiv_pos_as_xyz
  1  'x, y, z'
loop_
 _atom_site_type_symbol
 _atom_site_label
 _atom_site_symmetry_multiplicity
 _atom_site_fract_x
 _atom_site_fract_y
 _atom_site_fract_z
 _atom_site_occupancy
  Cs  Cs0  1  0.05612762  0.17796213  0.14437832  1
  Cs  Cs1  1  0.94387238  0.82203787  0.85562168  1
  Au  Au2  1  0.57176785  0.04678850  0.21286483  1
  Au  Au3  1  0.42823215  0.95321150  0.78713517  1
  I  I4  1  0.28276590  0.29058473  0.41267518  1
  I  I5  1  0.71723410  0.70941527  0.58732482  1
  I  I6  1  0.66000490  0.33372987  0.90418844  1
  I  I7  1  0.33999510  0.66627013  0.09581156  1
  I  I8  1  0.23958680  0.79245521  0.46907388  1
  I  I9  1  0.76041320  0.20754479  0.53092612  1
  I  I10  1  0.75998672  0.65416456  0.24933509  1
  I  I11  1  0.24001328  0.34583544  0.75066491  1
  O  O12  1  0.36617486  0.21088173  0.25417995  1
  O  O13  1  0.63382514  0.78911827  0.74582005  1
  O  O14  1  0.34556609  0.51368300  0.33774114  1
  O  O15  1  0.65443391  0.48631700  0.66225886  1
  O  O16  1  0.05975318  0.31309854  0.39834011  1
  O  O17  1  0.94024682  0.68690146  0.60165989  1
  O  O18  1  0.70351697  0.14836188  0.83626896  1
  O  O19  1  0.29648303  0.85163812  0.16373104  1
  O  O20  1  0.42067821  0.35254822  0.95019054  1
  O  O21  1  0.57932179  0.64745178  0.04980946  1
  O  O22  1  0.70119455  0.23747772  0.06763332  1
  O  O23  1  0.29880545  0.76252228  0.93236668  1
  O  O24  1  0.48624053  0.85346677  0.37239143  1
  O  O25  1  0.51375947  0.14653323  0.62760857  1
  O  O26  1  0.18268751  0.98249938  0.53162788  1
  O  O27  1  0.81731249  0.01750062  0.46837212  1
  O  O28  1  0.31363871  0.65675915  0.59860927  1
  O  O29  1  0.68636129  0.34324085  0.40139073  1
  O  O30  1  0.77857376  0.88947515  0.15364248  1
  O  O31  1  0.22142624  0.11052485  0.84635752  1
  O  O32  1  0.86235040  0.67820852  0.36850085  1
  O  O33  1  0.13764960  0.32179148  0.63149915  1
  O  O34  1  0.95256870  0.59051138  0.13200334  1
  O  O35  1  0.04743130  0.40948862  0.86799666  1
