# generated using pymatgen
data_Er6Al43W4
_symmetry_space_group_name_H-M   'P 1'
_cell_length_a   11.04997055
_cell_length_b   11.04982383
_cell_length_c   17.58024194
_cell_angle_alpha   90.00000000
_cell_angle_beta   90.00000000
_cell_angle_gamma   120.00044343
_symmetry_Int_Tables_number   1
_chemical_formula_structural   Er6Al43W4
_chemical_formula_sum   'Er12 Al86 W8'
_cell_volume   1858.95986432
_cell_formula_units_Z   2
loop_
 _symmetry_equiv_pos_site_id
 _symmetry_equiv_pos_as_xyz
  1  'x, y, z'
loop_
 _atom_site_type_symbol
 _atom_site_label
 _atom_site_symmetry_multiplicity
 _atom_site_fract_x
 _atom_site_fract_y
 _atom_site_fract_z
 _atom_site_occupancy
  Er  Er0  1  0.53141517  0.00000000  0.59559267  1
  Er  Er1  1  0.46857279  0.46857624  0.59559876  1
  Er  Er2  1  0.99999655  0.53142376  0.59559876  1
  Er  Er3  1  0.46858483  1.00000000  0.40440733  1
  Er  Er4  1  0.53142721  0.53142376  0.40440124  1
  Er  Er5  1  0.00000345  0.46857624  0.40440124  1
  Er  Er6  1  0.46858483  1.00000000  0.09559267  1
  Er  Er7  1  0.53142721  0.53142376  0.09559876  1
  Er  Er8  1  0.00000345  0.46857624  0.09559876  1
  Er  Er9  1  0.53141517  0.00000000  0.90440733  1
  Er  Er10  1  0.46857279  0.46857624  0.90440124  1
  Er  Er11  1  0.99999655  0.53142376  0.90440124  1
  Al  Al12  1  0.15816783  0.39498280  0.66339488  1
  Al  Al13  1  0.23681202  0.84183830  0.66339517  1
  Al  Al14  1  0.60501293  0.76318226  0.66339492  1
  Al  Al15  1  0.76318503  0.60501720  0.66339488  1
  Al  Al16  1  0.39497372  0.15816170  0.66339517  1
  Al  Al17  1  0.84183068  0.23681774  0.66339492  1
  Al  Al18  1  0.84183217  0.60501720  0.33660512  1
  Al  Al19  1  0.76318798  0.15816170  0.33660483  1
  Al  Al20  1  0.39498707  0.23681774  0.33660508  1
  Al  Al21  1  0.23681497  0.39498280  0.33660512  1
  Al  Al22  1  0.60502628  0.84183830  0.33660483  1
  Al  Al23  1  0.15816932  0.76318226  0.33660508  1
  Al  Al24  1  0.84183217  0.60501720  0.16339488  1
  Al  Al25  1  0.76318798  0.15816170  0.16339517  1
  Al  Al26  1  0.39498707  0.23681774  0.16339492  1
  Al  Al27  1  0.23681497  0.39498280  0.16339488  1
  Al  Al28  1  0.60502628  0.84183830  0.16339517  1
  Al  Al29  1  0.15816932  0.76318226  0.16339492  1
  Al  Al30  1  0.15816783  0.39498280  0.83660512  1
  Al  Al31  1  0.23681202  0.84183830  0.83660483  1
  Al  Al32  1  0.60501293  0.76318226  0.83660508  1
  Al  Al33  1  0.76318503  0.60501720  0.83660512  1
  Al  Al34  1  0.39497372  0.15816170  0.83660483  1
  Al  Al35  1  0.84183068  0.23681774  0.83660508  1
  Al  Al36  1  0.15967365  1.00000000  0.11459613  1
  Al  Al37  1  0.84032711  0.84032505  0.11459571  1
  Al  Al38  1  0.00000206  0.15967495  0.11459571  1
  Al  Al39  1  0.84032635  0.00000000  0.88540387  1
  Al  Al40  1  0.15967289  0.15967495  0.88540429  1
  Al  Al41  1  0.99999794  0.84032505  0.88540429  1
  Al  Al42  1  0.84032635  0.00000000  0.61459613  1
  Al  Al43  1  0.15967289  0.15967495  0.61459571  1
  Al  Al44  1  0.99999794  0.84032505  0.61459571  1
  Al  Al45  1  0.15967365  1.00000000  0.38540387  1
  Al  Al46  1  0.84032711  0.84032505  0.38540429  1
  Al  Al47  1  0.00000206  0.15967495  0.38540429  1
  Al  Al48  1  0.25475907  1.00000000  0.53046760  1
  Al  Al49  1  0.74524227  0.74524047  0.53046716  1
  Al  Al50  1  0.00000180  0.25475953  0.53046716  1
  Al  Al51  1  0.74524093  0.00000000  0.46953240  1
  Al  Al52  1  0.25475773  0.25475953  0.46953284  1
  Al  Al53  1  0.99999820  0.74524047  0.46953284  1
  Al  Al54  1  0.74524093  0.00000000  0.03046760  1
  Al  Al55  1  0.25475773  0.25475953  0.03046716  1
  Al  Al56  1  0.99999820  0.74524047  0.03046716  1
  Al  Al57  1  0.25475907  1.00000000  0.96953240  1
  Al  Al58  1  0.74524227  0.74524047  0.96953284  1
  Al  Al59  1  0.00000180  0.25475953  0.96953284  1
  Al  Al60  1  0.14702315  0.59539833  0.75000000  1
  Al  Al61  1  0.44837501  0.85297617  0.75000000  1
  Al  Al62  1  0.40459786  0.55163013  0.75000000  1
  Al  Al63  1  0.55162482  0.40460167  0.75000000  1
  Al  Al64  1  0.59539885  0.14702383  0.75000000  1
  Al  Al65  1  0.85296773  0.44836987  0.75000000  1
  Al  Al66  1  0.85297685  0.40460167  0.25000000  1
  Al  Al67  1  0.55162499  0.14702383  0.25000000  1
  Al  Al68  1  0.59540214  0.44836987  0.25000000  1
  Al  Al69  1  0.44837518  0.59539833  0.25000000  1
  Al  Al70  1  0.40460115  0.85297617  0.25000000  1
  Al  Al71  1  0.14703227  0.55163013  0.25000000  1
  Al  Al72  1  0.24692350  0.49384700  0.50000000  1
  Al  Al73  1  0.24691780  0.75307655  0.49999670  1
  Al  Al74  1  0.50615876  0.75307655  0.50000330  1
  Al  Al75  1  0.75307650  0.50615300  0.50000000  1
  Al  Al76  1  0.49384124  0.24692345  0.49999670  1
  Al  Al77  1  0.75308220  0.24692345  0.50000330  1
  Al  Al78  1  0.75307650  0.50615300  -0.00000000  1
  Al  Al79  1  0.75308220  0.24692345  0.99999670  1
  Al  Al80  1  0.49384124  0.24692345  0.00000330  1
  Al  Al81  1  0.24692350  0.49384700  -0.00000000  1
  Al  Al82  1  0.50615876  0.75307655  0.99999670  1
  Al  Al83  1  0.24691780  0.75307655  0.00000330  1
  Al  Al84  1  0.33331904  0.66667952  0.62601004  1
  Al  Al85  1  0.66663952  0.33332048  0.62601004  1
  Al  Al86  1  0.66668096  0.33332048  0.37398996  1
  Al  Al87  1  0.33336048  0.66667952  0.37398996  1
  Al  Al88  1  0.66668096  0.33332048  0.12601004  1
  Al  Al89  1  0.33336048  0.66667952  0.12601004  1
  Al  Al90  1  0.33331904  0.66667952  0.87398996  1
  Al  Al91  1  0.66663952  0.33332048  0.87398996  1
  Al  Al92  1  0.14767887  1.00000000  0.75000000  1
  Al  Al93  1  0.85231723  0.85231492  0.75000000  1
  Al  Al94  1  0.00000231  0.14768508  0.75000000  1
  Al  Al95  1  0.85232113  0.00000000  0.25000000  1
  Al  Al96  1  0.14768277  0.14768508  0.25000000  1
  Al  Al97  1  -0.00000231  0.85231492  0.25000000  1
  W  W98  1  0.72875813  0.00000000  0.75000000  1
  W  W99  1  0.27122471  0.27123792  0.75000000  1
  W  W100  1  0.99998679  0.72876208  0.75000000  1
  W  W101  1  0.27124187  1.00000000  0.25000000  1
  W  W102  1  0.72877529  0.72876208  0.25000000  1
  W  W103  1  0.00001321  0.27123792  0.25000000  1
  W  W104  1  0.00000000  0.00000000  0.50000000  1
  W  W105  1  0.00000000  0.00000000  -0.00000000  1
