# generated using pymatgen
data_Ho4RuBr5
_symmetry_space_group_name_H-M   'P 1'
_cell_length_a   11.82913283
_cell_length_b   11.82913283
_cell_length_c   17.18829055
_cell_angle_alpha   90.00000000
_cell_angle_beta   90.00000000
_cell_angle_gamma   90.00000000
_symmetry_Int_Tables_number   1
_chemical_formula_structural   Ho4RuBr5
_chemical_formula_sum   'Ho32 Ru8 Br40'
_cell_volume   2405.12971196
_cell_formula_units_Z   8
loop_
 _symmetry_equiv_pos_site_id
 _symmetry_equiv_pos_as_xyz
  1  'x, y, z'
loop_
 _atom_site_type_symbol
 _atom_site_label
 _atom_site_symmetry_multiplicity
 _atom_site_fract_x
 _atom_site_fract_y
 _atom_site_fract_z
 _atom_site_occupancy
  Ho  Ho0  1  0.11878773  0.88121227  0.34277744  1
  Ho  Ho1  1  0.61878773  0.11878773  0.84277744  1
  Ho  Ho2  1  0.88121227  0.38121227  0.84277744  1
  Ho  Ho3  1  0.38121227  0.61878773  0.34277744  1
  Ho  Ho4  1  0.88121227  0.11878773  0.65722256  1
  Ho  Ho5  1  0.38121227  0.88121227  0.15722256  1
  Ho  Ho6  1  0.11878773  0.61878773  0.15722256  1
  Ho  Ho7  1  0.61878773  0.38121227  0.65722256  1
  Ho  Ho8  1  0.13381354  0.42222555  0.32650894  1
  Ho  Ho9  1  0.63381354  0.57777445  0.82650894  1
  Ho  Ho10  1  0.86618646  0.92222555  0.82650894  1
  Ho  Ho11  1  0.36618646  0.07777445  0.32650894  1
  Ho  Ho12  1  0.86618646  0.57777445  0.67349106  1
  Ho  Ho13  1  0.36618646  0.42222555  0.17349106  1
  Ho  Ho14  1  0.13381354  0.07777445  0.17349106  1
  Ho  Ho15  1  0.63381354  0.92222555  0.67349106  1
  Ho  Ho16  1  0.92222555  0.63381354  0.32650894  1
  Ho  Ho17  1  0.07777445  0.13381354  0.82650894  1
  Ho  Ho18  1  0.42222555  0.36618646  0.82650894  1
  Ho  Ho19  1  0.57777445  0.86618646  0.32650894  1
  Ho  Ho20  1  0.07777445  0.36618646  0.67349106  1
  Ho  Ho21  1  0.92222555  0.86618646  0.17349106  1
  Ho  Ho22  1  0.57777445  0.63381354  0.17349106  1
  Ho  Ho23  1  0.42222555  0.13381354  0.67349106  1
  Ho  Ho24  1  0.13689067  0.63689067  0.47670388  1
  Ho  Ho25  1  0.63689067  0.36310933  0.97670388  1
  Ho  Ho26  1  0.86310933  0.13689067  0.97670388  1
  Ho  Ho27  1  0.36310933  0.86310933  0.47670388  1
  Ho  Ho28  1  0.86310933  0.36310933  0.52329612  1
  Ho  Ho29  1  0.36310933  0.63689067  0.02329612  1
  Ho  Ho30  1  0.13689067  0.86310933  0.02329612  1
  Ho  Ho31  1  0.63689067  0.13689067  0.52329612  1
  Ru  Ru32  1  0.14788027  0.64788027  0.31970295  1
  Ru  Ru33  1  0.64788027  0.35211973  0.81970295  1
  Ru  Ru34  1  0.85211973  0.14788027  0.81970295  1
  Ru  Ru35  1  0.35211973  0.85211973  0.31970295  1
  Ru  Ru36  1  0.85211973  0.35211973  0.68029705  1
  Ru  Ru37  1  0.35211973  0.64788027  0.18029705  1
  Ru  Ru38  1  0.14788027  0.85211973  0.18029705  1
  Ru  Ru39  1  0.64788027  0.14788027  0.68029705  1
  Br  Br40  1  0.11725704  0.38274296  0.50000000  1
  Br  Br41  1  0.61725704  0.61725704  -0.00000000  1
  Br  Br42  1  0.88274296  0.88274296  -0.00000000  1
  Br  Br43  1  0.38274296  0.11725704  0.50000000  1
  Br  Br44  1  0.88274296  0.61725704  0.50000000  1
  Br  Br45  1  0.38274296  0.38274296  -0.00000000  1
  Br  Br46  1  0.11725704  0.11725704  -0.00000000  1
  Br  Br47  1  0.61725704  0.88274296  0.50000000  1
  Br  Br48  1  0.89121769  0.39121769  0.33954873  1
  Br  Br49  1  0.39121769  0.60878231  0.83954873  1
  Br  Br50  1  0.10878231  0.89121769  0.83954873  1
  Br  Br51  1  0.60878231  0.10878231  0.33954873  1
  Br  Br52  1  0.10878231  0.60878231  0.66045127  1
  Br  Br53  1  0.60878231  0.39121769  0.16045127  1
  Br  Br54  1  0.89121769  0.10878231  0.16045127  1
  Br  Br55  1  0.39121769  0.89121769  0.66045127  1
  Br  Br56  1  0.87519040  0.12480960  0.47950954  1
  Br  Br57  1  0.37519040  0.87519040  0.97950954  1
  Br  Br58  1  0.12480960  0.62480960  0.97950954  1
  Br  Br59  1  0.62480960  0.37519040  0.47950954  1
  Br  Br60  1  0.12480960  0.87519040  0.52049046  1
  Br  Br61  1  0.62480960  0.12480960  0.02049046  1
  Br  Br62  1  0.87519040  0.37519040  0.02049046  1
  Br  Br63  1  0.37519040  0.62480960  0.52049046  1
  Br  Br64  1  0.12662545  0.15080839  0.33786270  1
  Br  Br65  1  0.62662545  0.84919161  0.83786270  1
  Br  Br66  1  0.87337455  0.65080839  0.83786270  1
  Br  Br67  1  0.37337455  0.34919161  0.33786270  1
  Br  Br68  1  0.87337455  0.84919161  0.66213730  1
  Br  Br69  1  0.37337455  0.15080839  0.16213730  1
  Br  Br70  1  0.12662545  0.34919161  0.16213730  1
  Br  Br71  1  0.62662545  0.65080839  0.66213730  1
  Br  Br72  1  0.65080839  0.62662545  0.33786270  1
  Br  Br73  1  0.34919161  0.12662545  0.83786270  1
  Br  Br74  1  0.15080839  0.37337455  0.83786270  1
  Br  Br75  1  0.84919161  0.87337455  0.33786270  1
  Br  Br76  1  0.34919161  0.37337455  0.66213730  1
  Br  Br77  1  0.65080839  0.87337455  0.16213730  1
  Br  Br78  1  0.84919161  0.62662545  0.16213730  1
  Br  Br79  1  0.15080839  0.12662545  0.66213730  1
