# generated using pymatgen
data_RbNd(MoO4)2
_symmetry_space_group_name_H-M   'P 1'
_cell_length_a   5.26549316
_cell_length_b   8.43524553
_cell_length_c   18.99362127
_cell_angle_alpha   90.00005755
_cell_angle_beta   90.00000000
_cell_angle_gamma   90.00000000
_symmetry_Int_Tables_number   1
_chemical_formula_structural   RbNd(MoO4)2
_chemical_formula_sum   'Rb4 Nd4 Mo8 O32'
_cell_volume   843.61550925
_cell_formula_units_Z   4
loop_
 _symmetry_equiv_pos_site_id
 _symmetry_equiv_pos_as_xyz
  1  'x, y, z'
loop_
 _atom_site_type_symbol
 _atom_site_label
 _atom_site_symmetry_multiplicity
 _atom_site_fract_x
 _atom_site_fract_y
 _atom_site_fract_z
 _atom_site_occupancy
  Rb  Rb0  1  0.50000027  0.25000056  0.26870977  1
  Rb  Rb1  1  0.00000027  0.74999944  0.23129023  1
  Rb  Rb2  1  0.49999973  0.74999944  0.73129023  1
  Rb  Rb3  1  -0.00000027  0.25000056  0.76870977  1
  Nd  Nd4  1  -0.00000019  0.25000035  0.00724125  1
  Nd  Nd5  1  0.49999981  0.74999965  0.49275875  1
  Nd  Nd6  1  0.00000019  0.74999965  0.99275875  1
  Nd  Nd7  1  0.50000019  0.25000035  0.50724125  1
  Mo  Mo8  1  0.47614642  0.51886562  0.10102430  1
  Mo  Mo9  1  0.02385252  0.01886541  0.39897547  1
  Mo  Mo10  1  0.97614642  0.48113438  0.39897570  1
  Mo  Mo11  1  0.52385252  0.98113459  0.10102453  1
  Mo  Mo12  1  0.52385358  0.48113438  0.89897570  1
  Mo  Mo13  1  0.97614748  0.98113459  0.60102453  1
  Mo  Mo14  1  0.02385358  0.51886562  0.60102430  1
  Mo  Mo15  1  0.47614748  0.01886541  0.89897547  1
  O  O16  1  0.27238371  0.34802953  0.10001513  1
  O  O17  1  0.22761582  0.84802945  0.39998485  1
  O  O18  1  0.77238371  0.65197047  0.39998487  1
  O  O19  1  0.72761582  0.15197055  0.10001515  1
  O  O20  1  0.72761629  0.65197047  0.89998487  1
  O  O21  1  0.77238418  0.15197055  0.60001515  1
  O  O22  1  0.22761629  0.34802953  0.60001513  1
  O  O23  1  0.27238418  0.84802945  0.89998485  1
  O  O24  1  0.26354121  0.68773667  0.09129072  1
  O  O25  1  0.23645898  0.18773656  0.40870915  1
  O  O26  1  0.76354121  0.31226333  0.40870928  1
  O  O27  1  0.73645898  0.81226344  0.09129085  1
  O  O28  1  0.73645879  0.31226333  0.90870928  1
  O  O29  1  0.76354102  0.81226344  0.59129085  1
  O  O30  1  0.23645879  0.68773667  0.59129072  1
  O  O31  1  0.26354102  0.18773656  0.90870915  1
  O  O32  1  0.74322384  0.49566900  0.03737381  1
  O  O33  1  0.75677638  0.99566921  0.46262596  1
  O  O34  1  0.24322384  0.50433100  0.46262619  1
  O  O35  1  0.25677638  0.00433079  0.03737404  1
  O  O36  1  0.25677616  0.50433100  0.96262619  1
  O  O37  1  0.24322362  0.00433079  0.53737404  1
  O  O38  1  0.75677616  0.49566900  0.53737381  1
  O  O39  1  0.74322362  0.99566921  0.96262596  1
  O  O40  1  0.59805580  0.52656295  0.18700691  1
  O  O41  1  0.90194408  0.02656283  0.31299295  1
  O  O42  1  0.09805580  0.47343705  0.31299309  1
  O  O43  1  0.40194408  0.97343717  0.18700705  1
  O  O44  1  0.40194420  0.47343705  0.81299309  1
  O  O45  1  0.09805592  0.97343717  0.68700705  1
  O  O46  1  0.90194420  0.52656295  0.68700691  1
  O  O47  1  0.59805592  0.02656283  0.81299295  1
