# generated using pymatgen
data_Li4V5SnO12
_symmetry_space_group_name_H-M   'P 1'
_cell_length_a   5.23737106
_cell_length_b   5.23737104
_cell_length_c   10.28645122
_cell_angle_alpha   90.24275803
_cell_angle_beta   90.24276018
_cell_angle_gamma   119.48001418
_symmetry_Int_Tables_number   1
_chemical_formula_structural   Li4V5SnO12
_chemical_formula_sum   'Li4 V5 Sn1 O12'
_cell_volume   245.61752796
_cell_formula_units_Z   1
loop_
 _symmetry_equiv_pos_site_id
 _symmetry_equiv_pos_as_xyz
  1  'x, y, z'
loop_
 _atom_site_type_symbol
 _atom_site_label
 _atom_site_symmetry_multiplicity
 _atom_site_fract_x
 _atom_site_fract_y
 _atom_site_fract_z
 _atom_site_occupancy
  Li  Li0  1  0.15439378  0.63599357  0.74699117  1
  Li  Li1  1  0.36400643  0.84560622  0.25300883  1
  Li  Li2  1  0.63599357  0.15439378  0.74699117  1
  Li  Li3  1  0.84560622  0.36400643  0.25300883  1
  V  V4  1  0.15740287  0.84259713  0.50000000  1
  V  V5  1  0.33644268  0.66355732  0.00000000  1
  V  V6  1  0.66355732  0.33644268  1.00000000  1
  V  V7  1  0.84259713  0.15740287  0.50000000  1
  V  V8  1  0.50000000  0.50000000  0.50000000  1
  Sn  Sn9  1  0.00000000  0.00000000  0.00000000  1
  O  O10  1  0.01618049  0.66486128  0.11006366  1
  O  O11  1  0.33513872  0.98381951  0.88993634  1
  O  O12  1  0.15661261  0.50502751  0.39615388  1
  O  O13  1  0.49497249  0.84338739  0.60384612  1
  O  O14  1  0.17513705  0.17513705  0.60137997  1
  O  O15  1  0.33781545  0.33781545  0.10139620  1
  O  O16  1  0.66218455  0.66218455  0.89860380  1
  O  O17  1  0.82486295  0.82486295  0.39862003  1
  O  O18  1  0.50502751  0.15661261  0.39615388  1
  O  O19  1  0.84338739  0.49497249  0.60384612  1
  O  O20  1  0.66486128  0.01618049  0.11006366  1
  O  O21  1  0.98381951  0.33513872  0.88993634  1
