# generated using pymatgen
data_Yb3Ge13Pt4
_symmetry_space_group_name_H-M   'P 1'
_cell_length_a   9.09287447
_cell_length_b   12.90641190
_cell_length_c   12.90641190
_cell_angle_alpha   90.00000000
_cell_angle_beta   90.00000000
_cell_angle_gamma   90.00000000
_symmetry_Int_Tables_number   1
_chemical_formula_structural   Yb3Ge13Pt4
_chemical_formula_sum   'Yb12 Ge52 Pt16'
_cell_volume   1514.64982151
_cell_formula_units_Z   4
loop_
 _symmetry_equiv_pos_site_id
 _symmetry_equiv_pos_as_xyz
  1  'x, y, z'
loop_
 _atom_site_type_symbol
 _atom_site_label
 _atom_site_symmetry_multiplicity
 _atom_site_fract_x
 _atom_site_fract_y
 _atom_site_fract_z
 _atom_site_occupancy
  Yb  Yb0  1  0.99950221  0.00000000  -0.00000000  1
  Yb  Yb1  1  0.49950221  0.00000000  -0.00000000  1
  Yb  Yb2  1  0.00191341  0.50000000  0.50000000  1
  Yb  Yb3  1  0.50191341  0.50000000  0.50000000  1
  Yb  Yb4  1  0.25837844  0.37732769  0.12787257  1
  Yb  Yb5  1  0.25837844  0.62267231  0.87212743  1
  Yb  Yb6  1  0.75837844  0.87212743  0.37732769  1
  Yb  Yb7  1  0.75837844  0.12787257  0.62267231  1
  Yb  Yb8  1  0.75837844  0.37732769  0.87212743  1
  Yb  Yb9  1  0.75837844  0.62267231  0.12787257  1
  Yb  Yb10  1  0.25837844  0.87212743  0.62267231  1
  Yb  Yb11  1  0.25837844  0.12787257  0.37732769  1
  Ge  Ge12  1  0.10503307  0.17119444  0.17119444  1
  Ge  Ge13  1  0.10503307  0.82880556  0.82880556  1
  Ge  Ge14  1  0.60503307  0.82880556  0.17119444  1
  Ge  Ge15  1  0.60503307  0.17119444  0.82880556  1
  Ge  Ge16  1  0.75773160  0.24709395  0.24709395  1
  Ge  Ge17  1  0.75773160  0.75290605  0.75290605  1
  Ge  Ge18  1  0.25773160  0.75290605  0.24709395  1
  Ge  Ge19  1  0.25773160  0.24709395  0.75290605  1
  Ge  Ge20  1  0.41244788  0.17251246  0.17251246  1
  Ge  Ge21  1  0.41244788  0.82748754  0.82748754  1
  Ge  Ge22  1  0.91244788  0.82748754  0.17251246  1
  Ge  Ge23  1  0.91244788  0.17251246  0.82748754  1
  Ge  Ge24  1  0.03631617  0.31457649  0.31457649  1
  Ge  Ge25  1  0.03631617  0.68542351  0.68542351  1
  Ge  Ge26  1  0.53631617  0.68542351  0.31457649  1
  Ge  Ge27  1  0.53631617  0.31457649  0.68542351  1
  Ge  Ge28  1  0.51025551  0.31090914  0.31090914  1
  Ge  Ge29  1  0.51025551  0.68909086  0.68909086  1
  Ge  Ge30  1  0.01025551  0.68909086  0.31090914  1
  Ge  Ge31  1  0.01025551  0.31090914  0.68909086  1
  Ge  Ge32  1  0.37098587  0.61636529  0.11997630  1
  Ge  Ge33  1  0.37098587  0.38363471  0.88002370  1
  Ge  Ge34  1  0.87098587  0.88002370  0.61636529  1
  Ge  Ge35  1  0.87098587  0.11997630  0.38363471  1
  Ge  Ge36  1  0.87098587  0.61636529  0.88002370  1
  Ge  Ge37  1  0.87098587  0.38363471  0.11997630  1
  Ge  Ge38  1  0.37098587  0.88002370  0.38363471  1
  Ge  Ge39  1  0.37098587  0.11997630  0.61636529  1
  Ge  Ge40  1  0.25524953  0.49852534  0.34440776  1
  Ge  Ge41  1  0.25524953  0.50147466  0.65559224  1
  Ge  Ge42  1  0.75524953  0.65559224  0.49852534  1
  Ge  Ge43  1  0.75524953  0.34440776  0.50147466  1
  Ge  Ge44  1  0.75524953  0.49852534  0.65559224  1
  Ge  Ge45  1  0.75524953  0.50147466  0.34440776  1
  Ge  Ge46  1  0.25524953  0.65559224  0.50147466  1
  Ge  Ge47  1  0.25524953  0.34440776  0.49852534  1
  Ge  Ge48  1  0.09031151  0.57439077  0.07506471  1
  Ge  Ge49  1  0.09031151  0.42560923  0.92493529  1
  Ge  Ge50  1  0.59031151  0.92493529  0.57439077  1
  Ge  Ge51  1  0.59031151  0.07506471  0.42560923  1
  Ge  Ge52  1  0.59031151  0.57439077  0.92493529  1
  Ge  Ge53  1  0.59031151  0.42560923  0.07506471  1
  Ge  Ge54  1  0.09031151  0.92493529  0.42560923  1
  Ge  Ge55  1  0.09031151  0.07506471  0.57439077  1
  Ge  Ge56  1  0.75215081  0.17851775  0.04099698  1
  Ge  Ge57  1  0.75215081  0.82148225  0.95900302  1
  Ge  Ge58  1  0.25215081  0.95900302  0.17851775  1
  Ge  Ge59  1  0.25215081  0.04099698  0.82148225  1
  Ge  Ge60  1  0.25215081  0.17851775  0.95900302  1
  Ge  Ge61  1  0.25215081  0.82148225  0.04099698  1
  Ge  Ge62  1  0.75215081  0.95900302  0.82148225  1
  Ge  Ge63  1  0.75215081  0.04099698  0.17851775  1
  Pt  Pt64  1  0.00472072  0.50102081  0.25083548  1
  Pt  Pt65  1  0.00472072  0.49897919  0.74916452  1
  Pt  Pt66  1  0.50472072  0.74916452  0.50102081  1
  Pt  Pt67  1  0.50472072  0.25083548  0.49897919  1
  Pt  Pt68  1  0.50472072  0.50102081  0.74916452  1
  Pt  Pt69  1  0.50472072  0.49897919  0.25083548  1
  Pt  Pt70  1  0.00472072  0.74916452  0.49897919  1
  Pt  Pt71  1  0.00472072  0.25083548  0.50102081  1
  Pt  Pt72  1  0.00426711  0.25117171  0.00179999  1
  Pt  Pt73  1  0.00426711  0.74882829  0.99820001  1
  Pt  Pt74  1  0.50426711  0.99820001  0.25117171  1
  Pt  Pt75  1  0.50426711  0.00179999  0.74882829  1
  Pt  Pt76  1  0.50426711  0.25117171  0.99820001  1
  Pt  Pt77  1  0.50426711  0.74882829  0.00179999  1
  Pt  Pt78  1  0.00426711  0.99820001  0.74882829  1
  Pt  Pt79  1  0.00426711  0.00179999  0.25117171  1
