# generated using pymatgen
data_Ce5Ge4
_symmetry_space_group_name_H-M   'P 1'
_cell_length_a   7.83285360
_cell_length_b   7.92572156
_cell_length_c   14.93257469
_cell_angle_alpha   90.00000000
_cell_angle_beta   90.00000000
_cell_angle_gamma   90.00000000
_symmetry_Int_Tables_number   1
_chemical_formula_structural   Ce5Ge4
_chemical_formula_sum   'Ce20 Ge16'
_cell_volume   927.02941801
_cell_formula_units_Z   4
loop_
 _symmetry_equiv_pos_site_id
 _symmetry_equiv_pos_as_xyz
  1  'x, y, z'
loop_
 _atom_site_type_symbol
 _atom_site_label
 _atom_site_symmetry_multiplicity
 _atom_site_fract_x
 _atom_site_fract_y
 _atom_site_fract_z
 _atom_site_occupancy
  Ce  Ce0  1  0.38699052  0.83639222  0.88177195  1
  Ce  Ce1  1  0.88699052  0.66360778  0.61822805  1
  Ce  Ce2  1  0.61300948  0.16360778  0.38177195  1
  Ce  Ce3  1  0.11300948  0.33639222  0.11822805  1
  Ce  Ce4  1  0.61300948  0.16360778  0.11822805  1
  Ce  Ce5  1  0.11300948  0.33639222  0.38177195  1
  Ce  Ce6  1  0.38699052  0.83639222  0.61822805  1
  Ce  Ce7  1  0.88699052  0.66360778  0.88177195  1
  Ce  Ce8  1  0.52380260  0.31434224  0.89845937  1
  Ce  Ce9  1  0.02380260  0.18565776  0.60154063  1
  Ce  Ce10  1  0.47619740  0.68565776  0.39845937  1
  Ce  Ce11  1  0.97619740  0.81434224  0.10154063  1
  Ce  Ce12  1  0.47619740  0.68565776  0.10154063  1
  Ce  Ce13  1  0.97619740  0.81434224  0.39845937  1
  Ce  Ce14  1  0.52380260  0.31434224  0.60154063  1
  Ce  Ce15  1  0.02380260  0.18565776  0.89845937  1
  Ce  Ce16  1  0.20182714  0.50508687  0.75000000  1
  Ce  Ce17  1  0.70182714  0.99491313  0.75000000  1
  Ce  Ce18  1  0.79817286  0.49491313  0.25000000  1
  Ce  Ce19  1  0.29817286  0.00508687  0.25000000  1
  Ge  Ge20  1  0.27706834  0.03166920  0.04250276  1
  Ge  Ge21  1  0.77706834  0.46833080  0.45749724  1
  Ge  Ge22  1  0.72293166  0.96833080  0.54250276  1
  Ge  Ge23  1  0.22293166  0.53166920  0.95749724  1
  Ge  Ge24  1  0.72293166  0.96833080  0.95749724  1
  Ge  Ge25  1  0.22293166  0.53166920  0.54250276  1
  Ge  Ge26  1  0.27706834  0.03166920  0.45749724  1
  Ge  Ge27  1  0.77706834  0.46833080  0.04250276  1
  Ge  Ge28  1  0.58283971  0.60839732  0.75000000  1
  Ge  Ge29  1  0.08283971  0.89160268  0.75000000  1
  Ge  Ge30  1  0.41716029  0.39160268  0.25000000  1
  Ge  Ge31  1  0.91716029  0.10839732  0.25000000  1
  Ge  Ge32  1  0.32112232  0.13551832  0.75000000  1
  Ge  Ge33  1  0.82112232  0.36448168  0.75000000  1
  Ge  Ge34  1  0.67887768  0.86448168  0.25000000  1
  Ge  Ge35  1  0.17887768  0.63551832  0.25000000  1
