# generated using pymatgen
data_YbP2H4NO7
_symmetry_space_group_name_H-M   'P 1'
_cell_length_a   7.58023871
_cell_length_b   8.78893030
_cell_length_c   11.31607853
_cell_angle_alpha   90.00000000
_cell_angle_beta   90.00000000
_cell_angle_gamma   104.05568650
_symmetry_Int_Tables_number   1
_chemical_formula_structural   YbP2H4NO7
_chemical_formula_sum   'Yb4 P8 H16 N4 O28'
_cell_volume   731.33021270
_cell_formula_units_Z   4
loop_
 _symmetry_equiv_pos_site_id
 _symmetry_equiv_pos_as_xyz
  1  'x, y, z'
loop_
 _atom_site_type_symbol
 _atom_site_label
 _atom_site_symmetry_multiplicity
 _atom_site_fract_x
 _atom_site_fract_y
 _atom_site_fract_z
 _atom_site_occupancy
  Yb  Yb0  1  0.26879210  0.75085429  0.60513001  1
  Yb  Yb1  1  0.73120790  0.74914571  0.10513001  1
  Yb  Yb2  1  0.73120790  0.24914571  0.39486999  1
  Yb  Yb3  1  0.26879210  0.25085429  0.89486999  1
  P  P4  1  0.36974544  0.69193715  0.90489608  1
  P  P5  1  0.63025456  0.80806285  0.40489608  1
  P  P6  1  0.63025456  0.30806285  0.09510392  1
  P  P7  1  0.36974544  0.19193715  0.59510392  1
  P  P8  1  0.05517242  0.81642670  0.86177605  1
  P  P9  1  0.94482758  0.68357330  0.36177605  1
  P  P10  1  0.94482758  0.18357330  0.13822395  1
  P  P11  1  0.05517242  0.31642670  0.63822395  1
  H  H12  1  0.73424053  0.96426412  0.86972498  1
  H  H13  1  0.26575947  0.53573588  0.36972498  1
  H  H14  1  0.26575947  0.03573588  0.13027502  1
  H  H15  1  0.73424053  0.46426412  0.63027502  1
  H  H16  1  0.63077941  0.11294294  0.89206150  1
  H  H17  1  0.36922059  0.38705706  0.39206150  1
  H  H18  1  0.36922059  0.88705706  0.10793850  1
  H  H19  1  0.63077941  0.61294294  0.60793850  1
  H  H20  1  0.81491294  0.13778512  0.79962323  1
  H  H21  1  0.18508706  0.36221488  0.29962323  1
  H  H22  1  0.18508706  0.86221488  0.20037677  1
  H  H23  1  0.81491294  0.63778512  0.70037677  1
  H  H24  1  0.61018091  0.01746593  0.76143051  1
  H  H25  1  0.38981909  0.48253407  0.26143051  1
  H  H26  1  0.38981909  0.98253407  0.23856949  1
  H  H27  1  0.61018091  0.51746593  0.73856949  1
  N  N28  1  0.69763515  0.05817006  0.82995081  1
  N  N29  1  0.30236485  0.44182994  0.32995081  1
  N  N30  1  0.30236485  0.94182994  0.17004919  1
  N  N31  1  0.69763515  0.55817006  0.67004919  1
  O  O32  1  0.42581856  0.75660871  0.78141689  1
  O  O33  1  0.57418144  0.74339129  0.28141689  1
  O  O34  1  0.57418144  0.24339129  0.21858311  1
  O  O35  1  0.42581856  0.25660871  0.71858311  1
  O  O36  1  0.37701437  0.51958419  0.91097024  1
  O  O37  1  0.62298563  0.98041581  0.41097024  1
  O  O38  1  0.62298563  0.48041581  0.08902976  1
  O  O39  1  0.37701437  0.01958419  0.58902976  1
  O  O40  1  0.15795684  0.69586354  0.92699860  1
  O  O41  1  0.84204316  0.80413646  0.42699860  1
  O  O42  1  0.84204316  0.30413646  0.07300140  1
  O  O43  1  0.15795684  0.19586354  0.57300140  1
  O  O44  1  0.47837073  0.78854118  0.00474403  1
  O  O45  1  0.52162927  0.71145882  0.50474403  1
  O  O46  1  0.52162927  0.21145882  0.99525597  1
  O  O47  1  0.47837073  0.28854118  0.49525597  1
  O  O48  1  0.03132381  0.76725125  0.73198711  1
  O  O49  1  0.96867619  0.73274875  0.23198711  1
  O  O50  1  0.96867619  0.23274875  0.26801289  1
  O  O51  1  0.03132381  0.26725125  0.76801289  1
  O  O52  1  0.17376228  0.98225700  0.87936490  1
  O  O53  1  0.82623772  0.51774300  0.37936490  1
  O  O54  1  0.82623772  0.01774300  0.12063510  1
  O  O55  1  0.17376228  0.48225700  0.62063510  1
  O  O56  1  0.87250325  0.79391475  0.92495722  1
  O  O57  1  0.12749675  0.70608525  0.42495722  1
  O  O58  1  0.12749675  0.20608525  0.07504278  1
  O  O59  1  0.87250325  0.29391475  0.57504278  1
