# generated using pymatgen
data_Lu5(Co2Ge5)2
_symmetry_space_group_name_H-M   'P 1'
_cell_length_a   4.09785880
_cell_length_b   12.65521616
_cell_length_c   12.65521616
_cell_angle_alpha   90.00000000
_cell_angle_beta   90.00000000
_cell_angle_gamma   90.00000000
_symmetry_Int_Tables_number   1
_chemical_formula_structural   Lu5(Co2Ge5)2
_chemical_formula_sum   'Lu10 Co8 Ge20'
_cell_volume   656.29051102
_cell_formula_units_Z   2
loop_
 _symmetry_equiv_pos_site_id
 _symmetry_equiv_pos_as_xyz
  1  'x, y, z'
loop_
 _atom_site_type_symbol
 _atom_site_label
 _atom_site_symmetry_multiplicity
 _atom_site_fract_x
 _atom_site_fract_y
 _atom_site_fract_z
 _atom_site_occupancy
  Lu  Lu0  1  -0.00000000  0.50000000  0.50000000  1
  Lu  Lu1  1  0.00000000  -0.00000000  0.00000000  1
  Lu  Lu2  1  0.50000000  0.17469444  0.67469444  1
  Lu  Lu3  1  0.50000000  0.82530556  0.32530556  1
  Lu  Lu4  1  0.50000000  0.32530556  0.17469444  1
  Lu  Lu5  1  0.50000000  0.67469444  0.82530556  1
  Lu  Lu6  1  0.50000000  0.38598806  0.88598806  1
  Lu  Lu7  1  0.50000000  0.61401194  0.11401194  1
  Lu  Lu8  1  0.50000000  0.11401194  0.38598806  1
  Lu  Lu9  1  0.50000000  0.88598806  0.61401194  1
  Co  Co10  1  -0.00000000  0.52198134  0.74662387  1
  Co  Co11  1  0.00000000  0.47801866  0.25337613  1
  Co  Co12  1  0.00000000  0.97801866  0.24662387  1
  Co  Co13  1  -0.00000000  0.02198134  0.75337613  1
  Co  Co14  1  0.00000000  0.74662387  0.47801866  1
  Co  Co15  1  -0.00000000  0.25337613  0.52198134  1
  Co  Co16  1  0.00000000  0.24662387  0.02198134  1
  Co  Co17  1  -0.00000000  0.75337613  0.97801866  1
  Ge  Ge18  1  -0.00000000  0.06818278  0.56818278  1
  Ge  Ge19  1  0.00000000  0.93181722  0.43181722  1
  Ge  Ge20  1  0.00000000  0.43181722  0.06818278  1
  Ge  Ge21  1  -0.00000000  0.56818278  0.93181722  1
  Ge  Ge22  1  -0.00000000  0.69648636  0.65778411  1
  Ge  Ge23  1  0.00000000  0.30351364  0.34221589  1
  Ge  Ge24  1  0.00000000  0.80351364  0.15778411  1
  Ge  Ge25  1  -0.00000000  0.19648636  0.84221589  1
  Ge  Ge26  1  0.00000000  0.65778411  0.30351364  1
  Ge  Ge27  1  -0.00000000  0.34221589  0.69648636  1
  Ge  Ge28  1  0.00000000  0.15778411  0.19648636  1
  Ge  Ge29  1  -0.00000000  0.84221589  0.80351364  1
  Ge  Ge30  1  0.50000000  0.50734028  0.66321382  1
  Ge  Ge31  1  0.50000000  0.49265972  0.33678618  1
  Ge  Ge32  1  0.50000000  0.99265972  0.16321382  1
  Ge  Ge33  1  0.50000000  0.00734028  0.83678618  1
  Ge  Ge34  1  0.50000000  0.66321382  0.49265972  1
  Ge  Ge35  1  0.50000000  0.33678618  0.50734028  1
  Ge  Ge36  1  0.50000000  0.16321382  0.00734028  1
  Ge  Ge37  1  0.50000000  0.83678618  0.99265972  1
