# generated using pymatgen
data_Ba3B(BrO)3
_symmetry_space_group_name_H-M   'P 1'
_cell_length_a   9.40141917
_cell_length_b   9.44633659
_cell_length_c   13.19099563
_cell_angle_alpha   92.56574795
_cell_angle_beta   98.29663339
_cell_angle_gamma   116.17918123
_symmetry_Int_Tables_number   1
_chemical_formula_structural   Ba3B(BrO)3
_chemical_formula_sum   'Ba12 B4 Br12 O12'
_cell_volume   1032.52063206
_cell_formula_units_Z   4
loop_
 _symmetry_equiv_pos_site_id
 _symmetry_equiv_pos_as_xyz
  1  'x, y, z'
loop_
 _atom_site_type_symbol
 _atom_site_label
 _atom_site_symmetry_multiplicity
 _atom_site_fract_x
 _atom_site_fract_y
 _atom_site_fract_z
 _atom_site_occupancy
  Ba  Ba0  1  0.63997270  0.00387514  0.89394001  1
  Ba  Ba1  1  0.36002730  0.99612486  0.10605999  1
  Ba  Ba2  1  0.75543454  0.57588811  0.97908809  1
  Ba  Ba3  1  0.24456546  0.42411189  0.02091191  1
  Ba  Ba4  1  0.38212310  0.52728361  0.75101135  1
  Ba  Ba5  1  0.61787690  0.47271639  0.24898865  1
  Ba  Ba6  1  0.72530428  0.95140073  0.57611160  1
  Ba  Ba7  1  0.27469572  0.04859927  0.42388840  1
  Ba  Ba8  1  0.83863756  0.51186653  0.64290262  1
  Ba  Ba9  1  0.16136244  0.48813347  0.35709738  1
  Ba  Ba10  1  0.17296348  0.01008180  0.76632203  1
  Ba  Ba11  1  0.82703652  0.98991820  0.23367797  1
  B  B12  1  0.73742393  0.74066049  0.74105304  1
  B  B13  1  0.26257607  0.25933951  0.25894696  1
  B  B14  1  0.42266672  0.24221651  0.94751126  1
  B  B15  1  0.57733328  0.75778349  0.05248874  1
  Br  Br16  1  -0.00000000  0.00000000  -0.00000000  1
  Br  Br17  1  0.50000000  0.50000000  0.50000000  1
  Br  Br18  1  0.94678073  0.26424639  0.79116732  1
  Br  Br19  1  0.05321927  0.73575361  0.20883268  1
  Br  Br20  1  0.52198420  0.14898804  0.65690523  1
  Br  Br21  1  0.47801580  0.85101196  0.34309477  1
  Br  Br22  1  0.86298954  0.31175024  0.10676872  1
  Br  Br23  1  0.13701046  0.68824976  0.89323128  1
  Br  Br24  1  0.11604000  0.20909497  0.57358026  1
  Br  Br25  1  0.88396000  0.79090503  0.42641974  1
  Br  Br26  1  0.21239730  0.71261596  0.58866746  1
  Br  Br27  1  0.78760270  0.28738404  0.41133254  1
  O  O28  1  0.69792813  0.59528289  0.78024564  1
  O  O29  1  0.30207187  0.40471711  0.21975436  1
  O  O30  1  0.87018238  0.80562529  0.69247640  1
  O  O31  1  0.12981762  0.19437471  0.30752360  1
  O  O32  1  0.42148871  0.09698092  0.92253460  1
  O  O33  1  0.57851129  0.90301908  0.07746540  1
  O  O34  1  0.34997035  0.30349967  0.87352130  1
  O  O35  1  0.65002965  0.69650033  0.12647870  1
  O  O36  1  0.51575994  0.67845030  0.95238074  1
  O  O37  1  0.48424006  0.32154970  0.04761926  1
  O  O38  1  0.63425258  0.81107201  0.73962154  1
  O  O39  1  0.36574742  0.18892799  0.26037846  1
