# generated using pymatgen
data_Ti3Nb2Cr3O16
_symmetry_space_group_name_H-M   'P 1'
_cell_length_a   5.94744777
_cell_length_b   5.97570227
_cell_length_c   9.38887012
_cell_angle_alpha   89.84859262
_cell_angle_beta   89.36416276
_cell_angle_gamma   119.74109402
_symmetry_Int_Tables_number   1
_chemical_formula_structural   Ti3Nb2Cr3O16
_chemical_formula_sum   'Ti3 Nb2 Cr3 O16'
_cell_volume   289.69754627
_cell_formula_units_Z   1
loop_
 _symmetry_equiv_pos_site_id
 _symmetry_equiv_pos_as_xyz
  1  'x, y, z'
loop_
 _atom_site_type_symbol
 _atom_site_label
 _atom_site_symmetry_multiplicity
 _atom_site_fract_x
 _atom_site_fract_y
 _atom_site_fract_z
 _atom_site_occupancy
  Ti  Ti0  1  0.34567488  0.17980442  0.71717215  1
  Ti  Ti1  1  0.17556667  0.83357314  0.21944768  1
  Ti  Ti2  1  0.17527149  0.34310200  0.22097771  1
  Nb  Nb3  1  0.34143905  0.67306833  0.49914953  1
  Nb  Nb4  1  0.68036175  0.34331781  0.99805006  1
  Cr  Cr5  1  0.66155887  0.83130574  0.20759592  1
  Cr  Cr6  1  0.83219725  0.66174847  0.70914503  1
  Cr  Cr7  1  0.82462496  0.16412553  0.71786753  1
  O  O8  1  0.17480693  0.83247776  0.59952191  1
  O  O9  1  0.03924691  0.52079930  0.33551767  1
  O  O10  1  0.32052388  0.66040076  0.10564085  1
  O  O11  1  0.00215841  0.00139795  0.30564883  1
  O  O12  1  0.99359883  0.00349218  0.80228934  1
  O  O13  1  0.17125188  0.34230900  0.60005229  1
  O  O14  1  0.47033438  0.95416344  0.33619834  1
  O  O15  1  0.47085622  0.51591570  0.33602438  1
  O  O16  1  0.34306552  0.17080854  0.09873112  1
  O  O17  1  0.66205551  0.83239952  0.59900814  1
  O  O18  1  0.51244554  0.46829220  0.83483948  1
  O  O19  1  0.52121667  0.04138417  0.83329632  1
  O  O20  1  0.66817599  0.32404505  0.60711414  1
  O  O21  1  0.83289760  0.66210431  0.09816362  1
  O  O22  1  0.94974392  0.46856747  0.83517529  1
  O  O23  1  0.83092690  0.17159419  0.09909268  1
