# generated using pymatgen
data_Ag3S4(O3F)4
_symmetry_space_group_name_H-M   'P 1'
_cell_length_a   5.44682935
_cell_length_b   13.31975901
_cell_length_c   19.99788932
_cell_angle_alpha   90.00000000
_cell_angle_beta   95.28625608
_cell_angle_gamma   90.00000000
_symmetry_Int_Tables_number   1
_chemical_formula_structural   Ag3S4(O3F)4
_chemical_formula_sum   'Ag12 S16 O48 F16'
_cell_volume   1444.68521369
_cell_formula_units_Z   4
loop_
 _symmetry_equiv_pos_site_id
 _symmetry_equiv_pos_as_xyz
  1  'x, y, z'
loop_
 _atom_site_type_symbol
 _atom_site_label
 _atom_site_symmetry_multiplicity
 _atom_site_fract_x
 _atom_site_fract_y
 _atom_site_fract_z
 _atom_site_occupancy
  Ag  Ag0  1  0.75617609  0.93244198  0.55048848  1
  Ag  Ag1  1  0.74382391  0.43244198  0.94951152  1
  Ag  Ag2  1  0.24382391  0.06755802  0.44951152  1
  Ag  Ag3  1  0.25617609  0.56755802  0.05048848  1
  Ag  Ag4  1  0.30632044  0.86468294  0.05577596  1
  Ag  Ag5  1  0.19367956  0.36468294  0.44422404  1
  Ag  Ag6  1  0.69367956  0.13531706  0.94422404  1
  Ag  Ag7  1  0.80632044  0.63531706  0.55577596  1
  Ag  Ag8  1  0.23589608  0.48289840  0.26115463  1
  Ag  Ag9  1  0.26410392  0.98289840  0.23884537  1
  Ag  Ag10  1  0.76410392  0.51710160  0.73884537  1
  Ag  Ag11  1  0.73589608  0.01710160  0.76115463  1
  S  S12  1  0.31231918  0.22756077  0.27919913  1
  S  S13  1  0.18768082  0.72756077  0.22080087  1
  S  S14  1  0.68768082  0.77243923  0.72080087  1
  S  S15  1  0.81231918  0.27243923  0.77919913  1
  S  S16  1  0.76390338  0.46687995  0.14983819  1
  S  S17  1  0.73609662  0.96687995  0.35016181  1
  S  S18  1  0.23609662  0.53312005  0.85016181  1
  S  S19  1  0.26390338  0.03312005  0.64983819  1
  S  S20  1  0.78780997  0.00731225  0.11658191  1
  S  S21  1  0.71219003  0.50731225  0.38341809  1
  S  S22  1  0.21219003  0.99268775  0.88341809  1
  S  S23  1  0.28780997  0.49268775  0.61658191  1
  S  S24  1  0.76416119  0.71999703  0.99334120  1
  S  S25  1  0.73583881  0.21999703  0.50665880  1
  S  S26  1  0.23583881  0.28000297  0.00665880  1
  S  S27  1  0.26416119  0.78000297  0.49334120  1
  O  O28  1  0.25497776  0.32121905  0.24262744  1
  O  O29  1  0.24502224  0.82121905  0.25737256  1
  O  O30  1  0.74502224  0.67878095  0.75737256  1
  O  O31  1  0.75497776  0.17878095  0.74262744  1
  O  O32  1  0.20805940  0.21288350  0.34209172  1
  O  O33  1  0.29194060  0.71288350  0.15790828  1
  O  O34  1  0.79194060  0.78711650  0.65790828  1
  O  O35  1  0.70805940  0.28711650  0.84209172  1
  O  O36  1  0.28401143  0.14583892  0.22984285  1
  O  O37  1  0.21598857  0.64583892  0.27015715  1
  O  O38  1  0.71598857  0.85416108  0.77015715  1
  O  O39  1  0.78401143  0.35416108  0.72984285  1
  O  O40  1  0.03168833  0.48984300  0.15734101  1
  O  O41  1  0.46831167  0.98984300  0.34265899  1
  O  O42  1  0.96831167  0.51015700  0.84265899  1
  O  O43  1  0.53168833  0.01015700  0.65734101  1
  O  O44  1  0.65056814  0.49991004  0.08472729  1
  O  O45  1  0.84943186  0.99991004  0.41527271  1
  O  O46  1  0.34943186  0.50008996  0.91527271  1
  O  O47  1  0.15056814  0.00008996  0.58472729  1
  O  O48  1  0.63883816  0.49144853  0.20795484  1
  O  O49  1  0.86116184  0.99144853  0.29204516  1
  O  O50  1  0.36116184  0.50855147  0.79204516  1
  O  O51  1  0.13883816  0.00855147  0.70795484  1
  O  O52  1  0.04296197  0.97408421  0.13770491  1
  O  O53  1  0.45703803  0.47408421  0.36229509  1
  O  O54  1  0.95703803  0.02591579  0.86229509  1
  O  O55  1  0.54296197  0.52591579  0.63770491  1
  O  O56  1  0.74763643  0.02391966  0.04509046  1
  O  O57  1  0.75236357  0.52391966  0.45490954  1
  O  O58  1  0.25236357  0.97608034  0.95490954  1
  O  O59  1  0.24763643  0.47608034  0.54509046  1
  O  O60  1  0.59639714  0.95047704  0.14616874  1
  O  O61  1  0.90360286  0.45047704  0.35383126  1
  O  O62  1  0.40360286  0.04952296  0.85383126  1
  O  O63  1  0.09639714  0.54952296  0.64616874  1
  O  O64  1  0.90154753  0.79373196  0.03480080  1
  O  O65  1  0.59845247  0.29373196  0.46519920  1
  O  O66  1  0.09845247  0.20626804  0.96519920  1
  O  O67  1  0.40154753  0.70626804  0.53480080  1
  O  O68  1  0.88952865  0.62379860  0.98557988  1
  O  O69  1  0.61047135  0.12379860  0.51442012  1
  O  O70  1  0.11047135  0.37620140  0.01442012  1
  O  O71  1  0.38952865  0.87620140  0.48557988  1
  O  O72  1  0.50503159  0.71140915  0.00704987  1
  O  O73  1  0.99496841  0.21140915  0.49295013  1
  O  O74  1  0.49496841  0.28859085  0.99295013  1
  O  O75  1  0.00503159  0.78859085  0.50704987  1
  F  F76  1  0.60284117  0.23391285  0.29942554  1
  F  F77  1  0.89715883  0.73391285  0.20057446  1
  F  F78  1  0.39715883  0.76608715  0.70057446  1
  F  F79  1  0.10284117  0.26608715  0.79942554  1
  F  F80  1  0.75522865  0.34748150  0.14519766  1
  F  F81  1  0.74477135  0.84748150  0.35480234  1
  F  F82  1  0.24477135  0.65251850  0.85480234  1
  F  F83  1  0.25522865  0.15251850  0.64519766  1
  F  F84  1  0.77634294  0.11629305  0.14958209  1
  F  F85  1  0.72365706  0.61629305  0.35041791  1
  F  F86  1  0.22365706  0.88370695  0.85041791  1
  F  F87  1  0.27634294  0.38370695  0.64958209  1
  F  F88  1  0.74824239  0.76616235  0.91928083  1
  F  F89  1  0.75175761  0.26616235  0.58071917  1
  F  F90  1  0.25175761  0.23383765  0.08071917  1
  F  F91  1  0.24824239  0.73383765  0.41928083  1
