# generated using pymatgen
data_CaB4(H10N)2
_symmetry_space_group_name_H-M   'P 1'
_cell_length_a   7.98508628
_cell_length_b   7.98508628
_cell_length_c   8.39733148
_cell_angle_alpha   90.00000000
_cell_angle_beta   90.00000000
_cell_angle_gamma   117.74372292
_symmetry_Int_Tables_number   1
_chemical_formula_structural   CaB4(H10N)2
_chemical_formula_sum   'Ca2 B8 H40 N4'
_cell_volume   473.87386443
_cell_formula_units_Z   2
loop_
 _symmetry_equiv_pos_site_id
 _symmetry_equiv_pos_as_xyz
  1  'x, y, z'
loop_
 _atom_site_type_symbol
 _atom_site_label
 _atom_site_symmetry_multiplicity
 _atom_site_fract_x
 _atom_site_fract_y
 _atom_site_fract_z
 _atom_site_occupancy
  Ca  Ca0  1  0.80348059  0.80348059  0.00000000  1
  Ca  Ca1  1  0.30348059  0.30348059  0.50000000  1
  B  B2  1  0.01445742  0.43382293  0.55402730  1
  B  B3  1  0.43382293  0.01445742  0.44597270  1
  B  B4  1  0.51445742  0.93382293  0.94597270  1
  B  B5  1  0.93382293  0.51445742  0.05402730  1
  B  B6  1  0.06655324  0.08284937  0.22735494  1
  B  B7  1  0.08284937  0.06655324  0.77264506  1
  B  B8  1  0.56655324  0.58284937  0.27264506  1
  B  B9  1  0.58284937  0.56655324  0.72735494  1
  H  H10  1  0.57644526  0.88432635  0.58616231  1
  H  H11  1  0.88432635  0.57644526  0.41383769  1
  H  H12  1  0.07644526  0.38432635  0.91383769  1
  H  H13  1  0.38432635  0.07644526  0.08616231  1
  H  H14  1  0.94442108  0.66632237  0.59220871  1
  H  H15  1  0.66632237  0.94442108  0.40779129  1
  H  H16  1  0.44442108  0.16632237  0.90779129  1
  H  H17  1  0.16632237  0.44442108  0.09220871  1
  H  H18  1  0.72044937  0.10878118  0.54587673  1
  H  H19  1  0.10878118  0.72044937  0.45412327  1
  H  H20  1  0.22044937  0.60878118  0.95412327  1
  H  H21  1  0.60878118  0.22044937  0.04587673  1
  H  H22  1  0.35155320  0.02598901  0.56546764  1
  H  H23  1  0.02598901  0.35155320  0.43453236  1
  H  H24  1  0.85155320  0.52598901  0.93453236  1
  H  H25  1  0.52598901  0.85155320  0.06546764  1
  H  H26  1  0.15818214  0.49083653  0.63457783  1
  H  H27  1  0.49083653  0.15818214  0.36542217  1
  H  H28  1  0.65818214  0.99083653  0.86542217  1
  H  H29  1  0.99083653  0.65818214  0.13457783  1
  H  H30  1  0.37955214  0.83039151  0.86479620  1
  H  H31  1  0.83039151  0.37955214  0.13520380  1
  H  H32  1  0.87955214  0.33039151  0.63520380  1
  H  H33  1  0.33039151  0.87955214  0.36479620  1
  H  H34  1  0.03057584  0.04347127  0.63341347  1
  H  H35  1  0.04347127  0.03057584  0.36658653  1
  H  H36  1  0.53057584  0.54347127  0.86658653  1
  H  H37  1  0.54347127  0.53057584  0.13341347  1
  H  H38  1  0.97168994  0.09948541  0.85091038  1
  H  H39  1  0.09948541  0.97168994  0.14908962  1
  H  H40  1  0.47168994  0.59948541  0.64908962  1
  H  H41  1  0.59948541  0.47168994  0.35091038  1
  H  H42  1  0.24104915  0.20246721  0.78717764  1
  H  H43  1  0.20246721  0.24104915  0.21282236  1
  H  H44  1  0.74104915  0.70246721  0.71282236  1
  H  H45  1  0.70246721  0.74104915  0.28717764  1
  H  H46  1  0.58768328  0.42320628  0.67949150  1
  H  H47  1  0.42320628  0.58768328  0.32050850  1
  H  H48  1  0.08768328  0.92320628  0.82050850  1
  H  H49  1  0.92320628  0.08768328  0.17949150  1
  N  N50  1  0.61113875  0.98741919  0.50047416  1
  N  N51  1  0.98741919  0.61113875  0.49952584  1
  N  N52  1  0.11113875  0.48741919  0.99952584  1
  N  N53  1  0.48741919  0.11113875  0.00047416  1
