# generated using pymatgen
data_Sm2Nb2S7O30
_symmetry_space_group_name_H-M   'P 1'
_cell_length_a   7.22545041
_cell_length_b   12.95505974
_cell_length_c   12.95505974
_cell_angle_alpha   90.00000000
_cell_angle_beta   90.00000000
_cell_angle_gamma   90.00000000
_symmetry_Int_Tables_number   1
_chemical_formula_structural   Sm2Nb2S7O30
_chemical_formula_sum   'Sm4 Nb4 S14 O60'
_cell_volume   1212.67315788
_cell_formula_units_Z   2
loop_
 _symmetry_equiv_pos_site_id
 _symmetry_equiv_pos_as_xyz
  1  'x, y, z'
loop_
 _atom_site_type_symbol
 _atom_site_label
 _atom_site_symmetry_multiplicity
 _atom_site_fract_x
 _atom_site_fract_y
 _atom_site_fract_z
 _atom_site_occupancy
  Sm  Sm0  1  0.59248851  0.80099900  0.30099900  1
  Sm  Sm1  1  0.40751149  0.69900100  0.80099900  1
  Sm  Sm2  1  0.59248851  0.19900100  0.69900100  1
  Sm  Sm3  1  0.40751149  0.30099900  0.19900100  1
  Nb  Nb4  1  0.98290118  0.63785371  0.13785371  1
  Nb  Nb5  1  0.01709882  0.86214629  0.63785371  1
  Nb  Nb6  1  0.98290118  0.36214629  0.86214629  1
  Nb  Nb7  1  0.01709882  0.13785371  0.36214629  1
  S  S8  1  0.34534797  0.50000000  -0.00000000  1
  S  S9  1  0.65465203  -0.00000000  0.50000000  1
  S  S10  1  0.89644263  0.37683917  0.12316083  1
  S  S11  1  0.10355737  0.12316083  0.62316083  1
  S  S12  1  0.89644263  0.62316083  0.87683917  1
  S  S13  1  0.10355737  0.87683917  0.37683917  1
  S  S14  1  0.29447947  0.56455986  0.32398206  1
  S  S15  1  0.70552053  0.93544014  0.82398206  1
  S  S16  1  0.29447947  0.43544014  0.67601794  1
  S  S17  1  0.70552053  0.06455986  0.17601794  1
  S  S18  1  0.70552053  0.67601794  0.56455986  1
  S  S19  1  0.29447947  0.82398206  0.06455986  1
  S  S20  1  0.70552053  0.32398206  0.43544014  1
  S  S21  1  0.29447947  0.17601794  0.93544014  1
  O  O22  1  0.79274845  0.69943960  0.19943960  1
  O  O23  1  0.20725155  0.80056040  0.69943960  1
  O  O24  1  0.79274845  0.30056040  0.80056040  1
  O  O25  1  0.20725155  0.19943960  0.30056040  1
  O  O26  1  0.45860762  0.56687600  0.93312400  1
  O  O27  1  0.54139238  0.93312400  0.43312400  1
  O  O28  1  0.45860762  0.43312400  0.06687600  1
  O  O29  1  0.54139238  0.06687600  0.56687600  1
  O  O30  1  0.22474773  0.56595324  0.06595324  1
  O  O31  1  0.77525227  0.93404676  0.56595324  1
  O  O32  1  0.22474773  0.43404676  0.93404676  1
  O  O33  1  0.77525227  0.06595324  0.43404676  1
  O  O34  1  0.07883100  0.34339832  0.15660168  1
  O  O35  1  0.92116900  0.15660168  0.65660168  1
  O  O36  1  0.07883100  0.65660168  0.84339832  1
  O  O37  1  0.92116900  0.84339832  0.34339832  1
  O  O38  1  0.74343685  0.32506915  0.17493085  1
  O  O39  1  0.25656315  0.17493085  0.67493085  1
  O  O40  1  0.74343685  0.67493085  0.82506915  1
  O  O41  1  0.25656315  0.82506915  0.32506915  1
  O  O42  1  0.87418309  0.49121533  0.14125653  1
  O  O43  1  0.12581691  0.00878467  0.64125653  1
  O  O44  1  0.87418309  0.50878467  0.85874347  1
  O  O45  1  0.12581691  0.99121533  0.35874347  1
  O  O46  1  0.12581691  0.85874347  0.49121533  1
  O  O47  1  0.87418309  0.64125653  0.99121533  1
  O  O48  1  0.12581691  0.14125653  0.50878467  1
  O  O49  1  0.87418309  0.35874347  0.00878467  1
  O  O50  1  0.45000193  0.63029331  0.29096954  1
  O  O51  1  0.54999807  0.86970669  0.79096954  1
  O  O52  1  0.45000193  0.36970669  0.70903046  1
  O  O53  1  0.54999807  0.13029331  0.20903046  1
  O  O54  1  0.54999807  0.70903046  0.63029331  1
  O  O55  1  0.45000193  0.79096954  0.13029331  1
  O  O56  1  0.54999807  0.29096954  0.36970669  1
  O  O57  1  0.45000193  0.20903046  0.86970669  1
  O  O58  1  0.32105370  0.45695643  0.29204876  1
  O  O59  1  0.67894630  0.04304357  0.79204876  1
  O  O60  1  0.32105370  0.54304357  0.70795124  1
  O  O61  1  0.67894630  0.95695643  0.20795124  1
  O  O62  1  0.67894630  0.70795124  0.45695643  1
  O  O63  1  0.32105370  0.79204876  0.95695643  1
  O  O64  1  0.67894630  0.29204876  0.54304357  1
  O  O65  1  0.32105370  0.20795124  0.04304357  1
  O  O66  1  0.26208691  0.57527347  0.43498048  1
  O  O67  1  0.73791309  0.92472653  0.93498048  1
  O  O68  1  0.26208691  0.42472653  0.56501952  1
  O  O69  1  0.73791309  0.07527347  0.06501952  1
  O  O70  1  0.73791309  0.56501952  0.57527347  1
  O  O71  1  0.26208691  0.93498048  0.07527347  1
  O  O72  1  0.73791309  0.43498048  0.42472653  1
  O  O73  1  0.26208691  0.06501952  0.92472653  1
  O  O74  1  0.12013978  0.60566493  0.26874163  1
  O  O75  1  0.87986022  0.89433507  0.76874163  1
  O  O76  1  0.12013978  0.39433507  0.73125837  1
  O  O77  1  0.87986022  0.10566493  0.23125837  1
  O  O78  1  0.87986022  0.73125837  0.60566493  1
  O  O79  1  0.12013978  0.76874163  0.10566493  1
  O  O80  1  0.87986022  0.26874163  0.39433507  1
  O  O81  1  0.12013978  0.23125837  0.89433507  1
