# generated using pymatgen
data_BeH6(NF)2
_symmetry_space_group_name_H-M   'P 1'
_cell_length_a   5.01343424
_cell_length_b   7.14796840
_cell_length_c   10.41157913
_cell_angle_alpha   90.00000000
_cell_angle_beta   92.76523247
_cell_angle_gamma   90.00000000
_symmetry_Int_Tables_number   1
_chemical_formula_structural   BeH6(NF)2
_chemical_formula_sum   'Be4 H24 N8 F8'
_cell_volume   372.67354280
_cell_formula_units_Z   4
loop_
 _symmetry_equiv_pos_site_id
 _symmetry_equiv_pos_as_xyz
  1  'x, y, z'
loop_
 _atom_site_type_symbol
 _atom_site_label
 _atom_site_symmetry_multiplicity
 _atom_site_fract_x
 _atom_site_fract_y
 _atom_site_fract_z
 _atom_site_occupancy
  Be  Be0  1  0.36440111  0.36324509  0.31540145  1
  Be  Be1  1  0.63559889  0.86324509  0.18459855  1
  Be  Be2  1  0.63559889  0.63675491  0.68459855  1
  Be  Be3  1  0.36440111  0.13675491  0.81540145  1
  H  H4  1  0.25927483  0.16318461  0.48770656  1
  H  H5  1  0.74072517  0.66318461  0.01229344  1
  H  H6  1  0.74072517  0.83681539  0.51229344  1
  H  H7  1  0.25927483  0.33681539  0.98770656  1
  H  H8  1  0.02269206  0.15974006  0.37192980  1
  H  H9  1  0.97730794  0.65974006  0.12807020  1
  H  H10  1  0.97730794  0.84025994  0.62807020  1
  H  H11  1  0.02269206  0.34025994  0.87192980  1
  H  H12  1  0.30815464  0.04889796  0.35251817  1
  H  H13  1  0.69184536  0.54889796  0.14748183  1
  H  H14  1  0.69184536  0.95110204  0.64748183  1
  H  H15  1  0.30815464  0.45110204  0.85251817  1
  H  H16  1  0.29189027  0.67990360  0.33080000  1
  H  H17  1  0.70810973  0.17990360  0.16920000  1
  H  H18  1  0.70810973  0.32009640  0.66920000  1
  H  H19  1  0.29189027  0.82009640  0.83080000  1
  H  H20  1  0.01583455  0.56480172  0.36201869  1
  H  H21  1  0.98416545  0.06480172  0.13798131  1
  H  H22  1  0.98416545  0.43519828  0.63798131  1
  H  H23  1  0.01583455  0.93519828  0.86201869  1
  H  H24  1  0.26079313  0.58589647  0.47386013  1
  H  H25  1  0.73920687  0.08589647  0.02613987  1
  H  H26  1  0.73920687  0.41410353  0.52613987  1
  H  H27  1  0.26079313  0.91410353  0.97386013  1
  N  N28  1  0.22506824  0.16785392  0.38925021  1
  N  N29  1  0.77493176  0.66785392  0.11074979  1
  N  N30  1  0.77493176  0.83214608  0.61074979  1
  N  N31  1  0.22506824  0.33214608  0.88925021  1
  N  N32  1  0.21929491  0.56477982  0.37677863  1
  N  N33  1  0.78070509  0.06477982  0.12322137  1
  N  N34  1  0.78070509  0.43522018  0.62322137  1
  N  N35  1  0.21929491  0.93522018  0.87677863  1
  F  F36  1  0.66936531  0.36699474  0.35160775  1
  F  F37  1  0.33063469  0.86699474  0.14839225  1
  F  F38  1  0.33063469  0.63300526  0.64839225  1
  F  F39  1  0.66936531  0.13300526  0.85160775  1
  F  F40  1  0.30744073  0.35408857  0.16883320  1
  F  F41  1  0.69255927  0.85408857  0.33116680  1
  F  F42  1  0.69255927  0.64591143  0.83116680  1
  F  F43  1  0.30744073  0.14591143  0.66883320  1
