# generated using pymatgen
data_Pr5(Sn5Ir2)2
_symmetry_space_group_name_H-M   'P 1'
_cell_length_a   4.70257583
_cell_length_b   14.19269575
_cell_length_c   14.19269575
_cell_angle_alpha   90.00000000
_cell_angle_beta   90.00000000
_cell_angle_gamma   90.00000000
_symmetry_Int_Tables_number   1
_chemical_formula_structural   Pr5(Sn5Ir2)2
_chemical_formula_sum   'Pr10 Sn20 Ir8'
_cell_volume   947.25213563
_cell_formula_units_Z   2
loop_
 _symmetry_equiv_pos_site_id
 _symmetry_equiv_pos_as_xyz
  1  'x, y, z'
loop_
 _atom_site_type_symbol
 _atom_site_label
 _atom_site_symmetry_multiplicity
 _atom_site_fract_x
 _atom_site_fract_y
 _atom_site_fract_z
 _atom_site_occupancy
  Pr  Pr0  1  -0.00000000  0.50000000  0.50000000  1
  Pr  Pr1  1  -0.00000000  -0.00000000  -0.00000000  1
  Pr  Pr2  1  0.50000000  0.17647379  0.67647379  1
  Pr  Pr3  1  0.50000000  0.82352621  0.32352621  1
  Pr  Pr4  1  0.50000000  0.32352621  0.17647379  1
  Pr  Pr5  1  0.50000000  0.67647379  0.82352621  1
  Pr  Pr6  1  0.50000000  0.38749511  0.88749511  1
  Pr  Pr7  1  0.50000000  0.61250489  0.11250489  1
  Pr  Pr8  1  0.50000000  0.11250489  0.38749511  1
  Pr  Pr9  1  0.50000000  0.88749511  0.61250489  1
  Sn  Sn10  1  0.00000000  0.06957181  0.56957181  1
  Sn  Sn11  1  0.00000000  0.93042819  0.43042819  1
  Sn  Sn12  1  -0.00000000  0.43042819  0.06957181  1
  Sn  Sn13  1  -0.00000000  0.56957181  0.93042819  1
  Sn  Sn14  1  -0.00000000  0.69816698  0.65523468  1
  Sn  Sn15  1  -0.00000000  0.30183302  0.34476532  1
  Sn  Sn16  1  0.00000000  0.80183302  0.15523468  1
  Sn  Sn17  1  -0.00000000  0.19816698  0.84476532  1
  Sn  Sn18  1  -0.00000000  0.65523468  0.30183302  1
  Sn  Sn19  1  -0.00000000  0.34476532  0.69816698  1
  Sn  Sn20  1  0.00000000  0.15523468  0.19816698  1
  Sn  Sn21  1  -0.00000000  0.84476532  0.80183302  1
  Sn  Sn22  1  0.50000000  0.50554212  0.66342434  1
  Sn  Sn23  1  0.50000000  0.49445788  0.33657566  1
  Sn  Sn24  1  0.50000000  0.99445788  0.16342434  1
  Sn  Sn25  1  0.50000000  0.00554212  0.83657566  1
  Sn  Sn26  1  0.50000000  0.66342434  0.49445788  1
  Sn  Sn27  1  0.50000000  0.33657566  0.50554212  1
  Sn  Sn28  1  0.50000000  0.16342434  0.00554212  1
  Sn  Sn29  1  0.50000000  0.83657566  0.99445788  1
  Ir  Ir30  1  0.00000000  0.52733391  0.74613840  1
  Ir  Ir31  1  -0.00000000  0.47266609  0.25386160  1
  Ir  Ir32  1  0.00000000  0.97266609  0.24613840  1
  Ir  Ir33  1  -0.00000000  0.02733391  0.75386160  1
  Ir  Ir34  1  -0.00000000  0.74613840  0.47266609  1
  Ir  Ir35  1  0.00000000  0.25386160  0.52733391  1
  Ir  Ir36  1  -0.00000000  0.24613840  0.02733391  1
  Ir  Ir37  1  -0.00000000  0.75386160  0.97266609  1
