# generated using pymatgen
data_CsCuPSe3
_symmetry_space_group_name_H-M   'P 1'
_cell_length_a   10.21281458
_cell_length_b   11.02791132
_cell_length_c   13.50206087
_cell_angle_alpha   90.00000000
_cell_angle_beta   90.00000000
_cell_angle_gamma   104.21596678
_symmetry_Int_Tables_number   1
_chemical_formula_structural   CsCuPSe3
_chemical_formula_sum   'Cs8 Cu8 P8 Se24'
_cell_volume   1474.11533174
_cell_formula_units_Z   8
loop_
 _symmetry_equiv_pos_site_id
 _symmetry_equiv_pos_as_xyz
  1  'x, y, z'
loop_
 _atom_site_type_symbol
 _atom_site_label
 _atom_site_symmetry_multiplicity
 _atom_site_fract_x
 _atom_site_fract_y
 _atom_site_fract_z
 _atom_site_occupancy
  Cs  Cs0  1  0.38859589  0.38327355  0.82021822  1
  Cs  Cs1  1  0.61140411  0.11672645  0.32021822  1
  Cs  Cs2  1  0.61140411  0.61672645  0.17978178  1
  Cs  Cs3  1  0.38859589  0.88327355  0.67978178  1
  Cs  Cs4  1  0.86739831  0.33975039  0.65344074  1
  Cs  Cs5  1  0.13260169  0.16024961  0.15344074  1
  Cs  Cs6  1  0.13260169  0.66024961  0.34655926  1
  Cs  Cs7  1  0.86739831  0.83975039  0.84655926  1
  Cu  Cu8  1  0.45438004  0.09563653  0.95314111  1
  Cu  Cu9  1  0.54561996  0.40436347  0.45314111  1
  Cu  Cu10  1  0.54561996  0.90436347  0.04685889  1
  Cu  Cu11  1  0.45438004  0.59563653  0.54685889  1
  Cu  Cu12  1  0.98004352  0.46077591  0.90275579  1
  Cu  Cu13  1  0.01995648  0.03922409  0.40275579  1
  Cu  Cu14  1  0.01995648  0.53922409  0.09724421  1
  Cu  Cu15  1  0.98004352  0.96077591  0.59724421  1
  P  P16  1  0.78266892  0.66787908  0.54031315  1
  P  P17  1  0.21733108  0.83212092  0.04031315  1
  P  P18  1  0.21733108  0.33212092  0.45968685  1
  P  P19  1  0.78266892  0.16787908  0.95968685  1
  P  P20  1  0.28021222  0.66813141  0.96293394  1
  P  P21  1  0.71978778  0.83186859  0.46293394  1
  P  P22  1  0.71978778  0.33186859  0.03706606  1
  P  P23  1  0.28021222  0.16813141  0.53706606  1
  Se  Se24  1  0.63507551  0.61295308  0.66264257  1
  Se  Se25  1  0.36492449  0.88704692  0.16264257  1
  Se  Se26  1  0.36492449  0.38704692  0.33735743  1
  Se  Se27  1  0.63507551  0.11295308  0.83735743  1
  Se  Se28  1  0.15437413  0.12006234  0.67229713  1
  Se  Se29  1  0.84562587  0.37993766  0.17229713  1
  Se  Se30  1  0.84562587  0.87993766  0.32770287  1
  Se  Se31  1  0.15437413  0.62006234  0.82770287  1
  Se  Se32  1  0.99289874  0.24689679  0.90867399  1
  Se  Se33  1  0.00710126  0.25310321  0.40867399  1
  Se  Se34  1  0.00710126  0.75310321  0.09132601  1
  Se  Se35  1  0.99289874  0.74689679  0.59132601  1
  Se  Se36  1  0.22620400  0.48027736  0.57211499  1
  Se  Se37  1  0.77379600  0.01972264  0.07211499  1
  Se  Se38  1  0.77379600  0.51972264  0.42788501  1
  Se  Se39  1  0.22620400  0.98027736  0.92788501  1
  Se  Se40  1  0.24487910  0.51620625  0.07388392  1
  Se  Se41  1  0.75512090  0.98379375  0.57388392  1
  Se  Se42  1  0.75512090  0.48379375  0.92611608  1
  Se  Se43  1  0.24487910  0.01620625  0.42611608  1
  Se  Se44  1  0.50502973  0.25488524  0.07767588  1
  Se  Se45  1  0.49497027  0.24511476  0.57767588  1
  Se  Se46  1  0.49497027  0.74511476  0.92232412  1
  Se  Se47  1  0.50502973  0.75488524  0.42232412  1
