# generated using pymatgen
data_NaTi2(AsO4)3
_symmetry_space_group_name_H-M   'P 1'
_cell_length_a   8.99802190
_cell_length_b   8.99802190
_cell_length_c   9.17861960
_cell_angle_alpha   60.64876620
_cell_angle_beta   60.64876620
_cell_angle_gamma   59.99999691
_symmetry_Int_Tables_number   1
_chemical_formula_structural   NaTi2(AsO4)3
_chemical_formula_sum   'Na2 Ti4 As6 O24'
_cell_volume   530.57441326
_cell_formula_units_Z   2
loop_
 _symmetry_equiv_pos_site_id
 _symmetry_equiv_pos_as_xyz
  1  'x, y, z'
loop_
 _atom_site_type_symbol
 _atom_site_label
 _atom_site_symmetry_multiplicity
 _atom_site_fract_x
 _atom_site_fract_y
 _atom_site_fract_z
 _atom_site_occupancy
  Na  Na0  1  0.50000000  0.50000000  0.50000000  1
  Na  Na1  1  -0.00000000  -0.00000000  0.00000000  1
  Ti  Ti2  1  0.64343509  0.64343509  0.06969474  1
  Ti  Ti3  1  0.14343509  0.14343509  0.56969474  1
  Ti  Ti4  1  0.35656491  0.35656491  0.93030526  1
  Ti  Ti5  1  0.85656491  0.85656491  0.43030526  1
  As  As6  1  0.46330298  0.03669702  0.75000000  1
  As  As7  1  0.03669702  0.75000000  0.75000000  1
  As  As8  1  0.75000000  0.46330298  0.75000000  1
  As  As9  1  0.96330298  0.25000000  0.25000000  1
  As  As10  1  0.25000000  0.53669702  0.25000000  1
  As  As11  1  0.53669702  0.96330298  0.25000000  1
  O  O12  1  0.49604946  0.85410336  0.93488804  1
  O  O13  1  0.85410336  0.71495914  0.93488804  1
  O  O14  1  0.71495914  0.49604946  0.93488804  1
  O  O15  1  0.99604946  0.21495914  0.43488804  1
  O  O16  1  0.21495914  0.35410336  0.43488804  1
  O  O17  1  0.35410336  0.99604946  0.43488804  1
  O  O18  1  0.50395054  0.14589664  0.06511196  1
  O  O19  1  0.14589664  0.28504086  0.06511196  1
  O  O20  1  0.28504086  0.50395054  0.06511196  1
  O  O21  1  0.00395054  0.78504086  0.56511196  1
  O  O22  1  0.78504086  0.64589664  0.56511196  1
  O  O23  1  0.64589664  0.00395054  0.56511196  1
  O  O24  1  0.55813491  0.76865798  0.24103597  1
  O  O25  1  0.76865798  0.43217115  0.24103597  1
  O  O26  1  0.43217115  0.55813491  0.24103597  1
  O  O27  1  0.05813491  0.93217115  0.74103597  1
  O  O28  1  0.93217115  0.26865798  0.74103597  1
  O  O29  1  0.26865798  0.05813491  0.74103597  1
  O  O30  1  0.44186509  0.23134202  0.75896403  1
  O  O31  1  0.23134202  0.56782885  0.75896403  1
  O  O32  1  0.56782885  0.44186509  0.75896403  1
  O  O33  1  0.94186509  0.06782885  0.25896403  1
  O  O34  1  0.06782885  0.73134202  0.25896403  1
  O  O35  1  0.73134202  0.94186509  0.25896403  1
