# generated using pymatgen
data_B3Pb3NO10
_symmetry_space_group_name_H-M   'P 1'
_cell_length_a   8.03744907
_cell_length_b   10.56904868
_cell_length_c   11.37093432
_cell_angle_alpha   90.00000000
_cell_angle_beta   90.00000000
_cell_angle_gamma   90.00000000
_symmetry_Int_Tables_number   1
_chemical_formula_structural   B3Pb3NO10
_chemical_formula_sum   'B12 Pb12 N4 O40'
_cell_volume   965.94029459
_cell_formula_units_Z   4
loop_
 _symmetry_equiv_pos_site_id
 _symmetry_equiv_pos_as_xyz
  1  'x, y, z'
loop_
 _atom_site_type_symbol
 _atom_site_label
 _atom_site_symmetry_multiplicity
 _atom_site_fract_x
 _atom_site_fract_y
 _atom_site_fract_z
 _atom_site_occupancy
  B  B0  1  0.75000000  0.34557951  0.80445946  1
  B  B1  1  0.75000000  0.84557951  0.69554054  1
  B  B2  1  0.25000000  0.65442049  0.19554054  1
  B  B3  1  0.25000000  0.15442049  0.30445946  1
  B  B4  1  0.59817558  0.37709705  0.99502235  1
  B  B5  1  0.90182442  0.87709705  0.50497765  1
  B  B6  1  0.09817558  0.62290295  0.00497765  1
  B  B7  1  0.40182442  0.12290295  0.49502235  1
  B  B8  1  0.40182442  0.62290295  0.00497765  1
  B  B9  1  0.09817558  0.12290295  0.49502235  1
  B  B10  1  0.90182442  0.37709705  0.99502235  1
  B  B11  1  0.59817558  0.87709705  0.50497765  1
  Pb  Pb12  1  0.47968982  0.91412947  0.23503511  1
  Pb  Pb13  1  0.02031018  0.41412947  0.26496489  1
  Pb  Pb14  1  0.97968982  0.08587053  0.76496489  1
  Pb  Pb15  1  0.52031018  0.58587053  0.73503511  1
  Pb  Pb16  1  0.52031018  0.08587053  0.76496489  1
  Pb  Pb17  1  0.97968982  0.58587053  0.73503511  1
  Pb  Pb18  1  0.02031018  0.91412947  0.23503511  1
  Pb  Pb19  1  0.47968982  0.41412947  0.26496489  1
  Pb  Pb20  1  0.25000000  0.22217767  0.03810761  1
  Pb  Pb21  1  0.25000000  0.72217767  0.46189239  1
  Pb  Pb22  1  0.75000000  0.77782233  0.96189239  1
  Pb  Pb23  1  0.75000000  0.27782233  0.53810761  1
  N  N24  1  0.75000000  0.11558720  0.09252213  1
  N  N25  1  0.75000000  0.61558720  0.40747787  1
  N  N26  1  0.25000000  0.88441280  0.90747787  1
  N  N27  1  0.25000000  0.38441280  0.59252213  1
  O  O28  1  0.59573227  0.34803669  0.87693250  1
  O  O29  1  0.90426773  0.84803669  0.62306750  1
  O  O30  1  0.09573227  0.65196331  0.12306750  1
  O  O31  1  0.40426773  0.15196331  0.37693250  1
  O  O32  1  0.40426773  0.65196331  0.12306750  1
  O  O33  1  0.09573227  0.15196331  0.37693250  1
  O  O34  1  0.90426773  0.34803669  0.87693250  1
  O  O35  1  0.59573227  0.84803669  0.62306750  1
  O  O36  1  0.75000000  0.45376039  0.72140388  1
  O  O37  1  0.75000000  0.95376039  0.77859612  1
  O  O38  1  0.25000000  0.54623961  0.27859612  1
  O  O39  1  0.25000000  0.04623961  0.22140388  1
  O  O40  1  0.75000000  0.22591488  0.73517772  1
  O  O41  1  0.75000000  0.72591488  0.76482228  1
  O  O42  1  0.25000000  0.77408512  0.26482228  1
  O  O43  1  0.25000000  0.27408512  0.23517772  1
  O  O44  1  0.45536570  0.37791383  0.06083730  1
  O  O45  1  0.04463430  0.87791383  0.43916270  1
  O  O46  1  0.95536570  0.62208617  0.93916270  1
  O  O47  1  0.54463430  0.12208617  0.56083730  1
  O  O48  1  0.54463430  0.62208617  0.93916270  1
  O  O49  1  0.95536570  0.12208617  0.56083730  1
  O  O50  1  0.04463430  0.37791383  0.06083730  1
  O  O51  1  0.45536570  0.87791383  0.43916270  1
  O  O52  1  0.75000000  0.39792895  0.05298782  1
  O  O53  1  0.75000000  0.89792895  0.44701218  1
  O  O54  1  0.25000000  0.60207105  0.94701218  1
  O  O55  1  0.25000000  0.10207105  0.55298782  1
  O  O56  1  0.75000000  0.13677083  0.20226848  1
  O  O57  1  0.75000000  0.63677083  0.29773152  1
  O  O58  1  0.25000000  0.86322917  0.79773152  1
  O  O59  1  0.25000000  0.36322917  0.70226848  1
  O  O60  1  0.61300462  0.10236942  0.03777976  1
  O  O61  1  0.88699538  0.60236942  0.46222024  1
  O  O62  1  0.11300462  0.89763058  0.96222024  1
  O  O63  1  0.38699538  0.39763058  0.53777976  1
  O  O64  1  0.38699538  0.89763058  0.96222024  1
  O  O65  1  0.11300462  0.39763058  0.53777976  1
  O  O66  1  0.88699538  0.10236942  0.03777976  1
  O  O67  1  0.61300462  0.60236942  0.46222024  1
