# generated using pymatgen
data_Pr4AsBrO8
_symmetry_space_group_name_H-M   'P 1'
_cell_length_a   8.45782256
_cell_length_b   8.45782256
_cell_length_c   13.41400556
_cell_angle_alpha   90.00000000
_cell_angle_beta   90.00000000
_cell_angle_gamma   90.00000000
_symmetry_Int_Tables_number   1
_chemical_formula_structural   Pr4AsBrO8
_chemical_formula_sum   'Pr16 As4 Br4 O32'
_cell_volume   959.56770132
_cell_formula_units_Z   4
loop_
 _symmetry_equiv_pos_site_id
 _symmetry_equiv_pos_as_xyz
  1  'x, y, z'
loop_
 _atom_site_type_symbol
 _atom_site_label
 _atom_site_symmetry_multiplicity
 _atom_site_fract_x
 _atom_site_fract_y
 _atom_site_fract_z
 _atom_site_occupancy
  Pr  Pr0  1  0.01318979  0.24436370  0.16829244  1
  Pr  Pr1  1  0.98681021  0.75563630  0.16829244  1
  Pr  Pr2  1  0.24436370  0.98681021  0.66829244  1
  Pr  Pr3  1  0.75563630  0.01318979  0.66829244  1
  Pr  Pr4  1  0.98681021  0.75563630  0.83170756  1
  Pr  Pr5  1  0.01318979  0.24436370  0.83170756  1
  Pr  Pr6  1  0.75563630  0.01318979  0.33170756  1
  Pr  Pr7  1  0.24436370  0.98681021  0.33170756  1
  Pr  Pr8  1  0.75536492  0.48324267  0.33135430  1
  Pr  Pr9  1  0.24463508  0.51675733  0.33135430  1
  Pr  Pr10  1  0.48324267  0.24463508  0.83135430  1
  Pr  Pr11  1  0.51675733  0.75536492  0.83135430  1
  Pr  Pr12  1  0.24463508  0.51675733  0.66864570  1
  Pr  Pr13  1  0.75536492  0.48324267  0.66864570  1
  Pr  Pr14  1  0.51675733  0.75536492  0.16864570  1
  Pr  Pr15  1  0.48324267  0.24463508  0.16864570  1
  As  As16  1  0.04272867  0.25207154  0.50000000  1
  As  As17  1  0.95727133  0.74792846  0.50000000  1
  As  As18  1  0.25207154  0.95727133  -0.00000000  1
  As  As19  1  0.74792846  0.04272867  -0.00000000  1
  Br  Br20  1  0.55613319  0.25291933  0.50000000  1
  Br  Br21  1  0.44386681  0.74708067  0.50000000  1
  Br  Br22  1  0.25291933  0.44386681  -0.00000000  1
  Br  Br23  1  0.74708067  0.55613319  -0.00000000  1
  O  O24  1  0.00000000  -0.00000000  0.25000000  1
  O  O25  1  0.00000000  -0.00000000  0.75000000  1
  O  O26  1  0.50000000  0.50000000  0.25000000  1
  O  O27  1  0.50000000  0.50000000  0.75000000  1
  O  O28  1  0.74343365  0.24946536  0.23020363  1
  O  O29  1  0.25656635  0.75053464  0.23020363  1
  O  O30  1  0.24946536  0.25656635  0.73020363  1
  O  O31  1  0.75053464  0.74343365  0.73020363  1
  O  O32  1  0.25656635  0.75053464  0.76979637  1
  O  O33  1  0.74343365  0.24946536  0.76979637  1
  O  O34  1  0.75053464  0.74343365  0.26979637  1
  O  O35  1  0.24946536  0.25656635  0.26979637  1
  O  O36  1  0.00000000  0.50000000  0.23880266  1
  O  O37  1  0.50000000  -0.00000000  0.73880266  1
  O  O38  1  0.00000000  0.50000000  0.76119734  1
  O  O39  1  0.50000000  -0.00000000  0.26119734  1
  O  O40  1  0.16406017  0.08599849  0.50000000  1
  O  O41  1  0.83593983  0.91400151  0.50000000  1
  O  O42  1  0.08599849  0.83593983  -0.00000000  1
  O  O43  1  0.91400151  0.16406017  -0.00000000  1
  O  O44  1  0.16455058  0.41752830  0.50000000  1
  O  O45  1  0.83544942  0.58247170  0.50000000  1
  O  O46  1  0.41752830  0.83544942  -0.00000000  1
  O  O47  1  0.58247170  0.16455058  -0.00000000  1
  O  O48  1  0.92820210  0.25203027  0.39481973  1
  O  O49  1  0.07179790  0.74796973  0.39481973  1
  O  O50  1  0.25203027  0.07179790  0.89481973  1
  O  O51  1  0.74796973  0.92820210  0.89481973  1
  O  O52  1  0.07179790  0.74796973  0.60518027  1
  O  O53  1  0.92820210  0.25203027  0.60518027  1
  O  O54  1  0.74796973  0.92820210  0.10518027  1
  O  O55  1  0.25203027  0.07179790  0.10518027  1
