# generated using pymatgen
data_Ti21Mn25
_symmetry_space_group_name_H-M   'P 1'
_cell_length_a   7.90773243
_cell_length_b   13.70243766
_cell_length_c   13.70243712
_cell_angle_alpha   116.39083021
_cell_angle_beta   101.09101331
_cell_angle_gamma   101.09101283
_symmetry_Int_Tables_number   1
_chemical_formula_structural   Ti21Mn25
_chemical_formula_sum   'Ti42 Mn50'
_cell_volume   1238.23212341
_cell_formula_units_Z   2
loop_
 _symmetry_equiv_pos_site_id
 _symmetry_equiv_pos_as_xyz
  1  'x, y, z'
loop_
 _atom_site_type_symbol
 _atom_site_label
 _atom_site_symmetry_multiplicity
 _atom_site_fract_x
 _atom_site_fract_y
 _atom_site_fract_z
 _atom_site_occupancy
  Ti  Ti0  1  0.05450992  0.30450992  0.60901983  1
  Ti  Ti1  1  0.44549008  0.39098017  0.69549008  1
  Ti  Ti2  1  0.75000000  0.30450992  0.69549008  1
  Ti  Ti3  1  0.55450992  0.60901983  0.30450992  1
  Ti  Ti4  1  0.25000000  0.69549008  0.30450992  1
  Ti  Ti5  1  0.94549008  0.69549008  0.39098017  1
  Ti  Ti6  1  0.77389599  0.45828804  0.22464037  1
  Ti  Ti7  1  0.54925562  0.77535963  0.23364767  1
  Ti  Ti8  1  0.31560795  0.76635233  0.54171196  1
  Ti  Ti9  1  0.27389599  0.22464037  0.45828804  1
  Ti  Ti10  1  0.81560795  0.54171196  0.76635233  1
  Ti  Ti11  1  0.04925562  0.23364767  0.77535963  1
  Ti  Ti12  1  0.22610401  0.54171196  0.77535963  1
  Ti  Ti13  1  0.45074438  0.22464037  0.76635233  1
  Ti  Ti14  1  0.68439205  0.23364767  0.45828804  1
  Ti  Ti15  1  0.72610401  0.77535963  0.54171196  1
  Ti  Ti16  1  0.18439205  0.45828804  0.23364767  1
  Ti  Ti17  1  0.95074438  0.76635233  0.22464037  1
  Ti  Ti18  1  0.56591389  0.11470076  0.88502346  1
  Ti  Ti19  1  0.68089043  0.11497654  0.22967730  1
  Ti  Ti20  1  0.45121313  0.77032270  0.88529924  1
  Ti  Ti21  1  0.06591389  0.88502346  0.11470076  1
  Ti  Ti22  1  0.95121313  0.88529924  0.77032270  1
  Ti  Ti23  1  0.18089043  0.22967730  0.11497654  1
  Ti  Ti24  1  0.43408611  0.88529924  0.11497654  1
  Ti  Ti25  1  0.31910957  0.88502346  0.77032270  1
  Ti  Ti26  1  0.54878687  0.22967730  0.11470076  1
  Ti  Ti27  1  0.93408611  0.11497654  0.88529924  1
  Ti  Ti28  1  0.04878687  0.11470076  0.22967730  1
  Ti  Ti29  1  0.81910957  0.77032270  0.88502346  1
  Ti  Ti30  1  0.54296188  0.90493262  0.48177994  1
  Ti  Ti31  1  0.06118194  0.51822006  0.42315269  1
  Ti  Ti32  1  0.63802925  0.57684731  0.09506738  1
  Ti  Ti33  1  0.04296188  0.48177994  0.90493262  1
  Ti  Ti34  1  0.13802925  0.09506738  0.57684731  1
  Ti  Ti35  1  0.56118194  0.42315269  0.51822006  1
  Ti  Ti36  1  0.45703812  0.09506738  0.51822006  1
  Ti  Ti37  1  0.93881806  0.48177994  0.57684731  1
  Ti  Ti38  1  0.36197075  0.42315269  0.90493262  1
  Ti  Ti39  1  0.95703812  0.51822006  0.09506738  1
  Ti  Ti40  1  0.86197075  0.90493262  0.42315269  1
  Ti  Ti41  1  0.43881806  0.57684731  0.48177994  1
  Mn  Mn42  1  0.50000000  -0.00000000  0.00000000  1
  Mn  Mn43  1  -0.00000000  -0.00000000  0.00000000  1
  Mn  Mn44  1  0.68865537  0.93865537  0.87731073  1
  Mn  Mn45  1  0.81134463  0.12268927  0.06134463  1
  Mn  Mn46  1  0.75000000  0.93865537  0.06134463  1
  Mn  Mn47  1  0.18865537  0.87731073  0.93865537  1
  Mn  Mn48  1  0.25000000  0.06134463  0.93865537  1
  Mn  Mn49  1  0.31134463  0.06134463  0.12268927  1
  Mn  Mn50  1  0.30567608  0.55567608  0.11135215  1
  Mn  Mn51  1  0.19432392  0.88864785  0.44432392  1
  Mn  Mn52  1  0.75000000  0.55567608  0.44432392  1
  Mn  Mn53  1  0.80567608  0.11135215  0.55567608  1
  Mn  Mn54  1  0.25000000  0.44432392  0.55567608  1
  Mn  Mn55  1  0.69432392  0.44432392  0.88864785  1
  Mn  Mn56  1  0.86759556  0.29612498  0.06076537  1
  Mn  Mn57  1  0.80683018  0.93923463  0.23535961  1
  Mn  Mn58  1  0.57147058  0.76464039  0.70387502  1
  Mn  Mn59  1  0.36759556  0.06076537  0.29612498  1
  Mn  Mn60  1  0.07147058  0.70387502  0.76464039  1
  Mn  Mn61  1  0.30683018  0.23535961  0.93923463  1
  Mn  Mn62  1  0.13240444  0.70387502  0.93923463  1
  Mn  Mn63  1  0.19316982  0.06076537  0.76464039  1
  Mn  Mn64  1  0.42852942  0.23535961  0.29612498  1
  Mn  Mn65  1  0.63240444  0.93923463  0.70387502  1
  Mn  Mn66  1  0.92852942  0.29612498  0.23535961  1
  Mn  Mn67  1  0.69316982  0.76464039  0.06076537  1
  Mn  Mn68  1  0.68858506  0.11612231  0.70766018  1
  Mn  Mn69  1  0.98092489  0.29233982  0.40846213  1
  Mn  Mn70  1  0.57246276  0.59153787  0.88387769  1
  Mn  Mn71  1  0.18858506  0.70766018  0.11612231  1
  Mn  Mn72  1  0.07246276  0.88387769  0.59153787  1
  Mn  Mn73  1  0.48092489  0.40846213  0.29233982  1
  Mn  Mn74  1  0.31141494  0.88387769  0.29233982  1
  Mn  Mn75  1  0.01907511  0.70766018  0.59153787  1
  Mn  Mn76  1  0.42753724  0.40846213  0.11612231  1
  Mn  Mn77  1  0.81141494  0.29233982  0.88387769  1
  Mn  Mn78  1  0.92753724  0.11612231  0.40846213  1
  Mn  Mn79  1  0.51907511  0.59153787  0.70766018  1
  Mn  Mn80  1  0.38097286  0.99668064  0.64608613  1
  Mn  Mn81  1  0.73488673  0.35391387  0.35059451  1
  Mn  Mn82  1  0.38429222  0.64940549  0.00331936  1
  Mn  Mn83  1  0.88097286  0.64608613  0.99668064  1
  Mn  Mn84  1  0.88429222  0.00331936  0.64940549  1
  Mn  Mn85  1  0.23488673  0.35059451  0.35391387  1
  Mn  Mn86  1  0.61902714  0.00331936  0.35391387  1
  Mn  Mn87  1  0.26511327  0.64608613  0.64940549  1
  Mn  Mn88  1  0.61570778  0.35059451  0.99668064  1
  Mn  Mn89  1  0.11902714  0.35391387  0.00331936  1
  Mn  Mn90  1  0.11570778  0.99668064  0.35059451  1
  Mn  Mn91  1  0.76511327  0.64940549  0.64608613  1
