# generated using pymatgen
data_CoOF
_symmetry_space_group_name_H-M   'P 1'
_cell_length_a   4.60459705
_cell_length_b   18.23301964
_cell_length_c   2.96278565
_cell_angle_alpha   90.00000000
_cell_angle_beta   90.00000000
_cell_angle_gamma   93.55552537
_symmetry_Int_Tables_number   1
_chemical_formula_structural   CoOF
_chemical_formula_sum   'Co8 O8 F8'
_cell_volume   248.26397994
_cell_formula_units_Z   8
loop_
 _symmetry_equiv_pos_site_id
 _symmetry_equiv_pos_as_xyz
  1  'x, y, z'
loop_
 _atom_site_type_symbol
 _atom_site_label
 _atom_site_symmetry_multiplicity
 _atom_site_fract_x
 _atom_site_fract_y
 _atom_site_fract_z
 _atom_site_occupancy
  Co  Co0  1  0.00000000  0.00000000  0.00000000  1
  Co  Co1  1  0.06526411  0.24674865  0.00000000  1
  Co  Co2  1  0.00000000  0.50000000  0.00000000  1
  Co  Co3  1  0.93473589  0.75325135  0.00000000  1
  Co  Co4  1  0.60109644  0.12506809  0.50000000  1
  Co  Co5  1  0.52748748  0.37349808  0.50000000  1
  Co  Co6  1  0.47251252  0.62650192  0.50000000  1
  Co  Co7  1  0.39890356  0.87493191  0.50000000  1
  O  O8  1  0.15249324  0.94860477  0.50000000  1
  O  O9  1  0.29409969  0.57768267  0.00000000  1
  O  O10  1  0.23408617  0.82581062  0.00000000  1
  O  O11  1  0.34475987  0.32522052  0.00000000  1
  O  O12  1  0.76591383  0.17418938  0.00000000  1
  O  O13  1  0.70590031  0.42231733  0.00000000  1
  O  O14  1  0.65524013  0.67477948  0.00000000  1
  O  O15  1  0.84750676  0.05139523  0.50000000  1
  F  F16  1  0.28333663  0.19754384  0.50000000  1
  F  F17  1  0.20120651  0.45032782  0.50000000  1
  F  F18  1  0.14060400  0.70344442  0.50000000  1
  F  F19  1  0.37911324  0.07720390  0.00000000  1
  F  F20  1  0.62088676  0.92279610  0.00000000  1
  F  F21  1  0.85939600  0.29655558  0.50000000  1
  F  F22  1  0.79879349  0.54967218  0.50000000  1
  F  F23  1  0.71666337  0.80245616  0.50000000  1
