# generated using pymatgen
data_Nd4InSbS9
_symmetry_space_group_name_H-M   'P 1'
_cell_length_a   10.21022263
_cell_length_b   10.21022263
_cell_length_c   28.11183174
_cell_angle_alpha   90.00000000
_cell_angle_beta   90.00000000
_cell_angle_gamma   90.00000000
_symmetry_Int_Tables_number   1
_chemical_formula_structural   Nd4InSbS9
_chemical_formula_sum   'Nd32 In8 Sb8 S72'
_cell_volume   2930.62039981
_cell_formula_units_Z   8
loop_
 _symmetry_equiv_pos_site_id
 _symmetry_equiv_pos_as_xyz
  1  'x, y, z'
loop_
 _atom_site_type_symbol
 _atom_site_label
 _atom_site_symmetry_multiplicity
 _atom_site_fract_x
 _atom_site_fract_y
 _atom_site_fract_z
 _atom_site_occupancy
  Nd  Nd0  1  0.05941093  0.72426342  0.16155400  1
  Nd  Nd1  1  0.94058907  0.27573658  0.66155400  1
  Nd  Nd2  1  0.22426342  0.44058907  0.41155400  1
  Nd  Nd3  1  0.77573658  0.55941093  0.91155400  1
  Nd  Nd4  1  0.27573658  0.94058907  0.33844600  1
  Nd  Nd5  1  0.72426342  0.05941093  0.83844600  1
  Nd  Nd6  1  0.44058907  0.22426342  0.58844600  1
  Nd  Nd7  1  0.55941093  0.77573658  0.08844600  1
  Nd  Nd8  1  0.01080545  0.65030112  0.30283667  1
  Nd  Nd9  1  0.98919455  0.34969888  0.80283667  1
  Nd  Nd10  1  0.15030112  0.48919455  0.55283667  1
  Nd  Nd11  1  0.84969888  0.51080545  0.05283667  1
  Nd  Nd12  1  0.34969888  0.98919455  0.19716333  1
  Nd  Nd13  1  0.65030112  0.01080545  0.69716333  1
  Nd  Nd14  1  0.48919455  0.15030112  0.44716333  1
  Nd  Nd15  1  0.51080545  0.84969888  0.94716333  1
  Nd  Nd16  1  0.73348795  0.50232031  0.19920956  1
  Nd  Nd17  1  0.26651205  0.49767969  0.69920956  1
  Nd  Nd18  1  0.00232031  0.76651205  0.44920956  1
  Nd  Nd19  1  0.99767969  0.23348795  0.94920956  1
  Nd  Nd20  1  0.49767969  0.26651205  0.30079044  1
  Nd  Nd21  1  0.50232031  0.73348795  0.80079044  1
  Nd  Nd22  1  0.76651205  0.00232031  0.55079044  1
  Nd  Nd23  1  0.23348795  0.99767969  0.05079044  1
  Nd  Nd24  1  0.05643002  0.27268043  0.15762349  1
  Nd  Nd25  1  0.94356998  0.72731957  0.65762349  1
  Nd  Nd26  1  0.77268043  0.44356998  0.40762349  1
  Nd  Nd27  1  0.22731957  0.55643002  0.90762349  1
  Nd  Nd28  1  0.72731957  0.94356998  0.34237651  1
  Nd  Nd29  1  0.27268043  0.05643002  0.84237651  1
  Nd  Nd30  1  0.44356998  0.77268043  0.59237651  1
  Nd  Nd31  1  0.55643002  0.22731957  0.09237651  1
  In  In32  1  0.29611866  0.51332951  0.04685042  1
  In  In33  1  0.70388134  0.48667049  0.54685042  1
  In  In34  1  0.01332951  0.20388134  0.29685042  1
  In  In35  1  0.98667049  0.79611866  0.79685042  1
  In  In36  1  0.48667049  0.70388134  0.45314958  1
  In  In37  1  0.51332951  0.29611866  0.95314958  1
  In  In38  1  0.20388134  0.01332951  0.70314958  1
  In  In39  1  0.79611866  0.98667049  0.20314958  1
  Sb  Sb40  1  0.35817692  0.49091844  0.19447278  1
  Sb  Sb41  1  0.64182308  0.50908156  0.69447278  1
  Sb  Sb42  1  0.99091844  0.14182308  0.44447278  1
  Sb  Sb43  1  0.00908156  0.85817692  0.94447278  1
  Sb  Sb44  1  0.50908156  0.64182308  0.30552722  1
  Sb  Sb45  1  0.49091844  0.35817692  0.80552722  1
  Sb  Sb46  1  0.14182308  0.99091844  0.55552722  1
  Sb  Sb47  1  0.85817692  0.00908156  0.05552722  1
  S  S48  1  0.51063945  0.67706159  0.21159877  1
  S  S49  1  0.48936055  0.32293841  0.71159877  1
  S  S50  1  0.17706159  0.98936055  0.46159877  1
  S  S51  1  0.82293841  0.01063945  0.96159877  1
  S  S52  1  0.32293841  0.48936055  0.28840123  1
  S  S53  1  0.67706159  0.51063945  0.78840123  1
  S  S54  1  0.98936055  0.17706159  0.53840123  1
  S  S55  1  0.01063945  0.82293841  0.03840123  1
  S  S56  1  0.02041229  0.18831859  0.04974021  1
  S  S57  1  0.97958771  0.81168141  0.54974021  1
  S  S58  1  0.68831859  0.47958771  0.29974021  1
  S  S59  1  0.31168141  0.52041229  0.79974021  1
  S  S60  1  0.81168141  0.97958771  0.45025979  1
  S  S61  1  0.18831859  0.02041229  0.95025979  1
  S  S62  1  0.47958771  0.68831859  0.70025979  1
  S  S63  1  0.52041229  0.31168141  0.20025979  1
  S  S64  1  0.99039345  0.99528734  0.14872760  1
  S  S65  1  0.00960655  0.00471266  0.64872760  1
  S  S66  1  0.49528734  0.50960655  0.39872760  1
  S  S67  1  0.50471266  0.49039345  0.89872760  1
  S  S68  1  0.00471266  0.00960655  0.35127240  1
  S  S69  1  0.99528734  0.99039345  0.85127240  1
  S  S70  1  0.50960655  0.49528734  0.60127240  1
  S  S71  1  0.49039345  0.50471266  0.10127240  1
  S  S72  1  0.10127796  0.50359027  0.09929995  1
  S  S73  1  0.89872204  0.49640973  0.59929995  1
  S  S74  1  0.00359027  0.39872204  0.34929995  1
  S  S75  1  0.99640973  0.60127796  0.84929995  1
  S  S76  1  0.49640973  0.89872204  0.40070005  1
  S  S77  1  0.50359027  0.10127796  0.90070005  1
  S  S78  1  0.39872204  0.00359027  0.65070005  1
  S  S79  1  0.60127796  0.99640973  0.15070005  1
  S  S80  1  0.30598526  0.30598526  0.00000000  1
  S  S81  1  0.69401474  0.69401474  0.50000000  1
  S  S82  1  0.80598526  0.19401474  0.25000000  1
  S  S83  1  0.19401474  0.80598526  0.75000000  1
  S  S84  1  0.20706354  0.19753712  0.24398583  1
  S  S85  1  0.79293646  0.80246288  0.74398583  1
  S  S86  1  0.69753712  0.29293646  0.49398583  1
  S  S87  1  0.30246288  0.70706354  0.99398583  1
  S  S88  1  0.80246288  0.79293646  0.25601417  1
  S  S89  1  0.19753712  0.20706354  0.75601417  1
  S  S90  1  0.29293646  0.69753712  0.50601417  1
  S  S91  1  0.70706354  0.30246288  0.00601417  1
  S  S92  1  0.00318871  0.49936996  0.21837788  1
  S  S93  1  0.99681129  0.50063004  0.71837788  1
  S  S94  1  0.99936996  0.49681129  0.46837788  1
  S  S95  1  0.00063004  0.50318871  0.96837788  1
  S  S96  1  0.50063004  0.99681129  0.28162212  1
  S  S97  1  0.49936996  0.00318871  0.78162212  1
  S  S98  1  0.49681129  0.99936996  0.53162212  1
  S  S99  1  0.50318871  0.00063004  0.03162212  1
  S  S100  1  0.29847914  0.17672251  0.12359409  1
  S  S101  1  0.70152086  0.82327749  0.62359409  1
  S  S102  1  0.67672251  0.20152086  0.37359409  1
  S  S103  1  0.32327749  0.79847914  0.87359409  1
  S  S104  1  0.82327749  0.70152086  0.37640591  1
  S  S105  1  0.17672251  0.29847914  0.87640591  1
  S  S106  1  0.20152086  0.67672251  0.62640591  1
  S  S107  1  0.79847914  0.32327749  0.12640591  1
  S  S108  1  0.29817265  0.81074800  0.12207545  1
  S  S109  1  0.70182735  0.18925200  0.62207545  1
  S  S110  1  0.31074800  0.20182735  0.37207545  1
  S  S111  1  0.68925200  0.79817265  0.87207545  1
  S  S112  1  0.18925200  0.70182735  0.37792455  1
  S  S113  1  0.81074800  0.29817265  0.87792455  1
  S  S114  1  0.20182735  0.31074800  0.62792455  1
  S  S115  1  0.79817265  0.68925200  0.12792455  1
  S  S116  1  0.18317883  0.81682117  0.25000000  1
  S  S117  1  0.81682117  0.18317883  0.75000000  1
  S  S118  1  0.31682117  0.31682117  0.50000000  1
  S  S119  1  0.68317883  0.68317883  0.00000000  1
