# generated using pymatgen
data_SrZr4(AsO4)6
_symmetry_space_group_name_H-M   'P 1'
_cell_length_a   9.17461989
_cell_length_b   9.17461989
_cell_length_c   9.69238937
_cell_angle_alpha   61.75193503
_cell_angle_beta   61.75193503
_cell_angle_gamma   60.00000120
_symmetry_Int_Tables_number   1
_chemical_formula_structural   SrZr4(AsO4)6
_chemical_formula_sum   'Sr1 Zr4 As6 O24'
_cell_volume   591.69582963
_cell_formula_units_Z   1
loop_
 _symmetry_equiv_pos_site_id
 _symmetry_equiv_pos_as_xyz
  1  'x, y, z'
loop_
 _atom_site_type_symbol
 _atom_site_label
 _atom_site_symmetry_multiplicity
 _atom_site_fract_x
 _atom_site_fract_y
 _atom_site_fract_z
 _atom_site_occupancy
  Sr  Sr0  1  0.50000000  0.50000000  0.50000000  1
  Zr  Zr1  1  0.14458532  0.14458532  0.56624403  1
  Zr  Zr2  1  0.85541468  0.85541468  0.43375597  1
  Zr  Zr3  1  0.64646581  0.64646581  0.06060257  1
  Zr  Zr4  1  0.35353419  0.35353419  0.93939743  1
  As  As5  1  0.96248024  0.25245785  0.25378301  1
  As  As6  1  0.25245785  0.53127891  0.25378301  1
  As  As7  1  0.53127891  0.96248024  0.25378301  1
  As  As8  1  0.03751976  0.74754215  0.74621699  1
  As  As9  1  0.74754215  0.46872109  0.74621699  1
  As  As10  1  0.46872109  0.03751976  0.74621699  1
  O  O11  1  0.98358038  0.26810508  0.41178580  1
  O  O12  1  0.26810508  0.33652874  0.41178580  1
  O  O13  1  0.33652874  0.98358038  0.41178580  1
  O  O14  1  0.01641962  0.73189492  0.58821420  1
  O  O15  1  0.73189492  0.66347126  0.58821420  1
  O  O16  1  0.66347126  0.01641962  0.58821420  1
  O  O17  1  0.49637571  0.87636569  0.92761395  1
  O  O18  1  0.87636569  0.69964464  0.92761395  1
  O  O19  1  0.69964464  0.49637571  0.92761395  1
  O  O20  1  0.50362429  0.12363431  0.07238605  1
  O  O21  1  0.12363431  0.30035536  0.07238605  1
  O  O22  1  0.30035536  0.50362429  0.07238605  1
  O  O23  1  0.02842318  0.95188866  0.70927926  1
  O  O24  1  0.95188866  0.31040889  0.70927926  1
  O  O25  1  0.31040889  0.02842318  0.70927926  1
  O  O26  1  0.97157682  0.04811134  0.29072074  1
  O  O27  1  0.04811134  0.68959111  0.29072074  1
  O  O28  1  0.68959111  0.97157682  0.29072074  1
  O  O29  1  0.59419139  0.75597853  0.24208194  1
  O  O30  1  0.75597853  0.40774815  0.24208194  1
  O  O31  1  0.40774815  0.59419139  0.24208194  1
  O  O32  1  0.40580861  0.24402147  0.75791806  1
  O  O33  1  0.24402147  0.59225185  0.75791806  1
  O  O34  1  0.59225185  0.40580861  0.75791806  1
