# generated using pymatgen
data_KB3SeO7
_symmetry_space_group_name_H-M   'P 1'
_cell_length_a   4.67739997
_cell_length_b   8.78424648
_cell_length_c   17.86362275
_cell_angle_alpha   90.00000000
_cell_angle_beta   90.00000000
_cell_angle_gamma   96.04873694
_symmetry_Int_Tables_number   1
_chemical_formula_structural   KB3SeO7
_chemical_formula_sum   'K4 B12 Se4 O28'
_cell_volume   729.88413316
_cell_formula_units_Z   4
loop_
 _symmetry_equiv_pos_site_id
 _symmetry_equiv_pos_as_xyz
  1  'x, y, z'
loop_
 _atom_site_type_symbol
 _atom_site_label
 _atom_site_symmetry_multiplicity
 _atom_site_fract_x
 _atom_site_fract_y
 _atom_site_fract_z
 _atom_site_occupancy
  K  K0  1  0.32082663  0.56261237  0.10417124  1
  K  K1  1  0.67917337  0.93738763  0.60417124  1
  K  K2  1  0.67917337  0.43738763  0.89582876  1
  K  K3  1  0.32082663  0.06261237  0.39582876  1
  B  B4  1  0.29327079  0.77641649  0.89189649  1
  B  B5  1  0.70672921  0.72358351  0.39189649  1
  B  B6  1  0.70672921  0.22358351  0.10810351  1
  B  B7  1  0.29327079  0.27641649  0.60810351  1
  B  B8  1  0.47007145  0.73920456  0.76311157  1
  B  B9  1  0.52992855  0.76079544  0.26311157  1
  B  B10  1  0.52992855  0.26079544  0.23688843  1
  B  B11  1  0.47007145  0.23920456  0.73688843  1
  B  B12  1  0.47197123  0.49567090  0.68924115  1
  B  B13  1  0.52802877  0.00432910  0.18924115  1
  B  B14  1  0.52802877  0.50432910  0.31075885  1
  B  B15  1  0.47197123  0.99567090  0.81075885  1
  Se  Se16  1  0.79956248  0.81331379  0.98490283  1
  Se  Se17  1  0.20043752  0.68668621  0.48490283  1
  Se  Se18  1  0.20043752  0.18668621  0.01509717  1
  Se  Se19  1  0.79956248  0.31331379  0.51509717  1
  O  O20  1  0.97992015  0.73796002  0.90623914  1
  O  O21  1  0.02007985  0.76203998  0.40623914  1
  O  O22  1  0.02007985  0.26203998  0.09376086  1
  O  O23  1  0.97992015  0.23796002  0.59376086  1
  O  O24  1  0.86023235  0.69857057  0.05504667  1
  O  O25  1  0.13976765  0.80142943  0.55504667  1
  O  O26  1  0.13976765  0.30142943  0.94495333  1
  O  O27  1  0.86023235  0.19857057  0.44495333  1
  O  O28  1  0.44940046  0.72725532  0.95998456  1
  O  O29  1  0.55059954  0.77274468  0.45998456  1
  O  O30  1  0.55059954  0.27274468  0.04001544  1
  O  O31  1  0.44940046  0.22725532  0.54001544  1
  O  O32  1  0.35561898  0.67998239  0.82776978  1
  O  O33  1  0.64438102  0.82001761  0.32776978  1
  O  O34  1  0.64438102  0.32001761  0.17223022  1
  O  O35  1  0.35561898  0.17998239  0.67223022  1
  O  O36  1  0.53872083  0.89695268  0.75369987  1
  O  O37  1  0.46127917  0.60304732  0.25369987  1
  O  O38  1  0.46127917  0.10304732  0.24630013  1
  O  O39  1  0.53872083  0.39695268  0.74630013  1
  O  O40  1  0.51752532  0.65195973  0.70109940  1
  O  O41  1  0.48247468  0.84804027  0.20109940  1
  O  O42  1  0.48247468  0.34804027  0.29890060  1
  O  O43  1  0.51752532  0.15195973  0.79890060  1
  O  O44  1  0.36952915  0.44143126  0.62208692  1
  O  O45  1  0.63047085  0.05856874  0.12208692  1
  O  O46  1  0.63047085  0.55856874  0.37791308  1
  O  O47  1  0.36952915  0.94143126  0.87791308  1
