# generated using pymatgen
data_U(PS3)4
_symmetry_space_group_name_H-M   'P 1'
_cell_length_a   9.89689809
_cell_length_b   10.61097409
_cell_length_c   10.61097409
_cell_angle_alpha   77.43868960
_cell_angle_beta   62.20224332
_cell_angle_gamma   62.20224332
_symmetry_Int_Tables_number   1
_chemical_formula_structural   U(PS3)4
_chemical_formula_sum   'U2 P8 S24'
_cell_volume   871.97237369
_cell_formula_units_Z   2
loop_
 _symmetry_equiv_pos_site_id
 _symmetry_equiv_pos_as_xyz
  1  'x, y, z'
loop_
 _atom_site_type_symbol
 _atom_site_label
 _atom_site_symmetry_multiplicity
 _atom_site_fract_x
 _atom_site_fract_y
 _atom_site_fract_z
 _atom_site_occupancy
  U  U0  1  0.62500000  0.25000000  0.25000000  1
  U  U1  1  0.37500000  0.75000000  0.75000000  1
  P  P2  1  0.87380444  0.07272565  0.44033049  1
  P  P3  1  0.88686057  0.42727435  0.05966951  1
  P  P4  1  0.81413492  0.55966951  0.57272565  1
  P  P5  1  0.44653008  0.94033049  0.92727435  1
  P  P6  1  0.12619556  0.92727435  0.55966951  1
  P  P7  1  0.11313943  0.57272565  0.94033049  1
  P  P8  1  0.18586508  0.44033049  0.42727435  1
  P  P9  1  0.55346992  0.05966951  0.07272565  1
  S  S10  1  0.00618383  0.35514444  0.48412053  1
  S  S11  1  0.34544880  0.14485556  0.01587947  1
  S  S12  1  0.99030436  0.51587947  0.85514444  1
  S  S13  1  0.86132827  0.98412053  0.64485556  1
  S  S14  1  0.99381617  0.64485556  0.51587947  1
  S  S15  1  0.65455120  0.85514444  0.98412053  1
  S  S16  1  0.00969564  0.48412053  0.14485556  1
  S  S17  1  0.13867173  0.01587947  0.35514444  1
  S  S18  1  0.72925461  0.28314576  0.44846921  1
  S  S19  1  0.96086958  0.21685424  0.05153079  1
  S  S20  1  0.67772383  0.55153079  0.78314576  1
  S  S21  1  0.51240037  0.94846921  0.71685424  1
  S  S22  1  0.27074539  0.71685424  0.55153079  1
  S  S23  1  0.03913042  0.78314576  0.94846921  1
  S  S24  1  0.32227617  0.44846921  0.21685424  1
  S  S25  1  0.48759963  0.05153079  0.28314576  1
  S  S26  1  0.65354663  0.66330822  0.48044996  1
  S  S27  1  0.29730482  0.83669178  0.01955004  1
  S  S28  1  0.63399659  0.51955004  0.16330822  1
  S  S29  1  0.81685486  0.98044996  0.33669178  1
  S  S30  1  0.34645337  0.33669178  0.51955004  1
  S  S31  1  0.70269518  0.16330822  0.98044996  1
  S  S32  1  0.36600341  0.48044996  0.83669178  1
  S  S33  1  0.18314514  0.01955004  0.66330822  1
