# generated using pymatgen
data_BPBr6
_symmetry_space_group_name_H-M   'P 1'
_cell_length_a   7.60911703
_cell_length_b   11.93483492
_cell_length_c   13.34284545
_cell_angle_alpha   90.00000000
_cell_angle_beta   90.00000000
_cell_angle_gamma   90.00000000
_symmetry_Int_Tables_number   1
_chemical_formula_structural   BPBr6
_chemical_formula_sum   'B4 P4 Br24'
_cell_volume   1211.71123767
_cell_formula_units_Z   4
loop_
 _symmetry_equiv_pos_site_id
 _symmetry_equiv_pos_as_xyz
  1  'x, y, z'
loop_
 _atom_site_type_symbol
 _atom_site_label
 _atom_site_symmetry_multiplicity
 _atom_site_fract_x
 _atom_site_fract_y
 _atom_site_fract_z
 _atom_site_occupancy
  B  B0  1  0.06339069  0.75000000  0.64429179  1
  B  B1  1  0.43660931  0.75000000  0.14429179  1
  B  B2  1  0.93660931  0.25000000  0.35570821  1
  B  B3  1  0.56339069  0.25000000  0.85570821  1
  P  P4  1  0.80434030  0.75000000  0.60317681  1
  P  P5  1  0.69565970  0.75000000  0.10317681  1
  P  P6  1  0.19565970  0.25000000  0.39682319  1
  P  P7  1  0.30434030  0.25000000  0.89682319  1
  Br  Br8  1  0.62134010  0.75000000  0.72993936  1
  Br  Br9  1  0.87865990  0.75000000  0.22993936  1
  Br  Br10  1  0.37865990  0.25000000  0.27006064  1
  Br  Br11  1  0.12134010  0.25000000  0.77006064  1
  Br  Br12  1  0.18793610  0.75000000  0.51277577  1
  Br  Br13  1  0.31206390  0.75000000  0.01277577  1
  Br  Br14  1  0.81206390  0.25000000  0.48722423  1
  Br  Br15  1  0.68793610  0.25000000  0.98722423  1
  Br  Br16  1  0.09230759  0.60994791  0.72325967  1
  Br  Br17  1  0.40769241  0.89005209  0.22325967  1
  Br  Br18  1  0.90769241  0.10994791  0.27674033  1
  Br  Br19  1  0.59230759  0.39005209  0.77674033  1
  Br  Br20  1  0.90769241  0.39005209  0.27674033  1
  Br  Br21  1  0.59230759  0.10994791  0.77674033  1
  Br  Br22  1  0.09230759  0.89005209  0.72325967  1
  Br  Br23  1  0.40769241  0.60994791  0.22325967  1
  Br  Br24  1  0.73418361  0.60332068  0.51235645  1
  Br  Br25  1  0.76581639  0.89667932  0.01235645  1
  Br  Br26  1  0.26581639  0.10332068  0.48764355  1
  Br  Br27  1  0.23418361  0.39667932  0.98764355  1
  Br  Br28  1  0.26581639  0.39667932  0.48764355  1
  Br  Br29  1  0.23418361  0.10332068  0.98764355  1
  Br  Br30  1  0.73418361  0.89667932  0.51235645  1
  Br  Br31  1  0.76581639  0.60332068  0.01235645  1
