# generated using pymatgen
data_K9FeS7
_symmetry_space_group_name_H-M   'P 1'
_cell_length_a   7.95746470
_cell_length_b   10.80128516
_cell_length_c   23.96450050
_cell_angle_alpha   102.93795614
_cell_angle_beta   90.00000000
_cell_angle_gamma   90.00000000
_symmetry_Int_Tables_number   1
_chemical_formula_structural   K9FeS7
_chemical_formula_sum   'K36 Fe4 S28'
_cell_volume   2007.47789672
_cell_formula_units_Z   4
loop_
 _symmetry_equiv_pos_site_id
 _symmetry_equiv_pos_as_xyz
  1  'x, y, z'
loop_
 _atom_site_type_symbol
 _atom_site_label
 _atom_site_symmetry_multiplicity
 _atom_site_fract_x
 _atom_site_fract_y
 _atom_site_fract_z
 _atom_site_occupancy
  K  K0  1  0.59502451  0.98998112  0.22647611  1
  K  K1  1  0.09502451  0.01001888  0.27352389  1
  K  K2  1  0.40497549  0.01001888  0.77352389  1
  K  K3  1  0.90497549  0.98998112  0.72647611  1
  K  K4  1  0.53470509  0.83579653  0.43664697  1
  K  K5  1  0.03470509  0.16420347  0.06335303  1
  K  K6  1  0.46529491  0.16420347  0.56335303  1
  K  K7  1  0.96529491  0.83579653  0.93664697  1
  K  K8  1  0.75887139  0.54510813  0.33494664  1
  K  K9  1  0.25887139  0.45489187  0.16505336  1
  K  K10  1  0.24112861  0.45489187  0.66505336  1
  K  K11  1  0.74112861  0.54510813  0.83494664  1
  K  K12  1  0.04960149  0.77296073  0.41303003  1
  K  K13  1  0.54960149  0.22703927  0.08696997  1
  K  K14  1  0.95039851  0.22703927  0.58696997  1
  K  K15  1  0.45039851  0.77296073  0.91303003  1
  K  K16  1  0.55617523  0.57713921  0.07957977  1
  K  K17  1  0.05617523  0.42286079  0.42042023  1
  K  K18  1  0.44382477  0.42286079  0.92042023  1
  K  K19  1  0.94382477  0.57713921  0.57957977  1
  K  K20  1  0.64030890  0.88528277  0.05262418  1
  K  K21  1  0.14030890  0.11471723  0.44737582  1
  K  K22  1  0.35969110  0.11471723  0.94737582  1
  K  K23  1  0.85969110  0.88528277  0.55262418  1
  K  K24  1  0.93974237  0.26223096  0.21884737  1
  K  K25  1  0.43974237  0.73776904  0.28115263  1
  K  K26  1  0.06025763  0.73776904  0.78115263  1
  K  K27  1  0.56025763  0.26223096  0.71884737  1
  K  K28  1  0.93588645  0.70700083  0.20610280  1
  K  K29  1  0.43588645  0.29299917  0.29389720  1
  K  K30  1  0.06411355  0.29299917  0.79389720  1
  K  K31  1  0.56411355  0.70700083  0.70610280  1
  K  K32  1  0.57892064  0.35280571  0.45393282  1
  K  K33  1  0.07892064  0.64719429  0.04606718  1
  K  K34  1  0.42107936  0.64719429  0.54606718  1
  K  K35  1  0.92107936  0.35280571  0.95393282  1
  Fe  Fe36  1  0.20066314  0.94596882  0.12793581  1
  Fe  Fe37  1  0.70066314  0.05403118  0.37206419  1
  Fe  Fe38  1  0.79933686  0.05403118  0.87206419  1
  Fe  Fe39  1  0.29933686  0.94596882  0.62793581  1
  S  S40  1  0.80902989  0.21830727  0.33581585  1
  S  S41  1  0.30902989  0.78169273  0.16418415  1
  S  S42  1  0.19097011  0.78169273  0.66418415  1
  S  S43  1  0.69097011  0.21830727  0.83581585  1
  S  S44  1  0.80275447  0.85870695  0.32418016  1
  S  S45  1  0.30275447  0.14129305  0.17581984  1
  S  S46  1  0.19724553  0.14129305  0.67581984  1
  S  S47  1  0.69724553  0.85870695  0.82418016  1
  S  S48  1  0.91438397  0.95594124  0.14564573  1
  S  S49  1  0.41438397  0.04405876  0.35435427  1
  S  S50  1  0.08561603  0.04405876  0.85435427  1
  S  S51  1  0.58561603  0.95594124  0.64564573  1
  S  S52  1  0.25752142  0.91464127  0.03118750  1
  S  S53  1  0.75752142  0.08535873  0.46881250  1
  S  S54  1  0.74247858  0.08535873  0.96881250  1
  S  S55  1  0.24247858  0.91464127  0.53118750  1
  S  S56  1  0.66200912  0.46969263  0.19724649  1
  S  S57  1  0.16200912  0.53030737  0.30275351  1
  S  S58  1  0.33799088  0.53030737  0.80275351  1
  S  S59  1  0.83799088  0.46969263  0.69724649  1
  S  S60  1  0.85331974  0.43468715  0.13211892  1
  S  S61  1  0.35331974  0.56531285  0.36788108  1
  S  S62  1  0.14668026  0.56531285  0.86788108  1
  S  S63  1  0.64668026  0.43468715  0.63211892  1
  S  S64  1  0.76823163  0.62396994  0.46972518  1
  S  S65  1  0.26823163  0.37603006  0.03027482  1
  S  S66  1  0.23176837  0.37603006  0.53027482  1
  S  S67  1  0.73176837  0.62396994  0.96972518  1
