# generated using pymatgen
data_GaH9(NF)3
_symmetry_space_group_name_H-M   'P 1'
_cell_length_a   7.42902938
_cell_length_b   8.30124643
_cell_length_c   8.69567269
_cell_angle_alpha   90.57827293
_cell_angle_beta   90.00000000
_cell_angle_gamma   90.00000000
_symmetry_Int_Tables_number   1
_chemical_formula_structural   GaH9(NF)3
_chemical_formula_sum   'Ga4 H36 N12 F12'
_cell_volume   536.23659286
_cell_formula_units_Z   4
loop_
 _symmetry_equiv_pos_site_id
 _symmetry_equiv_pos_as_xyz
  1  'x, y, z'
loop_
 _atom_site_type_symbol
 _atom_site_label
 _atom_site_symmetry_multiplicity
 _atom_site_fract_x
 _atom_site_fract_y
 _atom_site_fract_z
 _atom_site_occupancy
  Ga  Ga0  1  0.50000000  -0.00000000  0.50000000  1
  Ga  Ga1  1  -0.00000000  0.50000000  0.50000000  1
  Ga  Ga2  1  0.00000000  -0.00000000  0.00000000  1
  Ga  Ga3  1  0.50000000  0.50000000  0.00000000  1
  H  H4  1  0.33561519  0.39437306  0.49212092  1
  H  H5  1  0.83561519  0.10562694  0.50787908  1
  H  H6  1  0.66438481  0.60562694  0.50787908  1
  H  H7  1  0.16438481  0.89437306  0.49212092  1
  H  H8  1  0.33663382  0.59270713  0.46786409  1
  H  H9  1  0.83663382  0.90729287  0.53213591  1
  H  H10  1  0.66336618  0.40729287  0.53213591  1
  H  H11  1  0.16336618  0.09270713  0.46786409  1
  H  H12  1  0.28718673  0.47250534  0.32215905  1
  H  H13  1  0.78718673  0.02749466  0.67784095  1
  H  H14  1  0.71281327  0.52749466  0.67784095  1
  H  H15  1  0.21281327  0.97250534  0.32215905  1
  H  H16  1  0.58120187  0.20303945  0.27572797  1
  H  H17  1  0.08120187  0.29696055  0.72427203  1
  H  H18  1  0.41879813  0.79696055  0.72427203  1
  H  H19  1  0.91879813  0.70303945  0.27572797  1
  H  H20  1  0.68016769  0.02485797  0.24339648  1
  H  H21  1  0.18016769  0.47514203  0.75660352  1
  H  H22  1  0.31983231  0.97514203  0.75660352  1
  H  H23  1  0.81983231  0.52485797  0.24339648  1
  H  H24  1  0.46191775  0.05072721  0.20634881  1
  H  H25  1  0.96191775  0.44927279  0.79365119  1
  H  H26  1  0.53808225  0.94927279  0.79365119  1
  H  H27  1  0.03808225  0.55072721  0.20634881  1
  H  H28  1  0.96892009  0.22471018  0.20876410  1
  H  H29  1  0.46892009  0.27528982  0.79123590  1
  H  H30  1  0.03107991  0.77528982  0.79123590  1
  H  H31  1  0.53107991  0.72471018  0.20876410  1
  H  H32  1  0.87117306  0.28765478  0.04940640  1
  H  H33  1  0.37117306  0.21234522  0.95059360  1
  H  H34  1  0.12882694  0.71234522  0.95059360  1
  H  H35  1  0.62882694  0.78765478  0.04940640  1
  H  H36  1  0.09203950  0.29748947  0.06758154  1
  H  H37  1  0.59203950  0.20251053  0.93241846  1
  H  H38  1  0.90796050  0.70251053  0.93241846  1
  H  H39  1  0.40796050  0.79748947  0.06758154  1
  N  N40  1  0.27023260  0.48837709  0.43935823  1
  N  N41  1  0.77023260  0.01162291  0.56064177  1
  N  N42  1  0.72976740  0.51162291  0.56064177  1
  N  N43  1  0.22976740  0.98837709  0.43935823  1
  N  N44  1  0.56384840  0.08000290  0.28184180  1
  N  N45  1  0.06384840  0.41999710  0.71815820  1
  N  N46  1  0.43615160  0.91999710  0.71815820  1
  N  N47  1  0.93615160  0.58000290  0.28184180  1
  N  N48  1  0.98089479  0.22715819  0.09044396  1
  N  N49  1  0.48089479  0.27284181  0.90955604  1
  N  N50  1  0.01910521  0.77284181  0.90955604  1
  N  N51  1  0.51910521  0.72715819  0.09044396  1
  F  F52  1  0.52959771  0.77487978  0.42715986  1
  F  F53  1  0.02959771  0.72512022  0.57284014  1
  F  F54  1  0.47040229  0.22512022  0.57284014  1
  F  F55  1  0.97040229  0.27487978  0.42715986  1
  F  F56  1  0.88950799  0.91589907  0.18569583  1
  F  F57  1  0.38950799  0.58410093  0.81430417  1
  F  F58  1  0.11049201  0.08410093  0.81430417  1
  F  F59  1  0.61049201  0.41589907  0.18569583  1
  F  F60  1  0.24214543  0.98101719  0.09291219  1
  F  F61  1  0.74214543  0.51898281  0.90708781  1
  F  F62  1  0.75785457  0.01898281  0.90708781  1
  F  F63  1  0.25785457  0.48101719  0.09291219  1
