# generated using pymatgen
data_ErH2Cl3O13
_symmetry_space_group_name_H-M   'P 1'
_cell_length_a   6.96149542
_cell_length_b   8.05003007
_cell_length_c   9.72593224
_cell_angle_alpha   76.67448256
_cell_angle_beta   75.60017128
_cell_angle_gamma   77.31874221
_symmetry_Int_Tables_number   1
_chemical_formula_structural   ErH2Cl3O13
_chemical_formula_sum   'Er2 H4 Cl6 O26'
_cell_volume   506.04182525
_cell_formula_units_Z   2
loop_
 _symmetry_equiv_pos_site_id
 _symmetry_equiv_pos_as_xyz
  1  'x, y, z'
loop_
 _atom_site_type_symbol
 _atom_site_label
 _atom_site_symmetry_multiplicity
 _atom_site_fract_x
 _atom_site_fract_y
 _atom_site_fract_z
 _atom_site_occupancy
  Er  Er0  1  0.86641364  0.32405656  0.31111719  1
  Er  Er1  1  0.13358636  0.67594344  0.68888281  1
  H  H2  1  0.80202508  0.02304652  0.20882876  1
  H  H3  1  0.19797492  0.97695348  0.79117124  1
  H  H4  1  0.68344800  0.18826457  0.12358635  1
  H  H5  1  0.31655200  0.81173543  0.87641365  1
  Cl  Cl6  1  0.70292170  0.67868049  0.52291579  1
  Cl  Cl7  1  0.29707830  0.32131951  0.47708421  1
  Cl  Cl8  1  0.21014915  0.90003913  0.30756930  1
  Cl  Cl9  1  0.78985085  0.09996087  0.69243070  1
  Cl  Cl10  1  0.27061628  0.33160401  0.99084769  1
  Cl  Cl11  1  0.72938372  0.66839599  0.00915231  1
  O  O12  1  0.73402865  0.58221304  0.40472371  1
  O  O13  1  0.26597135  0.41778696  0.59527629  1
  O  O14  1  0.47777721  0.36078488  0.37144056  1
  O  O15  1  0.52222279  0.63921512  0.62855944  1
  O  O16  1  0.87479212  0.61450214  0.59450900  1
  O  O17  1  0.12520788  0.38549786  0.40549100  1
  O  O18  1  0.68809466  0.85996842  0.46454310  1
  O  O19  1  0.31190534  0.14003158  0.53545690  1
  O  O20  1  0.07433189  0.06233674  0.34157208  1
  O  O21  1  0.92566811  0.93766326  0.65842792  1
  O  O22  1  0.76684880  0.21312031  0.55090313  1
  O  O23  1  0.23315120  0.78687969  0.44909687  1
  O  O24  1  0.40321952  0.93864106  0.23055758  1
  O  O25  1  0.59678048  0.06135894  0.76944242  1
  O  O26  1  0.11792567  0.81661133  0.23220822  1
  O  O27  1  0.88207433  0.18338867  0.76779178  1
  O  O28  1  0.12971525  0.39316785  0.11873652  1
  O  O29  1  0.87028475  0.60683215  0.88126348  1
  O  O30  1  0.46909692  0.28030404  0.02007542  1
  O  O31  1  0.53090308  0.71969596  0.97992458  1
  O  O32  1  0.19779445  0.19659099  0.95571703  1
  O  O33  1  0.80220555  0.80340901  0.04428297  1
  O  O34  1  0.27532735  0.48317276  0.87060966  1
  O  O35  1  0.72467265  0.51682724  0.12939034  1
  O  O36  1  0.77566528  0.14951833  0.19038551  1
  O  O37  1  0.22433472  0.85048167  0.80961449  1
