# generated using pymatgen
data_Cs2Hg(BSe)9
_symmetry_space_group_name_H-M   'P 1'
_cell_length_a   10.11274386
_cell_length_b   10.95044081
_cell_length_c   11.27099283
_cell_angle_alpha   100.09266085
_cell_angle_beta   90.47927318
_cell_angle_gamma   116.07080488
_symmetry_Int_Tables_number   1
_chemical_formula_structural   Cs2Hg(BSe)9
_chemical_formula_sum   'Cs4 Hg2 B18 Se18'
_cell_volume   1098.63723777
_cell_formula_units_Z   2
loop_
 _symmetry_equiv_pos_site_id
 _symmetry_equiv_pos_as_xyz
  1  'x, y, z'
loop_
 _atom_site_type_symbol
 _atom_site_label
 _atom_site_symmetry_multiplicity
 _atom_site_fract_x
 _atom_site_fract_y
 _atom_site_fract_z
 _atom_site_occupancy
  Cs  Cs0  1  0.20473560  0.82656731  0.99812048  1
  Cs  Cs1  1  0.79526440  0.17343269  0.00187952  1
  Cs  Cs2  1  0.82328914  0.65438054  0.48524281  1
  Cs  Cs3  1  0.17671086  0.34561946  0.51475719  1
  Hg  Hg4  1  0.67201996  0.67489197  0.92547989  1
  Hg  Hg5  1  0.32798004  0.32510803  0.07452011  1
  B  B6  1  0.48668892  0.83979526  0.45032105  1
  B  B7  1  0.51331108  0.16020474  0.54967895  1
  B  B8  1  0.34032650  0.88030269  0.41431986  1
  B  B9  1  0.65967350  0.11969731  0.58568014  1
  B  B10  1  0.51394257  0.95649273  0.35119464  1
  B  B11  1  0.48605743  0.04350727  0.64880536  1
  B  B12  1  0.66033735  0.99281787  0.46165149  1
  B  B13  1  0.33966265  0.00718213  0.53834851  1
  B  B14  1  0.57763563  0.93956997  0.59613615  1
  B  B15  1  0.42236437  0.06043003  0.40386385  1
  B  B16  1  0.38209276  0.87158437  0.56639062  1
  B  B17  1  0.61790724  0.12841563  0.43360938  1
  B  B18  1  0.25667513  0.58979135  0.28807094  1
  B  B19  1  0.74332487  0.41020865  0.71192906  1
  B  B20  1  0.43478118  0.72031562  0.74184655  1
  B  B21  1  0.56521882  0.27968438  0.25815345  1
  B  B22  1  0.74593821  0.90822519  0.22015003  1
  B  B23  1  0.25406179  0.09177481  0.77984997  1
  Se  Se24  1  0.44870212  0.64419350  0.37680165  1
  Se  Se25  1  0.55129788  0.35580650  0.62319835  1
  Se  Se26  1  0.16699948  0.72039851  0.30808911  1
  Se  Se27  1  0.83300052  0.27960149  0.69191089  1
  Se  Se28  1  0.55222695  0.89999640  0.17983271  1
  Se  Se29  1  0.44777305  0.10000360  0.82016729  1
  Se  Se30  1  0.83546235  0.97488185  0.39022774  1
  Se  Se31  1  0.16453765  0.02511815  0.60977226  1
  Se  Se32  1  0.63800619  0.84879733  0.71404062  1
  Se  Se33  1  0.36199381  0.15120267  0.28595938  1
  Se  Se34  1  0.26278728  0.72064639  0.65709791  1
  Se  Se35  1  0.73721272  0.27935361  0.34290209  1
  Se  Se36  1  0.14015821  0.40739113  0.18773384  1
  Se  Se37  1  0.85984179  0.59260887  0.81226616  1
  Se  Se38  1  0.86390244  0.86463945  0.10045027  1
  Se  Se39  1  0.13609756  0.13536055  0.89954973  1
  Se  Se40  1  0.39596278  0.59327304  0.85304094  1
  Se  Se41  1  0.60403722  0.40672696  0.14695906  1
