# generated using pymatgen
data_Tm4BClO7
_symmetry_space_group_name_H-M   'P 1'
_cell_length_a   7.95710845
_cell_length_b   8.49083131
_cell_length_c   10.84597664
_cell_angle_alpha   103.75313233
_cell_angle_beta   90.00000000
_cell_angle_gamma   90.00000000
_symmetry_Int_Tables_number   1
_chemical_formula_structural   Tm4BClO7
_chemical_formula_sum   'Tm16 B4 Cl4 O28'
_cell_volume   711.77141554
_cell_formula_units_Z   4
loop_
 _symmetry_equiv_pos_site_id
 _symmetry_equiv_pos_as_xyz
  1  'x, y, z'
loop_
 _atom_site_type_symbol
 _atom_site_label
 _atom_site_symmetry_multiplicity
 _atom_site_fract_x
 _atom_site_fract_y
 _atom_site_fract_z
 _atom_site_occupancy
  Tm  Tm0  1  0.37530413  0.98176278  0.77759959  1
  Tm  Tm1  1  0.12469587  0.48176278  0.27759959  1
  Tm  Tm2  1  0.62469587  0.01823722  0.22240041  1
  Tm  Tm3  1  0.87530413  0.51823722  0.72240041  1
  Tm  Tm4  1  0.38261068  0.66590829  0.09220138  1
  Tm  Tm5  1  0.11738932  0.16590829  0.59220138  1
  Tm  Tm6  1  0.61738932  0.33409171  0.90779862  1
  Tm  Tm7  1  0.88261068  0.83409171  0.40779862  1
  Tm  Tm8  1  0.36069674  0.85048689  0.41820064  1
  Tm  Tm9  1  0.13930326  0.35048689  0.91820064  1
  Tm  Tm10  1  0.63930326  0.14951311  0.58179936  1
  Tm  Tm11  1  0.86069674  0.64951311  0.08179936  1
  Tm  Tm12  1  0.38526104  0.53898802  0.72170682  1
  Tm  Tm13  1  0.11473896  0.03898802  0.22170682  1
  Tm  Tm14  1  0.61473896  0.46101198  0.27829318  1
  Tm  Tm15  1  0.88526104  0.96101198  0.77829318  1
  B  B16  1  0.13063340  0.71630843  0.58611017  1
  B  B17  1  0.36936660  0.21630843  0.08611017  1
  B  B18  1  0.86936660  0.28369157  0.41388983  1
  B  B19  1  0.63063340  0.78369157  0.91388983  1
  Cl  Cl20  1  0.15158573  0.84999960  0.96935032  1
  Cl  Cl21  1  0.34841427  0.34999960  0.46935032  1
  Cl  Cl22  1  0.84841427  0.15000040  0.03064968  1
  Cl  Cl23  1  0.65158573  0.65000040  0.53064968  1
  O  O24  1  0.37757020  0.05712033  0.59716480  1
  O  O25  1  0.12242980  0.55712033  0.09716480  1
  O  O26  1  0.62242980  0.94287967  0.40283520  1
  O  O27  1  0.87757020  0.44287967  0.90283520  1
  O  O28  1  0.36272672  0.91643715  0.22705409  1
  O  O29  1  0.13727328  0.41643715  0.72705409  1
  O  O30  1  0.63727328  0.08356285  0.77294591  1
  O  O31  1  0.86272672  0.58356285  0.27294591  1
  O  O32  1  0.38287463  0.60262671  0.28243700  1
  O  O33  1  0.11712537  0.10262671  0.78243700  1
  O  O34  1  0.61712537  0.39737329  0.71756300  1
  O  O35  1  0.88287463  0.89737329  0.21756300  1
  O  O36  1  0.37886123  0.48188597  0.90734790  1
  O  O37  1  0.12113877  0.98188597  0.40734790  1
  O  O38  1  0.62113877  0.51811403  0.09265210  1
  O  O39  1  0.87886123  0.01811403  0.59265210  1
  O  O40  1  0.10919786  0.68390089  0.45582148  1
  O  O41  1  0.39080214  0.18390089  0.95582148  1
  O  O42  1  0.89080214  0.31609911  0.54417852  1
  O  O43  1  0.60919786  0.81609911  0.04417852  1
  O  O44  1  0.99557497  0.72756513  0.66668918  1
  O  O45  1  0.50442503  0.22756513  0.16668918  1
  O  O46  1  0.00442503  0.27243487  0.33331082  1
  O  O47  1  0.49557497  0.77243487  0.83331082  1
  O  O48  1  0.29101571  0.74732941  0.63405954  1
  O  O49  1  0.20898429  0.24732941  0.13405954  1
  O  O50  1  0.70898429  0.25267059  0.36594046  1
  O  O51  1  0.79101571  0.75267059  0.86594046  1
