# generated using pymatgen
data_Tb4GaSbS9
_symmetry_space_group_name_H-M   'P 1'
_cell_length_a   9.92205833
_cell_length_b   9.92205833
_cell_length_c   13.58302123
_cell_angle_alpha   90.00000000
_cell_angle_beta   90.00000000
_cell_angle_gamma   90.92601965
_symmetry_Int_Tables_number   1
_chemical_formula_structural   Tb4GaSbS9
_chemical_formula_sum   'Tb16 Ga4 Sb4 S36'
_cell_volume   1337.03632576
_cell_formula_units_Z   4
loop_
 _symmetry_equiv_pos_site_id
 _symmetry_equiv_pos_as_xyz
  1  'x, y, z'
loop_
 _atom_site_type_symbol
 _atom_site_label
 _atom_site_symmetry_multiplicity
 _atom_site_fract_x
 _atom_site_fract_y
 _atom_site_fract_z
 _atom_site_occupancy
  Tb  Tb0  1  0.12753865  0.09120850  0.81330874  1
  Tb  Tb1  1  0.90879150  0.87246135  0.18669126  1
  Tb  Tb2  1  0.62753865  0.59120850  0.68669126  1
  Tb  Tb3  1  0.40879150  0.37246135  0.31330874  1
  Tb  Tb4  1  0.33683488  0.32055892  0.60093347  1
  Tb  Tb5  1  0.67944108  0.66316512  0.39906653  1
  Tb  Tb6  1  0.83683488  0.82055892  0.89906653  1
  Tb  Tb7  1  0.17944108  0.16316512  0.10093347  1
  Tb  Tb8  1  0.62519620  0.04283498  0.68235466  1
  Tb  Tb9  1  0.95716502  0.37480380  0.31764534  1
  Tb  Tb10  1  0.12519620  0.54283498  0.81764534  1
  Tb  Tb11  1  0.45716502  0.87480380  0.18235466  1
  Tb  Tb12  1  0.44983880  0.32797332  0.89626501  1
  Tb  Tb13  1  0.67202668  0.55016120  0.10373499  1
  Tb  Tb14  1  0.94983880  0.82797332  0.60373499  1
  Tb  Tb15  1  0.17202668  0.05016120  0.39626501  1
  Ga  Ga16  1  0.38597464  0.82389899  0.90839391  1
  Ga  Ga17  1  0.17610101  0.61402536  0.09160609  1
  Ga  Ga18  1  0.88597464  0.32389899  0.59160609  1
  Ga  Ga19  1  0.67610101  0.11402536  0.40839391  1
  Sb  Sb20  1  0.32908454  0.83151911  0.61301884  1
  Sb  Sb21  1  0.16848089  0.67091546  0.38698116  1
  Sb  Sb22  1  0.82908454  0.33151911  0.88698116  1
  Sb  Sb23  1  0.66848089  0.17091546  0.11301884  1
  S  S24  1  0.16362985  0.01487695  0.59939371  1
  S  S25  1  0.98512305  0.83637015  0.40060629  1
  S  S26  1  0.66362985  0.51487695  0.90060629  1
  S  S27  1  0.48512305  0.33637015  0.09939371  1
  S  S28  1  0.66322603  0.14727847  0.91892031  1
  S  S29  1  0.85272153  0.33677397  0.08107969  1
  S  S30  1  0.16322603  0.64727847  0.58107969  1
  S  S31  1  0.35272153  0.83677397  0.41892031  1
  S  S32  1  0.20420406  0.81834465  0.80232924  1
  S  S33  1  0.18165535  0.79579594  0.19767076  1
  S  S34  1  0.70420406  0.31834465  0.69767076  1
  S  S35  1  0.68165535  0.29579594  0.30232924  1
  S  S36  1  0.57638081  0.82170069  0.80917713  1
  S  S37  1  0.17829931  0.42361919  0.19082287  1
  S  S38  1  0.07638081  0.32170069  0.69082287  1
  S  S39  1  0.67829931  0.92361919  0.30917713  1
  S  S40  1  0.87408853  0.12591147  0.50000000  1
  S  S41  1  0.37408853  0.62591147  -0.00000000  1
  S  S42  1  0.49136889  0.11732714  0.50985475  1
  S  S43  1  0.88267286  0.50863111  0.49014525  1
  S  S44  1  0.99136889  0.61732714  0.99014525  1
  S  S45  1  0.38267286  0.00863111  0.00985475  1
  S  S46  1  0.68099343  0.81240632  0.56833682  1
  S  S47  1  0.18759368  0.31900657  0.43166318  1
  S  S48  1  0.18099343  0.31240632  0.93166318  1
  S  S49  1  0.68759368  0.81900657  0.06833682  1
  S  S50  1  0.88127637  0.00303449  0.75119538  1
  S  S51  1  0.99696551  0.11872363  0.24880462  1
  S  S52  1  0.38127637  0.50303449  0.74880462  1
  S  S53  1  0.49696551  0.61872363  0.25119538  1
  S  S54  1  0.50053956  0.49946044  0.50000000  1
  S  S55  1  0.00053956  0.99946044  -0.00000000  1
  S  S56  1  0.39007361  0.14208632  0.75421356  1
  S  S57  1  0.85791368  0.60992639  0.24578644  1
  S  S58  1  0.89007361  0.64208632  0.74578644  1
  S  S59  1  0.35791368  0.10992639  0.25421356  1
