# generated using pymatgen
data_Rb9Cu7P8(ClO4)7
_symmetry_space_group_name_H-M   'P 1'
_cell_length_a   13.63877759
_cell_length_b   14.50487480
_cell_length_c   14.50487480
_cell_angle_alpha   77.23011283
_cell_angle_beta   61.95631573
_cell_angle_gamma   61.95631573
_symmetry_Int_Tables_number   1
_chemical_formula_structural   Rb9Cu7P8(ClO4)7
_chemical_formula_sum   'Rb18 Cu14 P16 Cl14 O56'
_cell_volume   2235.22283693
_cell_formula_units_Z   2
loop_
 _symmetry_equiv_pos_site_id
 _symmetry_equiv_pos_as_xyz
  1  'x, y, z'
loop_
 _atom_site_type_symbol
 _atom_site_label
 _atom_site_symmetry_multiplicity
 _atom_site_fract_x
 _atom_site_fract_y
 _atom_site_fract_z
 _atom_site_occupancy
  Rb  Rb0  1  0.05664304  0.50000000  0.85058273  1
  Rb  Rb1  1  0.40722577  0.50000000  0.14941727  1
  Rb  Rb2  1  0.55664304  0.85058273  0.50000000  1
  Rb  Rb3  1  0.90722577  0.14941727  0.50000000  1
  Rb  Rb4  1  0.94335696  0.50000000  0.14941727  1
  Rb  Rb5  1  0.59277423  0.50000000  0.85058273  1
  Rb  Rb6  1  0.44335696  0.14941727  0.50000000  1
  Rb  Rb7  1  0.09277423  0.85058273  0.50000000  1
  Rb  Rb8  1  -0.00000000  0.00000000  -0.00000000  1
  Rb  Rb9  1  0.50000000  0.00000000  -0.00000000  1
  Rb  Rb10  1  0.27117921  0.72425654  0.73338504  1
  Rb  Rb11  1  0.72882079  0.27574346  0.26661496  1
  Rb  Rb12  1  0.77117921  0.73338504  0.72425654  1
  Rb  Rb13  1  0.22882079  0.26661496  0.27574346  1
  Rb  Rb14  1  0.00456425  0.26661496  0.72425654  1
  Rb  Rb15  1  0.99543575  0.73338504  0.27574346  1
  Rb  Rb16  1  0.49543575  0.27574346  0.73338504  1
  Rb  Rb17  1  0.50456425  0.72425654  0.26661496  1
  Cu  Cu18  1  0.40024569  0.84975431  0.84975431  1
  Cu  Cu19  1  0.09975431  0.15024569  0.15024569  1
  Cu  Cu20  1  0.90024569  0.84975431  0.84975431  1
  Cu  Cu21  1  0.59975431  0.15024569  0.15024569  1
  Cu  Cu22  1  0.25000000  0.15024569  0.84975431  1
  Cu  Cu23  1  0.25000000  0.84975431  0.15024569  1
  Cu  Cu24  1  0.75000000  0.15024569  0.84975431  1
  Cu  Cu25  1  0.75000000  0.84975431  0.15024569  1
  Cu  Cu26  1  0.26017755  0.50000000  0.97964489  1
  Cu  Cu27  1  0.73982245  0.50000000  0.02035511  1
  Cu  Cu28  1  0.76017755  0.97964489  0.50000000  1
  Cu  Cu29  1  0.23982245  0.02035511  0.50000000  1
  Cu  Cu30  1  0.75000000  0.50000000  0.50000000  1
  Cu  Cu31  1  0.25000000  0.50000000  0.50000000  1
  P  P32  1  0.24829812  0.00183300  0.71926751  1
  P  P33  1  0.96939863  0.99816700  0.28073249  1
  P  P34  1  0.74829812  0.71926751  0.00183300  1
  P  P35  1  0.46939863  0.28073249  0.99816700  1
  P  P36  1  0.96756563  0.28073249  0.00183300  1
  P  P37  1  0.25013112  0.71926751  0.99816700  1
  P  P38  1  0.75013112  0.99816700  0.71926751  1
  P  P39  1  0.46756563  0.00183300  0.28073249  1
  P  P40  1  0.75170188  0.99816700  0.28073249  1
  P  P41  1  0.03060137  0.00183300  0.71926751  1
  P  P42  1  0.25170188  0.28073249  0.99816700  1
  P  P43  1  0.53060137  0.71926751  0.00183300  1
  P  P44  1  0.03243437  0.71926751  0.99816700  1
  P  P45  1  0.74986888  0.28073249  0.00183300  1
  P  P46  1  0.24986888  0.00183300  0.28073249  1
  P  P47  1  0.53243437  0.99816700  0.71926751  1
  Cl  Cl48  1  0.62243908  0.62756092  0.62756092  1
  Cl  Cl49  1  0.87756092  0.37243908  0.37243908  1
  Cl  Cl50  1  0.12243908  0.62756092  0.62756092  1
  Cl  Cl51  1  0.37756092  0.37243908  0.37243908  1
  Cl  Cl52  1  0.25000000  0.37243908  0.62756092  1
  Cl  Cl53  1  0.25000000  0.62756092  0.37243908  1
  Cl  Cl54  1  0.75000000  0.37243908  0.62756092  1
  Cl  Cl55  1  0.75000000  0.62756092  0.37243908  1
  Cl  Cl56  1  0.75000000  0.00000000  -0.00000000  1
  Cl  Cl57  1  0.25000000  0.00000000  -0.00000000  1
  Cl  Cl58  1  0.34274857  0.81450286  0.50000000  1
  Cl  Cl59  1  0.65725143  0.18549714  0.50000000  1
  Cl  Cl60  1  0.84274857  0.50000000  0.81450286  1
  Cl  Cl61  1  0.15725143  0.50000000  0.18549714  1
  O  O62  1  0.14748354  0.95619620  0.74883672  1
  O  O63  1  0.85251646  0.04380380  0.25116328  1
  O  O64  1  0.64748354  0.74883672  0.95619620  1
  O  O65  1  0.35251646  0.25116328  0.04380380  1
  O  O66  1  0.89632026  0.25116328  0.95619620  1
  O  O67  1  0.10367974  0.74883672  0.04380380  1
  O  O68  1  0.60367974  0.04380380  0.74883672  1
  O  O69  1  0.39632026  0.95619620  0.25116328  1
  O  O70  1  0.01940787  0.79838615  0.91009602  1
  O  O71  1  0.72789004  0.20161385  0.08990398  1
  O  O72  1  0.51940787  0.91009602  0.79838615  1
  O  O73  1  0.22789004  0.08990398  0.20161385  1
  O  O74  1  0.92950389  0.08990398  0.79838615  1
  O  O75  1  0.81779402  0.91009602  0.20161385  1
  O  O76  1  0.31779402  0.20161385  0.91009602  1
  O  O77  1  0.42950389  0.79838615  0.08990398  1
  O  O78  1  0.98059213  0.20161385  0.08990398  1
  O  O79  1  0.27210996  0.79838615  0.91009602  1
  O  O80  1  0.48059213  0.08990398  0.20161385  1
  O  O81  1  0.77210996  0.91009602  0.79838615  1
  O  O82  1  0.07049611  0.91009602  0.20161385  1
  O  O83  1  0.18220598  0.08990398  0.79838615  1
  O  O84  1  0.68220598  0.79838615  0.08990398  1
  O  O85  1  0.57049611  0.20161385  0.91009602  1
  O  O86  1  0.35854331  0.90661809  0.72780627  1
  O  O87  1  0.99296766  0.09338191  0.27219373  1
  O  O88  1  0.85854331  0.72780627  0.90661809  1
  O  O89  1  0.49296766  0.27219373  0.09338191  1
  O  O90  1  0.08634958  0.27219373  0.90661809  1
  O  O91  1  0.26516139  0.72780627  0.09338191  1
  O  O92  1  0.76516139  0.09338191  0.72780627  1
  O  O93  1  0.58634958  0.90661809  0.27219373  1
  O  O94  1  0.64145669  0.09338191  0.27219373  1
  O  O95  1  0.00703234  0.90661809  0.72780627  1
  O  O96  1  0.14145669  0.27219373  0.09338191  1
  O  O97  1  0.50703234  0.72780627  0.90661809  1
  O  O98  1  0.91365042  0.72780627  0.09338191  1
  O  O99  1  0.73483861  0.27219373  0.90661809  1
  O  O100  1  0.23483861  0.90661809  0.27219373  1
  O  O101  1  0.41365042  0.09338191  0.72780627  1
  O  O102  1  0.11548130  0.60655235  0.95606333  1
  O  O103  1  0.67809698  0.39344765  0.04393667  1
  O  O104  1  0.61548130  0.95606333  0.60655235  1
  O  O105  1  0.17809698  0.04393667  0.39344765  1
  O  O106  1  0.07154462  0.04393667  0.60655235  1
  O  O107  1  0.72203365  0.95606333  0.39344765  1
  O  O108  1  0.22203365  0.39344765  0.95606333  1
  O  O109  1  0.57154462  0.60655235  0.04393667  1
  O  O110  1  0.88451870  0.39344765  0.04393667  1
  O  O111  1  0.32190302  0.60655235  0.95606333  1
  O  O112  1  0.38451870  0.04393667  0.39344765  1
  O  O113  1  0.82190302  0.95606333  0.60655235  1
  O  O114  1  0.92845538  0.95606333  0.39344765  1
  O  O115  1  0.27796635  0.04393667  0.60655235  1
  O  O116  1  0.77796635  0.60655235  0.04393667  1
  O  O117  1  0.42845538  0.39344765  0.95606333  1
