# generated using pymatgen
data_Pr2ZrS5
_symmetry_space_group_name_H-M   'P 1'
_cell_length_a   7.45322220
_cell_length_b   8.03929139
_cell_length_c   11.83752921
_cell_angle_alpha   90.00000000
_cell_angle_beta   90.00000000
_cell_angle_gamma   90.00000000
_symmetry_Int_Tables_number   1
_chemical_formula_structural   Pr2ZrS5
_chemical_formula_sum   'Pr8 Zr4 S20'
_cell_volume   709.28847437
_cell_formula_units_Z   4
loop_
 _symmetry_equiv_pos_site_id
 _symmetry_equiv_pos_as_xyz
  1  'x, y, z'
loop_
 _atom_site_type_symbol
 _atom_site_label
 _atom_site_symmetry_multiplicity
 _atom_site_fract_x
 _atom_site_fract_y
 _atom_site_fract_z
 _atom_site_occupancy
  Pr  Pr0  1  0.97237016  0.00143085  0.17712776  1
  Pr  Pr1  1  0.52762984  0.49856915  0.67712776  1
  Pr  Pr2  1  0.02762984  0.50143085  0.82287224  1
  Pr  Pr3  1  0.47237016  0.99856915  0.32287224  1
  Pr  Pr4  1  0.02762984  0.99856915  0.82287224  1
  Pr  Pr5  1  0.47237016  0.50143085  0.32287224  1
  Pr  Pr6  1  0.97237016  0.49856915  0.17712776  1
  Pr  Pr7  1  0.52762984  0.00143085  0.67712776  1
  Zr  Zr8  1  0.42349692  0.75000000  0.00723225  1
  Zr  Zr9  1  0.07650308  0.75000000  0.50723225  1
  Zr  Zr10  1  0.57650308  0.25000000  0.99276775  1
  Zr  Zr11  1  0.92349692  0.25000000  0.49276775  1
  S  S12  1  0.65933711  0.53517976  0.91149622  1
  S  S13  1  0.84066289  0.96482024  0.41149622  1
  S  S14  1  0.34066289  0.03517976  0.08850378  1
  S  S15  1  0.15933711  0.46482024  0.58850378  1
  S  S16  1  0.34066289  0.46482024  0.08850378  1
  S  S17  1  0.15933711  0.03517976  0.58850378  1
  S  S18  1  0.65933711  0.96482024  0.91149622  1
  S  S19  1  0.84066289  0.53517976  0.41149622  1
  S  S20  1  0.66288283  0.75000000  0.18080205  1
  S  S21  1  0.83711717  0.75000000  0.68080205  1
  S  S22  1  0.33711717  0.25000000  0.81919795  1
  S  S23  1  0.16288283  0.25000000  0.31919795  1
  S  S24  1  0.05787103  0.75000000  0.00461501  1
  S  S25  1  0.44212897  0.75000000  0.50461501  1
  S  S26  1  0.94212897  0.25000000  0.99538499  1
  S  S27  1  0.55787103  0.25000000  0.49538499  1
  S  S28  1  0.31539895  0.75000000  0.79481514  1
  S  S29  1  0.18460105  0.75000000  0.29481514  1
  S  S30  1  0.68460105  0.25000000  0.20518486  1
  S  S31  1  0.81539895  0.25000000  0.70518486  1
