# generated using pymatgen
data_S2I2O11
_symmetry_space_group_name_H-M   'P 1'
_cell_length_a   4.74270628
_cell_length_b   10.78222031
_cell_length_c   18.58790905
_cell_angle_alpha   90.00000000
_cell_angle_beta   90.00000000
_cell_angle_gamma   90.00000000
_symmetry_Int_Tables_number   1
_chemical_formula_structural   S2I2O11
_chemical_formula_sum   'S8 I8 O44'
_cell_volume   950.52812022
_cell_formula_units_Z   4
loop_
 _symmetry_equiv_pos_site_id
 _symmetry_equiv_pos_as_xyz
  1  'x, y, z'
loop_
 _atom_site_type_symbol
 _atom_site_label
 _atom_site_symmetry_multiplicity
 _atom_site_fract_x
 _atom_site_fract_y
 _atom_site_fract_z
 _atom_site_occupancy
  S  S0  1  0.01713317  0.18776015  0.15331012  1
  S  S1  1  0.98286683  0.68776015  0.84668988  1
  S  S2  1  0.51713317  0.68776015  0.34668988  1
  S  S3  1  0.48286683  0.18776015  0.65331012  1
  S  S4  1  0.02992738  0.43597854  0.09750355  1
  S  S5  1  0.97007262  0.93597854  0.90249645  1
  S  S6  1  0.52992738  0.93597854  0.40249645  1
  S  S7  1  0.47007262  0.43597854  0.59750355  1
  I  I8  1  0.18551352  0.36983659  0.30094012  1
  I  I9  1  0.81448648  0.86983659  0.69905988  1
  I  I10  1  0.68551352  0.86983659  0.19905988  1
  I  I11  1  0.31448648  0.36983659  0.80094012  1
  I  I12  1  0.28661976  0.25268745  0.45235305  1
  I  I13  1  0.71338024  0.75268745  0.54764695  1
  I  I14  1  0.78661976  0.75268745  0.04764695  1
  I  I15  1  0.21338024  0.25268745  0.95235305  1
  O  O16  1  0.81491493  0.38627655  0.29480395  1
  O  O17  1  0.18508507  0.88627655  0.70519605  1
  O  O18  1  0.31491493  0.88627655  0.20519605  1
  O  O19  1  0.68508507  0.38627655  0.79480395  1
  O  O20  1  0.65951310  0.24896717  0.45373049  1
  O  O21  1  0.34048690  0.74896717  0.54626951  1
  O  O22  1  0.15951310  0.74896717  0.04626951  1
  O  O23  1  0.84048690  0.24896717  0.95373049  1
  O  O24  1  0.23116125  0.20793907  0.34632847  1
  O  O25  1  0.76883875  0.70793907  0.65367153  1
  O  O26  1  0.73116125  0.70793907  0.15367153  1
  O  O27  1  0.26883875  0.20793907  0.84632847  1
  O  O28  1  0.21926648  0.41377905  0.40735395  1
  O  O29  1  0.78073352  0.91377905  0.59264605  1
  O  O30  1  0.71926648  0.91377905  0.09264605  1
  O  O31  1  0.28073352  0.41377905  0.90735395  1
  O  O32  1  0.23007764  0.23797022  0.20555682  1
  O  O33  1  0.76992236  0.73797022  0.79444318  1
  O  O34  1  0.73007764  0.73797022  0.29444318  1
  O  O35  1  0.26992236  0.23797022  0.70555682  1
  O  O36  1  0.79264843  0.11845625  0.18709911  1
  O  O37  1  0.20735157  0.61845625  0.81290089  1
  O  O38  1  0.29264843  0.61845625  0.31290089  1
  O  O39  1  0.70735157  0.11845625  0.68709911  1
  O  O40  1  0.15559308  0.13377816  0.09177159  1
  O  O41  1  0.84440692  0.63377816  0.90822841  1
  O  O42  1  0.65559308  0.63377816  0.40822841  1
  O  O43  1  0.34440692  0.13377816  0.59177159  1
  O  O44  1  0.84602034  0.31345181  0.12433572  1
  O  O45  1  0.15397966  0.81345181  0.87566428  1
  O  O46  1  0.34602034  0.81345181  0.37566428  1
  O  O47  1  0.65397966  0.31345181  0.62433572  1
  O  O48  1  0.15982071  0.48992330  0.16017738  1
  O  O49  1  0.84017929  0.98992330  0.83982262  1
  O  O50  1  0.65982071  0.98992330  0.33982262  1
  O  O51  1  0.34017929  0.48992330  0.66017738  1
  O  O52  1  0.81572238  0.50772168  0.06055975  1
  O  O53  1  0.18427762  0.00772168  0.93944025  1
  O  O54  1  0.31572238  0.00772168  0.43944025  1
  O  O55  1  0.68427762  0.50772168  0.56055975  1
  O  O56  1  0.25040753  0.38361399  0.04801301  1
  O  O57  1  0.74959247  0.88361399  0.95198699  1
  O  O58  1  0.75040753  0.88361399  0.45198699  1
  O  O59  1  0.24959247  0.38361399  0.54801301  1
