# generated using pymatgen
data_Cs6Ho21Se34Cl
_symmetry_space_group_name_H-M   'P 1'
_cell_length_a   13.57622590
_cell_length_b   13.57622590
_cell_length_c   13.57710750
_cell_angle_alpha   114.31864073
_cell_angle_beta   114.31864073
_cell_angle_gamma   97.49107193
_symmetry_Int_Tables_number   1
_chemical_formula_structural   Cs6Ho21Se34Cl
_chemical_formula_sum   'Cs6 Ho21 Se34 Cl1'
_cell_volume   1937.75571890
_cell_formula_units_Z   1
loop_
 _symmetry_equiv_pos_site_id
 _symmetry_equiv_pos_as_xyz
  1  'x, y, z'
loop_
 _atom_site_type_symbol
 _atom_site_label
 _atom_site_symmetry_multiplicity
 _atom_site_fract_x
 _atom_site_fract_y
 _atom_site_fract_z
 _atom_site_occupancy
  Cs  Cs0  1  0.04765698  0.80575789  0.27345053  1
  Cs  Cs1  1  0.80575789  0.04765698  0.27345053  1
  Cs  Cs2  1  0.95234302  0.19424211  0.72654947  1
  Cs  Cs3  1  0.19424211  0.95234302  0.72654947  1
  Cs  Cs4  1  0.77324835  0.77324835  0.41947189  1
  Cs  Cs5  1  0.22675165  0.22675165  0.58052811  1
  Ho  Ho6  1  0.69900161  0.30099839  -0.00000000  1
  Ho  Ho7  1  0.30099839  0.69900161  -0.00000000  1
  Ho  Ho8  1  0.04550329  0.46078012  0.24890390  1
  Ho  Ho9  1  0.46078012  0.04550329  0.24890390  1
  Ho  Ho10  1  0.95449671  0.53921988  0.75109610  1
  Ho  Ho11  1  0.53921988  0.95449671  0.75109610  1
  Ho  Ho12  1  0.82975380  0.42761460  0.37730501  1
  Ho  Ho13  1  0.42761460  0.82975380  0.37730501  1
  Ho  Ho14  1  0.17024620  0.57238540  0.62269499  1
  Ho  Ho15  1  0.57238540  0.17024620  0.62269499  1
  Ho  Ho16  1  0.90122818  0.09877182  -0.00000000  1
  Ho  Ho17  1  0.09877182  0.90122818  -0.00000000  1
  Ho  Ho18  1  0.26338685  0.46750348  0.10808054  1
  Ho  Ho19  1  0.46750348  0.26338685  0.10808054  1
  Ho  Ho20  1  0.73661315  0.53249652  0.89191946  1
  Ho  Ho21  1  0.53249652  0.73661315  0.89191946  1
  Ho  Ho22  1  0.39905576  0.60094424  0.50000000  1
  Ho  Ho23  1  0.60094424  0.39905576  0.50000000  1
  Ho  Ho24  1  0.50000000  0.50000000  -0.00000000  1
  Ho  Ho25  1  0.24366000  0.24366000  0.25442518  1
  Ho  Ho26  1  0.75634000  0.75634000  0.74557482  1
  Se  Se27  1  0.68527134  0.68527134  0.06246197  1
  Se  Se28  1  0.31472866  0.31472866  0.93753803  1
  Se  Se29  1  0.05881059  0.05881059  0.18256643  1
  Se  Se30  1  0.94118941  0.94118941  0.81743357  1
  Se  Se31  1  0.08862518  0.28902334  0.07292836  1
  Se  Se32  1  0.28902334  0.08862518  0.07292836  1
  Se  Se33  1  0.91137482  0.71097666  0.92707164  1
  Se  Se34  1  0.71097666  0.91137482  0.92707164  1
  Se  Se35  1  0.88375584  0.48548956  0.06290988  1
  Se  Se36  1  0.48548956  0.88375584  0.06290988  1
  Se  Se37  1  0.11624416  0.51451044  0.93709012  1
  Se  Se38  1  0.51451044  0.11624416  0.93709012  1
  Se  Se39  1  0.86660463  0.27017978  0.18675639  1
  Se  Se40  1  0.27017978  0.86660463  0.18675639  1
  Se  Se41  1  0.13339537  0.72982022  0.81324361  1
  Se  Se42  1  0.72982022  0.13339537  0.81324361  1
  Se  Se43  1  0.24382039  0.63457968  0.31087558  1
  Se  Se44  1  0.63457968  0.24382039  0.31087558  1
  Se  Se45  1  0.75617961  0.36542032  0.68912442  1
  Se  Se46  1  0.36542032  0.75617961  0.68912442  1
  Se  Se47  1  0.01285097  0.61176350  0.44164362  1
  Se  Se48  1  0.61176350  0.01285097  0.44164362  1
  Se  Se49  1  0.98714903  0.38823650  0.55835638  1
  Se  Se50  1  0.38823650  0.98714903  0.55835638  1
  Se  Se51  1  0.21297424  0.41956248  0.43711565  1
  Se  Se52  1  0.41956248  0.21297424  0.43711565  1
  Se  Se53  1  0.78702576  0.58043752  0.56288435  1
  Se  Se54  1  0.58043752  0.78702576  0.56288435  1
  Se  Se55  1  0.65388625  0.45355412  0.18348583  1
  Se  Se56  1  0.45355412  0.65388625  0.18348583  1
  Se  Se57  1  0.34611375  0.54644588  0.81651417  1
  Se  Se58  1  0.54644588  0.34611375  0.81651417  1
  Se  Se59  1  0.42818338  0.42818338  0.30812685  1
  Se  Se60  1  0.57181662  0.57181662  0.69187315  1
  Cl  Cl61  1  -0.00000000  -0.00000000  0.50000000  1
