# generated using pymatgen
data_FeAgP2O7
_symmetry_space_group_name_H-M   'P 1'
_cell_length_a   7.44298823
_cell_length_b   8.10678872
_cell_length_c   9.71539045
_cell_angle_alpha   90.00000000
_cell_angle_beta   111.72942942
_cell_angle_gamma   90.00000000
_symmetry_Int_Tables_number   1
_chemical_formula_structural   FeAgP2O7
_chemical_formula_sum   'Fe4 Ag4 P8 O28'
_cell_volume   544.55944300
_cell_formula_units_Z   4
loop_
 _symmetry_equiv_pos_site_id
 _symmetry_equiv_pos_as_xyz
  1  'x, y, z'
loop_
 _atom_site_type_symbol
 _atom_site_label
 _atom_site_symmetry_multiplicity
 _atom_site_fract_x
 _atom_site_fract_y
 _atom_site_fract_z
 _atom_site_occupancy
  Fe  Fe0  1  0.23985738  0.00858388  0.74927306  1
  Fe  Fe1  1  0.76014262  0.50858388  0.75072694  1
  Fe  Fe2  1  0.76014262  0.99141612  0.25072694  1
  Fe  Fe3  1  0.23985738  0.49141612  0.24927306  1
  Ag  Ag4  1  0.79397990  0.97368719  0.81007234  1
  Ag  Ag5  1  0.20602010  0.47368719  0.68992766  1
  Ag  Ag6  1  0.20602010  0.02631281  0.18992766  1
  Ag  Ag7  1  0.79397990  0.52631281  0.31007234  1
  P  P8  1  0.17429161  0.70875338  0.95356294  1
  P  P9  1  0.82570839  0.20875338  0.54643706  1
  P  P10  1  0.82570839  0.29124662  0.04643706  1
  P  P11  1  0.17429161  0.79124662  0.45356294  1
  P  P12  1  0.57456775  0.75360652  0.95570072  1
  P  P13  1  0.42543225  0.25360652  0.54429928  1
  P  P14  1  0.42543225  0.24639348  0.04429928  1
  P  P15  1  0.57456775  0.74639348  0.45570072  1
  O  O16  1  0.03532543  0.58587862  0.84755528  1
  O  O17  1  0.96467457  0.08587862  0.65244472  1
  O  O18  1  0.96467457  0.41412138  0.15244472  1
  O  O19  1  0.03532543  0.91412138  0.34755528  1
  O  O20  1  0.18689804  0.69675967  0.11370886  1
  O  O21  1  0.81310196  0.19675967  0.38629114  1
  O  O22  1  0.81310196  0.30324033  0.88629114  1
  O  O23  1  0.18689804  0.80324033  0.61370886  1
  O  O24  1  0.38111242  0.65408872  0.94605199  1
  O  O25  1  0.61888758  0.15408872  0.55394801  1
  O  O26  1  0.61888758  0.34591128  0.05394801  1
  O  O27  1  0.38111242  0.84591128  0.44605199  1
  O  O28  1  0.14014200  0.88893288  0.89763475  1
  O  O29  1  0.85985800  0.38893288  0.60236525  1
  O  O30  1  0.85985800  0.11106712  0.10236525  1
  O  O31  1  0.14014200  0.61106712  0.39763475  1
  O  O32  1  0.50788662  0.91112569  0.86053129  1
  O  O33  1  0.49211338  0.41112569  0.63946871  1
  O  O34  1  0.49211338  0.08887431  0.13946871  1
  O  O35  1  0.50788662  0.58887431  0.36053129  1
  O  O36  1  0.69050400  0.79061219  0.11862071  1
  O  O37  1  0.30949600  0.29061219  0.38137929  1
  O  O38  1  0.30949600  0.20938781  0.88137929  1
  O  O39  1  0.69050400  0.70938781  0.61862071  1
  O  O40  1  0.68126724  0.63458657  0.89297357  1
  O  O41  1  0.31873276  0.13458657  0.60702643  1
  O  O42  1  0.31873276  0.36541343  0.10702643  1
  O  O43  1  0.68126724  0.86541343  0.39297357  1
