# generated using pymatgen
data_Cs4TeSe15
_symmetry_space_group_name_H-M   'P 1'
_cell_length_a   10.40959657
_cell_length_b   14.36209455
_cell_length_c   19.99387662
_cell_angle_alpha   90.00000000
_cell_angle_beta   90.00000000
_cell_angle_gamma   90.00000000
_symmetry_Int_Tables_number   1
_chemical_formula_structural   Cs4TeSe15
_chemical_formula_sum   'Cs16 Te4 Se60'
_cell_volume   2989.15673590
_cell_formula_units_Z   4
loop_
 _symmetry_equiv_pos_site_id
 _symmetry_equiv_pos_as_xyz
  1  'x, y, z'
loop_
 _atom_site_type_symbol
 _atom_site_label
 _atom_site_symmetry_multiplicity
 _atom_site_fract_x
 _atom_site_fract_y
 _atom_site_fract_z
 _atom_site_occupancy
  Cs  Cs0  1  0.96923289  0.38212197  0.25000000  1
  Cs  Cs1  1  0.03076711  0.61787803  0.75000000  1
  Cs  Cs2  1  0.96923289  0.11787803  0.75000000  1
  Cs  Cs3  1  0.03076711  0.88212197  0.25000000  1
  Cs  Cs4  1  0.65815623  0.61810453  0.25000000  1
  Cs  Cs5  1  0.34184377  0.38189547  0.75000000  1
  Cs  Cs6  1  0.65815623  0.88189547  0.75000000  1
  Cs  Cs7  1  0.34184377  0.11810453  0.25000000  1
  Cs  Cs8  1  0.88499063  0.25000000  0.50000000  1
  Cs  Cs9  1  0.11500937  0.75000000  -0.00000000  1
  Cs  Cs10  1  0.11500937  0.75000000  0.50000000  1
  Cs  Cs11  1  0.88499063  0.25000000  -0.00000000  1
  Cs  Cs12  1  0.39839537  0.25000000  0.50000000  1
  Cs  Cs13  1  0.60160463  0.75000000  -0.00000000  1
  Cs  Cs14  1  0.60160463  0.75000000  0.50000000  1
  Cs  Cs15  1  0.39839537  0.25000000  -0.00000000  1
  Te  Te16  1  0.46505583  0.38264794  0.25000000  1
  Te  Te17  1  0.53494417  0.61735206  0.75000000  1
  Te  Te18  1  0.46505583  0.11735206  0.75000000  1
  Te  Te19  1  0.53494417  0.88264794  0.25000000  1
  Se  Se20  1  0.29337560  0.42754776  0.34898756  1
  Se  Se21  1  0.70662440  0.57245224  0.84898756  1
  Se  Se22  1  0.29337560  0.07245224  0.65101244  1
  Se  Se23  1  0.70662440  0.92754776  0.15101244  1
  Se  Se24  1  0.70662440  0.57245224  0.65101244  1
  Se  Se25  1  0.29337560  0.42754776  0.15101244  1
  Se  Se26  1  0.70662440  0.92754776  0.34898756  1
  Se  Se27  1  0.29337560  0.07245224  0.84898756  1
  Se  Se28  1  0.30920412  0.59465138  0.34537720  1
  Se  Se29  1  0.69079588  0.40534862  0.84537720  1
  Se  Se30  1  0.30920412  0.90534862  0.65462280  1
  Se  Se31  1  0.69079588  0.09465138  0.15462280  1
  Se  Se32  1  0.69079588  0.40534862  0.65462280  1
  Se  Se33  1  0.30920412  0.59465138  0.15462280  1
  Se  Se34  1  0.69079588  0.09465138  0.34537720  1
  Se  Se35  1  0.30920412  0.90534862  0.84537720  1
  Se  Se36  1  0.18254913  0.63598282  0.25000000  1
  Se  Se37  1  0.81745087  0.36401718  0.75000000  1
  Se  Se38  1  0.18254913  0.86401718  0.75000000  1
  Se  Se39  1  0.81745087  0.13598282  0.25000000  1
  Se  Se40  1  0.65236920  0.33301758  0.35646918  1
  Se  Se41  1  0.34763080  0.66698242  0.85646918  1
  Se  Se42  1  0.65236920  0.16698242  0.64353082  1
  Se  Se43  1  0.34763080  0.83301758  0.14353082  1
  Se  Se44  1  0.34763080  0.66698242  0.64353082  1
  Se  Se45  1  0.65236920  0.33301758  0.14353082  1
  Se  Se46  1  0.34763080  0.83301758  0.35646918  1
  Se  Se47  1  0.65236920  0.16698242  0.85646918  1
  Se  Se48  1  0.60683029  0.46003226  0.42927499  1
  Se  Se49  1  0.39316971  0.53996774  0.92927499  1
  Se  Se50  1  0.60683029  0.03996774  0.57072501  1
  Se  Se51  1  0.39316971  0.96003226  0.07072501  1
  Se  Se52  1  0.39316971  0.53996774  0.57072501  1
  Se  Se53  1  0.60683029  0.46003226  0.07072501  1
  Se  Se54  1  0.39316971  0.96003226  0.42927499  1
  Se  Se55  1  0.60683029  0.03996774  0.92927499  1
  Se  Se56  1  0.81036856  0.51079719  0.47330980  1
  Se  Se57  1  0.18963144  0.48920281  0.97330980  1
  Se  Se58  1  0.81036856  0.98920281  0.52669020  1
  Se  Se59  1  0.18963144  0.01079719  0.02669020  1
  Se  Se60  1  0.18963144  0.48920281  0.52669020  1
  Se  Se61  1  0.81036856  0.51079719  0.02669020  1
  Se  Se62  1  0.18963144  0.01079719  0.47330980  1
  Se  Se63  1  0.81036856  0.98920281  0.97330980  1
  Se  Se64  1  0.92744446  0.58269528  0.38495552  1
  Se  Se65  1  0.07255554  0.41730472  0.88495552  1
  Se  Se66  1  0.92744446  0.91730472  0.61504448  1
  Se  Se67  1  0.07255554  0.08269528  0.11504448  1
  Se  Se68  1  0.07255554  0.41730472  0.61504448  1
  Se  Se69  1  0.92744446  0.58269528  0.11504448  1
  Se  Se70  1  0.07255554  0.08269528  0.38495552  1
  Se  Se71  1  0.92744446  0.91730472  0.88495552  1
  Se  Se72  1  0.86003784  0.74013680  0.37406698  1
  Se  Se73  1  0.13996216  0.25986320  0.87406698  1
  Se  Se74  1  0.86003784  0.75986320  0.62593302  1
  Se  Se75  1  0.13996216  0.24013680  0.12593302  1
  Se  Se76  1  0.13996216  0.25986320  0.62593302  1
  Se  Se77  1  0.86003784  0.74013680  0.12593302  1
  Se  Se78  1  0.13996216  0.24013680  0.37406698  1
  Se  Se79  1  0.86003784  0.75986320  0.87406698  1
