# generated using pymatgen
data_CsFe3P3O14
_symmetry_space_group_name_H-M   'P 1'
_cell_length_a   8.62309861
_cell_length_b   8.62309861
_cell_length_c   9.14062349
_cell_angle_alpha   76.31267830
_cell_angle_beta   76.31267830
_cell_angle_gamma   78.02523090
_symmetry_Int_Tables_number   1
_chemical_formula_structural   CsFe3P3O14
_chemical_formula_sum   'Cs2 Fe6 P6 O28'
_cell_volume   633.30593153
_cell_formula_units_Z   2
loop_
 _symmetry_equiv_pos_site_id
 _symmetry_equiv_pos_as_xyz
  1  'x, y, z'
loop_
 _atom_site_type_symbol
 _atom_site_label
 _atom_site_symmetry_multiplicity
 _atom_site_fract_x
 _atom_site_fract_y
 _atom_site_fract_z
 _atom_site_occupancy
  Cs  Cs0  1  0.64425533  0.35574467  0.25000000  1
  Cs  Cs1  1  0.35574467  0.64425533  0.75000000  1
  Fe  Fe2  1  0.26643079  0.73356921  0.25000000  1
  Fe  Fe3  1  0.73356921  0.26643079  0.75000000  1
  Fe  Fe4  1  0.25418431  0.10467330  0.42702288  1
  Fe  Fe5  1  0.89532670  0.74581569  0.07297712  1
  Fe  Fe6  1  0.74581569  0.89532670  0.57297712  1
  Fe  Fe7  1  0.10467330  0.25418431  0.92702288  1
  P  P8  1  0.00909276  0.99090724  0.25000000  1
  P  P9  1  0.99090724  0.00909276  0.75000000  1
  P  P10  1  0.57510790  0.84107103  0.32417669  1
  P  P11  1  0.15892897  0.42489210  0.17582331  1
  P  P12  1  0.42489210  0.15892897  0.67582331  1
  P  P13  1  0.84107103  0.57510790  0.82417669  1
  O  O14  1  0.13594107  0.29256500  0.32221173  1
  O  O15  1  0.70743500  0.86405893  0.17778827  1
  O  O16  1  0.86405893  0.70743500  0.67778827  1
  O  O17  1  0.29256500  0.13594107  0.82221173  1
  O  O18  1  0.34808663  0.22764221  0.53205239  1
  O  O19  1  0.77235779  0.65191337  0.96794761  1
  O  O20  1  0.65191337  0.77235779  0.46794761  1
  O  O21  1  0.22764221  0.34808663  0.03205239  1
  O  O22  1  0.86367188  0.01128343  0.38259497  1
  O  O23  1  0.98871657  0.13632812  0.11740503  1
  O  O24  1  0.13632812  0.98871657  0.61740503  1
  O  O25  1  0.01128343  0.86367188  0.88259497  1
  O  O26  1  0.81836165  0.38844805  0.53611698  1
  O  O27  1  0.61155195  0.18163835  0.96388302  1
  O  O28  1  0.18163835  0.61155195  0.46388302  1
  O  O29  1  0.38844805  0.81836165  0.03611698  1
  O  O30  1  0.46794789  0.00716830  0.33848425  1
  O  O31  1  0.99283170  0.53205211  0.16151575  1
  O  O32  1  0.53205211  0.99283170  0.66151575  1
  O  O33  1  0.00716830  0.46794789  0.83848425  1
  O  O34  1  0.17369591  0.96696196  0.30507663  1
  O  O35  1  0.03303804  0.82630409  0.19492337  1
  O  O36  1  0.82630409  0.03303804  0.69492337  1
  O  O37  1  0.96696196  0.17369591  0.80507663  1
  O  O38  1  0.47402696  0.71511111  0.31320390  1
  O  O39  1  0.28488889  0.52597304  0.18679610  1
  O  O40  1  0.52597304  0.28488889  0.68679610  1
  O  O41  1  0.71511111  0.47402696  0.81320390  1
