# generated using pymatgen
data_Li4Ti2V3Cu3O16
_symmetry_space_group_name_H-M   'P 1'
_cell_length_a   5.99809724
_cell_length_b   5.82258584
_cell_length_c   9.68570685
_cell_angle_alpha   90.05942601
_cell_angle_beta   86.63674523
_cell_angle_gamma   119.03902678
_symmetry_Int_Tables_number   1
_chemical_formula_structural   Li4Ti2V3Cu3O16
_chemical_formula_sum   'Li4 Ti2 V3 Cu3 O16'
_cell_volume   295.08863641
_cell_formula_units_Z   1
loop_
 _symmetry_equiv_pos_site_id
 _symmetry_equiv_pos_as_xyz
  1  'x, y, z'
loop_
 _atom_site_type_symbol
 _atom_site_label
 _atom_site_symmetry_multiplicity
 _atom_site_fract_x
 _atom_site_fract_y
 _atom_site_fract_z
 _atom_site_occupancy
  Li  Li0  1  0.32273147  0.65237247  0.91047312  1
  Li  Li1  1  0.99224040  0.99673087  0.99656502  1
  Li  Li2  1  0.00569188  0.00503521  0.48515934  1
  Li  Li3  1  0.69788249  0.35169195  0.40163255  1
  Ti  Ti4  1  0.29264277  0.64463693  0.48566303  1
  Ti  Ti5  1  0.66393099  0.33425960  0.00522885  1
  V  V6  1  0.81720818  0.65698009  0.71927362  1
  V  V7  1  0.65065206  0.83040060  0.23529493  1
  V  V8  1  0.80382593  0.15259370  0.72305277  1
  Cu  Cu9  1  0.17233315  0.83432268  0.20401900  1
  Cu  Cu10  1  0.17332338  0.33897973  0.20466192  1
  Cu  Cu11  1  0.33321608  0.17062654  0.70372792  1
  O  O12  1  0.14294407  0.81384557  0.59142762  1
  O  O13  1  0.06254325  0.53225884  0.34571559  1
  O  O14  1  0.36412832  0.68222691  0.11635631  1
  O  O15  1  0.98638913  0.99335132  0.29251066  1
  O  O16  1  0.99405816  0.00844585  0.80390728  1
  O  O17  1  0.15181055  0.33406323  0.58755356  1
  O  O18  1  0.52877071  0.98349380  0.35203536  1
  O  O19  1  0.52847790  0.55091627  0.35213624  1
  O  O20  1  0.32251019  0.16189384  0.08100211  1
  O  O21  1  0.68509326  0.85270465  0.60932238  1
  O  O22  1  0.54180375  0.50231351  0.83887937  1
  O  O23  1  0.53282409  0.02706064  0.83904197  1
  O  O24  1  0.68567685  0.33040350  0.60753951  1
  O  O25  1  0.79468536  0.64834966  0.09119470  1
  O  O26  1  0.95976446  0.46574394  0.83255006  1
  O  O27  1  0.79284016  0.14459911  0.09191621  1
