# generated using pymatgen
data_Er2Nb3Ge4
_symmetry_space_group_name_H-M   'P 1'
_cell_length_a   7.00666427
_cell_length_b   7.18159549
_cell_length_c   13.59395106
_cell_angle_alpha   90.00000000
_cell_angle_beta   90.00000000
_cell_angle_gamma   90.00000000
_symmetry_Int_Tables_number   1
_chemical_formula_structural   Er2Nb3Ge4
_chemical_formula_sum   'Er8 Nb12 Ge16'
_cell_volume   684.03441111
_cell_formula_units_Z   4
loop_
 _symmetry_equiv_pos_site_id
 _symmetry_equiv_pos_as_xyz
  1  'x, y, z'
loop_
 _atom_site_type_symbol
 _atom_site_label
 _atom_site_symmetry_multiplicity
 _atom_site_fract_x
 _atom_site_fract_y
 _atom_site_fract_z
 _atom_site_occupancy
  Er  Er0  1  0.50378578  0.67434281  0.40544187  1
  Er  Er1  1  0.00378578  0.82565719  0.09455813  1
  Er  Er2  1  0.49621422  0.32565719  0.90544187  1
  Er  Er3  1  0.99621422  0.17434281  0.59455813  1
  Er  Er4  1  0.49621422  0.32565719  0.59455813  1
  Er  Er5  1  0.99621422  0.17434281  0.90544187  1
  Er  Er6  1  0.50378578  0.67434281  0.09455813  1
  Er  Er7  1  0.00378578  0.82565719  0.40544187  1
  Nb  Nb8  1  0.33489925  0.98795869  0.75000000  1
  Nb  Nb9  1  0.83489925  0.51204131  0.75000000  1
  Nb  Nb10  1  0.66510075  0.01204131  0.25000000  1
  Nb  Nb11  1  0.16510075  0.48795869  0.25000000  1
  Nb  Nb12  1  0.15937623  0.67121925  0.87363181  1
  Nb  Nb13  1  0.65937623  0.82878075  0.62636819  1
  Nb  Nb14  1  0.84062377  0.32878075  0.37363181  1
  Nb  Nb15  1  0.34062377  0.17121925  0.12636819  1
  Nb  Nb16  1  0.84062377  0.32878075  0.12636819  1
  Nb  Nb17  1  0.34062377  0.17121925  0.37363181  1
  Nb  Nb18  1  0.15937623  0.67121925  0.62636819  1
  Nb  Nb19  1  0.65937623  0.82878075  0.87363181  1
  Ge  Ge20  1  0.19458102  0.36050439  0.75000000  1
  Ge  Ge21  1  0.69458102  0.13949561  0.75000000  1
  Ge  Ge22  1  0.80541898  0.63949561  0.25000000  1
  Ge  Ge23  1  0.30541898  0.86050439  0.25000000  1
  Ge  Ge24  1  0.45943404  0.62073474  0.75000000  1
  Ge  Ge25  1  0.95943404  0.87926526  0.75000000  1
  Ge  Ge26  1  0.54056596  0.37926526  0.25000000  1
  Ge  Ge27  1  0.04056596  0.12073474  0.25000000  1
  Ge  Ge28  1  0.32467478  0.96212581  0.95853983  1
  Ge  Ge29  1  0.82467478  0.53787419  0.54146017  1
  Ge  Ge30  1  0.67532522  0.03787419  0.45853983  1
  Ge  Ge31  1  0.17532522  0.46212581  0.04146017  1
  Ge  Ge32  1  0.67532522  0.03787419  0.04146017  1
  Ge  Ge33  1  0.17532522  0.46212581  0.45853983  1
  Ge  Ge34  1  0.32467478  0.96212581  0.54146017  1
  Ge  Ge35  1  0.82467478  0.53787419  0.95853983  1
