# generated using pymatgen
data_YbCo3P2
_symmetry_space_group_name_H-M   'P 1'
_cell_length_a   3.70045241
_cell_length_b   10.54116208
_cell_length_c   12.12426170
_cell_angle_alpha   90.00000000
_cell_angle_beta   90.00000000
_cell_angle_gamma   90.00000000
_symmetry_Int_Tables_number   1
_chemical_formula_structural   YbCo3P2
_chemical_formula_sum   'Yb6 Co18 P12'
_cell_volume   472.93190814
_cell_formula_units_Z   6
loop_
 _symmetry_equiv_pos_site_id
 _symmetry_equiv_pos_as_xyz
  1  'x, y, z'
loop_
 _atom_site_type_symbol
 _atom_site_label
 _atom_site_symmetry_multiplicity
 _atom_site_fract_x
 _atom_site_fract_y
 _atom_site_fract_z
 _atom_site_occupancy
  Yb  Yb0  1  0.75000000  0.25000000  0.47434228  1
  Yb  Yb1  1  0.25000000  0.75000000  0.52565772  1
  Yb  Yb2  1  0.25000000  0.93024766  0.79430197  1
  Yb  Yb3  1  0.25000000  0.56975234  0.79430197  1
  Yb  Yb4  1  0.75000000  0.06975234  0.20569803  1
  Yb  Yb5  1  0.75000000  0.43024766  0.20569803  1
  Co  Co6  1  0.25000000  0.25000000  0.84340215  1
  Co  Co7  1  0.75000000  0.75000000  0.15659785  1
  Co  Co8  1  0.25000000  0.25000000  0.29988318  1
  Co  Co9  1  0.75000000  0.75000000  0.70011682  1
  Co  Co10  1  0.75000000  0.25000000  0.01341702  1
  Co  Co11  1  0.25000000  0.75000000  0.98658298  1
  Co  Co12  1  0.25000000  0.41737714  0.00537985  1
  Co  Co13  1  0.25000000  0.08262286  0.00537985  1
  Co  Co14  1  0.75000000  0.58262286  0.99462015  1
  Co  Co15  1  0.75000000  0.91737714  0.99462015  1
  Co  Co16  1  0.25000000  0.45180513  0.56911669  1
  Co  Co17  1  0.25000000  0.04819487  0.56911669  1
  Co  Co18  1  0.75000000  0.54819487  0.43088331  1
  Co  Co19  1  0.75000000  0.95180513  0.43088331  1
  Co  Co20  1  0.25000000  0.86967474  0.29058501  1
  Co  Co21  1  0.25000000  0.63032526  0.29058501  1
  Co  Co22  1  0.75000000  0.13032526  0.70941499  1
  Co  Co23  1  0.75000000  0.36967474  0.70941499  1
  P  P24  1  0.25000000  0.25000000  0.11832387  1
  P  P25  1  0.75000000  0.75000000  0.88167613  1
  P  P26  1  0.25000000  0.25000000  0.65798136  1
  P  P27  1  0.75000000  0.75000000  0.34201864  1
  P  P28  1  0.25000000  0.44230428  0.38285619  1
  P  P29  1  0.25000000  0.05769572  0.38285619  1
  P  P30  1  0.75000000  0.55769572  0.61714381  1
  P  P31  1  0.75000000  0.94230428  0.61714381  1
  P  P32  1  0.25000000  0.90319085  0.10697531  1
  P  P33  1  0.25000000  0.59680915  0.10697531  1
  P  P34  1  0.75000000  0.09680915  0.89302469  1
  P  P35  1  0.75000000  0.40319085  0.89302469  1
