# generated using pymatgen
data_CdTe(Pb3O5)2
_symmetry_space_group_name_H-M   'P 1'
_cell_length_a   7.49683644
_cell_length_b   7.49683644
_cell_length_c   11.51582289
_cell_angle_alpha   90.00000000
_cell_angle_beta   90.00000000
_cell_angle_gamma   103.24402555
_symmetry_Int_Tables_number   1
_chemical_formula_structural   CdTe(Pb3O5)2
_chemical_formula_sum   'Cd2 Te2 Pb12 O20'
_cell_volume   630.00471213
_cell_formula_units_Z   2
loop_
 _symmetry_equiv_pos_site_id
 _symmetry_equiv_pos_as_xyz
  1  'x, y, z'
loop_
 _atom_site_type_symbol
 _atom_site_label
 _atom_site_symmetry_multiplicity
 _atom_site_fract_x
 _atom_site_fract_y
 _atom_site_fract_z
 _atom_site_occupancy
  Cd  Cd0  1  0.42220368  0.57779632  0.25000000  1
  Cd  Cd1  1  0.57779632  0.42220368  0.75000000  1
  Te  Te2  1  0.32524173  0.32524173  0.50000000  1
  Te  Te3  1  0.67475827  0.67475827  0.00000000  1
  Pb  Pb4  1  0.07731544  0.50536452  0.73982446  1
  Pb  Pb5  1  0.50536452  0.07731544  0.26017554  1
  Pb  Pb6  1  0.92268456  0.49463548  0.23982446  1
  Pb  Pb7  1  0.49463548  0.92268456  0.76017554  1
  Pb  Pb8  1  0.99169946  0.00830054  0.25000000  1
  Pb  Pb9  1  0.00830054  0.99169946  0.75000000  1
  Pb  Pb10  1  0.78545564  0.22540185  0.51509182  1
  Pb  Pb11  1  0.22540185  0.78545564  0.48490818  1
  Pb  Pb12  1  0.21454436  0.77459815  0.01509182  1
  Pb  Pb13  1  0.77459815  0.21454436  0.98490818  1
  Pb  Pb14  1  0.70120843  0.70120843  0.50000000  1
  Pb  Pb15  1  0.29879157  0.29879157  0.00000000  1
  O  O16  1  0.41993365  0.54348632  0.60239834  1
  O  O17  1  0.54348632  0.41993365  0.39760166  1
  O  O18  1  0.58006635  0.45651368  0.10239834  1
  O  O19  1  0.45651368  0.58006635  0.89760166  1
  O  O20  1  0.82210909  0.47866335  0.62791623  1
  O  O21  1  0.47866335  0.82210909  0.37208377  1
  O  O22  1  0.17789091  0.52133665  0.12791623  1
  O  O23  1  0.52133665  0.17789091  0.87208377  1
  O  O24  1  0.25163233  0.11305197  0.39493723  1
  O  O25  1  0.11305197  0.25163233  0.60506277  1
  O  O26  1  0.74836767  0.88694803  0.89493723  1
  O  O27  1  0.88694803  0.74836767  0.10506277  1
  O  O28  1  0.47062575  0.18942447  0.59289670  1
  O  O29  1  0.18942447  0.47062575  0.40710330  1
  O  O30  1  0.52937425  0.81057553  0.09289670  1
  O  O31  1  0.81057553  0.52937425  0.90710330  1
  O  O32  1  0.00830413  0.24733218  0.84934003  1
  O  O33  1  0.24733218  0.00830413  0.15065997  1
  O  O34  1  0.99169587  0.75266782  0.34934003  1
  O  O35  1  0.75266782  0.99169587  0.65065997  1
