# generated using pymatgen
data_BaB8H4O15
_symmetry_space_group_name_H-M   'P 1'
_cell_length_a   8.06950830
_cell_length_b   10.07343995
_cell_length_c   14.28234396
_cell_angle_alpha   90.00000000
_cell_angle_beta   90.00000000
_cell_angle_gamma   90.21478065
_symmetry_Int_Tables_number   1
_chemical_formula_structural   BaB8H4O15
_chemical_formula_sum   'Ba4 B32 H16 O60'
_cell_volume   1160.97083806
_cell_formula_units_Z   4
loop_
 _symmetry_equiv_pos_site_id
 _symmetry_equiv_pos_as_xyz
  1  'x, y, z'
loop_
 _atom_site_type_symbol
 _atom_site_label
 _atom_site_symmetry_multiplicity
 _atom_site_fract_x
 _atom_site_fract_y
 _atom_site_fract_z
 _atom_site_occupancy
  Ba  Ba0  1  0.92043985  0.12243013  0.15786618  1
  Ba  Ba1  1  0.42043985  0.62243013  0.34213382  1
  Ba  Ba2  1  0.07956015  0.87756987  0.84213382  1
  Ba  Ba3  1  0.57956015  0.37756987  0.65786618  1
  B  B4  1  0.00338903  0.61846275  0.30354616  1
  B  B5  1  0.50338903  0.11846275  0.19645384  1
  B  B6  1  0.99661097  0.38153725  0.69645384  1
  B  B7  1  0.49661097  0.88153725  0.80354616  1
  B  B8  1  0.07000579  0.85260427  0.25841098  1
  B  B9  1  0.57000579  0.35260427  0.24158902  1
  B  B10  1  0.92999421  0.14739573  0.74158902  1
  B  B11  1  0.42999421  0.64739573  0.75841098  1
  B  B12  1  0.31529846  0.99166166  0.31783182  1
  B  B13  1  0.81529846  0.49166166  0.18216818  1
  B  B14  1  0.68470154  0.00833834  0.68216818  1
  B  B15  1  0.18470154  0.50833834  0.81783182  1
  B  B16  1  0.24466534  0.12369959  0.45941421  1
  B  B17  1  0.74466534  0.62369959  0.04058579  1
  B  B18  1  0.75533466  0.87630041  0.54058579  1
  B  B19  1  0.25533466  0.37630041  0.95941421  1
  B  B20  1  0.31305202  0.25267554  0.31346342  1
  B  B21  1  0.81305202  0.75267554  0.18653658  1
  B  B22  1  0.68694798  0.74732446  0.68653658  1
  B  B23  1  0.18694798  0.24732446  0.81346342  1
  B  B24  1  0.07566066  0.39245140  0.25036665  1
  B  B25  1  0.57566066  0.89245140  0.24963335  1
  B  B26  1  0.92433934  0.60754860  0.74963335  1
  B  B27  1  0.42433934  0.10754860  0.75036665  1
  B  B28  1  0.67673033  0.99759853  0.92803207  1
  B  B29  1  0.17673033  0.49759853  0.57196793  1
  B  B30  1  0.32326967  0.00240147  0.07196793  1
  B  B31  1  0.82326967  0.50240147  0.42803207  1
  B  B32  1  0.69646962  0.25036273  0.92452756  1
  B  B33  1  0.19646962  0.75036273  0.57547244  1
  B  B34  1  0.30353038  0.74963727  0.07547244  1
  B  B35  1  0.80353038  0.24963727  0.42452756  1
  H  H36  1  0.78745956  0.88354396  0.02457224  1
  H  H37  1  0.28745956  0.38354396  0.47542776  1
  H  H38  1  0.21254044  0.11645604  0.97542776  1
  H  H39  1  0.71254044  0.61645604  0.52457224  1
  H  H40  1  0.66829896  0.44311134  0.89439697  1
  H  H41  1  0.16829896  0.94311134  0.60560303  1
  H  H42  1  0.33170104  0.55688866  0.10560303  1
  H  H43  1  0.83170104  0.05688866  0.39439697  1
  H  H44  1  0.80263725  0.36157028  0.02308127  1
  H  H45  1  0.30263725  0.86157028  0.47691873  1
  H  H46  1  0.19736275  0.63842972  0.97691873  1
  H  H47  1  0.69736275  0.13842972  0.52308127  1
  H  H48  1  0.15907622  0.20909173  0.57544740  1
  H  H49  1  0.65907622  0.70909173  0.92455260  1
  H  H50  1  0.84092378  0.79090827  0.42455260  1
  H  H51  1  0.34092378  0.29090827  0.07544740  1
  O  O52  1  0.11878120  0.50763597  0.29560014  1
  O  O53  1  0.61878120  0.00763597  0.20439986  1
  O  O54  1  0.88121880  0.49236403  0.70439986  1
  O  O55  1  0.38121880  0.99236403  0.79560014  1
  O  O56  1  0.89930180  0.61017043  0.38846862  1
  O  O57  1  0.39930180  0.11017043  0.11153138  1
  O  O58  1  0.10069820  0.38982957  0.61153138  1
  O  O59  1  0.60069820  0.88982957  0.88846862  1
  O  O60  1  0.10214778  0.74023146  0.30874537  1
  O  O61  1  0.60214778  0.24023146  0.19125463  1
  O  O62  1  0.89785222  0.25976854  0.69125463  1
  O  O63  1  0.39785222  0.75976854  0.80874537  1
  O  O64  1  0.16221186  0.96717527  0.26406192  1
  O  O65  1  0.66221186  0.46717527  0.23593808  1
  O  O66  1  0.83778814  0.03282473  0.73593808  1
  O  O67  1  0.33778814  0.53282473  0.76406192  1
  O  O68  1  0.27845879  0.00422472  0.41813443  1
  O  O69  1  0.77845879  0.50422472  0.08186557  1
  O  O70  1  0.72154121  0.99577528  0.58186557  1
  O  O71  1  0.22154121  0.49577528  0.91813443  1
  O  O72  1  0.64076492  0.12532377  0.89970579  1
  O  O73  1  0.14076492  0.62532377  0.60029421  1
  O  O74  1  0.35923508  0.87467623  0.10029421  1
  O  O75  1  0.85923508  0.37467623  0.39970579  1
  O  O76  1  0.26575334  0.24221693  0.41291062  1
  O  O77  1  0.76575334  0.74221693  0.08708938  1
  O  O78  1  0.73424666  0.75778307  0.58708938  1
  O  O79  1  0.23424666  0.25778307  0.91291062  1
  O  O80  1  0.39025981  0.12182259  0.28286513  1
  O  O81  1  0.89025981  0.62182259  0.21713487  1
  O  O82  1  0.60974019  0.87817741  0.71713487  1
  O  O83  1  0.10974019  0.37817741  0.78286513  1
  O  O84  1  0.43828581  0.35707283  0.30371136  1
  O  O85  1  0.93828581  0.85707283  0.19628864  1
  O  O86  1  0.56171419  0.64292717  0.69628864  1
  O  O87  1  0.06171419  0.14292717  0.80371136  1
  O  O88  1  0.16780334  0.27824278  0.25444824  1
  O  O89  1  0.66780334  0.77824278  0.24555176  1
  O  O90  1  0.83219666  0.72175722  0.74555176  1
  O  O91  1  0.33219666  0.22175722  0.75444824  1
  O  O92  1  0.93716229  0.38685060  0.19360108  1
  O  O93  1  0.43716229  0.88685060  0.30639892  1
  O  O94  1  0.06283771  0.61314940  0.80639892  1
  O  O95  1  0.56283771  0.11314940  0.69360108  1
  O  O96  1  0.79715235  0.97436429  0.99589956  1
  O  O97  1  0.29715235  0.47436429  0.50410044  1
  O  O98  1  0.20284765  0.02563571  0.00410044  1
  O  O99  1  0.70284765  0.52563571  0.49589956  1
  O  O100  1  0.64228095  0.35431507  0.86909208  1
  O  O101  1  0.14228095  0.85431507  0.63090792  1
  O  O102  1  0.35771905  0.64568493  0.13090792  1
  O  O103  1  0.85771905  0.14568493  0.36909208  1
  O  O104  1  0.80047997  0.26780338  0.99970919  1
  O  O105  1  0.30047997  0.76780338  0.50029081  1
  O  O106  1  0.19952003  0.73219662  0.00029081  1
  O  O107  1  0.69952003  0.23219662  0.49970919  1
  O  O108  1  0.19279663  0.12145410  0.55182978  1
  O  O109  1  0.69279663  0.62145410  0.94817022  1
  O  O110  1  0.80720337  0.87854590  0.44817022  1
  O  O111  1  0.30720337  0.37854590  0.05182978  1
