# generated using pymatgen
data_Pr2HfS5
_symmetry_space_group_name_H-M   'P 1'
_cell_length_a   7.43131677
_cell_length_b   8.01927110
_cell_length_c   11.76240987
_cell_angle_alpha   90.00000000
_cell_angle_beta   90.00000000
_cell_angle_gamma   90.00000000
_symmetry_Int_Tables_number   1
_chemical_formula_structural   Pr2HfS5
_chemical_formula_sum   'Pr8 Hf4 S20'
_cell_volume   700.96604036
_cell_formula_units_Z   4
loop_
 _symmetry_equiv_pos_site_id
 _symmetry_equiv_pos_as_xyz
  1  'x, y, z'
loop_
 _atom_site_type_symbol
 _atom_site_label
 _atom_site_symmetry_multiplicity
 _atom_site_fract_x
 _atom_site_fract_y
 _atom_site_fract_z
 _atom_site_occupancy
  Pr  Pr0  1  0.02828314  0.99853159  0.82308922  1
  Pr  Pr1  1  0.47171686  0.50146841  0.32308922  1
  Pr  Pr2  1  0.97171686  0.49853159  0.17691078  1
  Pr  Pr3  1  0.52828314  0.00146841  0.67691078  1
  Pr  Pr4  1  0.97171686  0.00146841  0.17691078  1
  Pr  Pr5  1  0.52828314  0.49853159  0.67691078  1
  Pr  Pr6  1  0.02828314  0.50146841  0.82308922  1
  Pr  Pr7  1  0.47171686  0.99853159  0.32308922  1
  Hf  Hf8  1  0.57394697  0.25000000  0.99339724  1
  Hf  Hf9  1  0.92605303  0.25000000  0.49339724  1
  Hf  Hf10  1  0.42605303  0.75000000  0.00660276  1
  Hf  Hf11  1  0.07394697  0.75000000  0.50660276  1
  S  S12  1  0.34045118  0.46538119  0.08689441  1
  S  S13  1  0.15954882  0.03461881  0.58689441  1
  S  S14  1  0.65954882  0.96538119  0.91310559  1
  S  S15  1  0.84045118  0.53461881  0.41310559  1
  S  S16  1  0.65954882  0.53461881  0.91310559  1
  S  S17  1  0.84045118  0.96538119  0.41310559  1
  S  S18  1  0.34045118  0.03461881  0.08689441  1
  S  S19  1  0.15954882  0.46538119  0.58689441  1
  S  S20  1  0.33921147  0.25000000  0.82029334  1
  S  S21  1  0.16078853  0.25000000  0.32029334  1
  S  S22  1  0.66078853  0.75000000  0.17970666  1
  S  S23  1  0.83921147  0.75000000  0.67970666  1
  S  S24  1  0.93930470  0.25000000  0.99440441  1
  S  S25  1  0.56069530  0.25000000  0.49440441  1
  S  S26  1  0.06069530  0.75000000  0.00559559  1
  S  S27  1  0.43930470  0.75000000  0.50559559  1
  S  S28  1  0.68263804  0.25000000  0.20383777  1
  S  S29  1  0.81736196  0.25000000  0.70383777  1
  S  S30  1  0.31736196  0.75000000  0.79616223  1
  S  S31  1  0.18263804  0.75000000  0.29616223  1
