# generated using pymatgen
data_LiAs3H2O9
_symmetry_space_group_name_H-M   'P 1'
_cell_length_a   8.81543245
_cell_length_b   9.83973407
_cell_length_c   10.24798266
_cell_angle_alpha   118.31660062
_cell_angle_beta   90.00000000
_cell_angle_gamma   90.00000000
_symmetry_Int_Tables_number   1
_chemical_formula_structural   LiAs3H2O9
_chemical_formula_sum   'Li4 As12 H8 O36'
_cell_volume   782.55663681
_cell_formula_units_Z   4
loop_
 _symmetry_equiv_pos_site_id
 _symmetry_equiv_pos_as_xyz
  1  'x, y, z'
loop_
 _atom_site_type_symbol
 _atom_site_label
 _atom_site_symmetry_multiplicity
 _atom_site_fract_x
 _atom_site_fract_y
 _atom_site_fract_z
 _atom_site_occupancy
  Li  Li0  1  0.10588786  0.61663864  0.49182252  1
  Li  Li1  1  0.39411214  0.11663864  0.99182252  1
  Li  Li2  1  0.89411214  0.38336136  0.50817748  1
  Li  Li3  1  0.60588786  0.88336136  0.00817748  1
  As  As4  1  0.18292856  0.17408105  0.74410106  1
  As  As5  1  0.31707144  0.67408105  0.24410106  1
  As  As6  1  0.81707144  0.82591895  0.25589894  1
  As  As7  1  0.68292856  0.32591895  0.75589894  1
  As  As8  1  0.76251152  0.73750831  0.64116133  1
  As  As9  1  0.73748848  0.23750831  0.14116133  1
  As  As10  1  0.23748848  0.26249169  0.35883867  1
  As  As11  1  0.26251152  0.76249169  0.85883867  1
  As  As12  1  0.88008667  0.01498219  0.59355142  1
  As  As13  1  0.61991333  0.51498219  0.09355142  1
  As  As14  1  0.11991333  0.98501781  0.40644858  1
  As  As15  1  0.38008667  0.48501781  0.90644858  1
  H  H16  1  0.58209614  0.70701913  0.46872934  1
  H  H17  1  0.91790386  0.20701913  0.96872934  1
  H  H18  1  0.41790386  0.29298087  0.53127066  1
  H  H19  1  0.08209614  0.79298087  0.03127066  1
  H  H20  1  0.73559622  0.62667055  0.78667734  1
  H  H21  1  0.76440378  0.12667055  0.28667734  1
  H  H22  1  0.26440378  0.37332945  0.21332266  1
  H  H23  1  0.23559622  0.87332945  0.71332266  1
  O  O24  1  0.27647439  0.06773284  0.80549738  1
  O  O25  1  0.22352561  0.56773284  0.30549738  1
  O  O26  1  0.72352561  0.93226716  0.19450262  1
  O  O27  1  0.77647439  0.43226716  0.69450262  1
  O  O28  1  0.20229147  0.37342612  0.85307545  1
  O  O29  1  0.29770853  0.87342612  0.35307545  1
  O  O30  1  0.79770853  0.62657388  0.14692455  1
  O  O31  1  0.70229147  0.12657388  0.64692455  1
  O  O32  1  0.22933360  0.14187520  0.56456081  1
  O  O33  1  0.27066640  0.64187520  0.06456081  1
  O  O34  1  0.77066640  0.85812480  0.43543919  1
  O  O35  1  0.72933360  0.35812480  0.93543919  1
  O  O36  1  0.98276053  0.16903783  0.76106733  1
  O  O37  1  0.51723947  0.66903783  0.26106733  1
  O  O38  1  0.01723947  0.83096217  0.23893267  1
  O  O39  1  0.48276053  0.33096217  0.73893267  1
  O  O40  1  0.88580113  0.60133508  0.53464712  1
  O  O41  1  0.61419887  0.10133508  0.03464712  1
  O  O42  1  0.11419887  0.39866492  0.46535288  1
  O  O43  1  0.38580113  0.89866492  0.96535288  1
  O  O44  1  0.57839061  0.72018117  0.57010655  1
  O  O45  1  0.92160939  0.22018117  0.07010655  1
  O  O46  1  0.42160939  0.27981883  0.42989345  1
  O  O47  1  0.07839061  0.77981883  0.92989345  1
  O  O48  1  0.72188950  0.73793379  0.80912226  1
  O  O49  1  0.77811050  0.23793379  0.30912226  1
  O  O50  1  0.27811050  0.26206621  0.19087774  1
  O  O51  1  0.22188950  0.76206621  0.69087774  1
  O  O52  1  0.83106776  0.92686458  0.71149246  1
  O  O53  1  0.66893224  0.42686458  0.21149246  1
  O  O54  1  0.16893224  0.07313542  0.28850754  1
  O  O55  1  0.33106776  0.57313542  0.78850754  1
  O  O56  1  0.05999528  0.90239093  0.52765985  1
  O  O57  1  0.44000472  0.40239093  0.02765985  1
  O  O58  1  0.94000472  0.09760907  0.47234015  1
  O  O59  1  0.55999528  0.59760907  0.97234015  1
