# generated using pymatgen
data_GdV(SeO4)2
_symmetry_space_group_name_H-M   'P 1'
_cell_length_a   6.83617696
_cell_length_b   7.05858429
_cell_length_c   13.63509463
_cell_angle_alpha   90.00000000
_cell_angle_beta   91.23863442
_cell_angle_gamma   90.00000000
_symmetry_Int_Tables_number   1
_chemical_formula_structural   GdV(SeO4)2
_chemical_formula_sum   'Gd4 V4 Se8 O32'
_cell_volume   657.79045385
_cell_formula_units_Z   4
loop_
 _symmetry_equiv_pos_site_id
 _symmetry_equiv_pos_as_xyz
  1  'x, y, z'
loop_
 _atom_site_type_symbol
 _atom_site_label
 _atom_site_symmetry_multiplicity
 _atom_site_fract_x
 _atom_site_fract_y
 _atom_site_fract_z
 _atom_site_occupancy
  Gd  Gd0  1  0.62355465  0.25000000  0.86350291  1
  Gd  Gd1  1  0.37644535  0.75000000  0.13649709  1
  Gd  Gd2  1  0.07754174  0.25000000  0.06912679  1
  Gd  Gd3  1  0.92245826  0.75000000  0.93087321  1
  V  V4  1  0.37353579  0.49113334  0.61377284  1
  V  V5  1  0.62646421  0.99113334  0.38622716  1
  V  V6  1  0.62646421  0.50886666  0.38622716  1
  V  V7  1  0.37353579  0.00886666  0.61377284  1
  Se  Se8  1  0.96198964  0.75000000  0.64917292  1
  Se  Se9  1  0.03801036  0.25000000  0.35082708  1
  Se  Se10  1  0.54930622  0.25000000  0.13816766  1
  Se  Se11  1  0.45069378  0.75000000  0.86183234  1
  Se  Se12  1  0.79315774  0.25000000  0.59268217  1
  Se  Se13  1  0.20684226  0.75000000  0.40731783  1
  Se  Se14  1  0.10683746  0.25000000  0.83963747  1
  Se  Se15  1  0.89316254  0.75000000  0.16036253  1
  O  O16  1  0.01807960  0.75000000  0.77053362  1
  O  O17  1  0.98192040  0.25000000  0.22946638  1
  O  O18  1  0.09396117  0.55483848  0.60537461  1
  O  O19  1  0.90603883  0.05483848  0.39462539  1
  O  O20  1  0.90603883  0.44516152  0.39462539  1
  O  O21  1  0.09396117  0.94516152  0.60537461  1
  O  O22  1  0.70923336  0.25000000  0.04099590  1
  O  O23  1  0.29076664  0.75000000  0.95900410  1
  O  O24  1  0.37906837  0.42546007  0.10770324  1
  O  O25  1  0.62093163  0.92546007  0.89229676  1
  O  O26  1  0.62093163  0.57453993  0.89229676  1
  O  O27  1  0.37906837  0.07453993  0.10770324  1
  O  O28  1  0.78848581  0.25000000  0.71656700  1
  O  O29  1  0.21151419  0.75000000  0.28343300  1
  O  O30  1  0.63935460  0.44513309  0.56232073  1
  O  O31  1  0.36064540  0.94513309  0.43767927  1
  O  O32  1  0.36064540  0.55486691  0.43767927  1
  O  O33  1  0.63935460  0.05486691  0.56232073  1
  O  O34  1  0.30584039  0.25000000  0.91899941  1
  O  O35  1  0.69415961  0.75000000  0.08100059  1
  O  O36  1  0.97186306  0.42316368  0.90070602  1
  O  O37  1  0.02813694  0.92316368  0.09929398  1
  O  O38  1  0.02813694  0.57683632  0.09929398  1
  O  O39  1  0.97186306  0.07683632  0.90070602  1
  O  O40  1  0.41330216  0.43747114  0.73102777  1
  O  O41  1  0.58669784  0.93747114  0.26897223  1
  O  O42  1  0.58669784  0.56252886  0.26897223  1
  O  O43  1  0.41330216  0.06252886  0.73102777  1
  O  O44  1  0.30158270  0.25000000  0.57190789  1
  O  O45  1  0.69841730  0.75000000  0.42809211  1
  O  O46  1  0.42404905  0.75000000  0.61687371  1
  O  O47  1  0.57595095  0.25000000  0.38312629  1
