# generated using pymatgen
data_HfMnSi2
_symmetry_space_group_name_H-M   'P 1'
_cell_length_a   7.84352770
_cell_length_b   8.97548100
_cell_length_c   9.77736490
_cell_angle_alpha   90.00000000
_cell_angle_beta   90.00000000
_cell_angle_gamma   90.00000000
_symmetry_Int_Tables_number   1
_chemical_formula_structural   HfMnSi2
_chemical_formula_sum   'Hf12 Mn12 Si24'
_cell_volume   688.32095345
_cell_formula_units_Z   12
loop_
 _symmetry_equiv_pos_site_id
 _symmetry_equiv_pos_as_xyz
  1  'x, y, z'
loop_
 _atom_site_type_symbol
 _atom_site_label
 _atom_site_symmetry_multiplicity
 _atom_site_fract_x
 _atom_site_fract_y
 _atom_site_fract_z
 _atom_site_occupancy
  Hf  Hf0  1  0.74517966  0.82560523  0.04855863  1
  Hf  Hf1  1  0.74517966  0.17439477  0.95144137  1
  Hf  Hf2  1  0.25482034  0.67439477  0.54855863  1
  Hf  Hf3  1  0.25482034  0.32560523  0.45144137  1
  Hf  Hf4  1  0.25482034  0.17439477  0.95144137  1
  Hf  Hf5  1  0.25482034  0.82560523  0.04855863  1
  Hf  Hf6  1  0.74517966  0.32560523  0.45144137  1
  Hf  Hf7  1  0.74517966  0.67439477  0.54855863  1
  Hf  Hf8  1  0.50000000  0.83175818  0.32133902  1
  Hf  Hf9  1  0.50000000  0.16824182  0.67866098  1
  Hf  Hf10  1  0.50000000  0.66824182  0.82133902  1
  Hf  Hf11  1  0.50000000  0.33175818  0.17866098  1
  Mn  Mn12  1  0.74936722  0.58363356  0.25323583  1
  Mn  Mn13  1  0.74936722  0.41636644  0.74676417  1
  Mn  Mn14  1  0.25063278  0.91636644  0.75323583  1
  Mn  Mn15  1  0.25063278  0.08363356  0.24676417  1
  Mn  Mn16  1  0.25063278  0.41636644  0.74676417  1
  Mn  Mn17  1  0.25063278  0.58363356  0.25323583  1
  Mn  Mn18  1  0.74936722  0.08363356  0.24676417  1
  Mn  Mn19  1  0.74936722  0.91636644  0.75323583  1
  Mn  Mn20  1  0.74512933  0.00000000  0.50000000  1
  Mn  Mn21  1  0.25487067  0.50000000  -0.00000000  1
  Mn  Mn22  1  0.25487067  0.00000000  0.50000000  1
  Mn  Mn23  1  0.74512933  0.50000000  -0.00000000  1
  Si  Si24  1  0.84998523  0.83428076  0.31921959  1
  Si  Si25  1  0.84998523  0.16571924  0.68078041  1
  Si  Si26  1  0.15001477  0.66571924  0.81921959  1
  Si  Si27  1  0.15001477  0.33428076  0.18078041  1
  Si  Si28  1  0.15001477  0.16571924  0.68078041  1
  Si  Si29  1  0.15001477  0.83428076  0.31921959  1
  Si  Si30  1  0.84998523  0.33428076  0.18078041  1
  Si  Si31  1  0.84998523  0.66571924  0.81921959  1
  Si  Si32  1  0.50000000  0.53830980  0.38041919  1
  Si  Si33  1  0.50000000  0.46169020  0.61958081  1
  Si  Si34  1  0.50000000  0.96169020  0.88041919  1
  Si  Si35  1  0.50000000  0.03830980  0.11958081  1
  Si  Si36  1  -0.00000000  0.53941022  0.37592474  1
  Si  Si37  1  -0.00000000  0.46058978  0.62407526  1
  Si  Si38  1  -0.00000000  0.96058978  0.87592474  1
  Si  Si39  1  -0.00000000  0.03941022  0.12407526  1
  Si  Si40  1  0.50000000  0.62395626  0.10601201  1
  Si  Si41  1  0.50000000  0.37604374  0.89398799  1
  Si  Si42  1  0.50000000  0.87604374  0.60601201  1
  Si  Si43  1  0.50000000  0.12395626  0.39398799  1
  Si  Si44  1  -0.00000000  0.61146457  0.10180205  1
  Si  Si45  1  -0.00000000  0.38853543  0.89819795  1
  Si  Si46  1  -0.00000000  0.88853543  0.60180205  1
  Si  Si47  1  -0.00000000  0.11146457  0.39819795  1
