# generated using pymatgen
data_Cs3LaN18
_symmetry_space_group_name_H-M   'P 1'
_cell_length_a   9.51863812
_cell_length_b   9.75493686
_cell_length_c   10.17792849
_cell_angle_alpha   97.75669329
_cell_angle_beta   110.20065719
_cell_angle_gamma   102.46177384
_symmetry_Int_Tables_number   1
_chemical_formula_structural   Cs3LaN18
_chemical_formula_sum   'Cs6 La2 N36'
_cell_volume   843.09991835
_cell_formula_units_Z   2
loop_
 _symmetry_equiv_pos_site_id
 _symmetry_equiv_pos_as_xyz
  1  'x, y, z'
loop_
 _atom_site_type_symbol
 _atom_site_label
 _atom_site_symmetry_multiplicity
 _atom_site_fract_x
 _atom_site_fract_y
 _atom_site_fract_z
 _atom_site_occupancy
  Cs  Cs0  1  0.72913122  0.91170606  0.86340821  1
  Cs  Cs1  1  0.27086446  0.08828518  0.13658493  1
  Cs  Cs2  1  0.77258547  0.53065869  0.11491721  1
  Cs  Cs3  1  0.22741395  0.46934266  0.88508542  1
  Cs  Cs4  1  0.80919934  0.08977704  0.33152242  1
  Cs  Cs5  1  0.19079743  0.91021974  0.66848054  1
  La  La6  1  0.68035192  0.38729797  0.62271347  1
  La  La7  1  0.31964559  0.61270033  0.37728293  1
  N  N8  1  0.52416523  0.11198267  0.46707497  1
  N  N9  1  0.47583420  0.88801819  0.53292351  1
  N  N10  1  0.49999966  -0.00000036  0.49999965  1
  N  N11  1  0.93997008  0.51311305  0.58355482  1
  N  N12  1  0.06002880  0.48688718  0.41644447  1
  N  N13  1  0.00000060  0.50000062  0.49999901  1
  N  N14  1  0.63051221  0.63234163  0.53445375  1
  N  N15  1  0.36948685  0.36765674  0.46554435  1
  N  N16  1  0.72255250  0.71706171  0.50682507  1
  N  N17  1  0.27745023  0.28294042  0.49317360  1
  N  N18  1  0.81063978  0.79935879  0.47853642  1
  N  N19  1  0.18936234  0.20064248  0.52146572  1
  N  N20  1  0.86623781  0.22965762  0.66774344  1
  N  N21  1  0.13375885  0.77033958  0.33225668  1
  N  N22  1  0.94686971  0.17133276  0.74424464  1
  N  N23  1  0.05313060  0.82866503  0.25575634  1
  N  N24  1  0.02931520  0.11485845  0.81994421  1
  N  N25  1  0.97068533  0.88514245  0.18005552  1
  N  N26  1  0.88326402  0.56912135  0.85547326  1
  N  N27  1  0.11674215  0.43088731  0.14452813  1
  N  N28  1  0.98632319  0.67570644  0.87904219  1
  N  N29  1  0.01368681  0.32430319  0.12096098  1
  N  N30  1  0.08909646  0.77949233  0.90294133  1
  N  N31  1  0.91091302  0.22051486  0.09706287  1
  N  N32  1  0.54093487  0.52803374  0.78587258  1
  N  N33  1  0.45906414  0.47196332  0.21412796  1
  N  N34  1  0.45502365  0.59095047  0.72441634  1
  N  N35  1  0.54497367  0.40904737  0.27558291  1
  N  N36  1  0.36718266  0.65230872  0.66243791  1
  N  N37  1  0.63281758  0.34768908  0.33756216  1
  N  N38  1  0.60614307  0.23597454  0.78669750  1
  N  N39  1  0.39385316  0.76402511  0.21330154  1
  N  N40  1  0.53360845  0.21624434  0.86051966  1
  N  N41  1  0.46638782  0.78375381  0.13948092  1
  N  N42  1  0.46260558  0.19407096  0.93424054  1
  N  N43  1  0.53739033  0.80592639  0.06575995  1
