# generated using pymatgen
data_BPb2O3F
_symmetry_space_group_name_H-M   'P 1'
_cell_length_a   7.41202121
_cell_length_b   7.41199181
_cell_length_c   14.85042978
_cell_angle_alpha   90.00000000
_cell_angle_beta   90.00000000
_cell_angle_gamma   119.99925675
_symmetry_Int_Tables_number   1
_chemical_formula_structural   BPb2O3F
_chemical_formula_sum   'B6 Pb12 O18 F6'
_cell_volume   706.55258766
_cell_formula_units_Z   6
loop_
 _symmetry_equiv_pos_site_id
 _symmetry_equiv_pos_as_xyz
  1  'x, y, z'
loop_
 _atom_site_type_symbol
 _atom_site_label
 _atom_site_symmetry_multiplicity
 _atom_site_fract_x
 _atom_site_fract_y
 _atom_site_fract_z
 _atom_site_occupancy
  B  B0  1  0.36569763  0.35897581  0.25000000  1
  B  B1  1  0.64102300  0.00672935  0.25000000  1
  B  B2  1  0.99326637  0.63428792  0.25000000  1
  B  B3  1  0.63430237  0.64102419  0.75000000  1
  B  B4  1  0.35897700  0.99327065  0.75000000  1
  B  B5  1  0.00673363  0.36571208  0.75000000  1
  Pb  Pb6  1  0.32468601  0.01078280  0.10672671  1
  Pb  Pb7  1  0.98921067  0.31390223  0.10672698  1
  Pb  Pb8  1  0.68608858  0.67530681  0.10672622  1
  Pb  Pb9  1  0.67531399  0.98921720  0.60672671  1
  Pb  Pb10  1  0.01078933  0.68609777  0.60672698  1
  Pb  Pb11  1  0.31391142  0.32469319  0.60672622  1
  Pb  Pb12  1  0.67531399  0.98921720  0.89327329  1
  Pb  Pb13  1  0.01078933  0.68609777  0.89327302  1
  Pb  Pb14  1  0.31391142  0.32469319  0.89327378  1
  Pb  Pb15  1  0.32468601  0.01078280  0.39327329  1
  Pb  Pb16  1  0.98921067  0.31390223  0.39327302  1
  Pb  Pb17  1  0.68608858  0.67530681  0.39327378  1
  O  O18  1  0.54947266  0.54910455  0.25000000  1
  O  O19  1  0.45088562  0.00036931  0.25000000  1
  O  O20  1  0.99962904  0.45051527  0.25000000  1
  O  O21  1  0.45052734  0.45089545  0.75000000  1
  O  O22  1  0.54911438  0.99963069  0.75000000  1
  O  O23  1  0.00037096  0.54948473  0.75000000  1
  O  O24  1  0.27703898  0.26993492  0.16756280  1
  O  O25  1  0.73006357  0.00711361  0.16756291  1
  O  O26  1  0.99288102  0.72294380  0.16756202  1
  O  O27  1  0.72296102  0.73006508  0.66756280  1
  O  O28  1  0.26993643  0.99288639  0.66756291  1
  O  O29  1  0.00711898  0.27705620  0.66756202  1
  O  O30  1  0.72296102  0.73006508  0.83243720  1
  O  O31  1  0.26993643  0.99288639  0.83243709  1
  O  O32  1  0.00711898  0.27705620  0.83243798  1
  O  O33  1  0.27703898  0.26993492  0.33243720  1
  O  O34  1  0.73006357  0.00711361  0.33243709  1
  O  O35  1  0.99288102  0.72294380  0.33243798  1
  F  F36  1  0.66663054  0.33331489  0.05932449  1
  F  F37  1  0.33336946  0.66668511  0.55932449  1
  F  F38  1  0.33336946  0.66668511  0.94067551  1
  F  F39  1  0.66663054  0.33331489  0.44067551  1
  F  F40  1  0.00000000  0.00000000  0.00000000  1
  F  F41  1  0.00000000  0.00000000  0.50000000  1
