# generated using pymatgen
data_Li9Cr3(WO4)7
_symmetry_space_group_name_H-M   'P 1'
_cell_length_a   8.49995154
_cell_length_b   8.49995154
_cell_length_c   8.49995154
_cell_angle_alpha   89.62176602
_cell_angle_beta   90.37823398
_cell_angle_gamma   90.37823398
_symmetry_Int_Tables_number   1
_chemical_formula_structural   Li9Cr3(WO4)7
_chemical_formula_sum   'Li9 Cr3 W7 O28'
_cell_volume   614.07452897
_cell_formula_units_Z   1
loop_
 _symmetry_equiv_pos_site_id
 _symmetry_equiv_pos_as_xyz
  1  'x, y, z'
loop_
 _atom_site_type_symbol
 _atom_site_label
 _atom_site_symmetry_multiplicity
 _atom_site_fract_x
 _atom_site_fract_y
 _atom_site_fract_z
 _atom_site_occupancy
  Li  Li0  1  0.09251206  0.34884783  0.64454755  1
  Li  Li1  1  0.09251206  0.64454755  0.34884783  1
  Li  Li2  1  0.35545245  0.34884783  0.90748794  1
  Li  Li3  1  0.35545245  0.90748794  0.34884783  1
  Li  Li4  1  0.64146376  0.09329666  0.35853624  1
  Li  Li5  1  0.64146376  0.35853624  0.09329666  1
  Li  Li6  1  0.65115217  0.64454755  0.90748794  1
  Li  Li7  1  0.65115217  0.90748794  0.64454755  1
  Li  Li8  1  0.90670334  0.35853624  0.35853624  1
  Cr  Cr9  1  0.37449808  0.10585583  0.62550192  1
  Cr  Cr10  1  0.37449808  0.62550192  0.10585583  1
  Cr  Cr11  1  0.89414417  0.62550192  0.62550192  1
  W  W12  1  0.35183400  0.36156766  0.36156766  1
  W  W13  1  0.35739603  0.64260397  0.64260397  1
  W  W14  1  0.63843234  0.36156766  0.64816600  1
  W  W15  1  0.63843234  0.64816600  0.36156766  1
  W  W16  1  0.00173998  0.99826002  0.49906016  1
  W  W17  1  0.00173998  0.49906016  0.99826002  1
  W  W18  1  0.50093984  0.99826002  0.99826002  1
  O  O19  1  0.14082696  0.38429552  0.38429552  1
  O  O20  1  0.14309482  0.61970195  0.61970195  1
  O  O21  1  0.13368157  0.11752609  0.62235920  1
  O  O22  1  0.13368157  0.62235920  0.11752609  1
  O  O23  1  0.12023891  0.37347859  0.87976109  1
  O  O24  1  0.12023891  0.87976109  0.37347859  1
  O  O25  1  0.37764080  0.11752609  0.86631843  1
  O  O26  1  0.37764080  0.86631843  0.11752609  1
  O  O27  1  0.38196909  0.38607726  0.61803091  1
  O  O28  1  0.38196909  0.61803091  0.38607726  1
  O  O29  1  0.38072692  0.13603776  0.39268952  1
  O  O30  1  0.38072692  0.39268952  0.13603776  1
  O  O31  1  0.38029805  0.61970195  0.85690518  1
  O  O32  1  0.38029805  0.85690518  0.61970195  1
  O  O33  1  0.60731048  0.13603776  0.61927308  1
  O  O34  1  0.60731048  0.61927308  0.13603776  1
  O  O35  1  0.61570448  0.38429552  0.85917304  1
  O  O36  1  0.61570448  0.85917304  0.38429552  1
  O  O37  1  0.60003755  0.39996245  0.39996245  1
  O  O38  1  0.61392274  0.61803091  0.61803091  1
  O  O39  1  0.61496855  0.12445249  0.12445249  1
  O  O40  1  0.62652141  0.87976109  0.87976109  1
  O  O41  1  0.87554751  0.12445249  0.38503145  1
  O  O42  1  0.87554751  0.38503145  0.12445249  1
  O  O43  1  0.88247391  0.62235920  0.86631843  1
  O  O44  1  0.88247391  0.86631843  0.62235920  1
  O  O45  1  0.86396224  0.39268952  0.61927308  1
  O  O46  1  0.86396224  0.61927308  0.39268952  1
