# generated using pymatgen
data_Tb2Re3Si5
_symmetry_space_group_name_H-M   'P 1'
_cell_length_a   5.57484136
_cell_length_b   10.99121831
_cell_length_c   10.99121831
_cell_angle_alpha   90.00000000
_cell_angle_beta   90.00000000
_cell_angle_gamma   90.00000000
_symmetry_Int_Tables_number   1
_chemical_formula_structural   Tb2Re3Si5
_chemical_formula_sum   'Tb8 Re12 Si20'
_cell_volume   673.47919085
_cell_formula_units_Z   4
loop_
 _symmetry_equiv_pos_site_id
 _symmetry_equiv_pos_as_xyz
  1  'x, y, z'
loop_
 _atom_site_type_symbol
 _atom_site_label
 _atom_site_symmetry_multiplicity
 _atom_site_fract_x
 _atom_site_fract_y
 _atom_site_fract_z
 _atom_site_occupancy
  Tb  Tb0  1  0.50000000  0.73767411  0.57689321  1
  Tb  Tb1  1  0.50000000  0.26232589  0.42310679  1
  Tb  Tb2  1  -0.00000000  0.76232589  0.07689321  1
  Tb  Tb3  1  -0.00000000  0.23767411  0.92310679  1
  Tb  Tb4  1  0.50000000  0.57689321  0.26232589  1
  Tb  Tb5  1  0.50000000  0.42310679  0.73767411  1
  Tb  Tb6  1  -0.00000000  0.07689321  0.23767411  1
  Tb  Tb7  1  -0.00000000  0.92310679  0.76232589  1
  Re  Re8  1  0.50000000  0.85305436  0.87558327  1
  Re  Re9  1  0.50000000  0.14694564  0.12441673  1
  Re  Re10  1  -0.00000000  0.64694564  0.37558327  1
  Re  Re11  1  -0.00000000  0.35305436  0.62441673  1
  Re  Re12  1  0.50000000  0.87558327  0.14694564  1
  Re  Re13  1  0.50000000  0.12441673  0.85305436  1
  Re  Re14  1  -0.00000000  0.37558327  0.35305436  1
  Re  Re15  1  -0.00000000  0.62441673  0.64694564  1
  Re  Re16  1  0.25000000  -0.00000000  0.50000000  1
  Re  Re17  1  0.75000000  0.50000000  -0.00000000  1
  Re  Re18  1  0.25000000  0.50000000  -0.00000000  1
  Re  Re19  1  0.75000000  -0.00000000  0.50000000  1
  Si  Si20  1  0.25000000  0.17298111  0.67298111  1
  Si  Si21  1  0.25000000  0.82701889  0.32701889  1
  Si  Si22  1  0.75000000  0.32701889  0.17298111  1
  Si  Si23  1  0.75000000  0.67298111  0.82701889  1
  Si  Si24  1  0.25000000  0.67298111  0.82701889  1
  Si  Si25  1  0.25000000  0.32701889  0.17298111  1
  Si  Si26  1  0.75000000  0.17298111  0.67298111  1
  Si  Si27  1  0.75000000  0.82701889  0.32701889  1
  Si  Si28  1  0.25340016  0.50000000  0.50000000  1
  Si  Si29  1  0.75340016  -0.00000000  -0.00000000  1
  Si  Si30  1  0.74659984  0.50000000  0.50000000  1
  Si  Si31  1  0.24659984  -0.00000000  -0.00000000  1
  Si  Si32  1  0.50000000  0.97329953  0.68496219  1
  Si  Si33  1  0.50000000  0.02670047  0.31503781  1
  Si  Si34  1  -0.00000000  0.52670047  0.18496219  1
  Si  Si35  1  -0.00000000  0.47329953  0.81503781  1
  Si  Si36  1  0.50000000  0.68496219  0.02670047  1
  Si  Si37  1  0.50000000  0.31503781  0.97329953  1
  Si  Si38  1  -0.00000000  0.18496219  0.47329953  1
  Si  Si39  1  -0.00000000  0.81503781  0.52670047  1
