# generated using pymatgen
data_Sm2Ge(BO4)2
_symmetry_space_group_name_H-M   'P 1'
_cell_length_a   4.48118972
_cell_length_b   9.47848459
_cell_length_c   13.71854267
_cell_angle_alpha   90.00000000
_cell_angle_beta   90.00000000
_cell_angle_gamma   90.00000000
_symmetry_Int_Tables_number   1
_chemical_formula_structural   Sm2Ge(BO4)2
_chemical_formula_sum   'Sm8 Ge4 B8 O32'
_cell_volume   582.69355940
_cell_formula_units_Z   4
loop_
 _symmetry_equiv_pos_site_id
 _symmetry_equiv_pos_as_xyz
  1  'x, y, z'
loop_
 _atom_site_type_symbol
 _atom_site_label
 _atom_site_symmetry_multiplicity
 _atom_site_fract_x
 _atom_site_fract_y
 _atom_site_fract_z
 _atom_site_occupancy
  Sm  Sm0  1  0.45931669  0.52553002  0.64025377  1
  Sm  Sm1  1  0.04068331  0.02553002  0.85974623  1
  Sm  Sm2  1  0.04068331  0.47446998  0.14025377  1
  Sm  Sm3  1  0.45931669  0.97446998  0.35974623  1
  Sm  Sm4  1  0.54068331  0.47446998  0.35974623  1
  Sm  Sm5  1  0.95931669  0.97446998  0.14025377  1
  Sm  Sm6  1  0.95931669  0.52553002  0.85974623  1
  Sm  Sm7  1  0.54068331  0.02553002  0.64025377  1
  Ge  Ge8  1  0.92349299  0.75000000  0.50000000  1
  Ge  Ge9  1  0.57650701  0.25000000  0.00000000  1
  Ge  Ge10  1  0.07650701  0.25000000  0.50000000  1
  Ge  Ge11  1  0.42349299  0.75000000  0.00000000  1
  B  B12  1  0.53134151  0.70386057  0.20050318  1
  B  B13  1  0.96865849  0.20386057  0.29949682  1
  B  B14  1  0.96865849  0.29613943  0.70050318  1
  B  B15  1  0.53134151  0.79613943  0.79949682  1
  B  B16  1  0.46865849  0.29613943  0.79949682  1
  B  B17  1  0.03134151  0.79613943  0.70050318  1
  B  B18  1  0.03134151  0.70386057  0.29949682  1
  B  B19  1  0.46865849  0.20386057  0.20050318  1
  O  O20  1  0.53692719  0.55178737  0.19270293  1
  O  O21  1  0.96307281  0.05178737  0.30729707  1
  O  O22  1  0.96307281  0.44821263  0.69270293  1
  O  O23  1  0.53692719  0.94821263  0.80729707  1
  O  O24  1  0.46307281  0.44821263  0.80729707  1
  O  O25  1  0.03692719  0.94821263  0.69270293  1
  O  O26  1  0.03692719  0.55178737  0.30729707  1
  O  O27  1  0.46307281  0.05178737  0.19270293  1
  O  O28  1  0.65462749  0.76722333  0.10691884  1
  O  O29  1  0.84537251  0.26722333  0.39308116  1
  O  O30  1  0.84537251  0.23277667  0.60691884  1
  O  O31  1  0.65462749  0.73277667  0.89308116  1
  O  O32  1  0.34537251  0.23277667  0.89308116  1
  O  O33  1  0.15462749  0.73277667  0.60691884  1
  O  O34  1  0.15462749  0.76722333  0.39308116  1
  O  O35  1  0.34537251  0.26722333  0.10691884  1
  O  O36  1  0.22184183  0.75994283  0.21752846  1
  O  O37  1  0.27815817  0.25994283  0.28247154  1
  O  O38  1  0.27815817  0.24005717  0.71752846  1
  O  O39  1  0.22184183  0.74005717  0.78247154  1
  O  O40  1  0.77815817  0.24005717  0.78247154  1
  O  O41  1  0.72184183  0.74005717  0.71752846  1
  O  O42  1  0.72184183  0.75994283  0.28247154  1
  O  O43  1  0.77815817  0.25994283  0.21752846  1
  O  O44  1  0.70384915  0.59873132  0.49563572  1
  O  O45  1  0.79615085  0.09873132  0.00436428  1
  O  O46  1  0.79615085  0.40126868  0.99563572  1
  O  O47  1  0.70384915  0.90126868  0.50436428  1
  O  O48  1  0.29615085  0.40126868  0.50436428  1
  O  O49  1  0.20384915  0.90126868  0.99563572  1
  O  O50  1  0.20384915  0.59873132  0.00436428  1
  O  O51  1  0.29615085  0.09873132  0.49563572  1
