# generated using pymatgen
data_LiBH7N
_symmetry_space_group_name_H-M   'P 1'
_cell_length_a   4.51136201
_cell_length_b   5.99843013
_cell_length_c   14.70555185
_cell_angle_alpha   90.00000000
_cell_angle_beta   90.00000000
_cell_angle_gamma   90.00000000
_symmetry_Int_Tables_number   1
_chemical_formula_structural   LiBH7N
_chemical_formula_sum   'Li4 B4 H28 N4'
_cell_volume   397.94825929
_cell_formula_units_Z   4
loop_
 _symmetry_equiv_pos_site_id
 _symmetry_equiv_pos_as_xyz
  1  'x, y, z'
loop_
 _atom_site_type_symbol
 _atom_site_label
 _atom_site_symmetry_multiplicity
 _atom_site_fract_x
 _atom_site_fract_y
 _atom_site_fract_z
 _atom_site_occupancy
  Li  Li0  1  0.25000000  0.62017234  0.07282124  1
  Li  Li1  1  0.25000000  0.12017234  0.42717876  1
  Li  Li2  1  0.75000000  0.37982766  0.92717876  1
  Li  Li3  1  0.75000000  0.87982766  0.57282124  1
  B  B4  1  0.25000000  0.58065885  0.90255314  1
  B  B5  1  0.25000000  0.08065885  0.59744686  1
  B  B6  1  0.75000000  0.41934115  0.09744686  1
  B  B7  1  0.75000000  0.91934115  0.40255314  1
  H  H8  1  0.25000000  0.89432856  0.21190823  1
  H  H9  1  0.25000000  0.39432856  0.28809177  1
  H  H10  1  0.75000000  0.10567144  0.78809177  1
  H  H11  1  0.75000000  0.60567144  0.71190823  1
  H  H12  1  0.42929412  0.01959882  0.13010860  1
  H  H13  1  0.07070588  0.51959882  0.36989140  1
  H  H14  1  0.92929412  0.98040118  0.86989140  1
  H  H15  1  0.57070588  0.48040118  0.63010860  1
  H  H16  1  0.57070588  0.98040118  0.86989140  1
  H  H17  1  0.92929412  0.48040118  0.63010860  1
  H  H18  1  0.07070588  0.01959882  0.13010860  1
  H  H19  1  0.42929412  0.51959882  0.36989140  1
  H  H20  1  0.25000000  0.75666901  0.94557814  1
  H  H21  1  0.25000000  0.25666901  0.55442186  1
  H  H22  1  0.75000000  0.24333099  0.05442186  1
  H  H23  1  0.75000000  0.74333099  0.44557814  1
  H  H24  1  0.25000000  0.41987933  0.95492368  1
  H  H25  1  0.25000000  0.91987933  0.54507632  1
  H  H26  1  0.75000000  0.58012067  0.04507632  1
  H  H27  1  0.75000000  0.08012067  0.45492368  1
  H  H28  1  0.46945507  0.57314626  0.85355403  1
  H  H29  1  0.03054493  0.07314626  0.64644597  1
  H  H30  1  0.96945507  0.42685374  0.14644597  1
  H  H31  1  0.53054493  0.92685374  0.35355403  1
  H  H32  1  0.53054493  0.42685374  0.14644597  1
  H  H33  1  0.96945507  0.92685374  0.35355403  1
  H  H34  1  0.03054493  0.57314626  0.85355403  1
  H  H35  1  0.46945507  0.07314626  0.64644597  1
  N  N36  1  0.25000000  0.91993477  0.14294948  1
  N  N37  1  0.25000000  0.41993477  0.35705052  1
  N  N38  1  0.75000000  0.08006523  0.85705052  1
  N  N39  1  0.75000000  0.58006523  0.64294948  1
