# generated using pymatgen
data_MnH18(SeN2)3
_symmetry_space_group_name_H-M   'P 1'
_cell_length_a   9.82016301
_cell_length_b   10.41876521
_cell_length_c   12.81541652
_cell_angle_alpha   90.00000000
_cell_angle_beta   90.00000000
_cell_angle_gamma   90.00000000
_symmetry_Int_Tables_number   1
_chemical_formula_structural   MnH18(SeN2)3
_chemical_formula_sum   'Mn4 H72 Se12 N24'
_cell_volume   1311.19617629
_cell_formula_units_Z   4
loop_
 _symmetry_equiv_pos_site_id
 _symmetry_equiv_pos_as_xyz
  1  'x, y, z'
loop_
 _atom_site_type_symbol
 _atom_site_label
 _atom_site_symmetry_multiplicity
 _atom_site_fract_x
 _atom_site_fract_y
 _atom_site_fract_z
 _atom_site_occupancy
  Mn  Mn0  1  0.45234380  0.99835102  0.41417317  1
  Mn  Mn1  1  0.04765620  0.00164898  0.91417317  1
  Mn  Mn2  1  0.95234380  0.50164898  0.58582683  1
  Mn  Mn3  1  0.54765620  0.49835102  0.08582683  1
  H  H4  1  0.24406235  0.89729747  0.27920994  1
  H  H5  1  0.25593765  0.10270253  0.77920994  1
  H  H6  1  0.74406235  0.60270253  0.72079006  1
  H  H7  1  0.75593765  0.39729747  0.22079006  1
  H  H8  1  0.34301070  0.98700223  0.20602206  1
  H  H9  1  0.15698930  0.01299777  0.70602206  1
  H  H10  1  0.84301070  0.51299777  0.79397794  1
  H  H11  1  0.65698930  0.48700223  0.29397794  1
  H  H12  1  0.22577790  0.05274083  0.28162527  1
  H  H13  1  0.27422210  0.94725917  0.78162527  1
  H  H14  1  0.72577790  0.44725917  0.71837473  1
  H  H15  1  0.77422210  0.55274083  0.21837473  1
  H  H16  1  0.33372589  0.24527659  0.43799724  1
  H  H17  1  0.16627411  0.75472341  0.93799724  1
  H  H18  1  0.83372589  0.25472341  0.56200276  1
  H  H19  1  0.66627411  0.74527659  0.06200276  1
  H  H20  1  0.34680423  0.18202796  0.55395850  1
  H  H21  1  0.15319577  0.81797204  0.05395850  1
  H  H22  1  0.84680423  0.31797204  0.44604150  1
  H  H23  1  0.65319577  0.68202796  0.94604150  1
  H  H24  1  0.21925738  0.13839904  0.47586063  1
  H  H25  1  0.28074262  0.86160096  0.97586063  1
  H  H26  1  0.71925738  0.36160096  0.52413937  1
  H  H27  1  0.78074262  0.63839904  0.02413937  1
  H  H28  1  0.57695462  0.14453409  0.25325764  1
  H  H29  1  0.92304538  0.85546591  0.75325764  1
  H  H30  1  0.07695462  0.35546591  0.74674236  1
  H  H31  1  0.42304538  0.64453409  0.24674236  1
  H  H32  1  0.69279268  0.12685001  0.34388858  1
  H  H33  1  0.80720732  0.87314999  0.84388858  1
  H  H34  1  0.19279268  0.37314999  0.65611142  1
  H  H35  1  0.30720732  0.62685001  0.15611142  1
  H  H36  1  0.57147167  0.23524070  0.35959376  1
  H  H37  1  0.92852833  0.76475930  0.85959376  1
  H  H38  1  0.07147167  0.26475930  0.64040624  1
  H  H39  1  0.42852833  0.73524070  0.14040624  1
  H  H40  1  0.69831966  0.00855549  0.53927028  1
  H  H41  1  0.80168034  0.99144451  0.03927028  1
  H  H42  1  0.19831966  0.49144451  0.46072972  1
  H  H43  1  0.30168034  0.50855549  0.96072972  1
  H  H44  1  0.57688443  0.94985763  0.61331311  1
  H  H45  1  0.92311557  0.05014237  0.11331311  1
  H  H46  1  0.07688443  0.55014237  0.38668689  1
  H  H47  1  0.42311557  0.44985763  0.88668689  1
  H  H48  1  0.58098170  0.10377396  0.58804233  1
  H  H49  1  0.91901830  0.89622604  0.08804233  1
  H  H50  1  0.08098170  0.39622604  0.41195767  1
  H  H51  1  0.41901830  0.60377396  0.91195767  1
  H  H52  1  0.58762007  0.85615241  0.25691373  1
  H  H53  1  0.91237993  0.14384759  0.75691373  1
  H  H54  1  0.08762007  0.64384759  0.74308627  1
  H  H55  1  0.41237993  0.35615241  0.24308627  1
  H  H56  1  0.57792916  0.75789647  0.35921213  1
  H  H57  1  0.92207084  0.24210353  0.85921213  1
  H  H58  1  0.07792916  0.74210353  0.64078787  1
  H  H59  1  0.42207084  0.25789647  0.14078787  1
  H  H60  1  0.69260636  0.87471346  0.35495559  1
  H  H61  1  0.80739364  0.12528654  0.85495559  1
  H  H62  1  0.19260636  0.62528654  0.64504441  1
  H  H63  1  0.30739364  0.37471346  0.14504441  1
  H  H64  1  0.36380777  0.84282249  0.58056312  1
  H  H65  1  0.13619223  0.15717751  0.08056312  1
  H  H66  1  0.86380777  0.65717751  0.41943688  1
  H  H67  1  0.63619223  0.34282249  0.91943688  1
  H  H68  1  0.34306508  0.75657989  0.47435506  1
  H  H69  1  0.15693492  0.24342011  0.97435506  1
  H  H70  1  0.84306508  0.74342011  0.52564494  1
  H  H71  1  0.65693492  0.25657989  0.02564494  1
  H  H72  1  0.22998460  0.87014829  0.50568000  1
  H  H73  1  0.27001540  0.12985171  0.00568000  1
  H  H74  1  0.72998460  0.62985171  0.49432000  1
  H  H75  1  0.77001540  0.37014829  0.99432000  1
  Se  Se76  1  0.51347475  0.81060661  0.79230321  1
  Se  Se77  1  0.98652525  0.18939339  0.29230321  1
  Se  Se78  1  0.01347475  0.68939339  0.20769679  1
  Se  Se79  1  0.48652525  0.31060661  0.70769679  1
  Se  Se80  1  0.55965279  0.00968897  0.87773569  1
  Se  Se81  1  0.94034721  0.99031103  0.37773569  1
  Se  Se82  1  0.05965279  0.49031103  0.12226431  1
  Se  Se83  1  0.44034721  0.50968897  0.62226431  1
  Se  Se84  1  0.52021719  0.99730439  0.06308386  1
  Se  Se85  1  0.97978281  0.00269561  0.56308386  1
  Se  Se86  1  0.02021719  0.50269561  0.93691614  1
  Se  Se87  1  0.47978281  0.49730439  0.43691614  1
  N  N88  1  0.29895147  0.98109561  0.27883500  1
  N  N89  1  0.20104853  0.01890439  0.77883500  1
  N  N90  1  0.79895147  0.51890439  0.72116500  1
  N  N91  1  0.70104853  0.48109561  0.22116500  1
  N  N92  1  0.32123776  0.16055578  0.47784799  1
  N  N93  1  0.17876224  0.83944422  0.97784799  1
  N  N94  1  0.82123776  0.33944422  0.52215201  1
  N  N95  1  0.67876224  0.66055578  0.02215201  1
  N  N96  1  0.59047082  0.14429525  0.33257593  1
  N  N97  1  0.90952918  0.85570475  0.83257593  1
  N  N98  1  0.09047082  0.35570475  0.66742407  1
  N  N99  1  0.40952918  0.64429525  0.16742407  1
  N  N100  1  0.59556681  0.01498424  0.55433616  1
  N  N101  1  0.90443319  0.98501576  0.05433616  1
  N  N102  1  0.09556681  0.48501576  0.44566384  1
  N  N103  1  0.40443319  0.51498424  0.94566384  1
  N  N104  1  0.59363167  0.85150613  0.33687276  1
  N  N105  1  0.90636833  0.14849387  0.83687276  1
  N  N106  1  0.09363167  0.64849387  0.66312724  1
  N  N107  1  0.40636833  0.35150613  0.16312724  1
  N  N108  1  0.33193194  0.84745354  0.50419381  1
  N  N109  1  0.16806806  0.15254646  0.00419381  1
  N  N110  1  0.83193194  0.65254646  0.49580619  1
  N  N111  1  0.66806806  0.34745354  0.99580619  1
