# generated using pymatgen
data_YCo3P2
_symmetry_space_group_name_H-M   'P 1'
_cell_length_a   3.69087481
_cell_length_b   10.52099963
_cell_length_c   12.15345263
_cell_angle_alpha   90.00000000
_cell_angle_beta   90.00000000
_cell_angle_gamma   90.00000000
_symmetry_Int_Tables_number   1
_chemical_formula_structural   YCo3P2
_chemical_formula_sum   'Y6 Co18 P12'
_cell_volume   471.93913547
_cell_formula_units_Z   6
loop_
 _symmetry_equiv_pos_site_id
 _symmetry_equiv_pos_as_xyz
  1  'x, y, z'
loop_
 _atom_site_type_symbol
 _atom_site_label
 _atom_site_symmetry_multiplicity
 _atom_site_fract_x
 _atom_site_fract_y
 _atom_site_fract_z
 _atom_site_occupancy
  Y  Y0  1  0.75000000  0.25000000  0.47682509  1
  Y  Y1  1  0.25000000  0.75000000  0.52317491  1
  Y  Y2  1  0.25000000  0.93354118  0.79438128  1
  Y  Y3  1  0.25000000  0.56645882  0.79438128  1
  Y  Y4  1  0.75000000  0.06645882  0.20561872  1
  Y  Y5  1  0.75000000  0.43354118  0.20561872  1
  Co  Co6  1  0.25000000  0.25000000  0.84086334  1
  Co  Co7  1  0.75000000  0.75000000  0.15913666  1
  Co  Co8  1  0.25000000  0.25000000  0.29691331  1
  Co  Co9  1  0.75000000  0.75000000  0.70308669  1
  Co  Co10  1  0.75000000  0.25000000  0.01416591  1
  Co  Co11  1  0.25000000  0.75000000  0.98583409  1
  Co  Co12  1  0.25000000  0.41692263  0.00583631  1
  Co  Co13  1  0.25000000  0.08307737  0.00583631  1
  Co  Co14  1  0.75000000  0.58307737  0.99416369  1
  Co  Co15  1  0.75000000  0.91692263  0.99416369  1
  Co  Co16  1  0.25000000  0.45330505  0.56893387  1
  Co  Co17  1  0.25000000  0.04669495  0.56893387  1
  Co  Co18  1  0.75000000  0.54669495  0.43106613  1
  Co  Co19  1  0.75000000  0.95330505  0.43106613  1
  Co  Co20  1  0.25000000  0.87047395  0.29117162  1
  Co  Co21  1  0.25000000  0.62952605  0.29117162  1
  Co  Co22  1  0.75000000  0.12952605  0.70882838  1
  Co  Co23  1  0.75000000  0.37047395  0.70882838  1
  P  P24  1  0.25000000  0.25000000  0.11734220  1
  P  P25  1  0.75000000  0.75000000  0.88265780  1
  P  P26  1  0.25000000  0.25000000  0.65604883  1
  P  P27  1  0.75000000  0.75000000  0.34395117  1
  P  P28  1  0.25000000  0.43996959  0.38388474  1
  P  P29  1  0.25000000  0.06003041  0.38388474  1
  P  P30  1  0.75000000  0.56003041  0.61611526  1
  P  P31  1  0.75000000  0.93996959  0.61611526  1
  P  P32  1  0.25000000  0.90148476  0.10668561  1
  P  P33  1  0.25000000  0.59851524  0.10668561  1
  P  P34  1  0.75000000  0.09851524  0.89331439  1
  P  P35  1  0.75000000  0.40148476  0.89331439  1
