# generated using pymatgen
data_Ba2GaBiSe5
_symmetry_space_group_name_H-M   'P 1'
_cell_length_a   9.29011359
_cell_length_b   9.45125137
_cell_length_c   12.84130098
_cell_angle_alpha   90.00000000
_cell_angle_beta   90.00000000
_cell_angle_gamma   90.00000000
_symmetry_Int_Tables_number   1
_chemical_formula_structural   Ba2GaBiSe5
_chemical_formula_sum   'Ba8 Ga4 Bi4 Se20'
_cell_volume   1127.50730273
_cell_formula_units_Z   4
loop_
 _symmetry_equiv_pos_site_id
 _symmetry_equiv_pos_as_xyz
  1  'x, y, z'
loop_
 _atom_site_type_symbol
 _atom_site_label
 _atom_site_symmetry_multiplicity
 _atom_site_fract_x
 _atom_site_fract_y
 _atom_site_fract_z
 _atom_site_occupancy
  Ba  Ba0  1  0.00751143  0.11911949  0.82453600  1
  Ba  Ba1  1  0.49248857  0.38088051  0.32453600  1
  Ba  Ba2  1  0.50751143  0.88088051  0.17546400  1
  Ba  Ba3  1  0.99248857  0.61911949  0.67546400  1
  Ba  Ba4  1  0.99248857  0.88088051  0.17546400  1
  Ba  Ba5  1  0.50751143  0.61911949  0.67546400  1
  Ba  Ba6  1  0.49248857  0.11911949  0.82453600  1
  Ba  Ba7  1  0.00751143  0.38088051  0.32453600  1
  Ga  Ga8  1  0.25000000  0.33177629  0.59701917  1
  Ga  Ga9  1  0.25000000  0.16822371  0.09701917  1
  Ga  Ga10  1  0.75000000  0.66822371  0.40298083  1
  Ga  Ga11  1  0.75000000  0.83177629  0.90298083  1
  Bi  Bi12  1  0.25000000  0.97122543  0.52224655  1
  Bi  Bi13  1  0.25000000  0.52877457  0.02224655  1
  Bi  Bi14  1  0.75000000  0.02877457  0.47775345  1
  Bi  Bi15  1  0.75000000  0.47122543  0.97775345  1
  Se  Se16  1  0.04157861  0.17812706  0.55938727  1
  Se  Se17  1  0.45842139  0.32187294  0.05938727  1
  Se  Se18  1  0.54157861  0.82187294  0.44061273  1
  Se  Se19  1  0.95842139  0.67812706  0.94061273  1
  Se  Se20  1  0.95842139  0.82187294  0.44061273  1
  Se  Se21  1  0.54157861  0.67812706  0.94061273  1
  Se  Se22  1  0.45842139  0.17812706  0.55938727  1
  Se  Se23  1  0.04157861  0.32187294  0.05938727  1
  Se  Se24  1  0.25000000  0.87569723  0.72191645  1
  Se  Se25  1  0.25000000  0.62430277  0.22191645  1
  Se  Se26  1  0.75000000  0.12430277  0.27808355  1
  Se  Se27  1  0.75000000  0.37569723  0.77808355  1
  Se  Se28  1  0.25000000  0.39035263  0.78146090  1
  Se  Se29  1  0.25000000  0.10964737  0.28146090  1
  Se  Se30  1  0.75000000  0.60964737  0.21853910  1
  Se  Se31  1  0.75000000  0.89035263  0.71853910  1
  Se  Se32  1  0.25000000  0.96214467  0.99133992  1
  Se  Se33  1  0.25000000  0.53785533  0.49133992  1
  Se  Se34  1  0.75000000  0.03785533  0.00866008  1
  Se  Se35  1  0.75000000  0.46214467  0.50866008  1
