# generated using pymatgen
data_H7S2NO8
_symmetry_space_group_name_H-M   'P 1'
_cell_length_a   7.62497844
_cell_length_b   7.80805538
_cell_length_c   13.02201866
_cell_angle_alpha   90.00000000
_cell_angle_beta   90.00000000
_cell_angle_gamma   91.42684079
_symmetry_Int_Tables_number   1
_chemical_formula_structural   H7S2NO8
_chemical_formula_sum   'H28 S8 N4 O32'
_cell_volume   775.04182150
_cell_formula_units_Z   4
loop_
 _symmetry_equiv_pos_site_id
 _symmetry_equiv_pos_as_xyz
  1  'x, y, z'
loop_
 _atom_site_type_symbol
 _atom_site_label
 _atom_site_symmetry_multiplicity
 _atom_site_fract_x
 _atom_site_fract_y
 _atom_site_fract_z
 _atom_site_occupancy
  H  H0  1  0.33503028  0.83343793  0.26005613  1
  H  H1  1  0.66496972  0.66656207  0.76005613  1
  H  H2  1  0.66496972  0.16656207  0.73994387  1
  H  H3  1  0.33503028  0.33343793  0.23994387  1
  H  H4  1  0.03212161  0.30537742  0.67464857  1
  H  H5  1  0.96787839  0.19462258  0.17464857  1
  H  H6  1  0.96787839  0.69462258  0.32535143  1
  H  H7  1  0.03212161  0.80537742  0.82535143  1
  H  H8  1  0.16108975  0.36539218  0.45622745  1
  H  H9  1  0.83891025  0.13460782  0.95622745  1
  H  H10  1  0.83891025  0.63460782  0.54377255  1
  H  H11  1  0.16108975  0.86539218  0.04377255  1
  H  H12  1  0.33874477  0.46494451  0.88602434  1
  H  H13  1  0.66125523  0.03505549  0.38602434  1
  H  H14  1  0.66125523  0.53505549  0.11397566  1
  H  H15  1  0.33874477  0.96494451  0.61397566  1
  H  H16  1  0.15557567  0.34203100  0.90590635  1
  H  H17  1  0.84442433  0.15796900  0.40590635  1
  H  H18  1  0.84442433  0.65796900  0.09409365  1
  H  H19  1  0.15557567  0.84203100  0.59409365  1
  H  H20  1  0.31330698  0.36017837  0.99727277  1
  H  H21  1  0.68669302  0.13982163  0.49727277  1
  H  H22  1  0.68669302  0.63982163  0.00272723  1
  H  H23  1  0.31330698  0.86017837  0.50272723  1
  H  H24  1  0.35216291  0.24951919  0.88828690  1
  H  H25  1  0.64783709  0.25048081  0.38828690  1
  H  H26  1  0.64783709  0.75048081  0.11171310  1
  H  H27  1  0.35216291  0.74951919  0.61171310  1
  S  S28  1  0.20144188  0.62082231  0.18518887  1
  S  S29  1  0.79855812  0.87917769  0.68518887  1
  S  S30  1  0.79855812  0.37917769  0.81481113  1
  S  S31  1  0.20144188  0.12082231  0.31481113  1
  S  S32  1  0.28667081  0.35423001  0.60277015  1
  S  S33  1  0.71332919  0.14576999  0.10277015  1
  S  S34  1  0.71332919  0.64576999  0.39722985  1
  S  S35  1  0.28667081  0.85423001  0.89722985  1
  N  N36  1  0.29014143  0.35373824  0.91915193  1
  N  N37  1  0.70985857  0.14626176  0.41915193  1
  N  N38  1  0.70985857  0.64626176  0.08084807  1
  N  N39  1  0.29014143  0.85373824  0.58084807  1
  O  O40  1  0.08547859  0.70096419  0.10879189  1
  O  O41  1  0.91452141  0.79903581  0.60879189  1
  O  O42  1  0.91452141  0.29903581  0.89120811  1
  O  O43  1  0.08547859  0.20096419  0.39120811  1
  O  O44  1  0.28161323  0.46478002  0.14594853  1
  O  O45  1  0.71838677  0.03521998  0.64594853  1
  O  O46  1  0.71838677  0.53521998  0.85405147  1
  O  O47  1  0.28161323  0.96478002  0.35405147  1
  O  O48  1  0.11390636  0.59176676  0.28426770  1
  O  O49  1  0.88609364  0.90823324  0.78426770  1
  O  O50  1  0.88609364  0.40823324  0.71573230  1
  O  O51  1  0.11390636  0.09176676  0.21573230  1
  O  O52  1  0.36153459  0.74881166  0.20307782  1
  O  O53  1  0.63846541  0.75118834  0.70307782  1
  O  O54  1  0.63846541  0.25118834  0.79692218  1
  O  O55  1  0.36153459  0.24881166  0.29692218  1
  O  O56  1  0.33176927  0.48596981  0.67615006  1
  O  O57  1  0.66823073  0.01403019  0.17615006  1
  O  O58  1  0.66823073  0.51403019  0.32384994  1
  O  O59  1  0.33176927  0.98596981  0.82384994  1
  O  O60  1  0.41990955  0.23866704  0.56870197  1
  O  O61  1  0.58009045  0.26133296  0.06870197  1
  O  O62  1  0.58009045  0.76133296  0.43129803  1
  O  O63  1  0.41990955  0.73866704  0.93129803  1
  O  O64  1  0.13373065  0.23582005  0.64305379  1
  O  O65  1  0.86626935  0.26417995  0.14305379  1
  O  O66  1  0.86626935  0.76417995  0.35694621  1
  O  O67  1  0.13373065  0.73582005  0.85694621  1
  O  O68  1  0.20688915  0.45182330  0.50886100  1
  O  O69  1  0.79311085  0.04817670  0.00886100  1
  O  O70  1  0.79311085  0.54817670  0.49113900  1
  O  O71  1  0.20688915  0.95182330  0.99113900  1
