# generated using pymatgen
data_Fe7Sb10(Br4O9)2
_symmetry_space_group_name_H-M   'P 1'
_cell_length_a   10.12084076
_cell_length_b   10.16782447
_cell_length_c   10.32828020
_cell_angle_alpha   72.63188802
_cell_angle_beta   64.44405379
_cell_angle_gamma   64.83051444
_symmetry_Int_Tables_number   1
_chemical_formula_structural   Fe7Sb10(Br4O9)2
_chemical_formula_sum   'Fe7 Sb10 Br8 O18'
_cell_volume   859.16946190
_cell_formula_units_Z   1
loop_
 _symmetry_equiv_pos_site_id
 _symmetry_equiv_pos_as_xyz
  1  'x, y, z'
loop_
 _atom_site_type_symbol
 _atom_site_label
 _atom_site_symmetry_multiplicity
 _atom_site_fract_x
 _atom_site_fract_y
 _atom_site_fract_z
 _atom_site_occupancy
  Fe  Fe0  1  0.85440516  0.73455761  0.69963669  1
  Fe  Fe1  1  0.14559484  0.26544239  0.30036331  1
  Fe  Fe2  1  0.51700601  0.63830513  0.86822312  1
  Fe  Fe3  1  0.48299399  0.36169487  0.13177688  1
  Fe  Fe4  1  0.15839157  0.53269072  0.40544969  1
  Fe  Fe5  1  0.84160843  0.46730928  0.59455031  1
  Fe  Fe6  1  0.50000000  -0.00000000  0.00000000  1
  Sb  Sb7  1  0.16580902  0.91487583  0.52125526  1
  Sb  Sb8  1  0.83419098  0.08512417  0.47874474  1
  Sb  Sb9  1  0.17094448  0.86026380  0.13368004  1
  Sb  Sb10  1  0.82905552  0.13973620  0.86631996  1
  Sb  Sb11  1  0.48176670  0.67318004  0.23033875  1
  Sb  Sb12  1  0.51823330  0.32681996  0.76966125  1
  Sb  Sb13  1  0.82349878  0.43173405  0.96613390  1
  Sb  Sb14  1  0.17650122  0.56826595  0.03386610  1
  Sb  Sb15  1  0.81345976  0.78836098  0.34802858  1
  Sb  Sb16  1  0.18654024  0.21163902  0.65197142  1
  Br  Br17  1  0.14123735  0.55693281  0.68295284  1
  Br  Br18  1  0.85876265  0.44306719  0.31704716  1
  Br  Br19  1  0.52215595  0.64209911  0.60682270  1
  Br  Br20  1  0.47784405  0.35790089  0.39317730  1
  Br  Br21  1  0.78220988  0.78105085  0.98672110  1
  Br  Br22  1  0.21779012  0.21894915  0.01327890  1
  Br  Br23  1  0.56724458  0.93485525  0.71632890  1
  Br  Br24  1  0.43275542  0.06514475  0.28367110  1
  O  O25  1  0.75969268  0.56222658  0.79506904  1
  O  O26  1  0.24030732  0.43777342  0.20493096  1
  O  O27  1  0.06192050  0.08622330  0.38877599  1
  O  O28  1  0.93807950  0.91377670  0.61122401  1
  O  O29  1  0.90592250  0.65470674  0.49761106  1
  O  O30  1  0.09407750  0.34529326  0.50238894  1
  O  O31  1  0.56708100  0.54745021  0.07484985  1
  O  O32  1  0.43291900  0.45254979  0.92515015  1
  O  O33  1  0.24679023  0.69988216  0.29339359  1
  O  O34  1  0.75320977  0.30011784  0.70660641  1
  O  O35  1  0.59761008  0.15012241  0.90689820  1
  O  O36  1  0.40238992  0.84987759  0.09310180  1
  O  O37  1  0.02259231  0.73037629  0.18756583  1
  O  O38  1  0.97740769  0.26962371  0.81243417  1
  O  O39  1  0.87246923  0.95649675  0.34666257  1
  O  O40  1  0.12753077  0.04350325  0.65333743  1
  O  O41  1  0.28162400  0.72182575  0.98070405  1
  O  O42  1  0.71837600  0.27817425  0.01929595  1
