# generated using pymatgen
data_SF4
_symmetry_space_group_name_H-M   'P 1'
_cell_length_a   7.07868543
_cell_length_b   7.13080459
_cell_length_c   13.67077960
_cell_angle_alpha   90.00000000
_cell_angle_beta   90.00000000
_cell_angle_gamma   90.00000000
_symmetry_Int_Tables_number   1
_chemical_formula_structural   SF4
_chemical_formula_sum   'S8 F32'
_cell_volume   690.05614899
_cell_formula_units_Z   8
loop_
 _symmetry_equiv_pos_site_id
 _symmetry_equiv_pos_as_xyz
  1  'x, y, z'
loop_
 _atom_site_type_symbol
 _atom_site_label
 _atom_site_symmetry_multiplicity
 _atom_site_fract_x
 _atom_site_fract_y
 _atom_site_fract_z
 _atom_site_occupancy
  S  S0  1  0.77012910  0.92449554  0.26403646  1
  S  S1  1  0.72987090  0.07550446  0.76403646  1
  S  S2  1  0.27012910  0.57550446  0.73596354  1
  S  S3  1  0.22987090  0.42449554  0.23596354  1
  S  S4  1  0.77960820  0.54174871  0.52491443  1
  S  S5  1  0.72039180  0.45825129  0.02491443  1
  S  S6  1  0.27960820  0.95825129  0.47508557  1
  S  S7  1  0.22039180  0.04174871  0.97508557  1
  F  F8  1  0.72547697  0.04648882  0.17033325  1
  F  F9  1  0.77452303  0.95351118  0.67033325  1
  F  F10  1  0.22547697  0.45351118  0.82966675  1
  F  F11  1  0.27452303  0.54648882  0.32966675  1
  F  F12  1  0.78759670  0.08349242  0.34414849  1
  F  F13  1  0.71240330  0.91650758  0.84414849  1
  F  F14  1  0.28759670  0.41650758  0.65585151  1
  F  F15  1  0.21240330  0.58349242  0.15585151  1
  F  F16  1  0.00322009  0.95476816  0.24048412  1
  F  F17  1  0.49677991  0.04523184  0.74048412  1
  F  F18  1  0.50322009  0.54523184  0.75951588  1
  F  F19  1  0.99677991  0.45476816  0.25951588  1
  F  F20  1  0.53175116  0.92132401  0.28700402  1
  F  F21  1  0.96824884  0.07867599  0.78700402  1
  F  F22  1  0.03175116  0.57867599  0.71299598  1
  F  F23  1  0.46824884  0.42132401  0.21299598  1
  F  F24  1  0.66554377  0.48668683  0.42995724  1
  F  F25  1  0.83445623  0.51331317  0.92995724  1
  F  F26  1  0.16554377  0.01331317  0.57004276  1
  F  F27  1  0.33445623  0.98668683  0.07004276  1
  F  F28  1  0.98172178  0.46260430  0.49860488  1
  F  F29  1  0.51827822  0.53739570  0.99860488  1
  F  F30  1  0.48172178  0.03739570  0.50139512  1
  F  F31  1  0.01827822  0.96260430  0.00139512  1
  F  F32  1  0.84558747  0.74575376  0.46647503  1
  F  F33  1  0.65441253  0.25424624  0.96647503  1
  F  F34  1  0.34558747  0.75424624  0.53352497  1
  F  F35  1  0.15441253  0.24575376  0.03352497  1
  F  F36  1  0.72743623  0.32845295  0.57173516  1
  F  F37  1  0.77256377  0.67154705  0.07173516  1
  F  F38  1  0.22743623  0.17154705  0.42826484  1
  F  F39  1  0.27256377  0.82845295  0.92826484  1
