# generated using pymatgen
data_V2Co2PbO8
_symmetry_space_group_name_H-M   'P 1'
_cell_length_a   8.58850282
_cell_length_b   9.86571984
_cell_length_c   9.86571984
_cell_angle_alpha   79.07873004
_cell_angle_beta   64.19752507
_cell_angle_gamma   64.19752507
_symmetry_Int_Tables_number   1
_chemical_formula_structural   V2Co2PbO8
_chemical_formula_sum   'V8 Co8 Pb4 O32'
_cell_volume   677.56270237
_cell_formula_units_Z   4
loop_
 _symmetry_equiv_pos_site_id
 _symmetry_equiv_pos_as_xyz
  1  'x, y, z'
loop_
 _atom_site_type_symbol
 _atom_site_label
 _atom_site_symmetry_multiplicity
 _atom_site_fract_x
 _atom_site_fract_y
 _atom_site_fract_z
 _atom_site_occupancy
  V  V0  1  0.96077870  0.31794640  0.15853447  1
  V  V1  1  0.93725957  0.84146553  0.68205360  1
  V  V2  1  0.52872510  0.65853447  0.18205360  1
  V  V3  1  0.02872510  0.18205360  0.65853447  1
  V  V4  1  0.43725957  0.68205360  0.84146553  1
  V  V5  1  0.46077870  0.15853447  0.31794640  1
  V  V6  1  0.36931317  0.34146553  0.81794640  1
  V  V7  1  0.86931317  0.81794640  0.34146553  1
  Co  Co8  1  0.89454637  0.50272767  0.83861398  1
  Co  Co9  1  0.73588802  0.16138602  0.49727233  1
  Co  Co10  1  0.64727404  0.33861398  0.99727233  1
  Co  Co11  1  0.14727404  0.99727233  0.33861398  1
  Co  Co12  1  0.23588802  0.49727233  0.16138602  1
  Co  Co13  1  0.39454637  0.83861398  0.50272767  1
  Co  Co14  1  0.98316035  0.66138602  0.00272767  1
  Co  Co15  1  0.48316035  0.00272767  0.66138602  1
  Pb  Pb16  1  0.73323863  0.50000000  0.50000000  1
  Pb  Pb17  1  0.23323863  0.50000000  0.50000000  1
  Pb  Pb18  1  0.48323863  0.00000000  0.00000000  1
  Pb  Pb19  1  0.98323863  0.00000000  0.00000000  1
  O  O20  1  0.94554789  0.84645448  0.85628553  1
  O  O21  1  0.14828790  0.14371447  0.15354552  1
  O  O22  1  0.04200237  0.35628553  0.65354552  1
  O  O23  1  0.54200237  0.65354552  0.35628553  1
  O  O24  1  0.64828790  0.15354552  0.14371447  1
  O  O25  1  0.44554789  0.85628553  0.84645448  1
  O  O26  1  0.05183342  0.64371447  0.34645448  1
  O  O27  1  0.55183342  0.34645448  0.64371447  1
  O  O28  1  0.65071613  0.83360740  0.48737411  1
  O  O29  1  0.47169765  0.51262589  0.16639260  1
  O  O30  1  0.73432354  0.98737411  0.66639260  1
  O  O31  1  0.23432354  0.66639260  0.98737411  1
  O  O32  1  0.97169765  0.16639260  0.51262589  1
  O  O33  1  0.15071613  0.48737411  0.83360740  1
  O  O34  1  0.38809024  0.01262589  0.33360740  1
  O  O35  1  0.88809024  0.33360740  0.01262589  1
  O  O36  1  0.23468085  0.02579657  0.65720001  1
  O  O37  1  0.41767743  0.34279999  0.97420343  1
  O  O38  1  0.51047742  0.15720001  0.47420343  1
  O  O39  1  0.01047742  0.47420343  0.15720001  1
  O  O40  1  0.91767743  0.97420343  0.34279999  1
  O  O41  1  0.73468085  0.65720001  0.02579657  1
  O  O42  1  0.14188086  0.84279999  0.52579657  1
  O  O43  1  0.64188086  0.52579657  0.84279999  1
  O  O44  1  0.92537587  0.67102176  0.67850734  1
  O  O45  1  0.77490498  0.32149266  0.32897824  1
  O  O46  1  0.84639764  0.17850734  0.82897824  1
  O  O47  1  0.34639764  0.82897824  0.17850734  1
  O  O48  1  0.27490498  0.32897824  0.32149266  1
  O  O49  1  0.42537587  0.67850734  0.67102176  1
  O  O50  1  0.85388321  0.82149266  0.17102176  1
  O  O51  1  0.35388321  0.17102176  0.82149266  1
