# generated using pymatgen
data_Y6Al43Cr4
_symmetry_space_group_name_H-M   'P 1'
_cell_length_a   10.91857581
_cell_length_b   10.91824820
_cell_length_c   17.49225951
_cell_angle_alpha   90.00000000
_cell_angle_beta   90.00000000
_cell_angle_gamma   120.00099622
_symmetry_Int_Tables_number   1
_chemical_formula_structural   Y6Al43Cr4
_chemical_formula_sum   'Y12 Al86 Cr8'
_cell_volume   1805.88936468
_cell_formula_units_Z   2
loop_
 _symmetry_equiv_pos_site_id
 _symmetry_equiv_pos_as_xyz
  1  'x, y, z'
loop_
 _atom_site_type_symbol
 _atom_site_label
 _atom_site_symmetry_multiplicity
 _atom_site_fract_x
 _atom_site_fract_y
 _atom_site_fract_z
 _atom_site_occupancy
  Y  Y0  1  0.52885747  0.00000000  0.59513564  1
  Y  Y1  1  0.47120352  0.47118621  0.59513099  1
  Y  Y2  1  0.00001731  0.52881379  0.59513099  1
  Y  Y3  1  0.47114253  1.00000000  0.40486436  1
  Y  Y4  1  0.52879648  0.52881379  0.40486901  1
  Y  Y5  1  0.99998269  0.47118621  0.40486901  1
  Y  Y6  1  0.47114253  1.00000000  0.09513564  1
  Y  Y7  1  0.52879648  0.52881379  0.09513099  1
  Y  Y8  1  0.99998269  0.47118621  0.09513099  1
  Y  Y9  1  0.52885747  0.00000000  0.90486436  1
  Y  Y10  1  0.47120352  0.47118621  0.90486901  1
  Y  Y11  1  0.00001731  0.52881379  0.90486901  1
  Al  Al12  1  0.15882337  0.39074256  0.66582492  1
  Al  Al13  1  0.23201835  0.84121110  0.66580385  1
  Al  Al14  1  0.60925745  0.76802432  0.66580276  1
  Al  Al15  1  0.76808081  0.60925744  0.66582492  1
  Al  Al16  1  0.39080724  0.15878890  0.66580385  1
  Al  Al17  1  0.84123313  0.23197568  0.66580276  1
  Al  Al18  1  0.84117663  0.60925744  0.33417508  1
  Al  Al19  1  0.76798165  0.15878890  0.33419615  1
  Al  Al20  1  0.39074255  0.23197568  0.33419724  1
  Al  Al21  1  0.23191919  0.39074256  0.33417508  1
  Al  Al22  1  0.60919276  0.84121110  0.33419615  1
  Al  Al23  1  0.15876687  0.76802432  0.33419724  1
  Al  Al24  1  0.84117663  0.60925744  0.16582492  1
  Al  Al25  1  0.76798165  0.15878890  0.16580385  1
  Al  Al26  1  0.39074255  0.23197568  0.16580276  1
  Al  Al27  1  0.23191919  0.39074256  0.16582492  1
  Al  Al28  1  0.60919276  0.84121110  0.16580385  1
  Al  Al29  1  0.15876687  0.76802432  0.16580276  1
  Al  Al30  1  0.15882337  0.39074256  0.83417508  1
  Al  Al31  1  0.23201835  0.84121110  0.83419615  1
  Al  Al32  1  0.60925745  0.76802432  0.83419724  1
  Al  Al33  1  0.76808081  0.60925744  0.83417508  1
  Al  Al34  1  0.39080724  0.15878890  0.83419615  1
  Al  Al35  1  0.84123313  0.23197568  0.83419724  1
  Al  Al36  1  0.15457836  1.00000000  0.11642644  1
  Al  Al37  1  0.84537442  0.84538283  0.11646243  1
  Al  Al38  1  0.99999159  0.15461717  0.11646243  1
  Al  Al39  1  0.84542164  0.00000000  0.88357356  1
  Al  Al40  1  0.15462558  0.15461717  0.88353757  1
  Al  Al41  1  0.00000841  0.84538283  0.88353757  1
  Al  Al42  1  0.84542164  0.00000000  0.61642644  1
  Al  Al43  1  0.15462558  0.15461717  0.61646243  1
  Al  Al44  1  0.00000841  0.84538283  0.61646243  1
  Al  Al45  1  0.15457836  1.00000000  0.38357356  1
  Al  Al46  1  0.84537442  0.84538283  0.38353757  1
  Al  Al47  1  0.99999159  0.15461717  0.38353757  1
  Al  Al48  1  0.24967142  0.00000000  0.53073787  1
  Al  Al49  1  0.75034236  0.75034294  0.53076186  1
  Al  Al50  1  0.99999942  0.24965706  0.53076186  1
  Al  Al51  1  0.75032858  1.00000000  0.46926213  1
  Al  Al52  1  0.24965764  0.24965706  0.46923814  1
  Al  Al53  1  0.00000058  0.75034294  0.46923814  1
  Al  Al54  1  0.75032858  1.00000000  0.03073787  1
  Al  Al55  1  0.24965764  0.24965706  0.03076186  1
  Al  Al56  1  0.00000058  0.75034294  0.03076186  1
  Al  Al57  1  0.24967142  0.00000000  0.96926213  1
  Al  Al58  1  0.75034236  0.75034294  0.96923814  1
  Al  Al59  1  0.99999942  0.24965706  0.96923814  1
  Al  Al60  1  0.14465682  0.59713135  0.75000000  1
  Al  Al61  1  0.45257371  0.85539469  0.75000000  1
  Al  Al62  1  0.40287428  0.54749155  0.75000000  1
  Al  Al63  1  0.54752547  0.40286865  0.75000000  1
  Al  Al64  1  0.59717902  0.14460531  0.75000000  1
  Al  Al65  1  0.85538273  0.45250845  0.75000000  1
  Al  Al66  1  0.85534318  0.40286865  0.25000000  1
  Al  Al67  1  0.54742629  0.14460531  0.25000000  1
  Al  Al68  1  0.59712572  0.45250845  0.25000000  1
  Al  Al69  1  0.45247453  0.59713135  0.25000000  1
  Al  Al70  1  0.40282098  0.85539469  0.25000000  1
  Al  Al71  1  0.14461727  0.54749155  0.25000000  1
  Al  Al72  1  0.24655655  0.49311311  0.50000000  1
  Al  Al73  1  0.24655035  0.75346922  0.50000008  1
  Al  Al74  1  0.50691886  0.75346922  0.49999992  1
  Al  Al75  1  0.75344345  0.50688689  0.50000000  1
  Al  Al76  1  0.49308114  0.24653078  0.50000008  1
  Al  Al77  1  0.75344965  0.24653078  0.49999992  1
  Al  Al78  1  0.75344345  0.50688689  0.00000000  1
  Al  Al79  1  0.75344965  0.24653078  0.00000008  1
  Al  Al80  1  0.49308114  0.24653078  -0.00000008  1
  Al  Al81  1  0.24655655  0.49311311  0.00000000  1
  Al  Al82  1  0.50691886  0.75346922  0.00000008  1
  Al  Al83  1  0.24655035  0.75346922  -0.00000008  1
  Al  Al84  1  0.33339969  0.66671669  0.62757490  1
  Al  Al85  1  0.66668300  0.33328331  0.62757490  1
  Al  Al86  1  0.66660031  0.33328331  0.37242510  1
  Al  Al87  1  0.33331700  0.66671669  0.37242510  1
  Al  Al88  1  0.66660031  0.33328331  0.12757490  1
  Al  Al89  1  0.33331700  0.66671669  0.12757490  1
  Al  Al90  1  0.33339969  0.66671669  0.87242510  1
  Al  Al91  1  0.66668300  0.33328331  0.87242510  1
  Al  Al92  1  0.14486934  0.00000000  0.75000000  1
  Al  Al93  1  0.85522248  0.85504547  0.75000000  1
  Al  Al94  1  0.00017701  0.14495453  0.75000000  1
  Al  Al95  1  0.85513066  1.00000000  0.25000000  1
  Al  Al96  1  0.14477752  0.14495453  0.25000000  1
  Al  Al97  1  -0.00017701  0.85504547  0.25000000  1
  Cr  Cr98  1  0.73043670  1.00000000  0.75000000  1
  Cr  Cr99  1  0.26967221  0.26974530  0.75000000  1
  Cr  Cr100  1  -0.00007309  0.73025470  0.75000000  1
  Cr  Cr101  1  0.26956330  0.00000000  0.25000000  1
  Cr  Cr102  1  0.73032779  0.73025470  0.25000000  1
  Cr  Cr103  1  0.00007309  0.26974530  0.25000000  1
  Cr  Cr104  1  -0.00000000  -0.00000000  0.50000000  1
  Cr  Cr105  1  -0.00000000  -0.00000000  0.00000000  1
