# generated using pymatgen
data_Li2CoBO4
_symmetry_space_group_name_H-M   'P 1'
_cell_length_a   5.00381436
_cell_length_b   5.00381436
_cell_length_c   6.16309674
_cell_angle_alpha   89.38194350
_cell_angle_beta   90.61805650
_cell_angle_gamma   88.87645851
_symmetry_Int_Tables_number   1
_chemical_formula_structural   Li2CoBO4
_chemical_formula_sum   'Li4 Co2 B2 O8'
_cell_volume   154.26461068
_cell_formula_units_Z   2
loop_
 _symmetry_equiv_pos_site_id
 _symmetry_equiv_pos_as_xyz
  1  'x, y, z'
loop_
 _atom_site_type_symbol
 _atom_site_label
 _atom_site_symmetry_multiplicity
 _atom_site_fract_x
 _atom_site_fract_y
 _atom_site_fract_z
 _atom_site_occupancy
  Li  Li0  1  0.32324983  0.67675017  0.71997247  1
  Li  Li1  1  0.17868037  0.17868037  0.50000000  1
  Li  Li2  1  0.82131963  0.82131963  0.50000000  1
  Li  Li3  1  0.67675017  0.32324983  0.28002753  1
  Co  Co4  1  0.19877078  0.19877078  0.00000000  1
  Co  Co5  1  0.80122922  0.80122922  0.00000000  1
  B  B6  1  0.31266401  0.68733599  0.25337211  1
  B  B7  1  0.68733599  0.31266401  0.74662789  1
  O  O8  1  0.19173898  0.80826102  0.03657529  1
  O  O9  1  0.20266857  0.79733143  0.43973005  1
  O  O10  1  0.61287744  0.72609210  0.24136724  1
  O  O11  1  0.27390890  0.38712256  0.24136724  1
  O  O12  1  0.38712256  0.27390890  0.75863276  1
  O  O13  1  0.72609210  0.61287744  0.75863276  1
  O  O14  1  0.79733143  0.20266857  0.56026995  1
  O  O15  1  0.80826102  0.19173898  0.96342471  1
