# generated using pymatgen
data_UH6Br2O5
_symmetry_space_group_name_H-M   'P 1'
_cell_length_a   6.70828319
_cell_length_b   9.93666883
_cell_length_c   12.88819406
_cell_angle_alpha   91.38573147
_cell_angle_beta   90.00000000
_cell_angle_gamma   90.00000000
_symmetry_Int_Tables_number   1
_chemical_formula_structural   UH6Br2O5
_chemical_formula_sum   'U4 H24 Br8 O20'
_cell_volume   858.84984107
_cell_formula_units_Z   4
loop_
 _symmetry_equiv_pos_site_id
 _symmetry_equiv_pos_as_xyz
  1  'x, y, z'
loop_
 _atom_site_type_symbol
 _atom_site_label
 _atom_site_symmetry_multiplicity
 _atom_site_fract_x
 _atom_site_fract_y
 _atom_site_fract_z
 _atom_site_occupancy
  U  U0  1  0.58454955  0.75078906  0.57958342  1
  U  U1  1  0.08454955  0.24921094  0.92041658  1
  U  U2  1  0.41545045  0.24921094  0.42041658  1
  U  U3  1  0.91545045  0.75078906  0.07958342  1
  H  H4  1  0.24793208  0.95682404  0.53153122  1
  H  H5  1  0.74793208  0.04317596  0.96846878  1
  H  H6  1  0.75206792  0.04317596  0.46846878  1
  H  H7  1  0.25206792  0.95682404  0.03153122  1
  H  H8  1  0.21191717  0.91578719  0.64693635  1
  H  H9  1  0.71191717  0.08421281  0.85306365  1
  H  H10  1  0.78808283  0.08421281  0.35306365  1
  H  H11  1  0.28808283  0.91578719  0.14693635  1
  H  H12  1  0.72292271  0.54696380  0.41617131  1
  H  H13  1  0.22292271  0.45303620  0.08382869  1
  H  H14  1  0.27707729  0.45303620  0.58382869  1
  H  H15  1  0.77707729  0.54696380  0.91617131  1
  H  H16  1  0.85160552  0.68060794  0.39204416  1
  H  H17  1  0.35160552  0.31939206  0.10795584  1
  H  H18  1  0.14839448  0.31939206  0.60795584  1
  H  H19  1  0.64839448  0.68060794  0.89204416  1
  H  H20  1  0.49388839  0.74320622  0.34157157  1
  H  H21  1  0.99388839  0.25679378  0.15842843  1
  H  H22  1  0.50611161  0.25679378  0.65842843  1
  H  H23  1  0.00611161  0.74320622  0.84157157  1
  H  H24  1  0.28885472  0.79667313  0.38512757  1
  H  H25  1  0.78885472  0.20332687  0.11487243  1
  H  H26  1  0.71114528  0.20332687  0.61487243  1
  H  H27  1  0.21114528  0.79667313  0.88512757  1
  Br  Br28  1  0.90520289  0.63662477  0.68980463  1
  Br  Br29  1  0.40520289  0.36337523  0.81019537  1
  Br  Br30  1  0.09479711  0.36337523  0.31019537  1
  Br  Br31  1  0.59479711  0.63662477  0.18980463  1
  Br  Br32  1  0.50413016  0.84908936  0.79292333  1
  Br  Br33  1  0.00413016  0.15091064  0.70707667  1
  Br  Br34  1  0.49586984  0.15091064  0.20707667  1
  Br  Br35  1  0.99586984  0.84908936  0.29292333  1
  O  O36  1  0.26420803  0.88218621  0.58025749  1
  O  O37  1  0.76420803  0.11781379  0.91974251  1
  O  O38  1  0.73579197  0.11781379  0.41974251  1
  O  O39  1  0.23579197  0.88218621  0.08025749  1
  O  O40  1  0.43834138  0.60034414  0.59672729  1
  O  O41  1  0.93834138  0.39965586  0.90327271  1
  O  O42  1  0.56165862  0.39965586  0.40327271  1
  O  O43  1  0.06165862  0.60034414  0.09672729  1
  O  O44  1  0.72830853  0.90093395  0.55331719  1
  O  O45  1  0.22830853  0.09906605  0.94668281  1
  O  O46  1  0.27169147  0.09906605  0.44668281  1
  O  O47  1  0.77169147  0.90093395  0.05331719  1
  O  O48  1  0.76909680  0.63522091  0.44449793  1
  O  O49  1  0.26909680  0.36477909  0.05550207  1
  O  O50  1  0.23090320  0.36477909  0.55550207  1
  O  O51  1  0.73090320  0.63522091  0.94449793  1
  O  O52  1  0.42915808  0.78161633  0.40477054  1
  O  O53  1  0.92915808  0.21838367  0.09522946  1
  O  O54  1  0.57084192  0.21838367  0.59522946  1
  O  O55  1  0.07084192  0.78161633  0.90477054  1
