# generated using pymatgen
data_Cs3Ti3Te11
_symmetry_space_group_name_H-M   'P 1'
_cell_length_a   11.13453573
_cell_length_b   15.14097484
_cell_length_c   16.11741485
_cell_angle_alpha   90.00000000
_cell_angle_beta   90.00000000
_cell_angle_gamma   90.51081765
_symmetry_Int_Tables_number   1
_chemical_formula_structural   Cs3Ti3Te11
_chemical_formula_sum   'Cs12 Ti12 Te44'
_cell_volume   2717.09032026
_cell_formula_units_Z   4
loop_
 _symmetry_equiv_pos_site_id
 _symmetry_equiv_pos_as_xyz
  1  'x, y, z'
loop_
 _atom_site_type_symbol
 _atom_site_label
 _atom_site_symmetry_multiplicity
 _atom_site_fract_x
 _atom_site_fract_y
 _atom_site_fract_z
 _atom_site_occupancy
  Cs  Cs0  1  0.72700713  0.43874111  0.62149798  1
  Cs  Cs1  1  0.22700713  0.93874111  0.87850202  1
  Cs  Cs2  1  0.27299287  0.56125889  0.37850202  1
  Cs  Cs3  1  0.77299287  0.06125889  0.12149798  1
  Cs  Cs4  1  0.58269969  0.15075616  0.47158144  1
  Cs  Cs5  1  0.08269969  0.65075616  0.02841856  1
  Cs  Cs6  1  0.41730031  0.84924384  0.52841856  1
  Cs  Cs7  1  0.91730031  0.34924384  0.97158144  1
  Cs  Cs8  1  0.55019218  0.62113417  0.88905677  1
  Cs  Cs9  1  0.05019218  0.12113417  0.61094323  1
  Cs  Cs10  1  0.44980782  0.37886583  0.11094323  1
  Cs  Cs11  1  0.94980782  0.87886583  0.38905677  1
  Ti  Ti12  1  0.52510990  0.17827949  0.79719501  1
  Ti  Ti13  1  0.02510990  0.67827949  0.70280499  1
  Ti  Ti14  1  0.47489010  0.82172051  0.20280499  1
  Ti  Ti15  1  0.97489010  0.32172051  0.29719501  1
  Ti  Ti16  1  0.77599584  0.82130705  0.69019269  1
  Ti  Ti17  1  0.27599584  0.32130705  0.80980731  1
  Ti  Ti18  1  0.22400416  0.17869295  0.30980731  1
  Ti  Ti19  1  0.72400416  0.67869295  0.19019269  1
  Ti  Ti20  1  0.67620585  0.01813810  0.71652302  1
  Ti  Ti21  1  0.17620585  0.51813810  0.78347698  1
  Ti  Ti22  1  0.32379415  0.98186190  0.28347698  1
  Ti  Ti23  1  0.82379415  0.48186190  0.21652302  1
  Te  Te24  1  0.73354997  0.94996479  0.57002866  1
  Te  Te25  1  0.23354997  0.44996479  0.92997134  1
  Te  Te26  1  0.26645003  0.05003521  0.42997134  1
  Te  Te27  1  0.76645003  0.55003521  0.07002866  1
  Te  Te28  1  0.73952842  0.18862776  0.71382909  1
  Te  Te29  1  0.23952842  0.68862776  0.78617091  1
  Te  Te30  1  0.26047158  0.81137224  0.28617091  1
  Te  Te31  1  0.76047158  0.31137224  0.21382909  1
  Te  Te32  1  0.91830282  0.55070113  0.80406355  1
  Te  Te33  1  0.41830282  0.05070113  0.69593645  1
  Te  Te34  1  0.08169718  0.44929887  0.19593645  1
  Te  Te35  1  0.58169718  0.94929887  0.30406355  1
  Te  Te36  1  0.38433761  0.45245477  0.70562789  1
  Te  Te37  1  0.88433761  0.95245477  0.79437211  1
  Te  Te38  1  0.61566239  0.54754523  0.29437211  1
  Te  Te39  1  0.11566239  0.04754523  0.20562789  1
  Te  Te40  1  0.88616794  0.28181411  0.45712007  1
  Te  Te41  1  0.38616794  0.78181411  0.04287993  1
  Te  Te42  1  0.11383206  0.71818589  0.54287993  1
  Te  Te43  1  0.61383206  0.21818589  0.95712007  1
  Te  Te44  1  0.89373059  0.47675680  0.38521950  1
  Te  Te45  1  0.39373059  0.97675680  0.11478050  1
  Te  Te46  1  0.10626941  0.52324320  0.61478050  1
  Te  Te47  1  0.60626941  0.02324320  0.88521950  1
  Te  Te48  1  0.37892980  0.23533260  0.66593236  1
  Te  Te49  1  0.87892980  0.73533260  0.83406764  1
  Te  Te50  1  0.62107020  0.76466740  0.33406764  1
  Te  Te51  1  0.12107020  0.26466740  0.16593236  1
  Te  Te52  1  0.60813728  0.68800742  0.65648899  1
  Te  Te53  1  0.10813728  0.18800742  0.84351101  1
  Te  Te54  1  0.39186272  0.31199258  0.34351101  1
  Te  Te55  1  0.89186272  0.81199258  0.15648899  1
  Te  Te56  1  0.83670299  0.68937605  0.57575494  1
  Te  Te57  1  0.33670299  0.18937605  0.92424506  1
  Te  Te58  1  0.16329701  0.31062395  0.42424506  1
  Te  Te59  1  0.66329701  0.81062395  0.07575494  1
  Te  Te60  1  0.52595155  0.36353809  0.83284359  1
  Te  Te61  1  0.02595155  0.86353809  0.66715641  1
  Te  Te62  1  0.47404845  0.63646191  0.16715641  1
  Te  Te63  1  0.97404845  0.13646191  0.33284359  1
  Te  Te64  1  0.06076373  0.36684082  0.71988791  1
  Te  Te65  1  0.56076373  0.86684082  0.78011209  1
  Te  Te66  1  0.93923627  0.63315918  0.28011209  1
  Te  Te67  1  0.43923627  0.13315918  0.21988791  1
