# generated using pymatgen
data_Ga31Mo6
_symmetry_space_group_name_H-M   'P 1'
_cell_length_a   9.58582029
_cell_length_b   9.58388443
_cell_length_c   14.57935204
_cell_angle_alpha   87.00401265
_cell_angle_beta   80.82977846
_cell_angle_gamma   85.49643489
_symmetry_Int_Tables_number   1
_chemical_formula_structural   Ga31Mo6
_chemical_formula_sum   'Ga62 Mo12'
_cell_volume   1317.11937184
_cell_formula_units_Z   2
loop_
 _symmetry_equiv_pos_site_id
 _symmetry_equiv_pos_as_xyz
  1  'x, y, z'
loop_
 _atom_site_type_symbol
 _atom_site_label
 _atom_site_symmetry_multiplicity
 _atom_site_fract_x
 _atom_site_fract_y
 _atom_site_fract_z
 _atom_site_occupancy
  Ga  Ga0  1  0.52733803  0.56423919  0.66960759  1
  Ga  Ga1  1  0.47266197  0.43576081  0.33039241  1
  Ga  Ga2  1  -0.00000000  -0.00000000  0.00000000  1
  Ga  Ga3  1  -0.00000000  0.50000000  0.50000000  1
  Ga  Ga4  1  0.50000000  -0.00000000  0.50000000  1
  Ga  Ga5  1  0.50000000  0.50000000  0.00000000  1
  Ga  Ga6  1  0.18161095  0.88937863  0.39137593  1
  Ga  Ga7  1  0.81838905  0.11062137  0.60862407  1
  Ga  Ga8  1  0.68838949  0.83950482  0.91619546  1
  Ga  Ga9  1  0.31161051  0.16049518  0.08380454  1
  Ga  Ga10  1  0.46945778  0.92947970  0.32778828  1
  Ga  Ga11  1  0.53054222  0.07052030  0.67221172  1
  Ga  Ga12  1  0.89250491  0.72143227  0.29296038  1
  Ga  Ga13  1  0.10749509  0.27856773  0.70703962  1
  Ga  Ga14  1  0.40236153  0.78935524  0.97903342  1
  Ga  Ga15  1  0.59763847  0.21064476  0.02096658  1
  Ga  Ga16  1  0.73294968  0.92586708  0.08295310  1
  Ga  Ga17  1  0.26705032  0.07413292  0.91704690  1
  Ga  Ga18  1  0.76359944  0.98137298  0.26260070  1
  Ga  Ga19  1  0.23640056  0.01862702  0.73739930  1
  Ga  Ga20  1  0.11920792  0.73063443  0.03797373  1
  Ga  Ga21  1  0.88079208  0.26936557  0.96202627  1
  Ga  Ga22  1  0.85987323  0.65667635  0.11814029  1
  Ga  Ga23  1  0.14012677  0.34332365  0.88185971  1
  Ga  Ga24  1  0.04129173  0.56523091  0.67386259  1
  Ga  Ga25  1  0.95870827  0.43476909  0.32613741  1
  Ga  Ga26  1  0.96076851  0.85064959  0.63705520  1
  Ga  Ga27  1  0.03923149  0.14935041  0.36294480  1
  Ga  Ga28  1  0.66838357  0.79829083  0.59738575  1
  Ga  Ga29  1  0.33161643  0.20170917  0.40261425  1
  Ga  Ga30  1  0.43470098  0.89376998  0.14726709  1
  Ga  Ga31  1  0.56529902  0.10623002  0.85273291  1
  Ga  Ga32  1  0.95379464  0.37150259  0.14168070  1
  Ga  Ga33  1  0.04620536  0.62849741  0.85831930  1
  Ga  Ga34  1  0.84847991  0.16580938  0.78710286  1
  Ga  Ga35  1  0.15152009  0.83419062  0.21289714  1
  Ga  Ga36  1  0.21077387  0.59825821  0.35256581  1
  Ga  Ga37  1  0.78922613  0.40174179  0.64743419  1
  Ga  Ga38  1  0.78313390  0.56015031  0.94999833  1
  Ga  Ga39  1  0.21686610  0.43984969  0.05000167  1
  Ga  Ga40  1  0.60451876  0.67182136  0.26552461  1
  Ga  Ga41  1  0.39548124  0.32817864  0.73447539  1
  Ga  Ga42  1  0.96147609  0.91056669  0.82482571  1
  Ga  Ga43  1  0.03852391  0.08943331  0.17517429  1
  Ga  Ga44  1  0.76254870  0.65877200  0.75739197  1
  Ga  Ga45  1  0.23745130  0.34122800  0.24260803  1
  Ga  Ga46  1  0.26999448  0.72154627  0.69073887  1
  Ga  Ga47  1  0.73000552  0.27845373  0.30926113  1
  Ga  Ga48  1  0.92214970  0.78553278  0.46448940  1
  Ga  Ga49  1  0.07785030  0.21446722  0.53551060  1
  Ga  Ga50  1  0.21712779  0.95086043  0.56318084  1
  Ga  Ga51  1  0.78287221  0.04913957  0.43681916  1
  Ga  Ga52  1  0.37066148  0.60165148  0.17450553  1
  Ga  Ga53  1  0.62933852  0.39834852  0.82549447  1
  Ga  Ga54  1  0.47879006  0.82282578  0.78353053  1
  Ga  Ga55  1  0.52120994  0.17717422  0.21646947  1
  Ga  Ga56  1  0.66011342  0.43327655  0.14710707  1
  Ga  Ga57  1  0.33988658  0.56672345  0.85289293  1
  Ga  Ga58  1  0.30245087  0.45355264  0.54418353  1
  Ga  Ga59  1  0.69754913  0.54644736  0.45581647  1
  Ga  Ga60  1  0.43364408  0.69987853  0.47976466  1
  Ga  Ga61  1  0.56635592  0.30012147  0.52023534  1
  Mo  Mo62  1  0.15887368  0.69678992  0.52780362  1
  Mo  Mo63  1  0.84112632  0.30321008  0.47219638  1
  Mo  Mo64  1  0.67125236  0.81469355  0.40943876  1
  Mo  Mo65  1  0.32874764  0.18530645  0.59056124  1
  Mo  Mo66  1  0.60616714  0.69570957  0.07188413  1
  Mo  Mo67  1  0.39383286  0.30429043  0.92811587  1
  Mo  Mo68  1  0.72835919  0.93593387  0.74526291  1
  Mo  Mo69  1  0.27164081  0.06406613  0.25473709  1
  Mo  Mo70  1  0.09271225  0.57478472  0.19161369  1
  Mo  Mo71  1  0.90728775  0.42521528  0.80838631  1
  Mo  Mo72  1  0.79030014  0.17143763  0.12783024  1
  Mo  Mo73  1  0.20969986  0.82856237  0.87216976  1
