# generated using pymatgen
data_CsLu7Se11
_symmetry_space_group_name_H-M   'P 1'
_cell_length_a   10.62198832
_cell_length_b   10.62198832
_cell_length_c   19.65316427
_cell_angle_alpha   90.00000000
_cell_angle_beta   90.00000000
_cell_angle_gamma   97.75569777
_symmetry_Int_Tables_number   1
_chemical_formula_structural   CsLu7Se11
_chemical_formula_sum   'Cs4 Lu28 Se44'
_cell_volume   2197.11670010
_cell_formula_units_Z   4
loop_
 _symmetry_equiv_pos_site_id
 _symmetry_equiv_pos_as_xyz
  1  'x, y, z'
loop_
 _atom_site_type_symbol
 _atom_site_label
 _atom_site_symmetry_multiplicity
 _atom_site_fract_x
 _atom_site_fract_y
 _atom_site_fract_z
 _atom_site_occupancy
  Cs  Cs0  1  0.08698399  0.08698399  0.59325686  1
  Cs  Cs1  1  0.91301601  0.91301601  0.40674314  1
  Cs  Cs2  1  0.41301601  0.41301601  0.09325686  1
  Cs  Cs3  1  0.58698399  0.58698399  0.90674314  1
  Lu  Lu4  1  0.40493533  0.40493533  0.67537076  1
  Lu  Lu5  1  0.59506467  0.59506467  0.32462924  1
  Lu  Lu6  1  0.09506467  0.09506467  0.17537076  1
  Lu  Lu7  1  0.90493533  0.90493533  0.82462924  1
  Lu  Lu8  1  0.04762932  0.30104284  0.82807900  1
  Lu  Lu9  1  0.69895716  0.95237068  0.17192100  1
  Lu  Lu10  1  0.19895716  0.45237068  0.32807900  1
  Lu  Lu11  1  0.54762932  0.80104284  0.67192100  1
  Lu  Lu12  1  0.95237068  0.69895716  0.17192100  1
  Lu  Lu13  1  0.30104284  0.04762932  0.82807900  1
  Lu  Lu14  1  0.80104284  0.54762932  0.67192100  1
  Lu  Lu15  1  0.45237068  0.19895716  0.32807900  1
  Lu  Lu16  1  0.37503168  0.62496832  0.50000000  1
  Lu  Lu17  1  0.87503168  0.12496832  -0.00000000  1
  Lu  Lu18  1  0.62496832  0.37503168  0.50000000  1
  Lu  Lu19  1  0.12496832  0.87503168  -0.00000000  1
  Lu  Lu20  1  0.16418230  0.67250248  0.65947442  1
  Lu  Lu21  1  0.32749752  0.83581770  0.34052558  1
  Lu  Lu22  1  0.82749752  0.33581770  0.15947442  1
  Lu  Lu23  1  0.66418230  0.17250248  0.84052558  1
  Lu  Lu24  1  0.83581770  0.32749752  0.34052558  1
  Lu  Lu25  1  0.67250248  0.16418230  0.65947442  1
  Lu  Lu26  1  0.17250248  0.66418230  0.84052558  1
  Lu  Lu27  1  0.33581770  0.82749752  0.15947442  1
  Lu  Lu28  1  -0.00000000  0.50000000  0.50000000  1
  Lu  Lu29  1  0.50000000  0.00000000  0.50000000  1
  Lu  Lu30  1  -0.00000000  0.50000000  -0.00000000  1
  Lu  Lu31  1  0.50000000  0.00000000  -0.00000000  1
  Se  Se32  1  0.21250856  0.46219902  0.58186208  1
  Se  Se33  1  0.53780098  0.78749144  0.41813792  1
  Se  Se34  1  0.03780098  0.28749144  0.08186208  1
  Se  Se35  1  0.71250856  0.96219902  0.91813792  1
  Se  Se36  1  0.78749144  0.53780098  0.41813792  1
  Se  Se37  1  0.46219902  0.21250856  0.58186208  1
  Se  Se38  1  0.96219902  0.71250856  0.91813792  1
  Se  Se39  1  0.28749144  0.03780098  0.08186208  1
  Se  Se40  1  0.36921370  0.62727345  0.74621610  1
  Se  Se41  1  0.37272655  0.63078630  0.25378390  1
  Se  Se42  1  0.87272655  0.13078630  0.24621610  1
  Se  Se43  1  0.86921370  0.12727345  0.75378390  1
  Se  Se44  1  0.63078630  0.37272655  0.25378390  1
  Se  Se45  1  0.62727345  0.36921370  0.74621610  1
  Se  Se46  1  0.12727345  0.86921370  0.75378390  1
  Se  Se47  1  0.13078630  0.87272655  0.24621610  1
  Se  Se48  1  0.83188464  0.34003712  0.58292398  1
  Se  Se49  1  0.65996288  0.16811536  0.41707602  1
  Se  Se50  1  0.15996288  0.66811536  0.08292398  1
  Se  Se51  1  0.33188464  0.84003712  0.91707602  1
  Se  Se52  1  0.16811536  0.65996288  0.41707602  1
  Se  Se53  1  0.34003712  0.83188464  0.58292398  1
  Se  Se54  1  0.84003712  0.33188464  0.91707602  1
  Se  Se55  1  0.66811536  0.15996288  0.08292398  1
  Se  Se56  1  0.95644061  0.70159990  0.58292899  1
  Se  Se57  1  0.29840010  0.04355939  0.41707101  1
  Se  Se58  1  0.79840010  0.54355939  0.08292899  1
  Se  Se59  1  0.45644061  0.20159990  0.91707101  1
  Se  Se60  1  0.04355939  0.29840010  0.41707101  1
  Se  Se61  1  0.70159990  0.95644061  0.58292899  1
  Se  Se62  1  0.20159990  0.45644061  0.91707101  1
  Se  Se63  1  0.54355939  0.79840010  0.08292899  1
  Se  Se64  1  0.23717856  0.23717856  0.74618309  1
  Se  Se65  1  0.76282144  0.76282144  0.25381691  1
  Se  Se66  1  0.26282144  0.26282144  0.24618309  1
  Se  Se67  1  0.73717856  0.73717856  0.75381691  1
  Se  Se68  1  0.07508129  0.07508129  0.91030199  1
  Se  Se69  1  0.92491871  0.92491871  0.08969801  1
  Se  Se70  1  0.42491871  0.42491871  0.41030199  1
  Se  Se71  1  0.57508129  0.57508129  0.58969801  1
  Se  Se72  1  0.01081711  0.51081711  0.75000000  1
  Se  Se73  1  0.48918289  0.98918289  0.25000000  1
  Se  Se74  1  0.98918289  0.48918289  0.25000000  1
  Se  Se75  1  0.51081711  0.01081711  0.75000000  1
