# generated using pymatgen
data_Na3LaMn3(AsO5)3
_symmetry_space_group_name_H-M   'P 1'
_cell_length_a   6.17815480
_cell_length_b   11.37080164
_cell_length_c   11.37094914
_cell_angle_alpha   120.00081531
_cell_angle_beta   90.00000000
_cell_angle_gamma   90.00000000
_symmetry_Int_Tables_number   1
_chemical_formula_structural   Na3LaMn3(AsO5)3
_chemical_formula_sum   'Na6 La2 Mn6 As6 O30'
_cell_volume   691.78899627
_cell_formula_units_Z   2
loop_
 _symmetry_equiv_pos_site_id
 _symmetry_equiv_pos_as_xyz
  1  'x, y, z'
loop_
 _atom_site_type_symbol
 _atom_site_label
 _atom_site_symmetry_multiplicity
 _atom_site_fract_x
 _atom_site_fract_y
 _atom_site_fract_z
 _atom_site_occupancy
  Na  Na0  1  0.25000000  0.15745742  0.89683302  1
  Na  Na1  1  0.25000000  0.10316321  0.26062615  1
  Na  Na2  1  0.25000000  0.73938172  0.84254057  1
  Na  Na3  1  0.75000000  0.84254258  0.10316698  1
  Na  Na4  1  0.75000000  0.89683679  0.73937385  1
  Na  Na5  1  0.75000000  0.26061828  0.15745943  1
  La  La6  1  0.75000000  0.66664992  0.33332363  1
  La  La7  1  0.25000000  0.33335008  0.66667637  1
  Mn  Mn8  1  0.50000000  0.50000000  -0.00000000  1
  Mn  Mn9  1  0.50000000  -0.00000000  0.50000000  1
  Mn  Mn10  1  0.50000000  0.50000000  0.50000000  1
  Mn  Mn11  1  -0.00000000  0.50000000  -0.00000000  1
  Mn  Mn12  1  -0.00000000  -0.00000000  0.50000000  1
  Mn  Mn13  1  -0.00000000  0.50000000  0.50000000  1
  As  As14  1  0.25000000  0.78549159  0.18385998  1
  As  As15  1  0.25000000  0.81613953  0.60162972  1
  As  As16  1  0.25000000  0.39836663  0.21450230  1
  As  As17  1  0.75000000  0.21450841  0.81614002  1
  As  As18  1  0.75000000  0.18386047  0.39837028  1
  As  As19  1  0.75000000  0.60163337  0.78549770  1
  O  O20  1  0.75000000  0.47647464  0.08714544  1
  O  O21  1  0.75000000  0.91285056  0.38932849  1
  O  O22  1  0.75000000  0.61066838  0.52352259  1
  O  O23  1  0.25000000  0.52352536  0.91285456  1
  O  O24  1  0.25000000  0.08714944  0.61067151  1
  O  O25  1  0.25000000  0.38933162  0.47647741  1
  O  O26  1  0.48048105  0.69065960  0.16873902  1
  O  O27  1  0.48048565  0.83125460  0.52191813  1
  O  O28  1  0.48048347  0.47807869  0.30933536  1
  O  O29  1  0.98048105  0.30934040  0.83126098  1
  O  O30  1  0.98048565  0.16874540  0.47808187  1
  O  O31  1  0.98048347  0.52192131  0.69066464  1
  O  O32  1  0.51951895  0.30934040  0.83126098  1
  O  O33  1  0.51951435  0.16874540  0.47808187  1
  O  O34  1  0.51951653  0.52192131  0.69066464  1
  O  O35  1  0.01951895  0.69065960  0.16873902  1
  O  O36  1  0.01951435  0.83125460  0.52191813  1
  O  O37  1  0.01951653  0.47807869  0.30933536  1
  O  O38  1  0.25000000  0.92205146  0.34627100  1
  O  O39  1  0.25000000  0.65372746  0.57577852  1
  O  O40  1  0.25000000  0.42421852  0.07794846  1
  O  O41  1  0.75000000  0.07794854  0.65372900  1
  O  O42  1  0.75000000  0.34627254  0.42422148  1
  O  O43  1  0.75000000  0.57578148  0.92205154  1
  O  O44  1  0.25000000  0.85142655  0.07914600  1
  O  O45  1  0.25000000  0.92085206  0.77227953  1
  O  O46  1  0.25000000  0.22771524  0.14857161  1
  O  O47  1  0.75000000  0.14857345  0.92085400  1
  O  O48  1  0.75000000  0.07914794  0.22772047  1
  O  O49  1  0.75000000  0.77228476  0.85142839  1
