# generated using pymatgen
data_NaSr3GdP3O12F
_symmetry_space_group_name_H-M   'P 1'
_cell_length_a   7.20672616
_cell_length_b   9.68743037
_cell_length_c   9.68746662
_cell_angle_alpha   120.00031721
_cell_angle_beta   89.99989131
_cell_angle_gamma   89.99989145
_symmetry_Int_Tables_number   1
_chemical_formula_structural   NaSr3GdP3O12F
_chemical_formula_sum   'Na2 Sr6 Gd2 P6 O24 F2'
_cell_volume   585.71463662
_cell_formula_units_Z   2
loop_
 _symmetry_equiv_pos_site_id
 _symmetry_equiv_pos_as_xyz
  1  'x, y, z'
loop_
 _atom_site_type_symbol
 _atom_site_label
 _atom_site_symmetry_multiplicity
 _atom_site_fract_x
 _atom_site_fract_y
 _atom_site_fract_z
 _atom_site_occupancy
  Na  Na0  1  0.01537187  0.33334766  0.66667712  1
  Na  Na1  1  0.98462813  0.66665234  0.33332288  1
  Sr  Sr2  1  0.23811871  0.01913129  0.25953168  1
  Sr  Sr3  1  0.23811846  0.74047199  0.75960072  1
  Sr  Sr4  1  0.23811681  0.24039541  0.98087012  1
  Sr  Sr5  1  0.76188129  0.98086871  0.74046832  1
  Sr  Sr6  1  0.76188154  0.25952801  0.24039928  1
  Sr  Sr7  1  0.76188319  0.75960459  0.01912988  1
  Gd  Gd8  1  0.51739969  0.33333391  0.66666596  1
  Gd  Gd9  1  0.48260031  0.66666609  0.33333404  1
  P  P10  1  0.73883763  0.03315129  0.40744929  1
  P  P11  1  0.73883604  0.59255019  0.62570370  1
  P  P12  1  0.73883372  0.37429707  0.96684810  1
  P  P13  1  0.26116237  0.96684871  0.59255071  1
  P  P14  1  0.26116396  0.40744981  0.37429630  1
  P  P15  1  0.26116628  0.62570293  0.03315190  1
  O  O16  1  0.71910792  0.85244046  0.35020926  1
  O  O17  1  0.71910357  0.64979144  0.50223264  1
  O  O18  1  0.71910141  0.49776404  0.14755781  1
  O  O19  1  0.28089208  0.14755954  0.64979074  1
  O  O20  1  0.28089643  0.35020856  0.49776736  1
  O  O21  1  0.28089859  0.50223596  0.85244219  1
  O  O22  1  0.76729957  0.13096007  0.59100904  1
  O  O23  1  0.76730275  0.40899073  0.53994886  1
  O  O24  1  0.76729840  0.46005483  0.86904639  1
  O  O25  1  0.23270043  0.86903993  0.40899096  1
  O  O26  1  0.23269725  0.59100927  0.46005114  1
  O  O27  1  0.23270160  0.53994517  0.13095361  1
  O  O28  1  0.90087273  0.05548418  0.31563389  1
  O  O29  1  0.90086833  0.68436393  0.73985133  1
  O  O30  1  0.90086838  0.26014764  0.94451314  1
  O  O31  1  0.09912727  0.94451582  0.68436611  1
  O  O32  1  0.09913167  0.31563607  0.26014867  1
  O  O33  1  0.09913162  0.73985236  0.05548686  1
  O  O34  1  0.56013324  0.10512644  0.37615125  1
  O  O35  1  0.56012899  0.62384332  0.72897261  1
  O  O36  1  0.56012763  0.27102460  0.89486699  1
  O  O37  1  0.43986676  0.89487356  0.62384875  1
  O  O38  1  0.43987101  0.37615668  0.27102739  1
  O  O39  1  0.43987237  0.72897540  0.10513301  1
  F  F40  1  0.26260956  0.00000065  0.00000269  1
  F  F41  1  0.73739044  0.99999935  0.99999731  1
