# generated using pymatgen
data_Yb6Al43W4
_symmetry_space_group_name_H-M   'P 1'
_cell_length_a   11.08605127
_cell_length_b   11.08596692
_cell_length_c   17.64929971
_cell_angle_alpha   90.00000000
_cell_angle_beta   90.00000000
_cell_angle_gamma   120.00025050
_symmetry_Int_Tables_number   1
_chemical_formula_structural   Yb6Al43W4
_chemical_formula_sum   'Yb12 Al86 W8'
_cell_volume   1878.48388900
_cell_formula_units_Z   2
loop_
 _symmetry_equiv_pos_site_id
 _symmetry_equiv_pos_as_xyz
  1  'x, y, z'
loop_
 _atom_site_type_symbol
 _atom_site_label
 _atom_site_symmetry_multiplicity
 _atom_site_fract_x
 _atom_site_fract_y
 _atom_site_fract_z
 _atom_site_occupancy
  Yb  Yb0  1  0.53295081  1.00000000  0.59437993  1
  Yb  Yb1  1  0.46704483  0.46704955  0.59437927  1
  Yb  Yb2  1  0.99999528  0.53295045  0.59437927  1
  Yb  Yb3  1  0.46704919  0.00000000  0.40562007  1
  Yb  Yb4  1  0.53295517  0.53295045  0.40562073  1
  Yb  Yb5  1  0.00000472  0.46704955  0.40562073  1
  Yb  Yb6  1  0.46704919  0.00000000  0.09437993  1
  Yb  Yb7  1  0.53295517  0.53295045  0.09437927  1
  Yb  Yb8  1  0.00000472  0.46704955  0.09437927  1
  Yb  Yb9  1  0.53295081  1.00000000  0.90562007  1
  Yb  Yb10  1  0.46704483  0.46704955  0.90562073  1
  Yb  Yb11  1  0.99999528  0.53295045  0.90562073  1
  Al  Al12  1  0.15663464  0.39289837  0.66438894  1
  Al  Al13  1  0.23625895  0.84337565  0.66439265  1
  Al  Al14  1  0.60709721  0.76373818  0.66439106  1
  Al  Al15  1  0.76373627  0.60710163  0.66438894  1
  Al  Al16  1  0.39288330  0.15662435  0.66439265  1
  Al  Al17  1  0.84335902  0.23626182  0.66439106  1
  Al  Al18  1  0.84336536  0.60710163  0.33561106  1
  Al  Al19  1  0.76374105  0.15662435  0.33560735  1
  Al  Al20  1  0.39290279  0.23626182  0.33560894  1
  Al  Al21  1  0.23626373  0.39289837  0.33561106  1
  Al  Al22  1  0.60711670  0.84337565  0.33560735  1
  Al  Al23  1  0.15664098  0.76373818  0.33560894  1
  Al  Al24  1  0.84336536  0.60710163  0.16438894  1
  Al  Al25  1  0.76374105  0.15662435  0.16439265  1
  Al  Al26  1  0.39290279  0.23626182  0.16439106  1
  Al  Al27  1  0.23626373  0.39289837  0.16438894  1
  Al  Al28  1  0.60711670  0.84337565  0.16439265  1
  Al  Al29  1  0.15664098  0.76373818  0.16439106  1
  Al  Al30  1  0.15663464  0.39289837  0.83561106  1
  Al  Al31  1  0.23625895  0.84337565  0.83560735  1
  Al  Al32  1  0.60709721  0.76373818  0.83560894  1
  Al  Al33  1  0.76373627  0.60710163  0.83561106  1
  Al  Al34  1  0.39288330  0.15662435  0.83560735  1
  Al  Al35  1  0.84335902  0.23626182  0.83560894  1
  Al  Al36  1  0.15956942  0.00000000  0.11484272  1
  Al  Al37  1  0.84043384  0.84043231  0.11484145  1
  Al  Al38  1  0.00000153  0.15956769  0.11484145  1
  Al  Al39  1  0.84043058  1.00000000  0.88515728  1
  Al  Al40  1  0.15956616  0.15956769  0.88515855  1
  Al  Al41  1  -0.00000153  0.84043231  0.88515855  1
  Al  Al42  1  0.84043058  1.00000000  0.61484272  1
  Al  Al43  1  0.15956616  0.15956769  0.61484145  1
  Al  Al44  1  -0.00000153  0.84043231  0.61484145  1
  Al  Al45  1  0.15956942  0.00000000  0.38515728  1
  Al  Al46  1  0.84043384  0.84043231  0.38515855  1
  Al  Al47  1  0.00000153  0.15956769  0.38515855  1
  Al  Al48  1  0.25280753  0.00000000  0.53135616  1
  Al  Al49  1  0.74719024  0.74718934  0.53135799  1
  Al  Al50  1  0.00000090  0.25281066  0.53135799  1
  Al  Al51  1  0.74719247  1.00000000  0.46864384  1
  Al  Al52  1  0.25280976  0.25281066  0.46864201  1
  Al  Al53  1  -0.00000090  0.74718934  0.46864201  1
  Al  Al54  1  0.74719247  1.00000000  0.03135616  1
  Al  Al55  1  0.25280976  0.25281066  0.03135799  1
  Al  Al56  1  -0.00000090  0.74718934  0.03135799  1
  Al  Al57  1  0.25280753  0.00000000  0.96864384  1
  Al  Al58  1  0.74719024  0.74718934  0.96864201  1
  Al  Al59  1  0.00000090  0.25281066  0.96864201  1
  Al  Al60  1  0.14840423  0.59795784  0.75000000  1
  Al  Al61  1  0.44954479  0.85159114  0.75000000  1
  Al  Al62  1  0.40203854  0.55045736  0.75000000  1
  Al  Al63  1  0.55044639  0.40204216  0.75000000  1
  Al  Al64  1  0.59795365  0.14840886  0.75000000  1
  Al  Al65  1  0.85158117  0.44954264  0.75000000  1
  Al  Al66  1  0.85159577  0.40204216  0.25000000  1
  Al  Al67  1  0.55045521  0.14840886  0.25000000  1
  Al  Al68  1  0.59796146  0.44954264  0.25000000  1
  Al  Al69  1  0.44955361  0.59795784  0.25000000  1
  Al  Al70  1  0.40204635  0.85159114  0.25000000  1
  Al  Al71  1  0.14841883  0.55045736  0.25000000  1
  Al  Al72  1  0.24722373  0.49444746  0.50000000  1
  Al  Al73  1  0.24721865  0.75277594  0.49999538  1
  Al  Al74  1  0.50555729  0.75277594  0.50000462  1
  Al  Al75  1  0.75277627  0.50555254  0.50000000  1
  Al  Al76  1  0.49444271  0.24722406  0.49999538  1
  Al  Al77  1  0.75278135  0.24722406  0.50000462  1
  Al  Al78  1  0.75277627  0.50555254  0.00000000  1
  Al  Al79  1  0.75278135  0.24722406  0.99999538  1
  Al  Al80  1  0.49444271  0.24722406  0.00000462  1
  Al  Al81  1  0.24722373  0.49444746  0.00000000  1
  Al  Al82  1  0.50555729  0.75277594  0.99999538  1
  Al  Al83  1  0.24721865  0.75277594  0.00000462  1
  Al  Al84  1  0.33333338  0.66666678  0.62663176  1
  Al  Al85  1  0.66666660  0.33333322  0.62663176  1
  Al  Al86  1  0.66666662  0.33333322  0.37336824  1
  Al  Al87  1  0.33333340  0.66666678  0.37336824  1
  Al  Al88  1  0.66666662  0.33333322  0.12663176  1
  Al  Al89  1  0.33333340  0.66666678  0.12663176  1
  Al  Al90  1  0.33333338  0.66666678  0.87336824  1
  Al  Al91  1  0.66666660  0.33333322  0.87336824  1
  Al  Al92  1  0.14787479  -0.00000000  0.75000000  1
  Al  Al93  1  0.85212038  0.85212382  0.75000000  1
  Al  Al94  1  -0.00000345  0.14787618  0.75000000  1
  Al  Al95  1  0.85212521  0.00000000  0.25000000  1
  Al  Al96  1  0.14787962  0.14787618  0.25000000  1
  Al  Al97  1  0.00000345  0.85212382  0.25000000  1
  W  W98  1  0.72962281  1.00000000  0.75000000  1
  W  W99  1  0.27037741  0.27038345  0.75000000  1
  W  W100  1  0.99999396  0.72961655  0.75000000  1
  W  W101  1  0.27037719  0.00000000  0.25000000  1
  W  W102  1  0.72962259  0.72961655  0.25000000  1
  W  W103  1  0.00000604  0.27038345  0.25000000  1
  W  W104  1  -0.00000000  -0.00000000  0.50000000  1
  W  W105  1  -0.00000000  -0.00000000  0.00000000  1
