# generated using pymatgen
data_CaH8(ClO6)2
_symmetry_space_group_name_H-M   'P 1'
_cell_length_a   5.60696863
_cell_length_b   8.05689846
_cell_length_c   11.85480402
_cell_angle_alpha   101.09646223
_cell_angle_beta   89.79423283
_cell_angle_gamma   90.69469603
_symmetry_Int_Tables_number   1
_chemical_formula_structural   CaH8(ClO6)2
_chemical_formula_sum   'Ca2 H16 Cl4 O24'
_cell_volume   525.48694141
_cell_formula_units_Z   2
loop_
 _symmetry_equiv_pos_site_id
 _symmetry_equiv_pos_as_xyz
  1  'x, y, z'
loop_
 _atom_site_type_symbol
 _atom_site_label
 _atom_site_symmetry_multiplicity
 _atom_site_fract_x
 _atom_site_fract_y
 _atom_site_fract_z
 _atom_site_occupancy
  Ca  Ca0  1  0.49096769  0.76327685  0.24636316  1
  Ca  Ca1  1  0.50903231  0.23672315  0.75363684  1
  H  H2  1  0.32746839  0.08218292  0.18796347  1
  H  H3  1  0.67253161  0.91781708  0.81203653  1
  H  H4  1  0.68074385  0.51080935  0.37796886  1
  H  H5  1  0.31925615  0.48919065  0.62203114  1
  H  H6  1  0.19836366  0.07701229  0.30436055  1
  H  H7  1  0.80163634  0.92298771  0.69563945  1
  H  H8  1  0.04945562  0.56370074  0.29005988  1
  H  H9  1  0.95054438  0.43629926  0.70994012  1
  H  H10  1  0.21263833  0.44541421  0.20022708  1
  H  H11  1  0.78736167  0.55458579  0.79977292  1
  H  H12  1  0.92838038  0.92428570  0.15920988  1
  H  H13  1  0.07161962  0.07571430  0.84079012  1
  H  H14  1  0.79507773  0.68254821  0.43884131  1
  H  H15  1  0.20492227  0.31745179  0.56115869  1
  H  H16  1  0.79786355  0.81128952  0.05349276  1
  H  H17  1  0.20213645  0.18871048  0.94650724  1
  Cl  Cl18  1  0.76115492  0.16477106  0.44376416  1
  Cl  Cl19  1  0.23884508  0.83522894  0.55623584  1
  Cl  Cl20  1  0.66842176  0.32431862  0.07912884  1
  Cl  Cl21  1  0.33157824  0.67568138  0.92087116  1
  O  O22  1  0.24552667  0.00567829  0.23131417  1
  O  O23  1  0.75447333  0.99432171  0.76868583  1
  O  O24  1  0.74964302  0.61711440  0.36305044  1
  O  O25  1  0.25035698  0.38288560  0.63694956  1
  O  O26  1  0.58252275  0.27764555  0.41255492  1
  O  O27  1  0.41747725  0.72235445  0.58744508  1
  O  O28  1  0.43138404  0.25893500  0.10574414  1
  O  O29  1  0.56861596  0.74106500  0.89425586  1
  O  O30  1  0.73314398  0.15115341  0.56422371  1
  O  O31  1  0.26685602  0.84884659  0.43577629  1
  O  O32  1  0.00117372  0.23012839  0.42681938  1
  O  O33  1  0.99882628  0.76987161  0.57318062  1
  O  O34  1  0.73649906  0.99662492  0.37228685  1
  O  O35  1  0.26350094  0.00337508  0.62771315  1
  O  O36  1  0.71459643  0.27358985  0.95620419  1
  O  O37  1  0.28540357  0.72641015  0.04379581  1
  O  O38  1  0.77758621  0.86714984  0.13335570  1
  O  O39  1  0.22241379  0.13285016  0.86664430  1
  O  O40  1  0.21246769  0.54958492  0.25816686  1
  O  O41  1  0.78753231  0.45041508  0.74183314  1
  O  O42  1  0.66761381  0.50917927  0.11017285  1
  O  O43  1  0.33238619  0.49082073  0.88982715  1
  O  O44  1  0.85250519  0.25851810  0.14281454  1
  O  O45  1  0.14749481  0.74148190  0.85718546  1
