# generated using pymatgen
data_ErSi3Ni5
_symmetry_space_group_name_H-M   'P 1'
_cell_length_a   3.77911667
_cell_length_b   6.64655540
_cell_length_c   18.67202530
_cell_angle_alpha   90.00000000
_cell_angle_beta   90.00000000
_cell_angle_gamma   90.00000000
_symmetry_Int_Tables_number   1
_chemical_formula_structural   ErSi3Ni5
_chemical_formula_sum   'Er4 Si12 Ni20'
_cell_volume   469.00595386
_cell_formula_units_Z   4
loop_
 _symmetry_equiv_pos_site_id
 _symmetry_equiv_pos_as_xyz
  1  'x, y, z'
loop_
 _atom_site_type_symbol
 _atom_site_label
 _atom_site_symmetry_multiplicity
 _atom_site_fract_x
 _atom_site_fract_y
 _atom_site_fract_z
 _atom_site_occupancy
  Er  Er0  1  0.25000000  0.62230868  0.64407202  1
  Er  Er1  1  0.25000000  0.87769132  0.14407202  1
  Er  Er2  1  0.75000000  0.37769132  0.35592798  1
  Er  Er3  1  0.75000000  0.12230868  0.85592798  1
  Si  Si4  1  0.25000000  0.41312917  0.91497338  1
  Si  Si5  1  0.25000000  0.08687083  0.41497338  1
  Si  Si6  1  0.75000000  0.58687083  0.08502662  1
  Si  Si7  1  0.75000000  0.91312917  0.58502662  1
  Si  Si8  1  0.25000000  0.12115917  0.73757279  1
  Si  Si9  1  0.25000000  0.37884083  0.23757279  1
  Si  Si10  1  0.75000000  0.87884083  0.26242721  1
  Si  Si11  1  0.75000000  0.62115917  0.76242721  1
  Si  Si12  1  0.25000000  0.84693167  0.92457950  1
  Si  Si13  1  0.25000000  0.65306833  0.42457950  1
  Si  Si14  1  0.75000000  0.15306833  0.07542050  1
  Si  Si15  1  0.75000000  0.34693167  0.57542050  1
  Ni  Ni16  1  0.25000000  0.81588501  0.79978466  1
  Ni  Ni17  1  0.25000000  0.68411499  0.29978466  1
  Ni  Ni18  1  0.75000000  0.18411499  0.20021534  1
  Ni  Ni19  1  0.75000000  0.31588501  0.70021534  1
  Ni  Ni20  1  0.25000000  0.13146990  0.99460266  1
  Ni  Ni21  1  0.25000000  0.36853010  0.49460266  1
  Ni  Ni22  1  0.75000000  0.86853010  0.00539734  1
  Ni  Ni23  1  0.75000000  0.63146990  0.50539734  1
  Ni  Ni24  1  0.25000000  0.88188012  0.51377649  1
  Ni  Ni25  1  0.25000000  0.61811988  0.01377649  1
  Ni  Ni26  1  0.75000000  0.11811988  0.48622351  1
  Ni  Ni27  1  0.75000000  0.38188012  0.98622351  1
  Ni  Ni28  1  0.25000000  0.14335461  0.61447421  1
  Ni  Ni29  1  0.25000000  0.35664539  0.11447421  1
  Ni  Ni30  1  0.75000000  0.85664539  0.38552579  1
  Ni  Ni31  1  0.75000000  0.64335461  0.88552579  1
  Ni  Ni32  1  0.25000000  0.42917712  0.79429167  1
  Ni  Ni33  1  0.25000000  0.07082288  0.29429167  1
  Ni  Ni34  1  0.75000000  0.57082288  0.20570833  1
  Ni  Ni35  1  0.75000000  0.92917712  0.70570833  1
