# generated using pymatgen
data_Ga40CuMo8
_symmetry_space_group_name_H-M   'P 1'
_cell_length_a   9.59731193
_cell_length_b   9.59731192
_cell_length_c   9.59731176
_cell_angle_alpha   94.65270447
_cell_angle_beta   94.65270447
_cell_angle_gamma   94.65269924
_symmetry_Int_Tables_number   1
_chemical_formula_structural   Ga40CuMo8
_chemical_formula_sum   'Ga40 Cu1 Mo8'
_cell_volume   874.74814346
_cell_formula_units_Z   1
loop_
 _symmetry_equiv_pos_site_id
 _symmetry_equiv_pos_as_xyz
  1  'x, y, z'
loop_
 _atom_site_type_symbol
 _atom_site_label
 _atom_site_symmetry_multiplicity
 _atom_site_fract_x
 _atom_site_fract_y
 _atom_site_fract_z
 _atom_site_occupancy
  Ga  Ga0  1  0.50000000  0.50000000  0.50000000  1
  Ga  Ga1  1  0.50000000  -0.00000000  0.50000000  1
  Ga  Ga2  1  0.00000000  0.50000000  0.50000000  1
  Ga  Ga3  1  0.50000000  0.50000000  0.00000000  1
  Ga  Ga4  1  0.63479887  0.26577935  0.61147779  1
  Ga  Ga5  1  0.26577935  0.61147779  0.63479887  1
  Ga  Ga6  1  0.61147779  0.63479887  0.26577935  1
  Ga  Ga7  1  0.36520113  0.73422065  0.38852221  1
  Ga  Ga8  1  0.73422065  0.38852221  0.36520113  1
  Ga  Ga9  1  0.38852221  0.36520113  0.73422065  1
  Ga  Ga10  1  0.77943402  0.67545283  0.53772561  1
  Ga  Ga11  1  0.67545283  0.53772561  0.77943402  1
  Ga  Ga12  1  0.53772561  0.77943402  0.67545283  1
  Ga  Ga13  1  0.22056598  0.32454717  0.46227439  1
  Ga  Ga14  1  0.32454717  0.46227439  0.22056598  1
  Ga  Ga15  1  0.46227439  0.22056598  0.32454717  1
  Ga  Ga16  1  0.07432714  0.77899448  0.45014872  1
  Ga  Ga17  1  0.77899448  0.45014872  0.07432714  1
  Ga  Ga18  1  0.45014872  0.07432714  0.77899448  1
  Ga  Ga19  1  0.92567286  0.22100552  0.54985128  1
  Ga  Ga20  1  0.22100552  0.54985128  0.92567286  1
  Ga  Ga21  1  0.54985128  0.92567286  0.22100552  1
  Ga  Ga22  1  0.78675357  0.96811493  0.59977976  1
  Ga  Ga23  1  0.96811493  0.59977976  0.78675357  1
  Ga  Ga24  1  0.59977976  0.78675357  0.96811493  1
  Ga  Ga25  1  0.21324643  0.03188507  0.40022024  1
  Ga  Ga26  1  0.03188507  0.40022024  0.21324643  1
  Ga  Ga27  1  0.40022024  0.21324643  0.03188507  1
  Ga  Ga28  1  0.74461216  0.05485318  0.87564154  1
  Ga  Ga29  1  0.05485318  0.87564154  0.74461216  1
  Ga  Ga30  1  0.87564154  0.74461216  0.05485318  1
  Ga  Ga31  1  0.25538784  0.94514682  0.12435846  1
  Ga  Ga32  1  0.94514682  0.12435846  0.25538784  1
  Ga  Ga33  1  0.12435846  0.25538784  0.94514682  1
  Ga  Ga34  1  0.17673644  0.12529096  0.67963988  1
  Ga  Ga35  1  0.12529096  0.67963988  0.17673644  1
  Ga  Ga36  1  0.67963988  0.17673644  0.12529096  1
  Ga  Ga37  1  0.82326356  0.87470904  0.32036012  1
  Ga  Ga38  1  0.87470904  0.32036012  0.82326356  1
  Ga  Ga39  1  0.32036012  0.82326356  0.87470904  1
  Cu  Cu40  1  0.00000000  -0.00000000  0.00000000  1
  Mo  Mo41  1  0.80122649  0.80122649  0.80122649  1
  Mo  Mo42  1  0.19877351  0.19877351  0.19877351  1
  Mo  Mo43  1  0.61243243  0.29108628  0.88768867  1
  Mo  Mo44  1  0.29108628  0.88768867  0.61243243  1
  Mo  Mo45  1  0.88768867  0.61243243  0.29108628  1
  Mo  Mo46  1  0.38756757  0.70891372  0.11231133  1
  Mo  Mo47  1  0.70891372  0.11231133  0.38756757  1
  Mo  Mo48  1  0.11231133  0.38756757  0.70891372  1
