# generated using pymatgen
data_Ge3BH4NO8
_symmetry_space_group_name_H-M   'P 1'
_cell_length_a   7.12579371
_cell_length_b   7.57394896
_cell_length_c   7.84659406
_cell_angle_alpha   103.25555334
_cell_angle_beta   102.79200806
_cell_angle_gamma   104.51755489
_symmetry_Int_Tables_number   1
_chemical_formula_structural   Ge3BH4NO8
_chemical_formula_sum   'Ge6 B2 H8 N2 O16'
_cell_volume   381.16097489
_cell_formula_units_Z   2
loop_
 _symmetry_equiv_pos_site_id
 _symmetry_equiv_pos_as_xyz
  1  'x, y, z'
loop_
 _atom_site_type_symbol
 _atom_site_label
 _atom_site_symmetry_multiplicity
 _atom_site_fract_x
 _atom_site_fract_y
 _atom_site_fract_z
 _atom_site_occupancy
  Ge  Ge0  1  0.22730780  0.21642110  0.30257455  1
  Ge  Ge1  1  0.77269220  0.78357890  0.69742545  1
  Ge  Ge2  1  0.74883178  0.15482723  0.23297329  1
  Ge  Ge3  1  0.25116822  0.84517277  0.76702671  1
  Ge  Ge4  1  0.65413695  0.33376306  0.60585054  1
  Ge  Ge5  1  0.34586305  0.66623694  0.39414946  1
  B  B6  1  0.65147657  0.10527067  0.85595743  1
  B  B7  1  0.34852343  0.89472933  0.14404257  1
  H  H8  1  0.04452952  0.27704180  0.81142287  1
  H  H9  1  0.95547048  0.72295820  0.18857713  1
  H  H10  1  0.24032684  0.48400257  0.90515181  1
  H  H11  1  0.75967316  0.51599743  0.09484819  1
  H  H12  1  0.27934748  0.26804980  0.90299170  1
  H  H13  1  0.72065252  0.73195020  0.09700830  1
  H  H14  1  0.23157497  0.32354322  0.71020561  1
  H  H15  1  0.76842503  0.67645678  0.28979439  1
  N  N16  1  0.19904672  0.33932641  0.83426207  1
  N  N17  1  0.80095328  0.66067359  0.16573793  1
  O  O18  1  0.74633871  0.19278664  0.73019850  1
  O  O19  1  0.25366129  0.80721336  0.26980150  1
  O  O20  1  0.29154276  0.06842250  0.13523604  1
  O  O21  1  0.70845724  0.93157750  0.86476396  1
  O  O22  1  0.56997303  0.93787902  0.20803292  1
  O  O23  1  0.43002697  0.06212098  0.79196708  1
  O  O24  1  0.38451904  0.27683191  0.53244378  1
  O  O25  1  0.61548096  0.72316809  0.46755622  1
  O  O26  1  0.75220688  0.57002899  0.76050700  1
  O  O27  1  0.24779312  0.42997101  0.23949300  1
  O  O28  1  0.73344562  0.24591195  0.04441499  1
  O  O29  1  0.26655438  0.75408805  0.95558501  1
  O  O30  1  0.74929410  0.34435814  0.41751870  1
  O  O31  1  0.25070590  0.65564186  0.58248130  1
  O  O32  1  0.98163611  0.11008471  0.31108989  1
  O  O33  1  0.01836389  0.88991529  0.68891011  1
