# generated using pymatgen
data_LiCu5(PO4)2
_symmetry_space_group_name_H-M   'P 1'
_cell_length_a   6.20527268
_cell_length_b   5.66216552
_cell_length_c   10.34157432
_cell_angle_alpha   89.24593703
_cell_angle_beta   90.00000000
_cell_angle_gamma   90.00000000
_symmetry_Int_Tables_number   1
_chemical_formula_structural   LiCu5(PO4)2
_chemical_formula_sum   'Li2 Cu10 P4 O16'
_cell_volume   363.32265228
_cell_formula_units_Z   2
loop_
 _symmetry_equiv_pos_site_id
 _symmetry_equiv_pos_as_xyz
  1  'x, y, z'
loop_
 _atom_site_type_symbol
 _atom_site_label
 _atom_site_symmetry_multiplicity
 _atom_site_fract_x
 _atom_site_fract_y
 _atom_site_fract_z
 _atom_site_occupancy
  Li  Li0  1  0.00000000  0.14148602  0.24636183  1
  Li  Li1  1  0.50000000  0.85413023  0.49562141  1
  Cu  Cu2  1  0.00000000  0.25008205  0.73350656  1
  Cu  Cu3  1  0.20004454  0.35022896  0.48900813  1
  Cu  Cu4  1  0.28600000  0.35810258  0.00006237  1
  Cu  Cu5  1  0.28497347  0.63704206  0.23650537  1
  Cu  Cu6  1  0.25664078  0.65027061  0.75152645  1
  Cu  Cu7  1  0.50000000  0.74082989  0.98906512  1
  Cu  Cu8  1  0.74335922  0.65027061  0.75152645  1
  Cu  Cu9  1  0.71502653  0.63704206  0.23650537  1
  Cu  Cu10  1  0.79995546  0.35022896  0.48900813  1
  Cu  Cu11  1  0.71400000  0.35810258  0.00006237  1
  P  P12  1  0.00000000  0.85663495  0.00579302  1
  P  P13  1  0.00000000  0.82446875  0.49973482  1
  P  P14  1  0.50000000  0.16499711  0.25927647  1
  P  P15  1  0.50000000  0.15932655  0.74795282  1
  O  O16  1  0.00000000  0.84024146  0.64950829  1
  O  O17  1  0.00000000  0.07693040  0.43478201  1
  O  O18  1  0.00000000  0.83538986  0.15629655  1
  O  O19  1  0.00000000  0.11540280  0.95759494  1
  O  O20  1  0.21114472  0.69886540  0.45154133  1
  O  O21  1  0.19697420  0.71508995  0.95014294  1
  O  O22  1  0.28924356  0.28828217  0.20605674  1
  O  O23  1  0.30086454  0.30502238  0.69783366  1
  O  O24  1  0.50000000  0.14338291  0.89807884  1
  O  O25  1  0.50000000  0.91136441  0.68614570  1
  O  O26  1  0.50000000  0.17112371  0.40951510  1
  O  O27  1  0.50000000  0.90839770  0.20800452  1
  O  O28  1  0.69913546  0.30502238  0.69783366  1
  O  O29  1  0.71075644  0.28828217  0.20605674  1
  O  O30  1  0.78885528  0.69886540  0.45154133  1
  O  O31  1  0.80302580  0.71508995  0.95014294  1
