# generated using pymatgen
data_PrCo3P2
_symmetry_space_group_name_H-M   'P 1'
_cell_length_a   3.77457949
_cell_length_b   10.68067142
_cell_length_c   12.40973256
_cell_angle_alpha   90.00000000
_cell_angle_beta   90.00000000
_cell_angle_gamma   90.00000000
_symmetry_Int_Tables_number   1
_chemical_formula_structural   PrCo3P2
_chemical_formula_sum   'Pr6 Co18 P12'
_cell_volume   500.29890527
_cell_formula_units_Z   6
loop_
 _symmetry_equiv_pos_site_id
 _symmetry_equiv_pos_as_xyz
  1  'x, y, z'
loop_
 _atom_site_type_symbol
 _atom_site_label
 _atom_site_symmetry_multiplicity
 _atom_site_fract_x
 _atom_site_fract_y
 _atom_site_fract_z
 _atom_site_occupancy
  Pr  Pr0  1  0.75000000  0.25000000  0.47823228  1
  Pr  Pr1  1  0.25000000  0.75000000  0.52176772  1
  Pr  Pr2  1  0.25000000  0.93402009  0.79397171  1
  Pr  Pr3  1  0.25000000  0.56597991  0.79397171  1
  Pr  Pr4  1  0.75000000  0.06597991  0.20602829  1
  Pr  Pr5  1  0.75000000  0.43402009  0.20602829  1
  Co  Co6  1  0.25000000  0.25000000  0.84216255  1
  Co  Co7  1  0.75000000  0.75000000  0.15783745  1
  Co  Co8  1  0.25000000  0.25000000  0.29455177  1
  Co  Co9  1  0.75000000  0.75000000  0.70544823  1
  Co  Co10  1  0.75000000  0.25000000  0.01294947  1
  Co  Co11  1  0.25000000  0.75000000  0.98705053  1
  Co  Co12  1  0.25000000  0.41651473  0.00359297  1
  Co  Co13  1  0.25000000  0.08348527  0.00359297  1
  Co  Co14  1  0.75000000  0.58348527  0.99640703  1
  Co  Co15  1  0.75000000  0.91651473  0.99640703  1
  Co  Co16  1  0.25000000  0.45318548  0.56941914  1
  Co  Co17  1  0.25000000  0.04681452  0.56941914  1
  Co  Co18  1  0.75000000  0.54681452  0.43058086  1
  Co  Co19  1  0.75000000  0.95318548  0.43058086  1
  Co  Co20  1  0.25000000  0.86757856  0.28983313  1
  Co  Co21  1  0.25000000  0.63242144  0.28983313  1
  Co  Co22  1  0.75000000  0.13242144  0.71016687  1
  Co  Co23  1  0.75000000  0.36757856  0.71016687  1
  P  P24  1  0.25000000  0.25000000  0.11294992  1
  P  P25  1  0.75000000  0.75000000  0.88705008  1
  P  P26  1  0.25000000  0.25000000  0.66121171  1
  P  P27  1  0.75000000  0.75000000  0.33878829  1
  P  P28  1  0.25000000  0.44531775  0.38606258  1
  P  P29  1  0.25000000  0.05468225  0.38606258  1
  P  P30  1  0.75000000  0.55468225  0.61393742  1
  P  P31  1  0.75000000  0.94531775  0.61393742  1
  P  P32  1  0.25000000  0.90071292  0.10401499  1
  P  P33  1  0.25000000  0.59928708  0.10401499  1
  P  P34  1  0.75000000  0.09928708  0.89598501  1
  P  P35  1  0.75000000  0.40071292  0.89598501  1
