# generated using pymatgen
data_K2Sn(S2O7)3
_symmetry_space_group_name_H-M   'P 1'
_cell_length_a   10.11297409
_cell_length_b   10.11291345
_cell_length_c   11.06670800
_cell_angle_alpha   90.00005176
_cell_angle_beta   89.99995495
_cell_angle_gamma   119.99993478
_symmetry_Int_Tables_number   1
_chemical_formula_structural   K2Sn(S2O7)3
_chemical_formula_sum   'K4 Sn2 S12 O42'
_cell_volume   980.17710311
_cell_formula_units_Z   2
loop_
 _symmetry_equiv_pos_site_id
 _symmetry_equiv_pos_as_xyz
  1  'x, y, z'
loop_
 _atom_site_type_symbol
 _atom_site_label
 _atom_site_symmetry_multiplicity
 _atom_site_fract_x
 _atom_site_fract_y
 _atom_site_fract_z
 _atom_site_occupancy
  K  K0  1  0.33337839  0.66668927  0.94003229  1
  K  K1  1  0.66662161  0.33331073  0.05996771  1
  K  K2  1  0.66660857  0.33330450  0.63527398  1
  K  K3  1  0.33339143  0.66669550  0.36472602  1
  Sn  Sn4  1  0.00000072  0.00000293  0.74024604  1
  Sn  Sn5  1  0.99999928  0.99999707  0.25975396  1
  S  S6  1  0.33505982  0.05657215  0.84226327  1
  S  S7  1  0.94342606  0.27848937  0.84226377  1
  S  S8  1  0.72151369  0.66493811  0.84226412  1
  S  S9  1  0.66494018  0.94342785  0.15773673  1
  S  S10  1  0.05657394  0.72151063  0.15773623  1
  S  S11  1  0.27848631  0.33506189  0.15773588  1
  S  S12  1  0.16438461  0.35566074  0.64760893  1
  S  S13  1  0.64434240  0.80872649  0.64761017  1
  S  S14  1  0.19127235  0.83561315  0.64760805  1
  S  S15  1  0.83561539  0.64433926  0.35239107  1
  S  S16  1  0.35565760  0.19127351  0.35238983  1
  S  S17  1  0.80872765  0.16438685  0.35239195  1
  O  O18  1  0.12362901  0.18939093  0.63062053  1
  O  O19  1  0.81060883  0.93423729  0.63062085  1
  O  O20  1  0.06576274  0.87637242  0.63062119  1
  O  O21  1  0.87637099  0.81060907  0.36937947  1
  O  O22  1  0.18939117  0.06576271  0.36937915  1
  O  O23  1  0.93423726  0.12362758  0.36937881  1
  O  O24  1  0.18281343  0.05131474  0.85366283  1
  O  O25  1  0.94868457  0.13149842  0.85366291  1
  O  O26  1  0.86850138  0.81718673  0.85366194  1
  O  O27  1  0.81718657  0.94868526  0.14633717  1
  O  O28  1  0.05131543  0.86850158  0.14633709  1
  O  O29  1  0.13149862  0.18281327  0.14633806  1
  O  O30  1  0.33417591  0.99761442  0.70167618  1
  O  O31  1  0.00238755  0.33656205  0.70167457  1
  O  O32  1  0.66343714  0.66582450  0.70167509  1
  O  O33  1  0.66582409  0.00238558  0.29832382  1
  O  O34  1  0.99761245  0.66343795  0.29832543  1
  O  O35  1  0.33656286  0.33417550  0.29832491  1
  O  O36  1  0.46064086  0.21067258  0.83629496  1
  O  O37  1  0.78932774  0.24996943  0.83629369  1
  O  O38  1  0.75002871  0.53935588  0.83629414  1
  O  O39  1  0.53935914  0.78932742  0.16370504  1
  O  O40  1  0.21067226  0.75003057  0.16370631  1
  O  O41  1  0.24997129  0.46064412  0.16370586  1
  O  O42  1  0.17661174  0.42405444  0.53194354  1
  O  O43  1  0.57594763  0.75255705  0.53194414  1
  O  O44  1  0.24744374  0.82339070  0.53194393  1
  O  O45  1  0.82338826  0.57594556  0.46805646  1
  O  O46  1  0.42405237  0.24744295  0.46805586  1
  O  O47  1  0.75255626  0.17660930  0.46805607  1
  O  O48  1  0.34390399  0.95295641  0.92551088  1
  O  O49  1  0.04704647  0.39094942  0.92551061  1
  O  O50  1  0.60905439  0.65609677  0.92551061  1
  O  O51  1  0.65609601  0.04704359  0.07448912  1
  O  O52  1  0.95295353  0.60905058  0.07448939  1
  O  O53  1  0.39094561  0.34390323  0.07448939  1
  O  O54  1  0.28139126  0.43375718  0.73671580  1
  O  O55  1  0.56624338  0.84763381  0.73671580  1
  O  O56  1  0.15236676  0.71860949  0.73671647  1
  O  O57  1  0.71860874  0.56624282  0.26328420  1
  O  O58  1  0.43375662  0.15236619  0.26328420  1
  O  O59  1  0.84763324  0.28139051  0.26328353  1
