# generated using pymatgen
data_Y3Se2ClO8
_symmetry_space_group_name_H-M   'P 1'
_cell_length_a   5.58028043
_cell_length_b   11.17438032
_cell_length_c   14.76924160
_cell_angle_alpha   90.00000000
_cell_angle_beta   90.00000000
_cell_angle_gamma   90.00000000
_symmetry_Int_Tables_number   1
_chemical_formula_structural   Y3Se2ClO8
_chemical_formula_sum   'Y12 Se8 Cl4 O32'
_cell_volume   920.95342589
_cell_formula_units_Z   4
loop_
 _symmetry_equiv_pos_site_id
 _symmetry_equiv_pos_as_xyz
  1  'x, y, z'
loop_
 _atom_site_type_symbol
 _atom_site_label
 _atom_site_symmetry_multiplicity
 _atom_site_fract_x
 _atom_site_fract_y
 _atom_site_fract_z
 _atom_site_occupancy
  Y  Y0  1  0.43805141  0.85246987  0.75000000  1
  Y  Y1  1  0.93805141  0.64753013  0.75000000  1
  Y  Y2  1  0.56194859  0.14753013  0.25000000  1
  Y  Y3  1  0.06194859  0.35246987  0.25000000  1
  Y  Y4  1  0.42469832  0.64349988  0.93277784  1
  Y  Y5  1  0.92469832  0.85650012  0.56722216  1
  Y  Y6  1  0.57530168  0.35650012  0.43277784  1
  Y  Y7  1  0.07530168  0.14349988  0.06722216  1
  Y  Y8  1  0.57530168  0.35650012  0.06722216  1
  Y  Y9  1  0.07530168  0.14349988  0.43277784  1
  Y  Y10  1  0.42469832  0.64349988  0.56722216  1
  Y  Y11  1  0.92469832  0.85650012  0.93277784  1
  Se  Se12  1  0.40724295  0.87713060  0.39147732  1
  Se  Se13  1  0.90724295  0.62286940  0.10852268  1
  Se  Se14  1  0.59275705  0.12286940  0.89147732  1
  Se  Se15  1  0.09275705  0.37713060  0.60852268  1
  Se  Se16  1  0.59275705  0.12286940  0.60852268  1
  Se  Se17  1  0.09275705  0.37713060  0.89147732  1
  Se  Se18  1  0.40724295  0.87713060  0.10852268  1
  Se  Se19  1  0.90724295  0.62286940  0.39147732  1
  Cl  Cl20  1  0.42981247  0.52403705  0.75000000  1
  Cl  Cl21  1  0.92981247  0.97596295  0.75000000  1
  Cl  Cl22  1  0.57018753  0.47596295  0.25000000  1
  Cl  Cl23  1  0.07018753  0.02403705  0.25000000  1
  O  O24  1  0.43011050  0.00009548  0.86387932  1
  O  O25  1  0.93011050  0.49990452  0.63612068  1
  O  O26  1  0.56988950  -0.00009548  0.36387932  1
  O  O27  1  0.06988950  0.50009548  0.13612068  1
  O  O28  1  0.56988950  -0.00009548  0.13612068  1
  O  O29  1  0.06988950  0.50009548  0.36387932  1
  O  O30  1  0.43011050  0.00009548  0.63612068  1
  O  O31  1  0.93011050  0.49990452  0.86387932  1
  O  O32  1  0.07768496  0.68993875  0.47729730  1
  O  O33  1  0.57768496  0.81006125  0.02270270  1
  O  O34  1  0.92231504  0.31006125  0.97729730  1
  O  O35  1  0.42231504  0.18993875  0.52270270  1
  O  O36  1  0.92231504  0.31006125  0.52270270  1
  O  O37  1  0.42231504  0.18993875  0.97729730  1
  O  O38  1  0.07768496  0.68993875  0.02270270  1
  O  O39  1  0.57768496  0.81006125  0.47729730  1
  O  O40  1  0.17480690  0.94246929  0.45454631  1
  O  O41  1  0.67480690  0.55753071  0.04545369  1
  O  O42  1  0.82519310  0.05753071  0.95454631  1
  O  O43  1  0.32519310  0.44246929  0.54545369  1
  O  O44  1  0.82519310  0.05753071  0.54545369  1
  O  O45  1  0.32519310  0.44246929  0.95454631  1
  O  O46  1  0.17480690  0.94246929  0.04545369  1
  O  O47  1  0.67480690  0.55753071  0.45454631  1
  O  O48  1  0.18538810  0.75574969  0.84754003  1
  O  O49  1  0.68538810  0.74425031  0.65245997  1
  O  O50  1  0.81461190  0.24425031  0.34754003  1
  O  O51  1  0.31461190  0.25574969  0.15245997  1
  O  O52  1  0.81461190  0.24425031  0.15245997  1
  O  O53  1  0.31461190  0.25574969  0.34754003  1
  O  O54  1  0.18538810  0.75574969  0.65245997  1
  O  O55  1  0.68538810  0.74425031  0.84754003  1
