# generated using pymatgen
data_Ba2YInSe5
_symmetry_space_group_name_H-M   'P 1'
_cell_length_a   4.31520745
_cell_length_b   9.80231543
_cell_length_c   13.55904568
_cell_angle_alpha   90.00000000
_cell_angle_beta   90.00000000
_cell_angle_gamma   102.71559020
_symmetry_Int_Tables_number   1
_chemical_formula_structural   Ba2YInSe5
_chemical_formula_sum   'Ba4 Y2 In2 Se10'
_cell_volume   559.46829578
_cell_formula_units_Z   2
loop_
 _symmetry_equiv_pos_site_id
 _symmetry_equiv_pos_as_xyz
  1  'x, y, z'
loop_
 _atom_site_type_symbol
 _atom_site_label
 _atom_site_symmetry_multiplicity
 _atom_site_fract_x
 _atom_site_fract_y
 _atom_site_fract_z
 _atom_site_occupancy
  Ba  Ba0  1  0.13256818  0.26513636  0.18641408  1
  Ba  Ba1  1  0.86743182  0.73486364  0.68641408  1
  Ba  Ba2  1  0.11738993  0.23477986  0.81910851  1
  Ba  Ba3  1  0.88261007  0.76522014  0.31910851  1
  Y  Y4  1  0.21129102  0.42258204  0.48174761  1
  Y  Y5  1  0.78870898  0.57741796  0.98174761  1
  In  In6  1  0.44727410  0.89454819  0.06359912  1
  In  In7  1  0.55272590  0.10545181  0.56359912  1
  Se  Se8  1  0.35566698  0.71133396  0.49971810  1
  Se  Se9  1  0.64433302  0.28866604  0.99971810  1
  Se  Se10  1  0.29084790  0.58169580  0.84294360  1
  Se  Se11  1  0.70915210  0.41830420  0.34294360  1
  Se  Se12  1  0.31324774  0.62649547  0.12901616  1
  Se  Se13  1  0.68675226  0.37350453  0.62901616  1
  Se  Se14  1  0.50480026  0.00960053  0.23351314  1
  Se  Se15  1  0.49519974  0.99039947  0.73351314  1
  Se  Se16  1  0.05092278  0.10184556  0.45082968  1
  Se  Se17  1  0.94907722  0.89815444  0.95082968  1
