# generated using pymatgen
data_Tl2ZnH12(SeO7)2
_symmetry_space_group_name_H-M   'P 1'
_cell_length_a   6.45692332
_cell_length_b   9.41641259
_cell_length_c   12.84031274
_cell_angle_alpha   90.00000000
_cell_angle_beta   90.00000000
_cell_angle_gamma   105.06187196
_symmetry_Int_Tables_number   1
_chemical_formula_structural   Tl2ZnH12(SeO7)2
_chemical_formula_sum   'Tl4 Zn2 H24 Se4 O28'
_cell_volume   753.88404707
_cell_formula_units_Z   2
loop_
 _symmetry_equiv_pos_site_id
 _symmetry_equiv_pos_as_xyz
  1  'x, y, z'
loop_
 _atom_site_type_symbol
 _atom_site_label
 _atom_site_symmetry_multiplicity
 _atom_site_fract_x
 _atom_site_fract_y
 _atom_site_fract_z
 _atom_site_occupancy
  Tl  Tl0  1  0.34962992  0.62807802  0.14564557  1
  Tl  Tl1  1  0.65037008  0.87192198  0.64564557  1
  Tl  Tl2  1  0.65037008  0.37192198  0.85435443  1
  Tl  Tl3  1  0.34962992  0.12807802  0.35435443  1
  Zn  Zn4  1  -0.00000000  0.50000000  0.50000000  1
  Zn  Zn5  1  -0.00000000  -0.00000000  -0.00000000  1
  H  H6  1  0.32173414  0.70814355  0.41042526  1
  H  H7  1  0.67826586  0.79185645  0.91042526  1
  H  H8  1  0.67826586  0.29185645  0.58957474  1
  H  H9  1  0.32173414  0.20814355  0.08957474  1
  H  H10  1  0.10174924  0.74379232  0.37409897  1
  H  H11  1  0.89825076  0.75620768  0.87409897  1
  H  H12  1  0.89825076  0.25620768  0.62590103  1
  H  H13  1  0.10174924  0.24379232  0.12590103  1
  H  H14  1  0.93102136  0.23317324  0.40149849  1
  H  H15  1  0.06897864  0.26682676  0.90149849  1
  H  H16  1  0.06897864  0.76682676  0.59850151  1
  H  H17  1  0.93102136  0.73317324  0.09850151  1
  H  H18  1  0.00439069  0.35723961  0.31583339  1
  H  H19  1  0.99560931  0.14276039  0.81583339  1
  H  H20  1  0.99560931  0.64276039  0.68416661  1
  H  H21  1  0.00439069  0.85723961  0.18416661  1
  H  H22  1  0.33126146  0.39982061  0.55903449  1
  H  H23  1  0.66873854  0.10017939  0.05903449  1
  H  H24  1  0.66873854  0.60017939  0.44096551  1
  H  H25  1  0.33126146  0.89982061  0.94096551  1
  H  H26  1  0.32197410  0.52635995  0.63986030  1
  H  H27  1  0.67802590  0.97364005  0.13986030  1
  H  H28  1  0.67802590  0.47364005  0.36013970  1
  H  H29  1  0.32197410  0.02635995  0.86013970  1
  Se  Se30  1  0.73742055  0.90519343  0.36030371  1
  Se  Se31  1  0.26257945  0.59480657  0.86030371  1
  Se  Se32  1  0.26257945  0.09480657  0.63969629  1
  Se  Se33  1  0.73742055  0.40519343  0.13969629  1
  O  O34  1  0.58121654  0.91214659  0.25705655  1
  O  O35  1  0.41878346  0.58785341  0.75705655  1
  O  O36  1  0.41878346  0.08785341  0.74294345  1
  O  O37  1  0.58121654  0.41214659  0.24294345  1
  O  O38  1  0.77641805  0.06012612  0.42971590  1
  O  O39  1  0.22358195  0.43987388  0.92971590  1
  O  O40  1  0.22358195  0.93987388  0.57028410  1
  O  O41  1  0.77641805  0.56012612  0.07028410  1
  O  O42  1  0.60539553  0.76603246  0.43716408  1
  O  O43  1  0.39460447  0.73396754  0.93716408  1
  O  O44  1  0.39460447  0.23396754  0.56283592  1
  O  O45  1  0.60539553  0.26603246  0.06283592  1
  O  O46  1  0.97246927  0.87772728  0.32013710  1
  O  O47  1  0.02753073  0.62227272  0.82013710  1
  O  O48  1  0.02753073  0.12227272  0.67986290  1
  O  O49  1  0.97246927  0.37772728  0.17986290  1
  O  O50  1  0.17020642  0.66328398  0.39025293  1
  O  O51  1  0.82979358  0.83671602  0.89025293  1
  O  O52  1  0.82979358  0.33671602  0.60974707  1
  O  O53  1  0.17020642  0.16328398  0.10974707  1
  O  O54  1  0.02957416  0.33242895  0.38923304  1
  O  O55  1  0.97042584  0.16757105  0.88923304  1
  O  O56  1  0.97042584  0.66757105  0.61076696  1
  O  O57  1  0.02957416  0.83242895  0.11076696  1
  O  O58  1  0.29082587  0.49457846  0.56612933  1
  O  O59  1  0.70917413  0.00542154  0.06612933  1
  O  O60  1  0.70917413  0.50542154  0.43387067  1
  O  O61  1  0.29082587  0.99457846  0.93387067  1
