# generated using pymatgen
data_Fe2O3F
_symmetry_space_group_name_H-M   'P 1'
_cell_length_a   4.69974849
_cell_length_b   5.58597330
_cell_length_c   5.58597330
_cell_angle_alpha   114.55819924
_cell_angle_beta   93.12469203
_cell_angle_gamma   86.87530797
_symmetry_Int_Tables_number   1
_chemical_formula_structural   Fe2O3F
_chemical_formula_sum   'Fe4 O6 F2'
_cell_volume   133.10073794
_cell_formula_units_Z   2
loop_
 _symmetry_equiv_pos_site_id
 _symmetry_equiv_pos_as_xyz
  1  'x, y, z'
loop_
 _atom_site_type_symbol
 _atom_site_label
 _atom_site_symmetry_multiplicity
 _atom_site_fract_x
 _atom_site_fract_y
 _atom_site_fract_z
 _atom_site_occupancy
  Fe  Fe0  1  0.50000000  0.00000000  0.50000000  1
  Fe  Fe1  1  0.50000000  0.50000000  0.00000000  1
  Fe  Fe2  1  0.00000000  0.50000000  0.50000000  1
  Fe  Fe3  1  0.00000000  0.00000000  0.00000000  1
  O  O4  1  0.81900450  0.16211193  0.33788807  1
  O  O5  1  0.69501495  0.15356953  0.84770315  1
  O  O6  1  0.69501495  0.65229685  0.34643047  1
  O  O7  1  0.30498505  0.84643047  0.15229685  1
  O  O8  1  0.30498505  0.34770315  0.65356953  1
  O  O9  1  0.18099550  0.83788807  0.66211193  1
  F  F10  1  0.79982891  0.64801273  0.85198727  1
  F  F11  1  0.20017109  0.35198727  0.14801273  1
