# generated using pymatgen
data_Pu2IO10
_symmetry_space_group_name_H-M   'P 1'
_cell_length_a   6.93471505
_cell_length_b   11.48927713
_cell_length_c   11.33831650
_cell_angle_alpha   90.00000000
_cell_angle_beta   90.04632241
_cell_angle_gamma   90.00000000
_symmetry_Int_Tables_number   1
_chemical_formula_structural   Pu2IO10
_chemical_formula_sum   'Pu8 I4 O40'
_cell_volume   903.37851835
_cell_formula_units_Z   4
loop_
 _symmetry_equiv_pos_site_id
 _symmetry_equiv_pos_as_xyz
  1  'x, y, z'
loop_
 _atom_site_type_symbol
 _atom_site_label
 _atom_site_symmetry_multiplicity
 _atom_site_fract_x
 _atom_site_fract_y
 _atom_site_fract_z
 _atom_site_occupancy
  Pu  Pu0  1  0.41921006  0.71231676  0.31548664  1
  Pu  Pu1  1  0.91921006  0.78768324  0.81548664  1
  Pu  Pu2  1  0.58078994  0.28768324  0.68451336  1
  Pu  Pu3  1  0.08078994  0.21231676  0.18451336  1
  Pu  Pu4  1  0.92036887  0.74946196  0.45430684  1
  Pu  Pu5  1  0.42036887  0.75053804  0.95430684  1
  Pu  Pu6  1  0.07963113  0.25053804  0.54569316  1
  Pu  Pu7  1  0.57963113  0.24946196  0.04569316  1
  I  I8  1  0.41217748  0.80075379  0.63178808  1
  I  I9  1  0.91217748  0.69924621  0.13178808  1
  I  I10  1  0.58782252  0.19924621  0.36821192  1
  I  I11  1  0.08782252  0.30075379  0.86821192  1
  O  O12  1  0.24162471  0.76760971  0.76084098  1
  O  O13  1  0.74162471  0.73239029  0.26084098  1
  O  O14  1  0.75837529  0.23239029  0.23915902  1
  O  O15  1  0.25837529  0.26760971  0.73915902  1
  O  O16  1  0.46609674  0.56509517  0.35434160  1
  O  O17  1  0.96609674  0.93490483  0.85434160  1
  O  O18  1  0.53390326  0.43490483  0.64565840  1
  O  O19  1  0.03390326  0.06509517  0.14565840  1
  O  O20  1  0.61116948  0.77484739  0.46371954  1
  O  O21  1  0.11116948  0.72515261  0.96371954  1
  O  O22  1  0.38883052  0.22515261  0.53628046  1
  O  O23  1  0.88883052  0.27484739  0.03628046  1
  O  O24  1  0.97165424  0.89265903  0.40605166  1
  O  O25  1  0.47165424  0.60734097  0.90605166  1
  O  O26  1  0.02834576  0.10734097  0.59394834  1
  O  O27  1  0.52834576  0.39265903  0.09394834  1
  O  O28  1  0.09995452  0.68111587  0.31747881  1
  O  O29  1  0.59995452  0.81888413  0.81747881  1
  O  O30  1  0.90004548  0.31888413  0.68252119  1
  O  O31  1  0.40004548  0.18111587  0.18252119  1
  O  O32  1  0.36508163  0.86070948  0.28910469  1
  O  O33  1  0.86508163  0.63929052  0.78910469  1
  O  O34  1  0.63491837  0.13929052  0.71089531  1
  O  O35  1  0.13491837  0.36070948  0.21089531  1
  O  O36  1  0.36748570  0.95161676  0.61137153  1
  O  O37  1  0.86748570  0.54838324  0.11137153  1
  O  O38  1  0.63251430  0.04838324  0.38862847  1
  O  O39  1  0.13251430  0.45161676  0.88862847  1
  O  O40  1  0.24518600  0.73255206  0.51886599  1
  O  O41  1  0.74518600  0.76744794  0.01886599  1
  O  O42  1  0.75481400  0.26744794  0.48113401  1
  O  O43  1  0.25481400  0.23255206  0.98113401  1
  O  O44  1  0.87403922  0.60673967  0.50606618  1
  O  O45  1  0.37403922  0.89326033  0.00606618  1
  O  O46  1  0.12596078  0.39326033  0.49393382  1
  O  O47  1  0.62596078  0.10673967  0.99393382  1
  O  O48  1  0.89758336  0.81474391  0.63818957  1
  O  O49  1  0.39758336  0.68525609  0.13818957  1
  O  O50  1  0.10241664  0.18525609  0.36181043  1
  O  O51  1  0.60241664  0.31474391  0.86181043  1
