# generated using pymatgen
data_Gd2Si4CN6
_symmetry_space_group_name_H-M   'P 1'
_cell_length_a   5.99959805
_cell_length_b   10.01411772
_cell_length_c   10.45133176
_cell_angle_alpha   90.00000000
_cell_angle_beta   89.62009642
_cell_angle_gamma   90.00000000
_symmetry_Int_Tables_number   1
_chemical_formula_structural   Gd2Si4CN6
_chemical_formula_sum   'Gd8 Si16 C4 N24'
_cell_volume   627.90932737
_cell_formula_units_Z   4
loop_
 _symmetry_equiv_pos_site_id
 _symmetry_equiv_pos_as_xyz
  1  'x, y, z'
loop_
 _atom_site_type_symbol
 _atom_site_label
 _atom_site_symmetry_multiplicity
 _atom_site_fract_x
 _atom_site_fract_y
 _atom_site_fract_z
 _atom_site_occupancy
  Gd  Gd0  1  0.73667922  0.93499204  0.59504337  1
  Gd  Gd1  1  0.76332078  0.43499204  0.90495663  1
  Gd  Gd2  1  0.26332078  0.06500796  0.40495663  1
  Gd  Gd3  1  0.23667922  0.56500796  0.09504337  1
  Gd  Gd4  1  0.74290662  0.08412788  0.91924747  1
  Gd  Gd5  1  0.75709338  0.58412788  0.58075253  1
  Gd  Gd6  1  0.25709338  0.91587212  0.08075253  1
  Gd  Gd7  1  0.24290662  0.41587212  0.41924747  1
  Si  Si8  1  0.25663710  0.01911769  0.74928007  1
  Si  Si9  1  0.24336290  0.51911769  0.75071993  1
  Si  Si10  1  0.74336290  0.98088231  0.25071993  1
  Si  Si11  1  0.75663710  0.48088231  0.24928007  1
  Si  Si12  1  0.24528172  0.28652145  0.92051371  1
  Si  Si13  1  0.25471828  0.78652145  0.57948629  1
  Si  Si14  1  0.75471828  0.71347855  0.07948629  1
  Si  Si15  1  0.74528172  0.21347855  0.42051371  1
  Si  Si16  1  0.52467623  0.29293208  0.67663307  1
  Si  Si17  1  0.97532377  0.79293208  0.82336693  1
  Si  Si18  1  0.47532377  0.70706792  0.32336693  1
  Si  Si19  1  0.02467623  0.20706792  0.17663307  1
  Si  Si20  1  0.01781220  0.27219149  0.65926340  1
  Si  Si21  1  0.48218780  0.77219149  0.84073660  1
  Si  Si22  1  0.98218780  0.72780851  0.34073660  1
  Si  Si23  1  0.51781220  0.22780851  0.15926340  1
  C  C24  1  0.27037990  0.20715174  0.75240300  1
  C  C25  1  0.22962010  0.70715174  0.74759700  1
  C  C26  1  0.72962010  0.79284826  0.24759700  1
  C  C27  1  0.77037990  0.29284826  0.25240300  1
  N  N28  1  0.53557757  0.28790376  0.51050824  1
  N  N29  1  0.96442243  0.78790376  0.98949176  1
  N  N30  1  0.46442243  0.71209624  0.48949176  1
  N  N31  1  0.03557757  0.21209624  0.01050824  1
  N  N32  1  0.16125575  0.45354627  0.89889366  1
  N  N33  1  0.33874425  0.95354627  0.60110634  1
  N  N34  1  0.83874425  0.54645373  0.10110634  1
  N  N35  1  0.66125575  0.04645373  0.39889366  1
  N  N36  1  0.51370978  0.46177142  0.72231095  1
  N  N37  1  0.98629022  0.96177142  0.77768905  1
  N  N38  1  0.48629022  0.53822858  0.27768905  1
  N  N39  1  0.01370978  0.03822858  0.22231095  1
  N  N40  1  0.00217510  0.21059029  0.50195853  1
  N  N41  1  0.49782490  0.71059029  0.99804147  1
  N  N42  1  0.99782490  0.78940971  0.49804147  1
  N  N43  1  0.50217510  0.28940971  0.00195853  1
  N  N44  1  0.77279690  0.23624105  0.74477226  1
  N  N45  1  0.72720310  0.73624105  0.75522774  1
  N  N46  1  0.22720310  0.76375895  0.25522774  1
  N  N47  1  0.27279690  0.26375895  0.24477226  1
  N  N48  1  0.06289734  0.44552683  0.63909178  1
  N  N49  1  0.43710266  0.94552683  0.86090822  1
  N  N50  1  0.93710266  0.55447317  0.36090822  1
  N  N51  1  0.56289734  0.05447317  0.13909178  1
