# generated using pymatgen
data_NaCaMn2P3(HO6)2
_symmetry_space_group_name_H-M   'P 1'
_cell_length_a   6.79166072
_cell_length_b   8.92409663
_cell_length_c   8.92409663
_cell_angle_alpha   89.58481101
_cell_angle_beta   72.33487576
_cell_angle_gamma   72.33487576
_symmetry_Int_Tables_number   1
_chemical_formula_structural   NaCaMn2P3(HO6)2
_chemical_formula_sum   'Na2 Ca2 Mn4 P6 H4 O24'
_cell_volume   488.92917588
_cell_formula_units_Z   2
loop_
 _symmetry_equiv_pos_site_id
 _symmetry_equiv_pos_as_xyz
  1  'x, y, z'
loop_
 _atom_site_type_symbol
 _atom_site_label
 _atom_site_symmetry_multiplicity
 _atom_site_fract_x
 _atom_site_fract_y
 _atom_site_fract_z
 _atom_site_occupancy
  Na  Na0  1  0.75000000  0.04467780  0.95532220  1
  Na  Na1  1  0.25000000  0.95532220  0.04467780  1
  Ca  Ca2  1  0.75000000  0.71263333  0.28736667  1
  Ca  Ca3  1  0.25000000  0.28736667  0.71263333  1
  Mn  Mn4  1  0.86071502  0.05480914  0.38107896  1
  Mn  Mn5  1  0.63928498  0.61892104  0.94519086  1
  Mn  Mn6  1  0.13928498  0.94519086  0.61892104  1
  Mn  Mn7  1  0.36071502  0.38107896  0.05480914  1
  P  P8  1  0.75000000  0.31075180  0.68924820  1
  P  P9  1  0.25000000  0.68924820  0.31075180  1
  P  P10  1  0.61496856  0.89097318  0.68204093  1
  P  P11  1  0.88503144  0.31795907  0.10902682  1
  P  P12  1  0.38503144  0.10902682  0.31795907  1
  P  P13  1  0.11496856  0.68204093  0.89097318  1
  H  H14  1  0.80276183  0.37319340  0.37328690  1
  H  H15  1  0.69723817  0.62671310  0.62680660  1
  H  H16  1  0.19723817  0.62680660  0.62671310  1
  H  H17  1  0.30276183  0.37328690  0.37319340  1
  O  O18  1  0.04373221  0.80663346  0.28319835  1
  O  O19  1  0.45626779  0.71680165  0.19336654  1
  O  O20  1  0.95626779  0.19336654  0.71680165  1
  O  O21  1  0.54373221  0.28319835  0.80663346  1
  O  O22  1  0.74117480  0.28491674  0.51873437  1
  O  O23  1  0.75882520  0.48126563  0.71508326  1
  O  O24  1  0.25882520  0.71508326  0.48126563  1
  O  O25  1  0.24117480  0.51873437  0.28491674  1
  O  O26  1  0.59848788  0.99088961  0.32790377  1
  O  O27  1  0.90151212  0.67209623  0.00911039  1
  O  O28  1  0.40151212  0.00911039  0.67209623  1
  O  O29  1  0.09848788  0.32790377  0.99088961  1
  O  O30  1  0.84114039  0.42553611  0.26843699  1
  O  O31  1  0.65885961  0.73156301  0.57446389  1
  O  O32  1  0.15885961  0.57446389  0.73156301  1
  O  O33  1  0.34114039  0.26843699  0.42553611  1
  O  O34  1  0.80751080  0.95351482  0.61166922  1
  O  O35  1  0.69248920  0.38833078  0.04648518  1
  O  O36  1  0.19248920  0.04648518  0.38833078  1
  O  O37  1  0.30751080  0.61166922  0.95351482  1
  O  O38  1  0.90443177  0.14795800  0.15134937  1
  O  O39  1  0.59556823  0.84865063  0.85204200  1
  O  O40  1  0.09556823  0.85204200  0.84865063  1
  O  O41  1  0.40443177  0.15134937  0.14795800  1
