# generated using pymatgen
data_Nd2H6Se7O20
_symmetry_space_group_name_H-M   'P 1'
_cell_length_a   7.44773390
_cell_length_b   10.82726445
_cell_length_c   23.84240333
_cell_angle_alpha   90.00000000
_cell_angle_beta   90.00000000
_cell_angle_gamma   90.00000000
_symmetry_Int_Tables_number   1
_chemical_formula_structural   Nd2H6Se7O20
_chemical_formula_sum   'Nd8 H24 Se28 O80'
_cell_volume   1922.61765534
_cell_formula_units_Z   4
loop_
 _symmetry_equiv_pos_site_id
 _symmetry_equiv_pos_as_xyz
  1  'x, y, z'
loop_
 _atom_site_type_symbol
 _atom_site_label
 _atom_site_symmetry_multiplicity
 _atom_site_fract_x
 _atom_site_fract_y
 _atom_site_fract_z
 _atom_site_occupancy
  Nd  Nd0  1  0.95578563  0.06854176  0.98379623  1
  Nd  Nd1  1  0.04421437  0.93145824  0.48379623  1
  Nd  Nd2  1  0.45578563  0.43145824  0.48379623  1
  Nd  Nd3  1  0.54421437  0.56854176  0.98379623  1
  Nd  Nd4  1  0.04583587  0.16165996  0.80733843  1
  Nd  Nd5  1  0.95416413  0.83834004  0.30733843  1
  Nd  Nd6  1  0.54583587  0.33834004  0.30733843  1
  Nd  Nd7  1  0.45416413  0.66165996  0.80733843  1
  H  H8  1  0.51397562  0.15391460  0.16703885  1
  H  H9  1  0.48602438  0.84608540  0.66703885  1
  H  H10  1  0.01397562  0.34608540  0.66703885  1
  H  H11  1  0.98602438  0.65391460  0.16703885  1
  H  H12  1  0.71789167  0.84072204  0.17969641  1
  H  H13  1  0.28210833  0.15927796  0.67969641  1
  H  H14  1  0.21789167  0.65927796  0.67969641  1
  H  H15  1  0.78210833  0.34072204  0.17969641  1
  H  H16  1  0.18734677  0.96754343  0.08628345  1
  H  H17  1  0.81265323  0.03245657  0.58628345  1
  H  H18  1  0.68734677  0.53245657  0.58628345  1
  H  H19  1  0.31265323  0.46754343  0.08628345  1
  H  H20  1  0.17617698  0.11154653  0.09958652  1
  H  H21  1  0.82382302  0.88845347  0.59958652  1
  H  H22  1  0.67617698  0.38845347  0.59958652  1
  H  H23  1  0.32382302  0.61154653  0.09958652  1
  H  H24  1  0.86964853  0.31150783  0.05516041  1
  H  H25  1  0.13035147  0.68849217  0.55516041  1
  H  H26  1  0.36964853  0.18849217  0.55516041  1
  H  H27  1  0.63035147  0.81150783  0.05516041  1
  H  H28  1  0.07314848  0.28744993  0.06010462  1
  H  H29  1  0.92685152  0.71255007  0.56010462  1
  H  H30  1  0.57314848  0.21255007  0.56010462  1
  H  H31  1  0.42685152  0.78744993  0.06010462  1
  Se  Se32  1  0.06701160  0.71795593  0.00860834  1
  Se  Se33  1  0.93298840  0.28204407  0.50860834  1
  Se  Se34  1  0.56701160  0.78204407  0.50860834  1
  Se  Se35  1  0.43298840  0.21795593  0.00860834  1
  Se  Se36  1  0.79346462  0.79142113  0.90552161  1
  Se  Se37  1  0.20653538  0.20857887  0.40552161  1
  Se  Se38  1  0.29346462  0.70857887  0.40552161  1
  Se  Se39  1  0.70653538  0.29142113  0.90552161  1
  Se  Se40  1  0.29514931  0.93643654  0.89252986  1
  Se  Se41  1  0.70485069  0.06356346  0.39252986  1
  Se  Se42  1  0.79514931  0.56356346  0.39252986  1
  Se  Se43  1  0.20485069  0.43643654  0.89252986  1
  Se  Se44  1  0.56127404  0.99604300  0.78580356  1
  Se  Se45  1  0.43872596  0.00395700  0.28580356  1
  Se  Se46  1  0.06127404  0.50395700  0.28580356  1
  Se  Se47  1  0.93872596  0.49604300  0.78580356  1
  Se  Se48  1  0.03648048  0.82596287  0.76452002  1
  Se  Se49  1  0.96351952  0.17403713  0.26452002  1
  Se  Se50  1  0.53648048  0.67403713  0.26452002  1
  Se  Se51  1  0.46351952  0.32596287  0.76452002  1
  Se  Se52  1  0.76414164  0.68059453  0.68063098  1
  Se  Se53  1  0.23585836  0.31940547  0.18063098  1
  Se  Se54  1  0.26414164  0.81940547  0.18063098  1
  Se  Se55  1  0.73585836  0.18059453  0.68063098  1
  Se  Se56  1  0.74539573  0.02924263  0.12819601  1
  Se  Se57  1  0.25460427  0.97075737  0.62819601  1
  Se  Se58  1  0.24539573  0.47075737  0.62819601  1
  Se  Se59  1  0.75460427  0.52924263  0.12819601  1
  O  O60  1  0.10357417  0.86772207  0.98961615  1
  O  O61  1  0.89642583  0.13227793  0.48961615  1
  O  O62  1  0.60357417  0.63227793  0.48961615  1
  O  O63  1  0.39642583  0.36772207  0.98961615  1
  O  O64  1  0.22952488  0.64119713  0.97395740  1
  O  O65  1  0.77047512  0.35880287  0.47395740  1
  O  O66  1  0.72952488  0.85880287  0.47395740  1
  O  O67  1  0.27047512  0.14119713  0.97395740  1
  O  O68  1  0.86378153  0.68571462  0.96520140  1
  O  O69  1  0.13621847  0.31428538  0.46520140  1
  O  O70  1  0.36378153  0.81428538  0.46520140  1
  O  O71  1  0.63621847  0.18571462  0.96520140  1
  O  O72  1  0.74501275  0.92243527  0.93972507  1
  O  O73  1  0.25498725  0.07756473  0.43972507  1
  O  O74  1  0.24501275  0.57756473  0.43972507  1
  O  O75  1  0.75498725  0.42243527  0.93972507  1
  O  O76  1  0.59356146  0.71184842  0.90326791  1
  O  O77  1  0.40643854  0.28815158  0.40326791  1
  O  O78  1  0.09356146  0.78815158  0.40326791  1
  O  O79  1  0.90643854  0.21184842  0.90326791  1
  O  O80  1  0.25782019  0.81104619  0.85166624  1
  O  O81  1  0.74217981  0.18895381  0.35166624  1
  O  O82  1  0.75782019  0.68895381  0.35166624  1
  O  O83  1  0.24217981  0.31104619  0.85166624  1
  O  O84  1  0.09300113  0.01039419  0.88677796  1
  O  O85  1  0.90699887  0.98960581  0.38677796  1
  O  O86  1  0.59300113  0.48960581  0.38677796  1
  O  O87  1  0.40699887  0.51039419  0.88677796  1
  O  O88  1  0.40172002  0.04742660  0.84071381  1
  O  O89  1  0.59827998  0.95257340  0.34071381  1
  O  O90  1  0.90172002  0.45257340  0.34071381  1
  O  O91  1  0.09827998  0.54742660  0.84071381  1
  O  O92  1  0.62897266  0.85713164  0.81064160  1
  O  O93  1  0.37102734  0.14286836  0.31064160  1
  O  O94  1  0.12897266  0.64286836  0.31064160  1
  O  O95  1  0.87102734  0.35713164  0.81064160  1
  O  O96  1  0.73475248  0.09215373  0.79962009  1
  O  O97  1  0.26524752  0.90784627  0.29962009  1
  O  O98  1  0.23475248  0.40784627  0.29962009  1
  O  O99  1  0.76524752  0.59215373  0.79962009  1
  O  O100  1  0.11238695  0.97125696  0.75331245  1
  O  O101  1  0.88761305  0.02874304  0.25331245  1
  O  O102  1  0.61238695  0.52874304  0.25331245  1
  O  O103  1  0.38761305  0.47125696  0.75331245  1
  O  O104  1  0.20644556  0.72903368  0.74263688  1
  O  O105  1  0.79355444  0.27096632  0.24263688  1
  O  O106  1  0.70644556  0.77096632  0.24263688  1
  O  O107  1  0.29355444  0.22903368  0.74263688  1
  O  O108  1  0.89863574  0.82102862  0.69889102  1
  O  O109  1  0.10136426  0.17897138  0.19889102  1
  O  O110  1  0.39863574  0.67897138  0.19889102  1
  O  O111  1  0.60136426  0.32102862  0.69889102  1
  O  O112  1  0.55887473  0.72303098  0.70546543  1
  O  O113  1  0.44112527  0.27696902  0.20546543  1
  O  O114  1  0.05887473  0.77696902  0.20546543  1
  O  O115  1  0.94112527  0.22303098  0.70546543  1
  O  O116  1  0.75292174  0.70803595  0.61077300  1
  O  O117  1  0.24707826  0.29196405  0.11077300  1
  O  O118  1  0.25292174  0.79196405  0.11077300  1
  O  O119  1  0.74707826  0.20803595  0.61077300  1
  O  O120  1  0.73172456  0.02185025  0.05821256  1
  O  O121  1  0.26827544  0.97814975  0.55821256  1
  O  O122  1  0.23172456  0.47814975  0.55821256  1
  O  O123  1  0.76827544  0.52185025  0.05821256  1
  O  O124  1  0.51961272  0.07378660  0.14481381  1
  O  O125  1  0.48038728  0.92621340  0.64481381  1
  O  O126  1  0.01961272  0.42621340  0.64481381  1
  O  O127  1  0.98038728  0.57378660  0.14481381  1
  O  O128  1  0.71191840  0.86750523  0.13890390  1
  O  O129  1  0.28808160  0.13249477  0.63890390  1
  O  O130  1  0.21191840  0.63249477  0.63890390  1
  O  O131  1  0.78808160  0.36750523  0.13890390  1
  O  O132  1  0.11355283  0.04187910  0.08150372  1
  O  O133  1  0.88644717  0.95812090  0.58150372  1
  O  O134  1  0.61355283  0.45812090  0.58150372  1
  O  O135  1  0.38644717  0.54187910  0.08150372  1
  O  O136  1  0.96694585  0.26739380  0.03658430  1
  O  O137  1  0.03305415  0.73260620  0.53658430  1
  O  O138  1  0.46694585  0.23260620  0.53658430  1
  O  O139  1  0.53305415  0.76739380  0.03658430  1
