# generated using pymatgen
data_Sm(Ni2B)6
_symmetry_space_group_name_H-M   'P 1'
_cell_length_a   6.03446603
_cell_length_b   6.03446603
_cell_length_c   11.02448913
_cell_angle_alpha   90.00000000
_cell_angle_beta   90.00000000
_cell_angle_gamma   104.76836204
_symmetry_Int_Tables_number   1
_chemical_formula_structural   Sm(Ni2B)6
_chemical_formula_sum   'Sm2 Ni24 B12'
_cell_volume   388.19202196
_cell_formula_units_Z   2
loop_
 _symmetry_equiv_pos_site_id
 _symmetry_equiv_pos_as_xyz
  1  'x, y, z'
loop_
 _atom_site_type_symbol
 _atom_site_label
 _atom_site_symmetry_multiplicity
 _atom_site_fract_x
 _atom_site_fract_y
 _atom_site_fract_z
 _atom_site_occupancy
  Sm  Sm0  1  0.83351453  0.83351453  0.49772292  1
  Sm  Sm1  1  0.16648547  0.16648547  0.99772292  1
  Ni  Ni2  1  0.56608158  0.56608158  0.91805704  1
  Ni  Ni3  1  0.43391842  0.43391842  0.41805704  1
  Ni  Ni4  1  0.78193752  0.78193752  0.09929156  1
  Ni  Ni5  1  0.21806248  0.21806248  0.59929156  1
  Ni  Ni6  1  0.80520480  0.54330551  0.73412055  1
  Ni  Ni7  1  0.54330551  0.80520480  0.73412055  1
  Ni  Ni8  1  0.19479520  0.45669449  0.23412055  1
  Ni  Ni9  1  0.45669449  0.19479520  0.23412055  1
  Ni  Ni10  1  0.88143081  0.14484235  0.75547585  1
  Ni  Ni11  1  0.14484235  0.88143081  0.75547585  1
  Ni  Ni12  1  0.11856919  0.85515765  0.25547585  1
  Ni  Ni13  1  0.85515765  0.11856919  0.25547585  1
  Ni  Ni14  1  0.27240833  0.65921411  0.56765313  1
  Ni  Ni15  1  0.65921411  0.27240833  0.56765313  1
  Ni  Ni16  1  0.72759167  0.34078589  0.06765313  1
  Ni  Ni17  1  0.34078589  0.72759167  0.06765313  1
  Ni  Ni18  1  0.99603630  0.63040553  0.93668027  1
  Ni  Ni19  1  0.63040553  0.99603630  0.93668027  1
  Ni  Ni20  1  0.00396370  0.36959447  0.43668027  1
  Ni  Ni21  1  0.36959447  0.00396370  0.43668027  1
  Ni  Ni22  1  0.21210926  0.47362144  0.77547412  1
  Ni  Ni23  1  0.47362144  0.21210926  0.77547412  1
  Ni  Ni24  1  0.78789074  0.52637856  0.27547412  1
  Ni  Ni25  1  0.52637856  0.78789074  0.27547412  1
  B  B26  1  0.83611143  0.83611143  0.83713416  1
  B  B27  1  0.16388857  0.16388857  0.33713416  1
  B  B28  1  0.48671081  0.48671081  0.65652133  1
  B  B29  1  0.51328919  0.51328919  0.15652133  1
  B  B30  1  0.75562537  0.32555776  0.88559457  1
  B  B31  1  0.32555776  0.75562537  0.88559457  1
  B  B32  1  0.24437463  0.67444224  0.38559457  1
  B  B33  1  0.67444224  0.24437463  0.38559457  1
  B  B34  1  0.98753705  0.40153140  0.62213802  1
  B  B35  1  0.40153140  0.98753705  0.62213802  1
  B  B36  1  0.01246295  0.59846860  0.12213802  1
  B  B37  1  0.59846860  0.01246295  0.12213802  1
