# generated using pymatgen
data_Ba2NdInTe5
_symmetry_space_group_name_H-M   'P 1'
_cell_length_a   4.63420463
_cell_length_b   10.59040627
_cell_length_c   14.39691272
_cell_angle_alpha   90.00000000
_cell_angle_beta   90.00000000
_cell_angle_gamma   102.63812536
_symmetry_Int_Tables_number   1
_chemical_formula_structural   Ba2NdInTe5
_chemical_formula_sum   'Ba4 Nd2 In2 Te10'
_cell_volume   689.45397502
_cell_formula_units_Z   2
loop_
 _symmetry_equiv_pos_site_id
 _symmetry_equiv_pos_as_xyz
  1  'x, y, z'
loop_
 _atom_site_type_symbol
 _atom_site_label
 _atom_site_symmetry_multiplicity
 _atom_site_fract_x
 _atom_site_fract_y
 _atom_site_fract_z
 _atom_site_occupancy
  Ba  Ba0  1  0.87143780  0.74287561  0.81698204  1
  Ba  Ba1  1  0.12856220  0.25712439  0.31698204  1
  Ba  Ba2  1  0.88185321  0.76370643  0.18145382  1
  Ba  Ba3  1  0.11814679  0.23629357  0.68145382  1
  Nd  Nd4  1  0.79049300  0.58098600  0.51783887  1
  Nd  Nd5  1  0.20950700  0.41901400  0.01783887  1
  In  In6  1  0.55634152  0.11268304  0.93455666  1
  In  In7  1  0.44365848  0.88731696  0.43455666  1
  Te  Te8  1  0.64169546  0.28339092  0.50134206  1
  Te  Te9  1  0.35830454  0.71660908  0.00134206  1
  Te  Te10  1  0.70772507  0.41545014  0.16506483  1
  Te  Te11  1  0.29227493  0.58454986  0.66506483  1
  Te  Te12  1  0.68794509  0.37589018  0.86156501  1
  Te  Te13  1  0.31205491  0.62410982  0.36156501  1
  Te  Te14  1  0.49631532  0.99263064  0.76295263  1
  Te  Te15  1  0.50368468  0.00736936  0.26295263  1
  Te  Te16  1  0.95252104  0.90504207  0.55024409  1
  Te  Te17  1  0.04747896  0.09495793  0.05024409  1
