# generated using pymatgen
data_Ba4Ga2Fe(S3F2)2
_symmetry_space_group_name_H-M   'P 1'
_cell_length_a   6.19338837
_cell_length_b   12.87266570
_cell_length_c   19.06478958
_cell_angle_alpha   90.00000000
_cell_angle_beta   90.00000000
_cell_angle_gamma   90.00000000
_symmetry_Int_Tables_number   1
_chemical_formula_structural   Ba4Ga2Fe(S3F2)2
_chemical_formula_sum   'Ba16 Ga8 Fe4 S24 F16'
_cell_volume   1519.94831906
_cell_formula_units_Z   4
loop_
 _symmetry_equiv_pos_site_id
 _symmetry_equiv_pos_as_xyz
  1  'x, y, z'
loop_
 _atom_site_type_symbol
 _atom_site_label
 _atom_site_symmetry_multiplicity
 _atom_site_fract_x
 _atom_site_fract_y
 _atom_site_fract_z
 _atom_site_occupancy
  Ba  Ba0  1  0.26594790  0.75088348  0.07896515  1
  Ba  Ba1  1  0.23405210  0.25088348  0.42103485  1
  Ba  Ba2  1  0.73405210  0.24911652  0.57896515  1
  Ba  Ba3  1  0.76594790  0.74911652  0.92103485  1
  Ba  Ba4  1  0.73405210  0.24911652  0.92103485  1
  Ba  Ba5  1  0.76594790  0.74911652  0.57896515  1
  Ba  Ba6  1  0.26594790  0.75088348  0.42103485  1
  Ba  Ba7  1  0.23405210  0.25088348  0.07896515  1
  Ba  Ba8  1  0.75656213  0.99793598  0.07852682  1
  Ba  Ba9  1  0.74343787  0.49793598  0.42147318  1
  Ba  Ba10  1  0.24343787  0.00206402  0.57852682  1
  Ba  Ba11  1  0.25656213  0.50206402  0.92147318  1
  Ba  Ba12  1  0.24343787  0.00206402  0.92147318  1
  Ba  Ba13  1  0.25656213  0.50206402  0.57852682  1
  Ba  Ba14  1  0.75656213  0.99793598  0.42147318  1
  Ba  Ba15  1  0.74343787  0.49793598  0.07852682  1
  Ga  Ga16  1  0.64187966  0.79591206  0.25000000  1
  Ga  Ga17  1  0.85812034  0.29591206  0.25000000  1
  Ga  Ga18  1  0.35812034  0.20408794  0.75000000  1
  Ga  Ga19  1  0.14187966  0.70408794  0.75000000  1
  Ga  Ga20  1  0.13949253  0.95137946  0.25000000  1
  Ga  Ga21  1  0.36050747  0.45137946  0.25000000  1
  Ga  Ga22  1  0.86050747  0.04862054  0.75000000  1
  Ga  Ga23  1  0.63949253  0.54862054  0.75000000  1
  Fe  Fe24  1  0.49845140  0.12423354  0.25000000  1
  Fe  Fe25  1  0.00154860  0.62423354  0.25000000  1
  Fe  Fe26  1  0.50154860  0.87576646  0.75000000  1
  Fe  Fe27  1  0.99845140  0.37576646  0.75000000  1
  S  S28  1  0.27346389  0.02181427  0.34906614  1
  S  S29  1  0.22653611  0.52181427  0.15093386  1
  S  S30  1  0.72653611  0.97818573  0.84906614  1
  S  S31  1  0.77346389  0.47818573  0.65093386  1
  S  S32  1  0.72653611  0.97818573  0.65093386  1
  S  S33  1  0.77346389  0.47818573  0.84906614  1
  S  S34  1  0.27346389  0.02181427  0.15093386  1
  S  S35  1  0.22653611  0.52181427  0.34906614  1
  S  S36  1  0.77746369  0.72584696  0.15099993  1
  S  S37  1  0.72253631  0.22584696  0.34900007  1
  S  S38  1  0.22253631  0.27415304  0.65099993  1
  S  S39  1  0.27746369  0.77415304  0.84900007  1
  S  S40  1  0.22253631  0.27415304  0.84900007  1
  S  S41  1  0.27746369  0.77415304  0.65099993  1
  S  S42  1  0.77746369  0.72584696  0.34900007  1
  S  S43  1  0.72253631  0.22584696  0.15099993  1
  S  S44  1  0.26445956  0.77983206  0.25000000  1
  S  S45  1  0.23554044  0.27983206  0.25000000  1
  S  S46  1  0.73554044  0.22016794  0.75000000  1
  S  S47  1  0.76445956  0.72016794  0.75000000  1
  S  S48  1  0.76213393  0.96765165  0.25000000  1
  S  S49  1  0.73786607  0.46765165  0.25000000  1
  S  S50  1  0.23786607  0.03234835  0.75000000  1
  S  S51  1  0.26213393  0.53234835  0.75000000  1
  F  F52  1  0.01183820  0.87477915  0.00204763  1
  F  F53  1  0.48816180  0.37477915  0.49795237  1
  F  F54  1  0.98816180  0.12522085  0.50204763  1
  F  F55  1  0.51183820  0.62522085  0.99795237  1
  F  F56  1  0.98816180  0.12522085  0.99795237  1
  F  F57  1  0.51183820  0.62522085  0.50204763  1
  F  F58  1  0.01183820  0.87477915  0.49795237  1
  F  F59  1  0.48816180  0.37477915  0.00204763  1
  F  F60  1  0.00702240  0.62442817  0.00040979  1
  F  F61  1  0.49297760  0.12442817  0.49959021  1
  F  F62  1  0.99297760  0.37557183  0.50040979  1
  F  F63  1  0.50702240  0.87557183  0.99959021  1
  F  F64  1  0.99297760  0.37557183  0.99959021  1
  F  F65  1  0.50702240  0.87557183  0.50040979  1
  F  F66  1  0.00702240  0.62442817  0.49959021  1
  F  F67  1  0.49297760  0.12442817  0.00040979  1
