# generated using pymatgen
data_SmMn2SiC
_symmetry_space_group_name_H-M   'P 1'
_cell_length_a   3.79244861
_cell_length_b   5.65301509
_cell_length_c   7.04703020
_cell_angle_alpha   90.00000000
_cell_angle_beta   90.00000000
_cell_angle_gamma   109.59904801
_symmetry_Int_Tables_number   1
_chemical_formula_structural   SmMn2SiC
_chemical_formula_sum   'Sm2 Mn4 Si2 C2'
_cell_volume   142.32655611
_cell_formula_units_Z   2
loop_
 _symmetry_equiv_pos_site_id
 _symmetry_equiv_pos_as_xyz
  1  'x, y, z'
loop_
 _atom_site_type_symbol
 _atom_site_label
 _atom_site_symmetry_multiplicity
 _atom_site_fract_x
 _atom_site_fract_y
 _atom_site_fract_z
 _atom_site_occupancy
  Sm  Sm0  1  0.45466819  0.90933637  0.25000000  1
  Sm  Sm1  1  0.54533181  0.09066363  0.75000000  1
  Mn  Mn2  1  0.16786027  0.33572054  0.06290650  1
  Mn  Mn3  1  0.83213973  0.66427946  0.93709350  1
  Mn  Mn4  1  0.83213973  0.66427946  0.56290650  1
  Mn  Mn5  1  0.16786027  0.33572054  0.43709350  1
  Si  Si6  1  0.73444933  0.46889866  0.25000000  1
  Si  Si7  1  0.26555067  0.53110134  0.75000000  1
  C  C8  1  -0.00000000  -0.00000000  0.00000000  1
  C  C9  1  -0.00000000  -0.00000000  0.50000000  1
