# generated using pymatgen
data_KSnS2
_symmetry_space_group_name_H-M   'P 1'
_cell_length_a   7.90015872
_cell_length_b   7.90015872
_cell_length_c   7.90015872
_cell_angle_alpha   29.35856874
_cell_angle_beta   29.35856874
_cell_angle_gamma   29.35856875
_symmetry_Int_Tables_number   1
_chemical_formula_structural   KSnS2
_chemical_formula_sum   'K1 Sn1 S2'
_cell_volume   104.88238520
_cell_formula_units_Z   1
loop_
 _symmetry_equiv_pos_site_id
 _symmetry_equiv_pos_as_xyz
  1  'x, y, z'
loop_
 _atom_site_type_symbol
 _atom_site_label
 _atom_site_symmetry_multiplicity
 _atom_site_fract_x
 _atom_site_fract_y
 _atom_site_fract_z
 _atom_site_occupancy
  S  S0  1  0.60127435  0.60127435  0.60127435  1
  S  S1  1  0.40220519  0.40220519  0.40220519  1
  K  K2  1  0.83452714  0.83452714  0.83452714  1
  Sn  Sn3  1  0.00199332  0.00199332  0.00199332  1
