# generated using pymatgen
data_Er7(TePd)2
_symmetry_space_group_name_H-M   'P 1'
_cell_length_a   3.93458121
_cell_length_b   9.38288107
_cell_length_c   9.38288107
_cell_angle_alpha   61.80730819
_cell_angle_beta   77.89709870
_cell_angle_gamma   77.89709870
_symmetry_Int_Tables_number   1
_chemical_formula_structural   Er7(TePd)2
_chemical_formula_sum   'Er7 Te2 Pd2'
_cell_volume   296.04428644
_cell_formula_units_Z   1
loop_
 _symmetry_equiv_pos_site_id
 _symmetry_equiv_pos_as_xyz
  1  'x, y, z'
loop_
 _atom_site_type_symbol
 _atom_site_label
 _atom_site_symmetry_multiplicity
 _atom_site_fract_x
 _atom_site_fract_y
 _atom_site_fract_z
 _atom_site_occupancy
  Er  Er0  1  0.12919115  0.45565018  0.28596752  1
  Er  Er1  1  0.87080885  0.71403248  0.54434982  1
  Er  Er2  1  0.31677119  0.06016334  0.30629428  1
  Er  Er3  1  0.68322881  0.69370572  0.93983666  1
  Er  Er4  1  0.35660525  0.37733850  0.90945100  1
  Er  Er5  1  0.64339475  0.09054900  0.62266150  1
  Er  Er6  1  -0.00000000  -0.00033367  0.00033367  1
  Te  Te7  1  0.50000000  0.73671539  0.26328461  1
  Te  Te8  1  -0.00000000  0.33780188  0.66219812  1
  Pd  Pd9  1  0.23743548  0.83432312  0.69080593  1
  Pd  Pd10  1  0.76256452  0.30919407  0.16567688  1
