# generated using pymatgen
data_Zr5AgPb3
_symmetry_space_group_name_H-M   'P 1'
_cell_length_a   5.99734735
_cell_length_b   8.89474750
_cell_length_c   8.88253053
_cell_angle_alpha   120.04550537
_cell_angle_beta   90.00000000
_cell_angle_gamma   90.00000000
_symmetry_Int_Tables_number   1
_chemical_formula_structural   Zr5AgPb3
_chemical_formula_sum   'Zr10 Ag2 Pb6'
_cell_volume   410.16711887
_cell_formula_units_Z   2
loop_
 _symmetry_equiv_pos_site_id
 _symmetry_equiv_pos_as_xyz
  1  'x, y, z'
loop_
 _atom_site_type_symbol
 _atom_site_label
 _atom_site_symmetry_multiplicity
 _atom_site_fract_x
 _atom_site_fract_y
 _atom_site_fract_z
 _atom_site_occupancy
  Zr  Zr0  1  0.49997998  0.33331317  0.66675447  1
  Zr  Zr1  1  0.49997998  0.66655870  0.33324553  1
  Zr  Zr2  1  -0.00002002  0.66668683  0.33324553  1
  Zr  Zr3  1  -0.00002002  0.33344130  0.66675447  1
  Zr  Zr4  1  0.74927683  0.27951756  0.00000000  1
  Zr  Zr5  1  0.75009199  0.71997593  0.72048242  1
  Zr  Zr6  1  0.75009199  0.99949351  0.27951758  1
  Zr  Zr7  1  0.24927683  0.72048244  1.00000000  1
  Zr  Zr8  1  0.25009199  0.28002407  0.27951758  1
  Zr  Zr9  1  0.25009199  0.00050649  0.72048242  1
  Ag  Ag10  1  0.50011468  0.99949501  1.00000000  1
  Ag  Ag11  1  0.00011468  0.00050499  0.00000000  1
  Pb  Pb12  1  0.74939341  0.62261706  -0.00000000  1
  Pb  Pb13  1  0.75053556  0.37694685  0.37700516  1
  Pb  Pb14  1  0.75053556  -0.00005831  0.62299484  1
  Pb  Pb15  1  0.24939341  0.37738294  0.00000000  1
  Pb  Pb16  1  0.25053556  0.62305315  0.62299484  1
  Pb  Pb17  1  0.25053556  0.00005831  0.37700516  1
