# generated using pymatgen
data_Eu3(AlP2)2
_symmetry_space_group_name_H-M   'P 1'
_cell_length_a   6.57787129
_cell_length_b   8.23255771
_cell_length_c   8.23255771
_cell_angle_alpha   75.74014837
_cell_angle_beta   90.25668036
_cell_angle_gamma   90.25668036
_symmetry_Int_Tables_number   1
_chemical_formula_structural   Eu3(AlP2)2
_chemical_formula_sum   'Eu6 Al4 P8'
_cell_volume   432.07210609
_cell_formula_units_Z   2
loop_
 _symmetry_equiv_pos_site_id
 _symmetry_equiv_pos_as_xyz
  1  'x, y, z'
loop_
 _atom_site_type_symbol
 _atom_site_label
 _atom_site_symmetry_multiplicity
 _atom_site_fract_x
 _atom_site_fract_y
 _atom_site_fract_z
 _atom_site_occupancy
  Eu  Eu0  1  0.96055921  0.00839884  0.74950163  1
  Eu  Eu1  1  0.53944079  0.25049837  0.99160116  1
  Eu  Eu2  1  0.03944079  0.99160116  0.25049837  1
  Eu  Eu3  1  0.46055921  0.74950163  0.00839884  1
  Eu  Eu4  1  0.25000000  0.40130558  0.59869442  1
  Eu  Eu5  1  0.75000000  0.59869442  0.40130558  1
  Al  Al6  1  0.41850687  0.82828464  0.58072001  1
  Al  Al7  1  0.08149313  0.41927999  0.17171536  1
  Al  Al8  1  0.58149313  0.17171536  0.41927999  1
  Al  Al9  1  0.91850687  0.58072001  0.82828464  1
  P  P10  1  0.47447548  0.05995635  0.70996606  1
  P  P11  1  0.02552452  0.29003394  0.94004365  1
  P  P12  1  0.52552452  0.94004365  0.29003394  1
  P  P13  1  0.97447548  0.70996606  0.05995635  1
  P  P14  1  0.07239648  0.74124010  0.57571207  1
  P  P15  1  0.42760352  0.42428793  0.25875990  1
  P  P16  1  0.92760352  0.25875990  0.42428793  1
  P  P17  1  0.57239648  0.57571207  0.74124010  1
