# generated using pymatgen
data_Nb(SeI)2
_symmetry_space_group_name_H-M   'P 1'
_cell_length_a   7.27621982
_cell_length_b   7.10440461
_cell_length_c   8.12243941
_cell_angle_alpha   79.37416546
_cell_angle_beta   68.89484408
_cell_angle_gamma   59.19671164
_symmetry_Int_Tables_number   1
_chemical_formula_structural   Nb(SeI)2
_chemical_formula_sum   'Nb2 Se4 I4'
_cell_volume   336.45186470
_cell_formula_units_Z   2
loop_
 _symmetry_equiv_pos_site_id
 _symmetry_equiv_pos_as_xyz
  1  'x, y, z'
loop_
 _atom_site_type_symbol
 _atom_site_label
 _atom_site_symmetry_multiplicity
 _atom_site_fract_x
 _atom_site_fract_y
 _atom_site_fract_z
 _atom_site_occupancy
  Nb  Nb0  1  0.12172294  0.75655413  -0.00000000  1
  Nb  Nb1  1  0.87827706  0.24344587  0.00000000  1
  Se  Se2  1  0.12917771  -0.00000000  0.70839026  1
  Se  Se3  1  0.87082229  -0.00000000  0.29160974  1
  Se  Se4  1  0.32073232  -0.00000000  0.88288261  1
  Se  Se5  1  0.67926768  -0.00000000  0.11711739  1
  I  I6  1  0.56938024  0.40834229  0.78109960  1
  I  I7  1  0.43061976  0.59165771  0.21890040  1
  I  I8  1  0.02227748  0.40834229  0.21890040  1
  I  I9  1  0.97772252  0.59165771  0.78109960  1
