# generated using pymatgen
data_LiTmGe
_symmetry_space_group_name_H-M   'P 1'
_cell_length_a   4.21949358
_cell_length_b   6.98772319
_cell_length_c   6.98772319
_cell_angle_alpha   120.00000502
_cell_angle_beta   90.00000000
_cell_angle_gamma   90.00000000
_symmetry_Int_Tables_number   1
_chemical_formula_structural   LiTmGe
_chemical_formula_sum   'Li3 Tm3 Ge3'
_cell_volume   178.42771976
_cell_formula_units_Z   3
loop_
 _symmetry_equiv_pos_site_id
 _symmetry_equiv_pos_as_xyz
  1  'x, y, z'
loop_
 _atom_site_type_symbol
 _atom_site_label
 _atom_site_symmetry_multiplicity
 _atom_site_fract_x
 _atom_site_fract_y
 _atom_site_fract_z
 _atom_site_occupancy
  Li  Li0  1  0.50000000  0.76294490  0.76294490  1
  Li  Li1  1  0.50000000  -0.00000000  0.23705510  1
  Li  Li2  1  0.50000000  0.23705510  -0.00000000  1
  Tm  Tm3  1  -0.00000000  0.42070564  0.42070564  1
  Tm  Tm4  1  0.00000000  -0.00000000  0.57929436  1
  Tm  Tm5  1  -0.00000000  0.57929436  -0.00000000  1
  Ge  Ge6  1  0.50000000  0.66666700  0.33333300  1
  Ge  Ge7  1  0.50000000  0.33333300  0.66666700  1
  Ge  Ge8  1  -0.00000000  -0.00000000  -0.00000000  1
