# generated using pymatgen
data_Nd(PPt)2
_symmetry_space_group_name_H-M   'P 1'
_cell_length_a   4.30030419
_cell_length_b   4.30030419
_cell_length_c   10.13221870
_cell_angle_alpha   102.25185751
_cell_angle_beta   102.25185751
_cell_angle_gamma   90.00000000
_symmetry_Int_Tables_number   1
_chemical_formula_structural   Nd(PPt)2
_chemical_formula_sum   'Nd2 P4 Pt4'
_cell_volume   178.73431781
_cell_formula_units_Z   2
loop_
 _symmetry_equiv_pos_site_id
 _symmetry_equiv_pos_as_xyz
  1  'x, y, z'
loop_
 _atom_site_type_symbol
 _atom_site_label
 _atom_site_symmetry_multiplicity
 _atom_site_fract_x
 _atom_site_fract_y
 _atom_site_fract_z
 _atom_site_occupancy
  Nd  Nd0  1  0.37486648  0.37486648  0.74973296  1
  Nd  Nd1  1  0.62513352  0.62513352  0.25026704  1
  P  P2  1  0.06952775  0.06952775  0.13905549  1
  P  P3  1  0.93047225  0.93047225  0.86094451  1
  P  P4  1  0.25000000  0.75000000  0.50000000  1
  P  P5  1  0.75000000  0.25000000  0.50000000  1
  Pt  Pt6  1  0.19305541  0.19305541  0.38611081  1
  Pt  Pt7  1  0.80694459  0.80694459  0.61388919  1
  Pt  Pt8  1  -0.00000000  0.50000000  -0.00000000  1
  Pt  Pt9  1  0.50000000  -0.00000000  -0.00000000  1
