# generated using pymatgen
data_La2ScSi2
_symmetry_space_group_name_H-M   'P 1'
_cell_length_a   4.55417896
_cell_length_b   7.46296013
_cell_length_c   7.46296013
_cell_angle_alpha   90.00000000
_cell_angle_beta   90.00000000
_cell_angle_gamma   90.00000000
_symmetry_Int_Tables_number   1
_chemical_formula_structural   La2ScSi2
_chemical_formula_sum   'La4 Sc2 Si4'
_cell_volume   253.64852167
_cell_formula_units_Z   2
loop_
 _symmetry_equiv_pos_site_id
 _symmetry_equiv_pos_as_xyz
  1  'x, y, z'
loop_
 _atom_site_type_symbol
 _atom_site_label
 _atom_site_symmetry_multiplicity
 _atom_site_fract_x
 _atom_site_fract_y
 _atom_site_fract_z
 _atom_site_occupancy
  La  La0  1  0.50000000  0.17847788  0.67847788  1
  La  La1  1  0.50000000  0.82152212  0.32152212  1
  La  La2  1  0.50000000  0.32152212  0.17847788  1
  La  La3  1  0.50000000  0.67847788  0.82152212  1
  Sc  Sc4  1  0.00000000  -0.00000000  -0.00000000  1
  Sc  Sc5  1  0.00000000  0.50000000  0.50000000  1
  Si  Si6  1  -0.00000000  0.61675001  0.11675001  1
  Si  Si7  1  0.00000000  0.38324999  0.88324999  1
  Si  Si8  1  0.00000000  0.88324999  0.61675001  1
  Si  Si9  1  -0.00000000  0.11675001  0.38324999  1
