# generated using pymatgen
data_EuAlGe
_symmetry_space_group_name_H-M   'P 1'
_cell_length_a   4.35855990
_cell_length_b   4.35855990
_cell_length_c   8.06537361
_cell_angle_alpha   105.67628643
_cell_angle_beta   105.67628643
_cell_angle_gamma   90.00000000
_symmetry_Int_Tables_number   1
_chemical_formula_structural   EuAlGe
_chemical_formula_sum   'Eu2 Al2 Ge2'
_cell_volume   141.59073259
_cell_formula_units_Z   2
loop_
 _symmetry_equiv_pos_site_id
 _symmetry_equiv_pos_as_xyz
  1  'x, y, z'
loop_
 _atom_site_type_symbol
 _atom_site_label
 _atom_site_symmetry_multiplicity
 _atom_site_fract_x
 _atom_site_fract_y
 _atom_site_fract_z
 _atom_site_occupancy
  Eu  Eu0  1  0.58229630  0.58229630  0.16459260  1
  Eu  Eu1  1  0.83229630  0.33229630  0.66459260  1
  Al  Al2  1  0.16558457  0.16558457  0.33116915  1
  Al  Al3  1  0.41558457  0.91558457  0.83116915  1
  Ge  Ge4  1  -0.00088088  -0.00088088  -0.00176175  1
  Ge  Ge5  1  0.24911912  0.74911912  0.49823825  1
