# generated using pymatgen
data_ThRe2SiC
_symmetry_space_group_name_H-M   'P 1'
_cell_length_a   4.04071692
_cell_length_b   5.91006858
_cell_length_c   7.32325001
_cell_angle_alpha   90.00000000
_cell_angle_beta   90.00000000
_cell_angle_gamma   109.98964186
_symmetry_Int_Tables_number   1
_chemical_formula_structural   ThRe2SiC
_chemical_formula_sum   'Th2 Re4 Si2 C2'
_cell_volume   164.34980468
_cell_formula_units_Z   2
loop_
 _symmetry_equiv_pos_site_id
 _symmetry_equiv_pos_as_xyz
  1  'x, y, z'
loop_
 _atom_site_type_symbol
 _atom_site_label
 _atom_site_symmetry_multiplicity
 _atom_site_fract_x
 _atom_site_fract_y
 _atom_site_fract_z
 _atom_site_occupancy
  Th  Th0  1  0.45417353  0.90834705  0.25000000  1
  Th  Th1  1  0.54582647  0.09165295  0.75000000  1
  Re  Re2  1  0.17258814  0.34517628  0.06289021  1
  Re  Re3  1  0.82741186  0.65482372  0.93710979  1
  Re  Re4  1  0.82741186  0.65482372  0.56289021  1
  Re  Re5  1  0.17258814  0.34517628  0.43710979  1
  Si  Si6  1  0.73433491  0.46866982  0.25000000  1
  Si  Si7  1  0.26566509  0.53133018  0.75000000  1
  C  C8  1  -0.00000000  -0.00000000  0.00000000  1
  C  C9  1  -0.00000000  -0.00000000  0.50000000  1
