# generated using pymatgen
data_Lu6MnSb2
_symmetry_space_group_name_H-M   'P 1'
_cell_length_a   4.17448081
_cell_length_b   7.98782928
_cell_length_c   7.98782928
_cell_angle_alpha   119.99999738
_cell_angle_beta   90.00000000
_cell_angle_gamma   90.00000000
_symmetry_Int_Tables_number   1
_chemical_formula_structural   Lu6MnSb2
_chemical_formula_sum   'Lu6 Mn1 Sb2'
_cell_volume   230.66975865
_cell_formula_units_Z   1
loop_
 _symmetry_equiv_pos_site_id
 _symmetry_equiv_pos_as_xyz
  1  'x, y, z'
loop_
 _atom_site_type_symbol
 _atom_site_label
 _atom_site_symmetry_multiplicity
 _atom_site_fract_x
 _atom_site_fract_y
 _atom_site_fract_z
 _atom_site_occupancy
  Lu  Lu0  1  0.50000000  0.76485394  0.76485394  1
  Lu  Lu1  1  0.50000000  0.00000000  0.23514606  1
  Lu  Lu2  1  0.50000000  0.23514606  0.00000000  1
  Lu  Lu3  1  -0.00000000  0.39488744  0.39488744  1
  Lu  Lu4  1  -0.00000000  0.00000000  0.60511256  1
  Lu  Lu5  1  0.00000000  0.60511256  0.00000000  1
  Mn  Mn6  1  -0.00000000  0.00000000  0.00000000  1
  Sb  Sb7  1  0.50000000  0.66666700  0.33333300  1
  Sb  Sb8  1  0.50000000  0.33333300  0.66666700  1
