# generated using pymatgen
data_Fe5(OF4)2
_symmetry_space_group_name_H-M   'P 1'
_cell_length_a   4.82797206
_cell_length_b   8.00856186
_cell_length_c   10.17306610
_cell_angle_alpha   109.35303460
_cell_angle_beta   92.06555030
_cell_angle_gamma   88.54978585
_symmetry_Int_Tables_number   1
_chemical_formula_structural   Fe5(OF4)2
_chemical_formula_sum   'Fe10 O4 F16'
_cell_volume   370.83837554
_cell_formula_units_Z   2
loop_
 _symmetry_equiv_pos_site_id
 _symmetry_equiv_pos_as_xyz
  1  'x, y, z'
loop_
 _atom_site_type_symbol
 _atom_site_label
 _atom_site_symmetry_multiplicity
 _atom_site_fract_x
 _atom_site_fract_y
 _atom_site_fract_z
 _atom_site_occupancy
  Fe  Fe0  1  0.48277862  0.29684048  0.88882475  1
  Fe  Fe1  1  0.55367888  0.09540452  0.29086885  1
  Fe  Fe2  1  0.48760871  0.89477377  0.70324852  1
  Fe  Fe3  1  0.50487725  0.70031926  0.10334096  1
  Fe  Fe4  1  0.51500953  0.50603014  0.51120891  1
  Fe  Fe5  1  0.97541478  0.61250844  0.79486069  1
  Fe  Fe6  1  0.03284220  0.19261339  0.61029009  1
  Fe  Fe7  1  0.97831287  0.80382078  0.38618990  1
  Fe  Fe8  1  0.99297628  0.38556646  0.19902355  1
  Fe  Fe9  1  0.98259776  0.00795957  0.01320080  1
  O  O10  1  0.79658100  0.15973440  0.18510291  1
  O  O11  1  0.67826444  0.67990268  0.67770876  1
  O  O12  1  0.69201056  0.86479515  0.28686124  1
  O  O13  1  0.30789328  0.12062044  0.71175392  1
  F  F14  1  0.79953691  0.76163061  0.98004251  1
  F  F15  1  0.81278150  0.96255611  0.57417937  1
  F  F16  1  0.81742386  0.56853755  0.37779711  1
  F  F17  1  0.81710074  0.35193418  0.76775102  1
  F  F18  1  0.70252769  0.04973705  0.86809047  1
  F  F19  1  0.69579983  0.45166858  0.06430324  1
  F  F20  1  0.71366202  0.24593184  0.48535717  1
  F  F21  1  0.27913713  0.75450978  0.51614205  1
  F  F22  1  0.32439045  0.33379749  0.33479781  1
  F  F23  1  0.30181683  0.94942486  0.13348558  1
  F  F24  1  0.29339234  0.54993955  0.91772663  1
  F  F25  1  0.18545026  0.42450216  0.61684522  1
  F  F26  1  0.18880954  0.03930584  0.42212815  1
  F  F27  1  0.19968884  0.84863882  0.82612650  1
  F  F28  1  0.19934364  0.24569595  0.02426365  1
  F  F29  1  0.18829426  0.64130313  0.22848068  1
