# generated using pymatgen
data_NdAl2Ni
_symmetry_space_group_name_H-M   'P 1'
_cell_length_a   4.07745395
_cell_length_b   5.82519483
_cell_length_c   6.90388326
_cell_angle_alpha   90.00000000
_cell_angle_beta   90.00000000
_cell_angle_gamma   110.48636302
_symmetry_Int_Tables_number   1
_chemical_formula_structural   NdAl2Ni
_chemical_formula_sum   'Nd2 Al4 Ni2'
_cell_volume   153.60990417
_cell_formula_units_Z   2
loop_
 _symmetry_equiv_pos_site_id
 _symmetry_equiv_pos_as_xyz
  1  'x, y, z'
loop_
 _atom_site_type_symbol
 _atom_site_label
 _atom_site_symmetry_multiplicity
 _atom_site_fract_x
 _atom_site_fract_y
 _atom_site_fract_z
 _atom_site_occupancy
  Nd  Nd0  1  0.44601070  0.89202139  0.25000000  1
  Nd  Nd1  1  0.55398930  0.10797861  0.75000000  1
  Al  Al2  1  0.16923717  0.33847434  0.05670793  1
  Al  Al3  1  0.83076283  0.66152566  0.94329207  1
  Al  Al4  1  0.83076283  0.66152566  0.55670793  1
  Al  Al5  1  0.16923717  0.33847434  0.44329207  1
  Ni  Ni6  1  0.71945490  0.43890980  0.25000000  1
  Ni  Ni7  1  0.28054510  0.56109020  0.75000000  1
