# generated using pymatgen
data_Ce(WO4)2
_symmetry_space_group_name_H-M   'P 1'
_cell_length_a   10.35073491
_cell_length_b   9.76076040
_cell_length_c   14.55356908
_cell_angle_alpha   90.00000000
_cell_angle_beta   90.00000000
_cell_angle_gamma   90.00000000
_symmetry_Int_Tables_number   1
_chemical_formula_structural   Ce(WO4)2
_chemical_formula_sum   'Ce8 W16 O64'
_cell_volume   1470.36226964
_cell_formula_units_Z   8
loop_
 _symmetry_equiv_pos_site_id
 _symmetry_equiv_pos_as_xyz
  1  'x, y, z'
loop_
 _atom_site_type_symbol
 _atom_site_label
 _atom_site_symmetry_multiplicity
 _atom_site_fract_x
 _atom_site_fract_y
 _atom_site_fract_z
 _atom_site_occupancy
  Ce  Ce0  1  0.03467969  0.77323050  0.11203826  1
  Ce  Ce1  1  0.03467969  0.72676950  0.61203826  1
  Ce  Ce2  1  0.46532031  0.27323050  0.11203826  1
  Ce  Ce3  1  0.46532031  0.22676950  0.61203826  1
  Ce  Ce4  1  0.53467969  0.72676950  0.88796174  1
  Ce  Ce5  1  0.53467969  0.77323050  0.38796174  1
  Ce  Ce6  1  0.96532031  0.22676950  0.88796174  1
  Ce  Ce7  1  0.96532031  0.27323050  0.38796174  1
  W  W8  1  0.10368903  0.18487157  0.14828837  1
  W  W9  1  0.10368903  0.31512843  0.64828837  1
  W  W10  1  0.22612840  0.00656795  0.44128800  1
  W  W11  1  0.22612840  0.49343205  0.94128800  1
  W  W12  1  0.27387160  0.50656795  0.44128800  1
  W  W13  1  0.27387160  0.99343205  0.94128800  1
  W  W14  1  0.39631097  0.68487157  0.14828837  1
  W  W15  1  0.39631097  0.81512843  0.64828837  1
  W  W16  1  0.60368903  0.18487157  0.35171163  1
  W  W17  1  0.60368903  0.31512843  0.85171163  1
  W  W18  1  0.72612840  0.00656795  0.05871200  1
  W  W19  1  0.72612840  0.49343205  0.55871200  1
  W  W20  1  0.77387160  0.50656795  0.05871200  1
  W  W21  1  0.77387160  0.99343205  0.55871200  1
  W  W22  1  0.89631097  0.81512843  0.85171163  1
  W  W23  1  0.89631097  0.68487157  0.35171163  1
  O  O24  1  0.00853093  0.76349513  0.27191935  1
  O  O25  1  0.00853093  0.73650487  0.77191935  1
  O  O26  1  0.07353763  0.24933720  0.03348121  1
  O  O27  1  0.07353763  0.25066280  0.53348121  1
  O  O28  1  0.08373272  0.00011046  0.14938206  1
  O  O29  1  0.08373272  0.49988954  0.64938206  1
  O  O30  1  0.10688408  0.09245238  0.36689739  1
  O  O31  1  0.10688408  0.40754762  0.86689739  1
  O  O32  1  0.14618370  0.91508901  0.53310487  1
  O  O33  1  0.14618370  0.58491099  0.03310587  1
  O  O34  1  0.16296261  0.62829885  0.49158668  1
  O  O35  1  0.16296261  0.87170115  0.99158668  1
  O  O36  1  0.17330172  0.11031441  0.87637560  1
  O  O37  1  0.17330172  0.38968559  0.37637560  1
  O  O38  1  0.23406336  0.73644444  0.17970180  1
  O  O39  1  0.23406336  0.76355556  0.67970180  1
  O  O40  1  0.26593664  0.23644444  0.17970180  1
  O  O41  1  0.26593664  0.26355556  0.67970180  1
  O  O42  1  0.32669828  0.88968559  0.37637560  1
  O  O43  1  0.32669828  0.61031441  0.87637560  1
  O  O44  1  0.33703739  0.37170115  0.99158668  1
  O  O45  1  0.33703739  0.12829885  0.49158668  1
  O  O46  1  0.35381630  0.08491099  0.03310587  1
  O  O47  1  0.35381630  0.41508901  0.53310487  1
  O  O48  1  0.39311592  0.59245238  0.36689739  1
  O  O49  1  0.39311592  0.90754762  0.86689739  1
  O  O50  1  0.41626728  0.50011046  0.14938206  1
  O  O51  1  0.41626728  0.99988954  0.64938206  1
  O  O52  1  0.42646237  0.74933720  0.03348121  1
  O  O53  1  0.42646237  0.75066280  0.53348121  1
  O  O54  1  0.49146907  0.26349513  0.27191935  1
  O  O55  1  0.49146907  0.23650487  0.77191935  1
  O  O56  1  0.50853093  0.73650487  0.72808065  1
  O  O57  1  0.50853093  0.76349513  0.22808065  1
  O  O58  1  0.57353763  0.24933720  0.46651879  1
  O  O59  1  0.57353763  0.25066280  0.96651879  1
  O  O60  1  0.58373272  0.49988954  0.85061794  1
  O  O61  1  0.58373272  0.00011046  0.35061794  1
  O  O62  1  0.60688408  0.09245238  0.13310261  1
  O  O63  1  0.60688408  0.40754762  0.63310261  1
  O  O64  1  0.64618370  0.58491099  0.46689413  1
  O  O65  1  0.64618370  0.91508901  0.96689513  1
  O  O66  1  0.66296261  0.62829885  0.00841332  1
  O  O67  1  0.66296261  0.87170115  0.50841332  1
  O  O68  1  0.67330172  0.38968559  0.12362440  1
  O  O69  1  0.67330172  0.11031441  0.62362440  1
  O  O70  1  0.73406336  0.73644444  0.32029820  1
  O  O71  1  0.73406336  0.76355556  0.82029820  1
  O  O72  1  0.76593664  0.23644444  0.32029820  1
  O  O73  1  0.76593664  0.26355556  0.82029820  1
  O  O74  1  0.82669828  0.61031441  0.62362440  1
  O  O75  1  0.82669828  0.88968559  0.12362440  1
  O  O76  1  0.83703739  0.12829885  0.00841332  1
  O  O77  1  0.83703739  0.37170115  0.50841332  1
  O  O78  1  0.85381630  0.41508901  0.96689513  1
  O  O79  1  0.85381630  0.08491099  0.46689413  1
  O  O80  1  0.89311592  0.59245238  0.13310261  1
  O  O81  1  0.89311592  0.90754762  0.63310261  1
  O  O82  1  0.91626728  0.99988954  0.85061794  1
  O  O83  1  0.91626728  0.50011046  0.35061794  1
  O  O84  1  0.92646237  0.75066280  0.96651879  1
  O  O85  1  0.92646237  0.74933720  0.46651879  1
  O  O86  1  0.99146907  0.23650487  0.72808065  1
  O  O87  1  0.99146907  0.26349513  0.22808065  1
