# generated using pymatgen
data_Lu7(TeRh)2
_symmetry_space_group_name_H-M   'P 1'
_cell_length_a   3.85283573
_cell_length_b   9.23181146
_cell_length_c   9.23181146
_cell_angle_alpha   61.12441911
_cell_angle_beta   77.95547488
_cell_angle_gamma   77.95547488
_symmetry_Int_Tables_number   1
_chemical_formula_structural   Lu7(TeRh)2
_chemical_formula_sum   'Lu7 Te2 Rh2'
_cell_volume   278.96689623
_cell_formula_units_Z   1
loop_
 _symmetry_equiv_pos_site_id
 _symmetry_equiv_pos_as_xyz
  1  'x, y, z'
loop_
 _atom_site_type_symbol
 _atom_site_label
 _atom_site_symmetry_multiplicity
 _atom_site_fract_x
 _atom_site_fract_y
 _atom_site_fract_z
 _atom_site_occupancy
  Lu  Lu0  1  0.13240923  0.45325153  0.28193000  1
  Lu  Lu1  1  0.86759077  0.71807000  0.54674847  1
  Lu  Lu2  1  0.31565909  0.05994189  0.30873992  1
  Lu  Lu3  1  0.68434091  0.69126008  0.94005811  1
  Lu  Lu4  1  0.35358632  0.37934481  0.91348254  1
  Lu  Lu5  1  0.64641368  0.08651746  0.62065519  1
  Lu  Lu6  1  0.00000000  0.00154913  0.99845087  1
  Te  Te7  1  0.50000000  0.73525280  0.26474720  1
  Te  Te8  1  0.00000000  0.33964527  0.66035473  1
  Rh  Rh9  1  0.23696907  0.83518444  0.69087741  1
  Rh  Rh10  1  0.76303093  0.30912259  0.16481556  1
