# generated using pymatgen
data_NdSiNi
_symmetry_space_group_name_H-M   'P 1'
_cell_length_a   4.10098908
_cell_length_b   4.10098908
_cell_length_c   7.53460364
_cell_angle_alpha   105.79186646
_cell_angle_beta   105.79186646
_cell_angle_gamma   90.00000000
_symmetry_Int_Tables_number   1
_chemical_formula_structural   NdSiNi
_chemical_formula_sum   'Nd2 Si2 Ni2'
_cell_volume   116.95687162
_cell_formula_units_Z   2
loop_
 _symmetry_equiv_pos_site_id
 _symmetry_equiv_pos_as_xyz
  1  'x, y, z'
loop_
 _atom_site_type_symbol
 _atom_site_label
 _atom_site_symmetry_multiplicity
 _atom_site_fract_x
 _atom_site_fract_y
 _atom_site_fract_z
 _atom_site_occupancy
  Nd  Nd0  1  0.58039582  0.58039582  0.16079164  1
  Nd  Nd1  1  0.83039582  0.33039582  0.66079164  1
  Si  Si2  1  0.99900365  0.99900365  0.99800730  1
  Si  Si3  1  0.24900365  0.74900365  0.49800730  1
  Ni  Ni4  1  0.16760053  0.16760053  0.33520106  1
  Ni  Ni5  1  0.41760053  0.91760053  0.83520106  1
