# generated using pymatgen
data_Fe6O7F6
_symmetry_space_group_name_H-M   'P 1'
_cell_length_a   3.82710407
_cell_length_b   7.87059775
_cell_length_c   9.48645694
_cell_angle_alpha   80.29163160
_cell_angle_beta   89.99701274
_cell_angle_gamma   75.89797050
_symmetry_Int_Tables_number   1
_chemical_formula_structural   Fe6O7F6
_chemical_formula_sum   'Fe6 O7 F6'
_cell_volume   272.91509298
_cell_formula_units_Z   1
loop_
 _symmetry_equiv_pos_site_id
 _symmetry_equiv_pos_as_xyz
  1  'x, y, z'
loop_
 _atom_site_type_symbol
 _atom_site_label
 _atom_site_symmetry_multiplicity
 _atom_site_fract_x
 _atom_site_fract_y
 _atom_site_fract_z
 _atom_site_occupancy
  Fe  Fe0  1  0.11197673  0.77590726  0.09570645  1
  Fe  Fe1  1  0.17313544  0.65339516  0.43242067  1
  Fe  Fe2  1  0.23810547  0.52344175  0.76726168  1
  Fe  Fe3  1  0.76189453  0.47655825  0.23273832  1
  Fe  Fe4  1  0.82686456  0.34660484  0.56757933  1
  Fe  Fe5  1  0.88802327  0.22409274  0.90429355  1
  O  O6  1  0.00000000  0.00000000  0.00000000  1
  O  O7  1  0.35905826  0.28208774  0.88554963  1
  O  O8  1  0.23211275  0.53590702  0.23628703  1
  O  O9  1  0.29368049  0.41278857  0.57693292  1
  O  O10  1  0.70631951  0.58721143  0.42306708  1
  O  O11  1  0.76788725  0.46409298  0.76371297  1
  O  O12  1  0.64094174  0.71791226  0.11445037  1
  F  F13  1  0.16703536  0.66545141  0.91461315  1
  F  F14  1  0.06759151  0.86417093  0.29079855  1
  F  F15  1  0.12820028  0.74306063  0.61426602  1
  F  F16  1  0.87179972  0.25693937  0.38573398  1
  F  F17  1  0.93240849  0.13582907  0.70920145  1
  F  F18  1  0.83296464  0.33454859  0.08538685  1
