# generated using pymatgen
data_BaBiBrO2
_symmetry_space_group_name_H-M   'P 1'
_cell_length_a   5.84956489
_cell_length_b   6.07963896
_cell_length_c   7.48071091
_cell_angle_alpha   113.97602608
_cell_angle_beta   90.00000000
_cell_angle_gamma   90.00000000
_symmetry_Int_Tables_number   1
_chemical_formula_structural   BaBiBrO2
_chemical_formula_sum   'Ba2 Bi2 Br2 O4'
_cell_volume   243.08336951
_cell_formula_units_Z   2
loop_
 _symmetry_equiv_pos_site_id
 _symmetry_equiv_pos_as_xyz
  1  'x, y, z'
loop_
 _atom_site_type_symbol
 _atom_site_label
 _atom_site_symmetry_multiplicity
 _atom_site_fract_x
 _atom_site_fract_y
 _atom_site_fract_z
 _atom_site_occupancy
  Ba  Ba0  1  0.25000000  0.38844495  0.77688990  1
  Ba  Ba1  1  0.75000000  0.61155505  0.22311010  1
  Bi  Bi2  1  0.25000000  0.07230863  0.14461727  1
  Bi  Bi3  1  0.75000000  0.92769137  0.85538273  1
  Br  Br4  1  0.25000000  0.74612111  0.49224222  1
  Br  Br5  1  0.75000000  0.25387889  0.50775778  1
  O  O6  1  0.00000000  0.22574231  -0.00000000  1
  O  O7  1  -0.00000000  0.77425769  -0.00000000  1
  O  O8  1  0.50000000  0.77425769  -0.00000000  1
  O  O9  1  0.50000000  0.22574231  0.00000000  1
