# generated using pymatgen
data_Cs2RhF6
_symmetry_space_group_name_H-M   'P 1'
_cell_length_a   5.16212032
_cell_length_b   6.30492622
_cell_length_c   6.30492622
_cell_angle_alpha   120.00000712
_cell_angle_beta   90.00000000
_cell_angle_gamma   90.00000000
_symmetry_Int_Tables_number   1
_chemical_formula_structural   Cs2RhF6
_chemical_formula_sum   'Cs2 Rh1 F6'
_cell_volume   177.71281285
_cell_formula_units_Z   1
loop_
 _symmetry_equiv_pos_site_id
 _symmetry_equiv_pos_as_xyz
  1  'x, y, z'
loop_
 _atom_site_type_symbol
 _atom_site_label
 _atom_site_symmetry_multiplicity
 _atom_site_fract_x
 _atom_site_fract_y
 _atom_site_fract_z
 _atom_site_occupancy
  Cs  Cs0  1  0.69478613  0.66666700  0.33333300  1
  Cs  Cs1  1  0.30521387  0.33333300  0.66666700  1
  Rh  Rh2  1  -0.00000000  0.00000000  -0.00000000  1
  F  F3  1  0.78944953  0.14932763  0.29865526  1
  F  F4  1  0.21055047  0.85067237  0.70134474  1
  F  F5  1  0.78944953  0.14932763  0.85067237  1
  F  F6  1  0.21055047  0.85067237  0.14932763  1
  F  F7  1  0.78944953  0.70134474  0.85067237  1
  F  F8  1  0.21055047  0.29865526  0.14932763  1
