# generated using pymatgen
data_NdIn2Rh
_symmetry_space_group_name_H-M   'P 1'
_cell_length_a   4.44953328
_cell_length_b   5.62542902
_cell_length_c   8.04805901
_cell_angle_alpha   90.00000000
_cell_angle_beta   90.00000000
_cell_angle_gamma   113.29615745
_symmetry_Int_Tables_number   1
_chemical_formula_structural   NdIn2Rh
_chemical_formula_sum   'Nd2 In4 Rh2'
_cell_volume   185.02380602
_cell_formula_units_Z   2
loop_
 _symmetry_equiv_pos_site_id
 _symmetry_equiv_pos_as_xyz
  1  'x, y, z'
loop_
 _atom_site_type_symbol
 _atom_site_label
 _atom_site_symmetry_multiplicity
 _atom_site_fract_x
 _atom_site_fract_y
 _atom_site_fract_z
 _atom_site_occupancy
  Nd  Nd0  1  0.43170586  0.86341172  0.25000000  1
  Nd  Nd1  1  0.56829414  0.13658828  0.75000000  1
  In  In2  1  0.14513519  0.29027037  0.05169633  1
  In  In3  1  0.85486481  0.70972963  0.94830367  1
  In  In4  1  0.85486481  0.70972963  0.55169633  1
  In  In5  1  0.14513519  0.29027037  0.44830367  1
  Rh  Rh6  1  0.71778489  0.43556979  0.25000000  1
  Rh  Rh7  1  0.28221511  0.56443021  0.75000000  1
