# generated using pymatgen
data_NiP4H18C2N2O15
_symmetry_space_group_name_H-M   'P 1'
_cell_length_a   9.52115765
_cell_length_b   9.40498217
_cell_length_c   9.33740814
_cell_angle_alpha   89.60440113
_cell_angle_beta   70.70100636
_cell_angle_gamma   88.76009049
_symmetry_Int_Tables_number   1
_chemical_formula_structural   NiP4H18C2N2O15
_chemical_formula_sum   'Ni2 P8 H36 C4 N4 O30'
_cell_volume   788.96082936
_cell_formula_units_Z   2
loop_
 _symmetry_equiv_pos_site_id
 _symmetry_equiv_pos_as_xyz
  1  'x, y, z'
loop_
 _atom_site_type_symbol
 _atom_site_label
 _atom_site_symmetry_multiplicity
 _atom_site_fract_x
 _atom_site_fract_y
 _atom_site_fract_z
 _atom_site_occupancy
  Ni  Ni0  1  0.50000000  0.00000000  -0.00000000  1
  Ni  Ni1  1  0.50000000  0.50000000  0.50000000  1
  P  P2  1  0.51729314  0.20042303  0.29005321  1
  P  P3  1  0.48270686  0.79957697  0.70994679  1
  P  P4  1  0.21260491  0.14219064  0.24689425  1
  P  P5  1  0.78739509  0.85780936  0.75310575  1
  P  P6  1  0.52135050  0.70320223  0.19829736  1
  P  P7  1  0.47864950  0.29679777  0.80170264  1
  P  P8  1  0.22109134  0.64366735  0.43440680  1
  P  P9  1  0.77890866  0.35633265  0.56559320  1
  H  H10  1  0.67340158  0.15830720  0.41877449  1
  H  H11  1  0.32659842  0.84169280  0.58122551  1
  H  H12  1  0.96381398  0.14661932  0.38818462  1
  H  H13  1  0.03618602  0.85338068  0.61181538  1
  H  H14  1  0.68852645  0.65972272  0.96419635  1
  H  H15  1  0.31147355  0.34027728  0.03580365  1
  H  H16  1  0.98298270  0.60149054  0.52376894  1
  H  H17  1  0.01701730  0.39850946  0.47623106  1
  H  H18  1  0.73823323  0.45839199  0.17837690  1
  H  H19  1  0.26176677  0.54160801  0.82162310  1
  H  H20  1  0.88225491  0.49082529  0.21046226  1
  H  H21  1  0.11774509  0.50917471  0.78953774  1
  H  H22  1  0.94578140  0.84105346  0.07999815  1
  H  H23  1  0.05421860  0.15894654  0.92000185  1
  H  H24  1  0.91984187  0.96727400  0.18807128  1
  H  H25  1  0.08015813  0.03272600  0.81192872  1
  H  H26  1  0.81703357  0.12564883  0.10358999  1
  H  H27  1  0.18296643  0.87435117  0.89641001  1
  H  H28  1  0.88994185  0.26779755  0.12827218  1
  H  H29  1  0.11005815  0.73220245  0.87172782  1
  H  H30  1  0.13447293  0.18416970  0.55519063  1
  H  H31  1  0.86552707  0.81583030  0.44480937  1
  H  H32  1  0.25833442  0.31666317  0.51200942  1
  H  H33  1  0.74166558  0.68333683  0.48799058  1
  H  H34  1  0.28060898  0.17388016  0.61035050  1
  H  H35  1  0.71939102  0.82611984  0.38964950  1
  H  H36  1  0.15999319  0.68235817  0.13488094  1
  H  H37  1  0.84000681  0.31764183  0.86511906  1
  H  H38  1  0.33064601  0.73877939  0.02540934  1
  H  H39  1  0.66935399  0.26122061  0.97459066  1
  H  H40  1  0.23508040  0.83217945  0.17388968  1
  H  H41  1  0.76491960  0.16782055  0.82611032  1
  H  H42  1  0.33731916  0.02019999  0.39785365  1
  H  H43  1  0.66268084  0.97980001  0.60214635  1
  H  H44  1  0.33477280  0.52863303  0.19646348  1
  H  H45  1  0.66522720  0.47136697  0.80353652  1
  C  C46  1  0.32665841  0.13370371  0.37399735  1
  C  C47  1  0.67334159  0.86629629  0.62600265  1
  C  C48  1  0.32868985  0.64057164  0.23173890  1
  C  C49  1  0.67131015  0.35942836  0.76826110  1
  N  N50  1  0.24634589  0.20659280  0.52074656  1
  N  N51  1  0.75365411  0.79340720  0.47925344  1
  N  N52  1  0.25684966  0.72602057  0.13820028  1
  N  N53  1  0.74315034  0.27397943  0.86179972  1
  O  O54  1  0.56370254  0.16606800  0.12055631  1
  O  O55  1  0.43629746  0.83393200  0.87944369  1
  O  O56  1  0.52323920  0.35694704  0.32432575  1
  O  O57  1  0.47676080  0.64305296  0.67567425  1
  O  O58  1  0.61066964  0.10522474  0.36736417  1
  O  O59  1  0.38933036  0.89477526  0.63263583  1
  O  O60  1  0.20184762  0.29343091  0.19477771  1
  O  O61  1  0.79815238  0.70656909  0.80522229  1
  O  O62  1  0.27550495  0.02511034  0.13018772  1
  O  O63  1  0.72449505  0.97488966  0.86981228  1
  O  O64  1  0.05837719  0.08898898  0.36202778  1
  O  O65  1  0.94162281  0.91101102  0.63797222  1
  O  O66  1  0.52051600  0.85962150  0.16281792  1
  O  O67  1  0.47948400  0.14037850  0.83718208  1
  O  O68  1  0.61801604  0.61031542  0.05849796  1
  O  O69  1  0.38198396  0.38968458  0.94150204  1
  O  O70  1  0.55731632  0.66223347  0.34037429  1
  O  O71  1  0.44268368  0.33776653  0.65962571  1
  O  O72  1  0.27066453  0.51765073  0.51018557  1
  O  O73  1  0.72933547  0.48234927  0.48981443  1
  O  O74  1  0.21389841  0.78880454  0.50659311  1
  O  O75  1  0.78610159  0.21119546  0.49340689  1
  O  O76  1  0.05700877  0.61609930  0.42280537  1
  O  O77  1  0.94299123  0.38390070  0.57719463  1
  O  O78  1  0.84622879  0.44159590  0.13858516  1
  O  O79  1  0.15377121  0.55840410  0.86141484  1
  O  O80  1  0.89924106  0.86555902  0.18857898  1
  O  O81  1  0.10075894  0.13444098  0.81142102  1
  O  O82  1  0.91154420  0.16438026  0.10278035  1
  O  O83  1  0.08845580  0.83561974  0.89721965  1
