# generated using pymatgen
data_Pr4Mg3Co2
_symmetry_space_group_name_H-M   'P 1'
_cell_length_a   3.85632930
_cell_length_b   7.68562126
_cell_length_c   8.34648834
_cell_angle_alpha   109.83239464
_cell_angle_beta   90.00000000
_cell_angle_gamma   90.00000000
_symmetry_Int_Tables_number   1
_chemical_formula_structural   Pr4Mg3Co2
_chemical_formula_sum   'Pr4 Mg3 Co2'
_cell_volume   232.70354184
_cell_formula_units_Z   1
loop_
 _symmetry_equiv_pos_site_id
 _symmetry_equiv_pos_as_xyz
  1  'x, y, z'
loop_
 _atom_site_type_symbol
 _atom_site_label
 _atom_site_symmetry_multiplicity
 _atom_site_fract_x
 _atom_site_fract_y
 _atom_site_fract_z
 _atom_site_occupancy
  Pr  Pr0  1  0.50000000  0.90348223  0.77469558  1
  Pr  Pr1  1  0.50000000  0.09651777  0.22530442  1
  Pr  Pr2  1  0.50000000  0.39688609  0.68278153  1
  Pr  Pr3  1  0.50000000  0.60311391  0.31721847  1
  Mg  Mg4  1  -0.00000000  0.70526916  0.99840854  1
  Mg  Mg5  1  -0.00000000  0.29473084  0.00159146  1
  Mg  Mg6  1  0.00000000  -0.00000000  0.50000000  1
  Co  Co7  1  0.00000000  0.64659020  0.60376417  1
  Co  Co8  1  0.00000000  0.35340980  0.39623583  1
