# generated using pymatgen
data_Nd3(AgGe)4
_symmetry_space_group_name_H-M   'P 1'
_cell_length_a   4.46530960
_cell_length_b   7.22582499
_cell_length_c   8.54077731
_cell_angle_alpha   115.02534739
_cell_angle_beta   105.15381393
_cell_angle_gamma   90.00000000
_symmetry_Int_Tables_number   1
_chemical_formula_structural   Nd3(AgGe)4
_chemical_formula_sum   'Nd3 Ag4 Ge4'
_cell_volume   239.08528305
_cell_formula_units_Z   1
loop_
 _symmetry_equiv_pos_site_id
 _symmetry_equiv_pos_as_xyz
  1  'x, y, z'
loop_
 _atom_site_type_symbol
 _atom_site_label
 _atom_site_symmetry_multiplicity
 _atom_site_fract_x
 _atom_site_fract_y
 _atom_site_fract_z
 _atom_site_occupancy
  Nd  Nd0  1  0.87239871  0.37239871  0.74479742  1
  Nd  Nd1  1  0.12760129  0.62760129  0.25520258  1
  Nd  Nd2  1  0.00000000  0.00000000  0.00000000  1
  Ag  Ag3  1  0.33139538  0.63649303  0.66279077  1
  Ag  Ag4  1  0.66860462  0.36350697  0.33720923  1
  Ag  Ag5  1  0.33139538  0.02629773  0.66279077  1
  Ag  Ag6  1  0.66860462  0.97370227  0.33720923  1
  Ge  Ge7  1  0.21662661  0.21662661  0.43325322  1
  Ge  Ge8  1  0.78337339  0.78337339  0.56674678  1
  Ge  Ge9  1  0.50000000  0.68157274  0.00000000  1
  Ge  Ge10  1  0.50000000  0.31842726  0.00000000  1
