# generated using pymatgen
data_ThCoGe2
_symmetry_space_group_name_H-M   'P 1'
_cell_length_a   4.21475825
_cell_length_b   4.23151537
_cell_length_c   8.67669948
_cell_angle_alpha   90.00000000
_cell_angle_beta   104.05645931
_cell_angle_gamma   90.00000000
_symmetry_Int_Tables_number   1
_chemical_formula_structural   ThCoGe2
_chemical_formula_sum   'Th2 Co2 Ge4'
_cell_volume   150.11370415
_cell_formula_units_Z   2
loop_
 _symmetry_equiv_pos_site_id
 _symmetry_equiv_pos_as_xyz
  1  'x, y, z'
loop_
 _atom_site_type_symbol
 _atom_site_label
 _atom_site_symmetry_multiplicity
 _atom_site_fract_x
 _atom_site_fract_y
 _atom_site_fract_z
 _atom_site_occupancy
  Th  Th0  1  0.61031468  0.25000000  0.22062935  1
  Th  Th1  1  0.38968532  0.75000000  0.77937065  1
  Co  Co2  1  0.81938050  0.25000000  0.63876100  1
  Co  Co3  1  0.18061950  0.75000000  0.36123900  1
  Ge  Ge4  1  0.95650305  0.25000000  0.91300611  1
  Ge  Ge5  1  0.04349695  0.75000000  0.08699389  1
  Ge  Ge6  1  0.25005683  0.25000000  0.50011366  1
  Ge  Ge7  1  0.74994317  0.75000000  0.49988634  1
