# generated using pymatgen
data_Fe3(OF2)2
_symmetry_space_group_name_H-M   'P 1'
_cell_length_a   4.74472762
_cell_length_b   4.74472771
_cell_length_c   9.41868495
_cell_angle_alpha   90.00013085
_cell_angle_beta   90.00004545
_cell_angle_gamma   90.00364649
_symmetry_Int_Tables_number   1
_chemical_formula_structural   Fe3(OF2)2
_chemical_formula_sum   'Fe6 O4 F8'
_cell_volume   212.03758539
_cell_formula_units_Z   2
loop_
 _symmetry_equiv_pos_site_id
 _symmetry_equiv_pos_as_xyz
  1  'x, y, z'
loop_
 _atom_site_type_symbol
 _atom_site_label
 _atom_site_symmetry_multiplicity
 _atom_site_fract_x
 _atom_site_fract_y
 _atom_site_fract_z
 _atom_site_occupancy
  Fe  Fe0  1  0.00000105  0.99999838  0.02346092  1
  Fe  Fe1  1  0.00000128  -0.00000162  0.30977984  1
  Fe  Fe2  1  0.99999784  0.00000137  0.66665148  1
  Fe  Fe3  1  0.50000211  0.49999835  0.16666182  1
  Fe  Fe4  1  0.49999972  0.49999905  0.80985556  1
  Fe  Fe5  1  0.49999919  0.49999910  0.52356481  1
  O  O6  1  0.21365068  0.78634766  0.16669540  1
  O  O7  1  0.28633089  0.28633183  0.66666469  1
  O  O8  1  0.71366916  0.71366971  0.66666429  1
  O  O9  1  0.78634945  0.21365173  0.16669502  1
  F  F10  1  0.19358754  0.80641326  0.49426908  1
  F  F11  1  0.19357701  0.80642389  0.83902695  1
  F  F12  1  0.30641643  0.30641751  0.99424678  1
  F  F13  1  0.30641667  0.30641802  0.33911040  1
  F  F14  1  0.69358232  0.69358331  0.99424635  1
  F  F15  1  0.69358263  0.69358370  0.33911039  1
  F  F16  1  0.80642372  0.19357698  0.83902650  1
  F  F17  1  0.80641231  0.19358777  0.49426971  1
