# generated using pymatgen
data_YbSbO4
_symmetry_space_group_name_H-M   'P 1'
_cell_length_a   5.36164038
_cell_length_b   7.32552490
_cell_length_c   8.12366371
_cell_angle_alpha   83.68098061
_cell_angle_beta   88.29631891
_cell_angle_gamma   93.08673671
_symmetry_Int_Tables_number   1
_chemical_formula_structural   YbSbO4
_chemical_formula_sum   'Yb4 Sb4 O16'
_cell_volume   316.46868027
_cell_formula_units_Z   4
loop_
 _symmetry_equiv_pos_site_id
 _symmetry_equiv_pos_as_xyz
  1  'x, y, z'
loop_
 _atom_site_type_symbol
 _atom_site_label
 _atom_site_symmetry_multiplicity
 _atom_site_fract_x
 _atom_site_fract_y
 _atom_site_fract_z
 _atom_site_occupancy
  Yb  Yb0  1  0.25316097  0.12825528  0.58861536  1
  Yb  Yb1  1  0.74683903  0.87174472  0.41138464  1
  Yb  Yb2  1  0.24379897  0.14037306  0.11129152  1
  Yb  Yb3  1  0.75620103  0.85962694  0.88870848  1
  Sb  Sb4  1  0.20570993  0.63072540  0.21878629  1
  Sb  Sb5  1  0.79429007  0.36927460  0.78121371  1
  Sb  Sb6  1  0.73722888  0.33567002  0.33583571  1
  Sb  Sb7  1  0.26277112  0.66432998  0.66416429  1
  O  O8  1  0.10481982  0.41991682  0.62425402  1
  O  O9  1  0.89518018  0.58008318  0.37574598  1
  O  O10  1  0.62785826  0.30280321  0.57730178  1
  O  O11  1  0.37214174  0.69719679  0.42269822  1
  O  O12  1  0.00414778  0.41503917  0.12605720  1
  O  O13  1  0.99585222  0.58496083  0.87394280  1
  O  O14  1  0.46763756  0.44655518  0.19901284  1
  O  O15  1  0.53236244  0.55344482  0.80098716  1
  O  O16  1  0.00528059  0.84816306  0.14457911  1
  O  O17  1  0.99471941  0.15183694  0.85542089  1
  O  O18  1  0.50880062  0.11541224  0.32875043  1
  O  O19  1  0.49119938  0.88458776  0.67124957  1
  O  O20  1  0.57417767  0.18516111  0.91943275  1
  O  O21  1  0.42582233  0.81483889  0.08056725  1
  O  O22  1  0.99838162  0.15644156  0.36412470  1
  O  O23  1  0.00161838  0.84355844  0.63587530  1
