# generated using pymatgen
data_YbMgAg
_symmetry_space_group_name_H-M   'P 1'
_cell_length_a   4.43808234
_cell_length_b   7.55458571
_cell_length_c   8.83313178
_cell_angle_alpha   90.00000000
_cell_angle_beta   90.00000000
_cell_angle_gamma   90.00000000
_symmetry_Int_Tables_number   1
_chemical_formula_structural   YbMgAg
_chemical_formula_sum   'Yb4 Mg4 Ag4'
_cell_volume   296.15612427
_cell_formula_units_Z   4
loop_
 _symmetry_equiv_pos_site_id
 _symmetry_equiv_pos_as_xyz
  1  'x, y, z'
loop_
 _atom_site_type_symbol
 _atom_site_label
 _atom_site_symmetry_multiplicity
 _atom_site_fract_x
 _atom_site_fract_y
 _atom_site_fract_z
 _atom_site_occupancy
  Yb  Yb0  1  0.75000000  0.96601569  0.32385897  1
  Yb  Yb1  1  0.25000000  0.03398431  0.67614103  1
  Yb  Yb2  1  0.25000000  0.53398431  0.82385897  1
  Yb  Yb3  1  0.75000000  0.46601569  0.17614103  1
  Mg  Mg4  1  0.75000000  0.86155090  0.93973115  1
  Mg  Mg5  1  0.25000000  0.13844910  0.06026885  1
  Mg  Mg6  1  0.25000000  0.63844910  0.43973115  1
  Mg  Mg7  1  0.75000000  0.36155090  0.56026885  1
  Ag  Ag8  1  0.75000000  0.73522279  0.62895183  1
  Ag  Ag9  1  0.25000000  0.26477721  0.37104817  1
  Ag  Ag10  1  0.25000000  0.76477721  0.12895183  1
  Ag  Ag11  1  0.75000000  0.23522279  0.87104817  1
