# generated using pymatgen
data_Zr(ClO4)4
_symmetry_space_group_name_H-M   'P 1'
_cell_length_a   7.99845570
_cell_length_b   7.99845570
_cell_length_c   13.90529094
_cell_angle_alpha   73.23663671
_cell_angle_beta   73.23663671
_cell_angle_gamma   62.42062938
_symmetry_Int_Tables_number   1
_chemical_formula_structural   Zr(ClO4)4
_chemical_formula_sum   'Zr2 Cl8 O32'
_cell_volume   742.32266340
_cell_formula_units_Z   2
loop_
 _symmetry_equiv_pos_site_id
 _symmetry_equiv_pos_as_xyz
  1  'x, y, z'
loop_
 _atom_site_type_symbol
 _atom_site_label
 _atom_site_symmetry_multiplicity
 _atom_site_fract_x
 _atom_site_fract_y
 _atom_site_fract_z
 _atom_site_occupancy
  Zr  Zr0  1  0.53343767  0.58318578  0.82701326  1
  Zr  Zr1  1  0.58318578  0.53343767  0.32701326  1
  Cl  Cl2  1  0.35030362  0.88867125  0.66616408  1
  Cl  Cl3  1  0.88867125  0.35030362  0.16616408  1
  Cl  Cl4  1  0.23890698  0.75882925  0.98878404  1
  Cl  Cl5  1  0.75882925  0.23890698  0.48878404  1
  Cl  Cl6  1  0.57173089  0.19394774  0.91864750  1
  Cl  Cl7  1  0.19394774  0.57173089  0.41864750  1
  Cl  Cl8  1  0.92920688  0.52913918  0.75674278  1
  Cl  Cl9  1  0.52913918  0.92920688  0.25674278  1
  O  O10  1  0.44537533  0.88893639  0.74773351  1
  O  O11  1  0.88893639  0.44537533  0.24773351  1
  O  O12  1  0.80386041  0.47401289  0.71668617  1
  O  O13  1  0.47401289  0.80386041  0.21668617  1
  O  O14  1  0.11757978  0.95601545  0.96368981  1
  O  O15  1  0.95601545  0.11757978  0.46368981  1
  O  O16  1  0.45350513  0.92649824  0.56681922  1
  O  O17  1  0.92649824  0.45350513  0.06681922  1
  O  O18  1  0.15232628  0.01362414  0.68172934  1
  O  O19  1  0.01362414  0.15232628  0.18172934  1
  O  O20  1  0.63041427  0.32486762  0.95051757  1
  O  O21  1  0.32486762  0.63041427  0.45051757  1
  O  O22  1  0.67095691  0.19880428  0.59162028  1
  O  O23  1  0.19880428  0.67095691  0.09162028  1
  O  O24  1  0.77985967  0.62604779  0.84354674  1
  O  O25  1  0.62604779  0.77985967  0.34354674  1
  O  O26  1  0.38039670  0.67777534  0.69438078  1
  O  O27  1  0.67777534  0.38039670  0.19438078  1
  O  O28  1  0.50683008  0.32151323  0.81843807  1
  O  O29  1  0.32151323  0.50683008  0.31843807  1
  O  O30  1  0.98748514  0.66343668  0.68086267  1
  O  O31  1  0.66343668  0.98748514  0.18086267  1
  O  O32  1  0.64747143  0.23868483  0.41524505  1
  O  O33  1  0.23868483  0.64747143  0.91524505  1
  O  O34  1  0.36178687  0.08015444  0.29601965  1
  O  O35  1  0.08015444  0.36178687  0.79601965  1
  O  O36  1  0.41404434  0.16949674  0.99088921  1
  O  O37  1  0.16949674  0.41404434  0.49088921  1
  O  O38  1  0.73216092  0.02073502  0.89951166  1
  O  O39  1  0.02073502  0.73216092  0.39951166  1
  O  O40  1  0.44994183  0.72764258  0.95895860  1
  O  O41  1  0.72764258  0.44994183  0.45895860  1
