# generated using pymatgen
data_Yb2(GePt3)3
_symmetry_space_group_name_H-M   'P 1'
_cell_length_a   7.76538856
_cell_length_b   7.76538856
_cell_length_c   10.06639618
_cell_angle_alpha   90.11436227
_cell_angle_beta   112.75191231
_cell_angle_gamma   119.74053754
_symmetry_Int_Tables_number   1
_chemical_formula_structural   Yb2(GePt3)3
_chemical_formula_sum   'Yb4 Ge6 Pt18'
_cell_volume   471.59055732
_cell_formula_units_Z   2
loop_
 _symmetry_equiv_pos_site_id
 _symmetry_equiv_pos_as_xyz
  1  'x, y, z'
loop_
 _atom_site_type_symbol
 _atom_site_label
 _atom_site_symmetry_multiplicity
 _atom_site_fract_x
 _atom_site_fract_y
 _atom_site_fract_z
 _atom_site_occupancy
  Yb  Yb0  1  0.66613843  0.75490121  0.25056985  1
  Yb  Yb1  1  0.33386157  0.24509879  0.74943015  1
  Yb  Yb2  1  0.00433135  0.41556857  0.24943015  1
  Yb  Yb3  1  0.99566865  0.58443143  0.75056985  1
  Ge  Ge4  1  0.50000000  0.00000000  0.00000000  1
  Ge  Ge5  1  0.50000000  0.50000000  0.50000000  1
  Ge  Ge6  1  0.13693856  0.81853934  0.49779402  1
  Ge  Ge7  1  0.86306144  0.18146066  0.50220598  1
  Ge  Ge8  1  0.82074533  0.63914454  0.00220598  1
  Ge  Ge9  1  0.17925467  0.36085546  0.99779402  1
  Pt  Pt10  1  0.55164439  0.08384077  0.25703651  1
  Pt  Pt11  1  0.44835561  0.91615923  0.74296349  1
  Pt  Pt12  1  0.32680426  0.29460788  0.24296349  1
  Pt  Pt13  1  0.67319574  0.70539212  0.75703651  1
  Pt  Pt14  1  0.55434452  0.35905850  0.07722336  1
  Pt  Pt15  1  0.44565548  0.64094150  0.92277664  1
  Pt  Pt16  1  0.78183514  0.47712116  0.42277664  1
  Pt  Pt17  1  0.21816486  0.52287884  0.57722336  1
  Pt  Pt18  1  0.11633903  0.86633903  0.25000000  1
  Pt  Pt19  1  0.88366097  0.13366097  0.75000000  1
  Pt  Pt20  1  0.87354823  0.01980687  0.06850399  1
  Pt  Pt21  1  0.12645177  0.98019313  0.93149601  1
  Pt  Pt22  1  0.45130288  0.80504424  0.43149601  1
  Pt  Pt23  1  0.54869712  0.19495576  0.56850399  1
  Pt  Pt24  1  0.11620043  0.14070097  0.42213881  1
  Pt  Pt25  1  0.88379957  0.85929903  0.57786119  1
  Pt  Pt26  1  0.21856217  0.69406163  0.07786119  1
  Pt  Pt27  1  0.78143783  0.30593837  0.92213881  1
