# generated using pymatgen
data_YbSiPd
_symmetry_space_group_name_H-M   'P 1'
_cell_length_a   4.42087641
_cell_length_b   7.10476249
_cell_length_c   7.19473946
_cell_angle_alpha   90.00000000
_cell_angle_beta   90.00000000
_cell_angle_gamma   90.00000000
_symmetry_Int_Tables_number   1
_chemical_formula_structural   YbSiPd
_chemical_formula_sum   'Yb4 Si4 Pd4'
_cell_volume   225.98156386
_cell_formula_units_Z   4
loop_
 _symmetry_equiv_pos_site_id
 _symmetry_equiv_pos_as_xyz
  1  'x, y, z'
loop_
 _atom_site_type_symbol
 _atom_site_label
 _atom_site_symmetry_multiplicity
 _atom_site_fract_x
 _atom_site_fract_y
 _atom_site_fract_z
 _atom_site_occupancy
  Yb  Yb0  1  0.75000000  0.00611337  0.31579212  1
  Yb  Yb1  1  0.25000000  0.99388663  0.68420788  1
  Yb  Yb2  1  0.25000000  0.49388663  0.81579212  1
  Yb  Yb3  1  0.75000000  0.50611337  0.18420788  1
  Si  Si4  1  0.75000000  0.69442143  0.60352904  1
  Si  Si5  1  0.25000000  0.30557857  0.39647096  1
  Si  Si6  1  0.25000000  0.80557857  0.10352904  1
  Si  Si7  1  0.75000000  0.19442143  0.89647096  1
  Pd  Pd8  1  0.75000000  0.84055314  0.92426647  1
  Pd  Pd9  1  0.25000000  0.15944686  0.07573353  1
  Pd  Pd10  1  0.25000000  0.65944686  0.42426647  1
  Pd  Pd11  1  0.75000000  0.34055314  0.57573353  1
