# generated using pymatgen
data_Fe5(O4F)2
_symmetry_space_group_name_H-M   'P 1'
_cell_length_a   4.66041978
_cell_length_b   12.99372152
_cell_length_c   5.54888094
_cell_angle_alpha   102.94339398
_cell_angle_beta   90.00000000
_cell_angle_gamma   90.00000000
_symmetry_Int_Tables_number   1
_chemical_formula_structural   Fe5(O4F)2
_chemical_formula_sum   'Fe10 O16 F4'
_cell_volume   327.48149566
_cell_formula_units_Z   2
loop_
 _symmetry_equiv_pos_site_id
 _symmetry_equiv_pos_as_xyz
  1  'x, y, z'
loop_
 _atom_site_type_symbol
 _atom_site_label
 _atom_site_symmetry_multiplicity
 _atom_site_fract_x
 _atom_site_fract_y
 _atom_site_fract_z
 _atom_site_occupancy
  Fe  Fe0  1  0.50235587  0.99752218  0.48793724  1
  Fe  Fe1  1  0.47280179  0.40623437  0.30113105  1
  Fe  Fe2  1  0.47706760  0.20399647  0.88895261  1
  Fe  Fe3  1  0.51411632  0.60444760  0.69267353  1
  Fe  Fe4  1  0.52782259  0.80159002  0.09309521  1
  Fe  Fe5  1  0.97280179  0.39376563  0.79886895  1
  Fe  Fe6  1  0.00235587  0.80247782  0.61206276  1
  Fe  Fe7  1  0.01411632  0.19555240  0.40732647  1
  Fe  Fe8  1  0.97706760  0.59600353  0.21104739  1
  Fe  Fe9  1  0.02782259  0.99840998  0.00690479  1
  O  O10  1  0.79704135  0.25485449  0.70610598  1
  O  O11  1  0.81931114  0.86923927  0.92150203  1
  O  O12  1  0.81041203  0.66713276  0.52198113  1
  O  O13  1  0.81908886  0.05921220  0.31138505  1
  O  O14  1  0.79203212  0.45823710  0.11324065  1
  O  O15  1  0.68329382  0.46402434  0.61735461  1
  O  O16  1  0.69658303  0.66233080  0.01721501  1
  O  O17  1  0.69941838  0.85797005  0.41410964  1
  O  O18  1  0.29203212  0.34176290  0.98675935  1
  O  O19  1  0.31908886  0.74078780  0.78861495  1
  O  O20  1  0.31041203  0.13286724  0.57801887  1
  O  O21  1  0.31931114  0.93076073  0.17849797  1
  O  O22  1  0.29704135  0.54514551  0.39389402  1
  O  O23  1  0.19658303  0.13766920  0.08278499  1
  O  O24  1  0.19941838  0.94202995  0.68589036  1
  O  O25  1  0.18329382  0.33597566  0.48264539  1
  F  F26  1  0.69860146  0.06150356  0.81969134  1
  F  F27  1  0.69005563  0.25991829  0.21464367  1
  F  F28  1  0.19005563  0.54008171  0.88535633  1
  F  F29  1  0.19860146  0.73849644  0.28030866  1
