# generated using pymatgen
data_Zn22Ni3
_symmetry_space_group_name_H-M   'P 1'
_cell_length_a   7.43759105
_cell_length_b   7.65243404
_cell_length_c   7.64786659
_cell_angle_alpha   107.82481105
_cell_angle_beta   119.09457267
_cell_angle_gamma   90.00000000
_symmetry_Int_Tables_number   1
_chemical_formula_structural   Zn22Ni3
_chemical_formula_sum   'Zn22 Ni3'
_cell_volume   356.25674644
_cell_formula_units_Z   1
loop_
 _symmetry_equiv_pos_site_id
 _symmetry_equiv_pos_as_xyz
  1  'x, y, z'
loop_
 _atom_site_type_symbol
 _atom_site_label
 _atom_site_symmetry_multiplicity
 _atom_site_fract_x
 _atom_site_fract_y
 _atom_site_fract_z
 _atom_site_occupancy
  Zn  Zn0  1  0.65564606  0.31106328  0.91594307  1
  Zn  Zn1  1  0.34435394  0.68893672  0.08405693  1
  Zn  Zn2  1  0.73970299  0.68893672  0.08405693  1
  Zn  Zn3  1  0.26029701  0.31106328  0.91594307  1
  Zn  Zn4  1  0.32243872  0.00000000  0.00000000  1
  Zn  Zn5  1  0.67756128  1.00000000  1.00000000  1
  Zn  Zn6  1  0.16943409  0.78427428  0.33886819  1
  Zn  Zn7  1  0.83056591  0.21572572  0.66113181  1
  Zn  Zn8  1  0.02376375  0.17627753  0.04752751  1
  Zn  Zn9  1  0.97623625  0.82372247  0.95247249  1
  Zn  Zn10  1  0.64773165  0.27256525  0.29546331  1
  Zn  Zn11  1  0.35226835  0.72743475  0.70453669  1
  Zn  Zn12  1  0.31401993  0.37645259  0.62803986  1
  Zn  Zn13  1  0.68598007  0.62354741  0.37196014  1
  Zn  Zn14  1  0.33774594  0.46220782  0.31401811  1
  Zn  Zn15  1  0.66225406  0.53779218  0.68598189  1
  Zn  Zn16  1  0.02372782  0.53779218  0.68598189  1
  Zn  Zn17  1  0.97627218  0.46220782  0.31401811  1
  Zn  Zn18  1  0.38201185  0.09986644  0.38327721  1
  Zn  Zn19  1  0.61798815  0.90013356  0.61672279  1
  Zn  Zn20  1  0.99873464  0.90013356  0.61672279  1
  Zn  Zn21  1  0.00126536  0.09986644  0.38327721  1
  Ni  Ni22  1  0.34224279  0.05415163  0.68448558  1
  Ni  Ni23  1  0.65775721  0.94584837  0.31551442  1
  Ni  Ni24  1  0.00000000  0.50000000  -0.00000000  1
