# generated using pymatgen
data_YbReB4
_symmetry_space_group_name_H-M   'P 1'
_cell_length_a   3.53773921
_cell_length_b   6.00803514
_cell_length_c   11.61132796
_cell_angle_alpha   90.00000000
_cell_angle_beta   90.00000000
_cell_angle_gamma   90.00000000
_symmetry_Int_Tables_number   1
_chemical_formula_structural   YbReB4
_chemical_formula_sum   'Yb4 Re4 B16'
_cell_volume   246.79716750
_cell_formula_units_Z   4
loop_
 _symmetry_equiv_pos_site_id
 _symmetry_equiv_pos_as_xyz
  1  'x, y, z'
loop_
 _atom_site_type_symbol
 _atom_site_label
 _atom_site_symmetry_multiplicity
 _atom_site_fract_x
 _atom_site_fract_y
 _atom_site_fract_z
 _atom_site_occupancy
  Yb  Yb0  1  0.50000000  0.37382623  0.14989299  1
  Yb  Yb1  1  0.50000000  0.62617377  0.85010701  1
  Yb  Yb2  1  0.50000000  0.12617377  0.64989299  1
  Yb  Yb3  1  0.50000000  0.87382623  0.35010701  1
  Re  Re4  1  0.50000000  0.37114730  0.41617322  1
  Re  Re5  1  0.50000000  0.62885270  0.58382678  1
  Re  Re6  1  0.50000000  0.12885270  0.91617322  1
  Re  Re7  1  0.50000000  0.87114730  0.08382678  1
  B  B8  1  0.00000000  0.11588351  0.04792729  1
  B  B9  1  0.00000000  0.88411649  0.95207271  1
  B  B10  1  0.00000000  0.38411649  0.54792729  1
  B  B11  1  -0.00000000  0.61588351  0.45207271  1
  B  B12  1  -0.00000000  0.13437432  0.46794537  1
  B  B13  1  0.00000000  0.86562568  0.53205463  1
  B  B14  1  0.00000000  0.36562568  0.96794537  1
  B  B15  1  -0.00000000  0.63437432  0.03205463  1
  B  B16  1  -0.00000000  0.02633124  0.19308340  1
  B  B17  1  -0.00000000  0.97366876  0.80691660  1
  B  B18  1  -0.00000000  0.47366876  0.69308340  1
  B  B19  1  -0.00000000  0.52633124  0.30691660  1
  B  B20  1  -0.00000000  0.21686682  0.31449721  1
  B  B21  1  0.00000000  0.78313318  0.68550279  1
  B  B22  1  0.00000000  0.28313318  0.81449721  1
  B  B23  1  -0.00000000  0.71686682  0.18550279  1
