# generated using pymatgen
data_Zr6Be15Pd8
_symmetry_space_group_name_H-M   'P 1'
_cell_length_a   8.11534708
_cell_length_b   8.11534708
_cell_length_c   8.11534708
_cell_angle_alpha   60.00000000
_cell_angle_beta   60.00000000
_cell_angle_gamma   60.00000000
_symmetry_Int_Tables_number   1
_chemical_formula_structural   Zr6Be15Pd8
_chemical_formula_sum   'Zr6 Be15 Pd8'
_cell_volume   377.92558811
_cell_formula_units_Z   1
loop_
 _symmetry_equiv_pos_site_id
 _symmetry_equiv_pos_as_xyz
  1  'x, y, z'
loop_
 _atom_site_type_symbol
 _atom_site_label
 _atom_site_symmetry_multiplicity
 _atom_site_fract_x
 _atom_site_fract_y
 _atom_site_fract_z
 _atom_site_occupancy
  Zr  Zr0  1  0.69754129  0.69754129  0.30245871  1
  Zr  Zr1  1  0.30245871  0.30245871  0.69754129  1
  Zr  Zr2  1  0.69754129  0.30245871  0.69754129  1
  Zr  Zr3  1  0.30245871  0.69754129  0.30245871  1
  Zr  Zr4  1  0.30245871  0.69754129  0.69754129  1
  Zr  Zr5  1  0.69754129  0.30245871  0.30245871  1
  Be  Be6  1  0.67464367  0.67464367  0.67464367  1
  Be  Be7  1  0.32535633  0.32535633  0.32535633  1
  Be  Be8  1  0.97606898  0.67464367  0.67464367  1
  Be  Be9  1  0.67464367  0.97606898  0.67464367  1
  Be  Be10  1  0.02393102  0.32535633  0.32535633  1
  Be  Be11  1  0.32535633  0.02393102  0.32535633  1
  Be  Be12  1  0.67464367  0.67464367  0.97606898  1
  Be  Be13  1  0.32535633  0.32535633  0.02393102  1
  Be  Be14  1  -0.00000000  0.00000000  0.50000000  1
  Be  Be15  1  0.50000000  0.50000000  0.00000000  1
  Be  Be16  1  -0.00000000  0.50000000  0.00000000  1
  Be  Be17  1  0.50000000  0.00000000  0.50000000  1
  Be  Be18  1  0.50000000  0.00000000  0.00000000  1
  Be  Be19  1  -0.00000000  0.50000000  0.50000000  1
  Be  Be20  1  -0.00000000  0.00000000  0.00000000  1
  Pd  Pd21  1  0.87484900  0.87484900  0.87484900  1
  Pd  Pd22  1  0.12515100  0.12515100  0.12515100  1
  Pd  Pd23  1  0.37545299  0.87484900  0.87484900  1
  Pd  Pd24  1  0.87484900  0.37545299  0.87484900  1
  Pd  Pd25  1  0.62454701  0.12515100  0.12515100  1
  Pd  Pd26  1  0.12515100  0.62454701  0.12515100  1
  Pd  Pd27  1  0.87484900  0.87484900  0.37545299  1
  Pd  Pd28  1  0.12515100  0.12515100  0.62454701  1
