# generated using pymatgen
data_Y3TlF10
_symmetry_space_group_name_H-M   'P 1'
_cell_length_a   8.33060622
_cell_length_b   8.33060622
_cell_length_c   13.56993086
_cell_angle_alpha   90.00000000
_cell_angle_beta   90.00000000
_cell_angle_gamma   120.00000034
_symmetry_Int_Tables_number   1
_chemical_formula_structural   Y3TlF10
_chemical_formula_sum   'Y12 Tl4 F40'
_cell_volume   815.57044249
_cell_formula_units_Z   4
loop_
 _symmetry_equiv_pos_site_id
 _symmetry_equiv_pos_as_xyz
  1  'x, y, z'
loop_
 _atom_site_type_symbol
 _atom_site_label
 _atom_site_symmetry_multiplicity
 _atom_site_fract_x
 _atom_site_fract_y
 _atom_site_fract_z
 _atom_site_occupancy
  Y  Y0  1  0.17409105  0.34818209  0.72683907  1
  Y  Y1  1  0.17409105  0.82590895  0.72683907  1
  Y  Y2  1  0.82590895  0.65181791  0.22683907  1
  Y  Y3  1  0.65181791  0.82590895  0.72683907  1
  Y  Y4  1  0.82590895  0.17409105  0.22683907  1
  Y  Y5  1  0.34818209  0.17409105  0.22683907  1
  Y  Y6  1  0.50566442  0.01132883  0.98450154  1
  Y  Y7  1  0.50566442  0.49433558  0.98450154  1
  Y  Y8  1  0.49433558  0.98867117  0.48450154  1
  Y  Y9  1  0.98867117  0.49433558  0.98450154  1
  Y  Y10  1  0.49433558  0.50566442  0.48450154  1
  Y  Y11  1  0.01132883  0.50566442  0.48450154  1
  Tl  Tl12  1  0.66666700  0.33333300  0.73161966  1
  Tl  Tl13  1  0.33333300  0.66666700  0.23161966  1
  Tl  Tl14  1  0.00000000  -0.00000000  0.99206076  1
  Tl  Tl15  1  0.00000000  -0.00000000  0.49206076  1
  F  F16  1  0.18524609  0.37049218  0.54966874  1
  F  F17  1  0.18524609  0.81475391  0.54966874  1
  F  F18  1  0.81475391  0.62950782  0.04966874  1
  F  F19  1  0.62950782  0.81475391  0.54966874  1
  F  F20  1  0.81475391  0.18524609  0.04966874  1
  F  F21  1  0.37049218  0.18524609  0.04966874  1
  F  F22  1  0.66666700  0.33333300  0.94074007  1
  F  F23  1  0.33333300  0.66666700  0.44074007  1
  F  F24  1  0.66666700  0.33333300  0.27437709  1
  F  F25  1  0.33333300  0.66666700  0.77437709  1
  F  F26  1  0.77691042  0.55382084  0.52034250  1
  F  F27  1  0.77691042  0.22308958  0.52034250  1
  F  F28  1  0.22308958  0.44617916  0.02034250  1
  F  F29  1  0.44617916  0.22308958  0.52034250  1
  F  F30  1  0.22308958  0.77691042  0.02034250  1
  F  F31  1  0.55382084  0.77691042  0.02034250  1
  F  F32  1  0.89093013  0.78186027  0.69167908  1
  F  F33  1  0.89093013  0.10906987  0.69167908  1
  F  F34  1  0.10906987  0.21813973  0.19167908  1
  F  F35  1  0.21813973  0.10906987  0.69167908  1
  F  F36  1  0.10906987  0.89093013  0.19167908  1
  F  F37  1  0.78186027  0.89093013  0.19167908  1
  F  F38  1  0.65970910  0.66332546  0.85458370  1
  F  F39  1  0.00361636  0.34029090  0.85458370  1
  F  F40  1  0.34029090  0.33667454  0.35458370  1
  F  F41  1  0.00361636  0.66332546  0.85458370  1
  F  F42  1  0.33667454  0.99638364  0.85458370  1
  F  F43  1  0.99638364  0.65970910  0.35458370  1
  F  F44  1  0.33667454  0.34029090  0.85458370  1
  F  F45  1  0.99638364  0.33667454  0.35458370  1
  F  F46  1  0.66332546  0.00361636  0.35458370  1
  F  F47  1  0.66332546  0.65970910  0.35458370  1
  F  F48  1  0.65970910  0.99638364  0.85458370  1
  F  F49  1  0.34029090  0.00361636  0.35458370  1
  F  F50  1  0.47827316  0.95654632  0.65983581  1
  F  F51  1  0.47827316  0.52172684  0.65983581  1
  F  F52  1  0.52172684  0.04345368  0.15983581  1
  F  F53  1  0.04345368  0.52172684  0.65983581  1
  F  F54  1  0.52172684  0.47827316  0.15983581  1
  F  F55  1  0.95654632  0.47827316  0.15983581  1
