# generated using pymatgen
data_Y(Al5Re)2
_symmetry_space_group_name_H-M   'P 1'
_cell_length_a   6.96198206
_cell_length_b   6.96198206
_cell_length_c   26.99943495
_cell_angle_alpha   90.00000000
_cell_angle_beta   90.00000000
_cell_angle_gamma   96.00473057
_symmetry_Int_Tables_number   1
_chemical_formula_structural   Y(Al5Re)2
_chemical_formula_sum   'Y6 Al60 Re12'
_cell_volume   1301.46068611
_cell_formula_units_Z   6
loop_
 _symmetry_equiv_pos_site_id
 _symmetry_equiv_pos_as_xyz
  1  'x, y, z'
loop_
 _atom_site_type_symbol
 _atom_site_label
 _atom_site_symmetry_multiplicity
 _atom_site_fract_x
 _atom_site_fract_y
 _atom_site_fract_z
 _atom_site_occupancy
  Y  Y0  1  0.87591260  0.12408740  0.91525086  1
  Y  Y1  1  0.12408740  0.87591260  0.08474914  1
  Y  Y2  1  0.12408740  0.87591260  0.41525086  1
  Y  Y3  1  0.87591260  0.12408740  0.58474914  1
  Y  Y4  1  0.61867491  0.38132509  0.75000000  1
  Y  Y5  1  0.38132509  0.61867491  0.25000000  1
  Al  Al6  1  0.59546433  0.40453567  0.86687504  1
  Al  Al7  1  0.40453567  0.59546433  0.13312496  1
  Al  Al8  1  0.40453567  0.59546433  0.36687504  1
  Al  Al9  1  0.59546433  0.40453567  0.63312496  1
  Al  Al10  1  0.59697671  0.82011779  0.75000000  1
  Al  Al11  1  0.40302329  0.17988221  0.25000000  1
  Al  Al12  1  0.17988221  0.40302329  0.75000000  1
  Al  Al13  1  0.82011779  0.59697671  0.25000000  1
  Al  Al14  1  0.87500880  0.12499120  0.35413193  1
  Al  Al15  1  0.12499120  0.87500880  0.64586807  1
  Al  Al16  1  0.12499120  0.87500880  0.85413193  1
  Al  Al17  1  0.87500880  0.12499120  0.14586807  1
  Al  Al18  1  0.36993542  0.63006458  0.82253872  1
  Al  Al19  1  0.63006458  0.36993542  0.17746128  1
  Al  Al20  1  0.63006458  0.36993542  0.32253872  1
  Al  Al21  1  0.36993542  0.63006458  0.67746128  1
  Al  Al22  1  0.52847264  0.77194572  0.91931456  1
  Al  Al23  1  0.47152736  0.22805428  0.08068544  1
  Al  Al24  1  0.47152736  0.22805428  0.41931456  1
  Al  Al25  1  0.22805428  0.47152736  0.58068544  1
  Al  Al26  1  0.52847264  0.77194572  0.58068544  1
  Al  Al27  1  0.77194572  0.52847264  0.41931456  1
  Al  Al28  1  0.77194572  0.52847264  0.08068544  1
  Al  Al29  1  0.22805428  0.47152736  0.91931456  1
  Al  Al30  1  0.26017646  0.03829954  0.75000000  1
  Al  Al31  1  0.73982354  0.96170046  0.25000000  1
  Al  Al32  1  0.96170046  0.73982354  0.75000000  1
  Al  Al33  1  0.03829954  0.26017646  0.25000000  1
  Al  Al34  1  0.62233445  0.37766555  0.97805545  1
  Al  Al35  1  0.37766555  0.62233445  0.02194455  1
  Al  Al36  1  0.37766555  0.62233445  0.47805545  1
  Al  Al37  1  0.62233445  0.37766555  0.52194455  1
  Al  Al38  1  0.52487256  0.03049157  0.82891365  1
  Al  Al39  1  0.47512744  0.96950843  0.17108635  1
  Al  Al40  1  0.47512744  0.96950843  0.32891365  1
  Al  Al41  1  0.96950843  0.47512744  0.67108635  1
  Al  Al42  1  0.52487256  0.03049157  0.67108635  1
  Al  Al43  1  0.03049157  0.52487256  0.32891365  1
  Al  Al44  1  0.03049157  0.52487256  0.17108635  1
  Al  Al45  1  0.96950843  0.47512744  0.82891365  1
  Al  Al46  1  0.90755710  0.09244290  0.80004940  1
  Al  Al47  1  0.09244290  0.90755710  0.19995060  1
  Al  Al48  1  0.09244290  0.90755710  0.30004940  1
  Al  Al49  1  0.90755710  0.09244290  0.69995060  1
  Al  Al50  1  0.37922456  0.12367723  0.91696316  1
  Al  Al51  1  0.62077544  0.87632277  0.08303684  1
  Al  Al52  1  0.62077544  0.87632277  0.41696316  1
  Al  Al53  1  0.87632277  0.62077544  0.58303684  1
  Al  Al54  1  0.37922456  0.12367723  0.58303684  1
  Al  Al55  1  0.12367723  0.37922456  0.41696316  1
  Al  Al56  1  0.12367723  0.37922456  0.08303684  1
  Al  Al57  1  0.87632277  0.62077544  0.91696316  1
  Al  Al58  1  0.79282838  0.79282838  -0.00000000  1
  Al  Al59  1  0.20717162  0.20717162  -0.00000000  1
  Al  Al60  1  0.20717162  0.20717162  0.50000000  1
  Al  Al61  1  0.79282838  0.79282838  0.50000000  1
  Al  Al62  1  0.83455129  0.16544871  0.46584340  1
  Al  Al63  1  0.16544871  0.83455129  0.53415660  1
  Al  Al64  1  0.16544871  0.83455129  0.96584340  1
  Al  Al65  1  0.83455129  0.16544871  0.03415660  1
  Re  Re66  1  0.74495378  0.75058872  0.83679449  1
  Re  Re67  1  0.25504622  0.24941128  0.16320551  1
  Re  Re68  1  0.25504622  0.24941128  0.33679449  1
  Re  Re69  1  0.24941128  0.25504622  0.66320551  1
  Re  Re70  1  0.74495378  0.75058872  0.66320551  1
  Re  Re71  1  0.75058872  0.74495378  0.33679449  1
  Re  Re72  1  0.75058872  0.74495378  0.16320551  1
  Re  Re73  1  0.24941128  0.25504622  0.83679449  1
  Re  Re74  1  0.50000000  -0.00000000  -0.00000000  1
  Re  Re75  1  0.50000000  -0.00000000  0.50000000  1
  Re  Re76  1  0.00000000  0.50000000  0.50000000  1
  Re  Re77  1  0.00000000  0.50000000  -0.00000000  1
