# generated using pymatgen
data_TmMn2O5
_symmetry_space_group_name_H-M   'P 1'
_cell_length_a   5.75580435
_cell_length_b   7.27327965
_cell_length_c   8.53989915
_cell_angle_alpha   90.00000000
_cell_angle_beta   90.00000000
_cell_angle_gamma   90.00000000
_symmetry_Int_Tables_number   1
_chemical_formula_structural   TmMn2O5
_chemical_formula_sum   'Tm4 Mn8 O20'
_cell_volume   357.51070555
_cell_formula_units_Z   4
loop_
 _symmetry_equiv_pos_site_id
 _symmetry_equiv_pos_as_xyz
  1  'x, y, z'
loop_
 _atom_site_type_symbol
 _atom_site_label
 _atom_site_symmetry_multiplicity
 _atom_site_fract_x
 _atom_site_fract_y
 _atom_site_fract_z
 _atom_site_occupancy
  Tm  Tm0  1  0.50000000  0.36182314  0.32926128  1
  Tm  Tm1  1  0.50000000  0.63817686  0.67073872  1
  Tm  Tm2  1  0.50000000  0.13817686  0.82926128  1
  Tm  Tm3  1  0.50000000  0.86182314  0.17073872  1
  Mn  Mn4  1  0.00000000  0.08660324  0.15191379  1
  Mn  Mn5  1  -0.00000000  0.91339676  0.84808621  1
  Mn  Mn6  1  -0.00000000  0.41339676  0.65191379  1
  Mn  Mn7  1  0.00000000  0.58660324  0.34808621  1
  Mn  Mn8  1  0.24746477  -0.00000000  0.50000000  1
  Mn  Mn9  1  0.75253523  -0.00000000  0.50000000  1
  Mn  Mn10  1  0.75253523  0.50000000  -0.00000000  1
  Mn  Mn11  1  0.24746477  0.50000000  0.00000000  1
  O  O12  1  0.23415218  -0.00000000  0.00000000  1
  O  O13  1  0.76584782  -0.00000000  -0.00000000  1
  O  O14  1  0.76584782  0.50000000  0.50000000  1
  O  O15  1  0.23415218  0.50000000  0.50000000  1
  O  O16  1  -0.00000000  0.34716762  0.06848221  1
  O  O17  1  0.00000000  0.65283238  0.93151779  1
  O  O18  1  0.00000000  0.15283238  0.56848221  1
  O  O19  1  -0.00000000  0.84716762  0.43151779  1
  O  O20  1  0.50000000  0.33381214  0.05772934  1
  O  O21  1  0.50000000  0.66618786  0.94227066  1
  O  O22  1  0.50000000  0.16618786  0.55772934  1
  O  O23  1  0.50000000  0.83381214  0.44227066  1
  O  O24  1  0.26220878  0.10623111  0.29296100  1
  O  O25  1  0.73779122  0.89376889  0.70703900  1
  O  O26  1  0.26220878  0.89376889  0.70703900  1
  O  O27  1  0.73779122  0.39376889  0.79296100  1
  O  O28  1  0.73779122  0.10623111  0.29296100  1
  O  O29  1  0.26220878  0.60623111  0.20703900  1
  O  O30  1  0.73779122  0.60623111  0.20703900  1
  O  O31  1  0.26220878  0.39376889  0.79296100  1
