# generated using pymatgen
data_UTaN2
_symmetry_space_group_name_H-M   'P 1'
_cell_length_a   3.23316885
_cell_length_b   5.64134062
_cell_length_c   11.06262539
_cell_angle_alpha   90.00000000
_cell_angle_beta   90.00000000
_cell_angle_gamma   90.00000000
_symmetry_Int_Tables_number   1
_chemical_formula_structural   UTaN2
_chemical_formula_sum   'U4 Ta4 N8'
_cell_volume   201.77572438
_cell_formula_units_Z   4
loop_
 _symmetry_equiv_pos_site_id
 _symmetry_equiv_pos_as_xyz
  1  'x, y, z'
loop_
 _atom_site_type_symbol
 _atom_site_label
 _atom_site_symmetry_multiplicity
 _atom_site_fract_x
 _atom_site_fract_y
 _atom_site_fract_z
 _atom_site_occupancy
  U  U0  1  0.75000000  0.92071991  0.64298150  1
  U  U1  1  0.25000000  0.07928009  0.35701850  1
  U  U2  1  0.25000000  0.57928009  0.14298150  1
  U  U3  1  0.75000000  0.42071991  0.85701850  1
  Ta  Ta4  1  0.75000000  0.57682781  0.39736991  1
  Ta  Ta5  1  0.25000000  0.42317219  0.60263009  1
  Ta  Ta6  1  0.25000000  0.92317219  0.89736991  1
  Ta  Ta7  1  0.75000000  0.07682781  0.10263009  1
  N  N8  1  0.75000000  0.83783969  0.25492136  1
  N  N9  1  0.25000000  0.16216031  0.74507864  1
  N  N10  1  0.25000000  0.66216031  0.75492136  1
  N  N11  1  0.75000000  0.33783969  0.24507864  1
  N  N12  1  0.75000000  0.74085686  0.99577364  1
  N  N13  1  0.25000000  0.25914314  0.00422636  1
  N  N14  1  0.25000000  0.75914314  0.49577364  1
  N  N15  1  0.75000000  0.24085686  0.50422636  1
