# generated using pymatgen
data_Tm5SbPt2
_symmetry_space_group_name_H-M   'P 1'
_cell_length_a   7.63075215
_cell_length_b   7.63075215
_cell_length_c   8.70719582
_cell_angle_alpha   115.98823290
_cell_angle_beta   115.98823290
_cell_angle_gamma   90.00000000
_symmetry_Int_Tables_number   1
_chemical_formula_structural   Tm5SbPt2
_chemical_formula_sum   'Tm10 Sb2 Pt4'
_cell_volume   397.92214607
_cell_formula_units_Z   2
loop_
 _symmetry_equiv_pos_site_id
 _symmetry_equiv_pos_as_xyz
  1  'x, y, z'
loop_
 _atom_site_type_symbol
 _atom_site_label
 _atom_site_symmetry_multiplicity
 _atom_site_fract_x
 _atom_site_fract_y
 _atom_site_fract_z
 _atom_site_occupancy
  Tm  Tm0  1  -0.00000000  -0.00000000  0.00000000  1
  Tm  Tm1  1  0.50000000  0.50000000  -0.00000000  1
  Tm  Tm2  1  0.29691369  0.79691369  0.27653315  1
  Tm  Tm3  1  0.70308631  0.20308631  0.72346685  1
  Tm  Tm4  1  0.97961946  0.47961946  0.27653315  1
  Tm  Tm5  1  0.47961946  0.29691369  0.27653315  1
  Tm  Tm6  1  0.20308631  0.02038054  0.72346685  1
  Tm  Tm7  1  0.02038054  0.52038054  0.72346685  1
  Tm  Tm8  1  0.52038054  0.70308631  0.72346685  1
  Tm  Tm9  1  0.79691369  0.97961946  0.27653315  1
  Sb  Sb10  1  0.25000000  0.25000000  0.50000000  1
  Sb  Sb11  1  0.75000000  0.75000000  0.50000000  1
  Pt  Pt12  1  0.63814330  0.13814330  0.00000000  1
  Pt  Pt13  1  0.36185670  0.86185670  -0.00000000  1
  Pt  Pt14  1  0.86185670  0.63814330  -0.00000000  1
  Pt  Pt15  1  0.13814330  0.36185670  0.00000000  1
