# generated using pymatgen
data_TmSi3Ni5
_symmetry_space_group_name_H-M   'P 1'
_cell_length_a   3.74626068
_cell_length_b   18.57345921
_cell_length_c   6.64662778
_cell_angle_alpha   90.00000000
_cell_angle_beta   90.00000000
_cell_angle_gamma   90.00000000
_symmetry_Int_Tables_number   1
_chemical_formula_structural   TmSi3Ni5
_chemical_formula_sum   'Tm4 Si12 Ni20'
_cell_volume   462.47914003
_cell_formula_units_Z   4
loop_
 _symmetry_equiv_pos_site_id
 _symmetry_equiv_pos_as_xyz
  1  'x, y, z'
loop_
 _atom_site_type_symbol
 _atom_site_label
 _atom_site_symmetry_multiplicity
 _atom_site_fract_x
 _atom_site_fract_y
 _atom_site_fract_z
 _atom_site_occupancy
  Tm  Tm0  1  0.75000000  0.64389468  0.12268573  1
  Tm  Tm1  1  0.25000000  0.35610532  0.87731427  1
  Tm  Tm2  1  0.25000000  0.85610532  0.62268573  1
  Tm  Tm3  1  0.75000000  0.14389468  0.37731427  1
  Si  Si4  1  0.75000000  0.73775069  0.62219885  1
  Si  Si5  1  0.25000000  0.26224931  0.37780115  1
  Si  Si6  1  0.25000000  0.76224931  0.12219885  1
  Si  Si7  1  0.75000000  0.23775069  0.87780115  1
  Si  Si8  1  0.75000000  0.92477349  0.34775360  1
  Si  Si9  1  0.25000000  0.07522651  0.65224640  1
  Si  Si10  1  0.25000000  0.57522651  0.84775360  1
  Si  Si11  1  0.75000000  0.42477349  0.15224640  1
  Si  Si12  1  0.75000000  0.91478332  0.91151680  1
  Si  Si13  1  0.25000000  0.08521668  0.08848320  1
  Si  Si14  1  0.25000000  0.58521668  0.41151680  1
  Si  Si15  1  0.75000000  0.41478332  0.58848320  1
  Ni  Ni16  1  0.75000000  0.80011382  0.31681783  1
  Ni  Ni17  1  0.25000000  0.19988618  0.68318217  1
  Ni  Ni18  1  0.25000000  0.69988618  0.81681783  1
  Ni  Ni19  1  0.75000000  0.30011382  0.18318217  1
  Ni  Ni20  1  0.75000000  0.99476531  0.63179115  1
  Ni  Ni21  1  0.25000000  0.00523469  0.36820885  1
  Ni  Ni22  1  0.25000000  0.50523469  0.13179115  1
  Ni  Ni23  1  0.75000000  0.49476531  0.86820885  1
  Ni  Ni24  1  0.75000000  0.51373019  0.38181437  1
  Ni  Ni25  1  0.25000000  0.48626981  0.61818563  1
  Ni  Ni26  1  0.25000000  0.98626981  0.88181437  1
  Ni  Ni27  1  0.75000000  0.01373019  0.11818563  1
  Ni  Ni28  1  0.75000000  0.79398748  0.92992890  1
  Ni  Ni29  1  0.25000000  0.20601252  0.07007110  1
  Ni  Ni30  1  0.25000000  0.70601252  0.42992890  1
  Ni  Ni31  1  0.75000000  0.29398748  0.57007110  1
  Ni  Ni32  1  0.75000000  0.61409975  0.64194486  1
  Ni  Ni33  1  0.25000000  0.38590025  0.35805514  1
  Ni  Ni34  1  0.25000000  0.88590025  0.14194486  1
  Ni  Ni35  1  0.75000000  0.11409975  0.85805514  1
