# generated using pymatgen
data_Fe5(O4F)2
_symmetry_space_group_name_H-M   'P 1'
_cell_length_a   4.65672817
_cell_length_b   4.65671429
_cell_length_c   15.06924974
_cell_angle_alpha   89.59687749
_cell_angle_beta   90.39912557
_cell_angle_gamma   91.60600596
_symmetry_Int_Tables_number   1
_chemical_formula_structural   Fe5(O4F)2
_chemical_formula_sum   'Fe10 O16 F4'
_cell_volume   326.63353549
_cell_formula_units_Z   2
loop_
 _symmetry_equiv_pos_site_id
 _symmetry_equiv_pos_as_xyz
  1  'x, y, z'
loop_
 _atom_site_type_symbol
 _atom_site_label
 _atom_site_symmetry_multiplicity
 _atom_site_fract_x
 _atom_site_fract_y
 _atom_site_fract_z
 _atom_site_occupancy
  Fe  Fe0  1  0.00140773  0.99655177  0.00217144  1
  Fe  Fe1  1  0.99139409  0.00227407  0.20573132  1
  Fe  Fe2  1  0.02072762  0.01880157  0.40002672  1
  Fe  Fe3  1  0.00422623  0.98970144  0.59467371  1
  Fe  Fe4  1  0.01141234  0.98689276  0.79712597  1
  Fe  Fe5  1  0.52448953  0.47191299  0.09967324  1
  Fe  Fe6  1  0.49812665  0.48992476  0.50384246  1
  Fe  Fe7  1  0.49134982  0.49635146  0.29651410  1
  Fe  Fe8  1  0.47859754  0.51842622  0.70043618  1
  Fe  Fe9  1  0.47700720  0.52219978  0.90007748  1
  O  O10  1  0.19275859  0.81233989  0.30271746  1
  O  O11  1  0.19921542  0.80910086  0.49517885  1
  O  O12  1  0.18171431  0.81323256  0.69557597  1
  O  O13  1  0.18164782  0.81702541  0.90202807  1
  O  O14  1  0.30739942  0.30004623  0.00083588  1
  O  O15  1  0.31009254  0.29625449  0.19693075  1
  O  O16  1  0.32035443  0.31922174  0.40006932  1
  O  O17  1  0.30200197  0.30589752  0.60388484  1
  O  O18  1  0.29713063  0.31301971  0.79841085  1
  O  O19  1  0.69701732  0.69063976  0.00106891  1
  O  O20  1  0.69518836  0.68457767  0.19919202  1
  O  O21  1  0.68900422  0.69113039  0.60167381  1
  O  O22  1  0.68489903  0.70057757  0.79803712  1
  O  O23  1  0.81963879  0.17528432  0.10117863  1
  O  O24  1  0.81532821  0.19029747  0.49820278  1
  O  O25  1  0.81058571  0.19729669  0.30519891  1
  F  F26  1  0.20227690  0.79120965  0.10280583  1
  F  F27  1  0.70097522  0.69996364  0.40027996  1
  F  F28  1  0.79711019  0.20218538  0.89785337  1
  F  F29  1  0.79692218  0.19766322  0.69860405  1
