# generated using pymatgen
data_TmCu5Sn
_symmetry_space_group_name_H-M   'P 1'
_cell_length_a   4.99152229
_cell_length_b   8.20596917
_cell_length_c   10.58474389
_cell_angle_alpha   90.00000000
_cell_angle_beta   90.00000000
_cell_angle_gamma   90.00000000
_symmetry_Int_Tables_number   1
_chemical_formula_structural   TmCu5Sn
_chemical_formula_sum   'Tm4 Cu20 Sn4'
_cell_volume   433.55405254
_cell_formula_units_Z   4
loop_
 _symmetry_equiv_pos_site_id
 _symmetry_equiv_pos_as_xyz
  1  'x, y, z'
loop_
 _atom_site_type_symbol
 _atom_site_label
 _atom_site_symmetry_multiplicity
 _atom_site_fract_x
 _atom_site_fract_y
 _atom_site_fract_z
 _atom_site_occupancy
  Tm  Tm0  1  0.75000000  0.74802507  0.43654304  1
  Tm  Tm1  1  0.25000000  0.25197493  0.56345696  1
  Tm  Tm2  1  0.25000000  0.75197493  0.93654304  1
  Tm  Tm3  1  0.75000000  0.24802507  0.06345696  1
  Cu  Cu4  1  0.75000000  0.68636956  0.75479343  1
  Cu  Cu5  1  0.25000000  0.31363044  0.24520657  1
  Cu  Cu6  1  0.25000000  0.81363044  0.25479343  1
  Cu  Cu7  1  0.75000000  0.18636956  0.74520657  1
  Cu  Cu8  1  0.49836513  0.93477434  0.68687741  1
  Cu  Cu9  1  0.50163487  0.06522566  0.31312259  1
  Cu  Cu10  1  0.50163487  0.56522566  0.18687741  1
  Cu  Cu11  1  0.99836513  0.06522566  0.31312259  1
  Cu  Cu12  1  0.49836513  0.43477434  0.81312259  1
  Cu  Cu13  1  0.00163487  0.93477434  0.68687741  1
  Cu  Cu14  1  0.00163487  0.43477434  0.81312259  1
  Cu  Cu15  1  0.99836513  0.56522566  0.18687741  1
  Cu  Cu16  1  0.75000000  0.58769180  0.98236257  1
  Cu  Cu17  1  0.25000000  0.41230820  0.01763743  1
  Cu  Cu18  1  0.25000000  0.91230820  0.48236257  1
  Cu  Cu19  1  0.75000000  0.08769180  0.51763743  1
  Cu  Cu20  1  0.75000000  0.94163356  0.89808547  1
  Cu  Cu21  1  0.25000000  0.05836644  0.10191453  1
  Cu  Cu22  1  0.25000000  0.55836644  0.39808547  1
  Cu  Cu23  1  0.75000000  0.44163356  0.60191453  1
  Sn  Sn24  1  0.75000000  0.85991792  0.13867550  1
  Sn  Sn25  1  0.25000000  0.14008208  0.86132450  1
  Sn  Sn26  1  0.25000000  0.64008208  0.63867550  1
  Sn  Sn27  1  0.75000000  0.35991792  0.36132450  1
