# generated using pymatgen
data_Tm4CdIr
_symmetry_space_group_name_H-M   'P 1'
_cell_length_a   9.52831545
_cell_length_b   9.52831545
_cell_length_c   9.52831545
_cell_angle_alpha   60.00000000
_cell_angle_beta   60.00000000
_cell_angle_gamma   60.00000000
_symmetry_Int_Tables_number   1
_chemical_formula_structural   Tm4CdIr
_chemical_formula_sum   'Tm16 Cd4 Ir4'
_cell_volume   611.69281987
_cell_formula_units_Z   4
loop_
 _symmetry_equiv_pos_site_id
 _symmetry_equiv_pos_as_xyz
  1  'x, y, z'
loop_
 _atom_site_type_symbol
 _atom_site_label
 _atom_site_symmetry_multiplicity
 _atom_site_fract_x
 _atom_site_fract_y
 _atom_site_fract_z
 _atom_site_occupancy
  Tm  Tm0  1  0.65111944  0.65111944  0.65111944  1
  Tm  Tm1  1  0.04664168  0.65111944  0.65111944  1
  Tm  Tm2  1  0.65111944  0.04664168  0.65111944  1
  Tm  Tm3  1  0.65111944  0.65111944  0.04664168  1
  Tm  Tm4  1  0.81049893  0.81049893  0.18950107  1
  Tm  Tm5  1  0.18950107  0.18950107  0.81049893  1
  Tm  Tm6  1  0.81049893  0.18950107  0.81049893  1
  Tm  Tm7  1  0.18950107  0.81049893  0.18950107  1
  Tm  Tm8  1  0.18950107  0.81049893  0.81049893  1
  Tm  Tm9  1  0.81049893  0.18950107  0.18950107  1
  Tm  Tm10  1  0.43752869  0.43752869  0.06247131  1
  Tm  Tm11  1  0.06247131  0.06247131  0.43752869  1
  Tm  Tm12  1  0.43752869  0.06247131  0.43752869  1
  Tm  Tm13  1  0.06247131  0.43752869  0.06247131  1
  Tm  Tm14  1  0.06247131  0.43752869  0.43752869  1
  Tm  Tm15  1  0.43752869  0.06247131  0.06247131  1
  Cd  Cd16  1  0.41843350  0.41843350  0.41843350  1
  Cd  Cd17  1  0.74469949  0.41843350  0.41843350  1
  Cd  Cd18  1  0.41843350  0.74469949  0.41843350  1
  Cd  Cd19  1  0.41843350  0.41843350  0.74469949  1
  Ir  Ir20  1  0.85812471  0.85812471  0.85812471  1
  Ir  Ir21  1  0.42562587  0.85812471  0.85812471  1
  Ir  Ir22  1  0.85812471  0.42562587  0.85812471  1
  Ir  Ir23  1  0.85812471  0.85812471  0.42562587  1
