# generated using pymatgen
data_UCd(MoO4)4
_symmetry_space_group_name_H-M   'P 1'
_cell_length_a   6.70762012
_cell_length_b   8.30221999
_cell_length_c   11.65057232
_cell_angle_alpha   89.50079580
_cell_angle_beta   90.00000000
_cell_angle_gamma   90.00000000
_symmetry_Int_Tables_number   1
_chemical_formula_structural   UCd(MoO4)4
_chemical_formula_sum   'U2 Cd2 Mo8 O32'
_cell_volume   648.77405165
_cell_formula_units_Z   2
loop_
 _symmetry_equiv_pos_site_id
 _symmetry_equiv_pos_as_xyz
  1  'x, y, z'
loop_
 _atom_site_type_symbol
 _atom_site_label
 _atom_site_symmetry_multiplicity
 _atom_site_fract_x
 _atom_site_fract_y
 _atom_site_fract_z
 _atom_site_occupancy
  U  U0  1  0.30115268  0.25000000  0.75000000  1
  U  U1  1  0.69884732  0.75000000  0.25000000  1
  Cd  Cd2  1  0.30302938  0.75000000  0.75000000  1
  Cd  Cd3  1  0.69697062  0.25000000  0.25000000  1
  Mo  Mo4  1  0.82966194  0.79439439  0.90316169  1
  Mo  Mo5  1  0.17033806  0.20560561  0.09683831  1
  Mo  Mo6  1  0.82966194  0.70560561  0.59683831  1
  Mo  Mo7  1  0.17033806  0.29439439  0.40316169  1
  Mo  Mo8  1  0.83333679  0.20562556  0.59240654  1
  Mo  Mo9  1  0.16666321  0.79437444  0.40759346  1
  Mo  Mo10  1  0.83333679  0.29437444  0.90759346  1
  Mo  Mo11  1  0.16666321  0.70562556  0.09240654  1
  O  O12  1  0.84877768  0.74701586  0.06689327  1
  O  O13  1  0.15122232  0.25298414  0.93310673  1
  O  O14  1  0.84877768  0.75298414  0.43310673  1
  O  O15  1  0.15122232  0.24701586  0.56689327  1
  O  O16  1  0.94112605  0.25000000  0.75000000  1
  O  O17  1  0.05887395  0.75000000  0.25000000  1
  O  O18  1  0.93614355  0.75000000  0.75000000  1
  O  O19  1  0.06385645  0.25000000  0.25000000  1
  O  O20  1  0.84390102  0.99548438  0.59704621  1
  O  O21  1  0.15609898  0.00451562  0.40295379  1
  O  O22  1  0.84390102  0.50451562  0.90295379  1
  O  O23  1  0.15609898  0.49548438  0.09704621  1
  O  O24  1  0.85118460  0.24882218  0.43608834  1
  O  O25  1  0.14881540  0.75117782  0.56391166  1
  O  O26  1  0.85118460  0.25117782  0.06391166  1
  O  O27  1  0.14881540  0.74882218  0.93608834  1
  O  O28  1  0.57657853  0.24317101  0.62915643  1
  O  O29  1  0.42342147  0.75682899  0.37084357  1
  O  O30  1  0.57657853  0.25682899  0.87084357  1
  O  O31  1  0.42342147  0.74317101  0.12915643  1
  O  O32  1  0.57671257  0.76061432  0.87398057  1
  O  O33  1  0.42328743  0.23938568  0.12601943  1
  O  O34  1  0.57671257  0.73938568  0.62601943  1
  O  O35  1  0.42328743  0.26061432  0.37398057  1
  O  O36  1  0.29891783  0.02838970  0.75292111  1
  O  O37  1  0.70108217  0.97161030  0.24707889  1
  O  O38  1  0.29891783  0.47161030  0.74707889  1
  O  O39  1  0.70108217  0.52838970  0.25292111  1
  O  O40  1  0.84758272  0.00461327  0.90333002  1
  O  O41  1  0.15241728  0.99538673  0.09666998  1
  O  O42  1  0.84758272  0.49538673  0.59666998  1
  O  O43  1  0.15241728  0.50461327  0.40333002  1
