# generated using pymatgen
data_Ti5S8
_symmetry_space_group_name_H-M   'P 1'
_cell_length_a   6.76285731
_cell_length_b   6.76110526
_cell_length_c   6.84586520
_cell_angle_alpha   105.17442229
_cell_angle_beta   104.19019658
_cell_angle_gamma   119.12492248
_symmetry_Int_Tables_number   1
_chemical_formula_structural   Ti5S8
_chemical_formula_sum   'Ti5 S8'
_cell_volume   236.74834168
_cell_formula_units_Z   1
loop_
 _symmetry_equiv_pos_site_id
 _symmetry_equiv_pos_as_xyz
  1  'x, y, z'
loop_
 _atom_site_type_symbol
 _atom_site_label
 _atom_site_symmetry_multiplicity
 _atom_site_fract_x
 _atom_site_fract_y
 _atom_site_fract_z
 _atom_site_occupancy
  Ti  Ti0  1  0.26369112  0.76361145  0.49998830  1
  Ti  Ti1  1  0.73630888  0.23638855  0.50001170  1
  Ti  Ti2  1  0.25453276  0.75515876  0.00988943  1
  Ti  Ti3  1  0.74546724  0.24484124  0.99011057  1
  Ti  Ti4  1  0.00000000  0.00000000  -0.00000000  1
  S  S5  1  0.54001097  0.79167900  0.33154743  1
  S  S6  1  0.45998903  0.20832100  0.66845257  1
  S  S7  1  0.45791196  0.21191208  0.17001252  1
  S  S8  1  0.54208804  0.78808792  0.82998748  1
  S  S9  1  0.04192930  0.28806881  0.82997781  1
  S  S10  1  0.95807070  0.71193119  0.17002219  1
  S  S11  1  0.03639929  0.29390898  0.33061774  1
  S  S12  1  0.96360071  0.70609102  0.66938226  1
