# generated using pymatgen
data_TbSiPd
_symmetry_space_group_name_H-M   'P 1'
_cell_length_a   4.37578534
_cell_length_b   21.10242055
_cell_length_c   7.44047424
_cell_angle_alpha   90.00000000
_cell_angle_beta   90.00000000
_cell_angle_gamma   90.00000000
_symmetry_Int_Tables_number   1
_chemical_formula_structural   TbSiPd
_chemical_formula_sum   'Tb12 Si12 Pd12'
_cell_volume   687.05088002
_cell_formula_units_Z   12
loop_
 _symmetry_equiv_pos_site_id
 _symmetry_equiv_pos_as_xyz
  1  'x, y, z'
loop_
 _atom_site_type_symbol
 _atom_site_label
 _atom_site_symmetry_multiplicity
 _atom_site_fract_x
 _atom_site_fract_y
 _atom_site_fract_z
 _atom_site_occupancy
  Tb  Tb0  1  0.75000000  0.66716928  0.29346605  1
  Tb  Tb1  1  0.25000000  0.33283072  0.70653395  1
  Tb  Tb2  1  0.25000000  0.83283072  0.79346605  1
  Tb  Tb3  1  0.75000000  0.16716928  0.20653395  1
  Tb  Tb4  1  0.75000000  0.83363133  0.20815594  1
  Tb  Tb5  1  0.25000000  0.16636867  0.79184406  1
  Tb  Tb6  1  0.25000000  0.66636867  0.70815594  1
  Tb  Tb7  1  0.75000000  0.33363133  0.29184406  1
  Tb  Tb8  1  0.75000000  0.99861480  0.28755864  1
  Tb  Tb9  1  0.25000000  0.00138520  0.71244136  1
  Tb  Tb10  1  0.25000000  0.50138520  0.78755864  1
  Tb  Tb11  1  0.75000000  0.49861480  0.21244136  1
  Si  Si12  1  0.75000000  0.92879450  0.91160525  1
  Si  Si13  1  0.25000000  0.07120550  0.08839475  1
  Si  Si14  1  0.25000000  0.57120550  0.41160525  1
  Si  Si15  1  0.75000000  0.42879450  0.58839475  1
  Si  Si16  1  0.75000000  0.72847699  0.91618228  1
  Si  Si17  1  0.25000000  0.27152301  0.08381772  1
  Si  Si18  1  0.25000000  0.77152301  0.41618228  1
  Si  Si19  1  0.75000000  0.22847699  0.58381772  1
  Si  Si20  1  0.75000000  0.60451844  0.91441797  1
  Si  Si21  1  0.25000000  0.39548156  0.08558203  1
  Si  Si22  1  0.25000000  0.89548156  0.41441797  1
  Si  Si23  1  0.75000000  0.10451844  0.58558203  1
  Pd  Pd24  1  0.75000000  0.76276316  0.58375265  1
  Pd  Pd25  1  0.25000000  0.23723684  0.41624735  1
  Pd  Pd26  1  0.25000000  0.73723684  0.08375265  1
  Pd  Pd27  1  0.75000000  0.26276316  0.91624735  1
  Pd  Pd28  1  0.75000000  0.56341050  0.58301329  1
  Pd  Pd29  1  0.25000000  0.43658950  0.41698671  1
  Pd  Pd30  1  0.25000000  0.93658950  0.08301329  1
  Pd  Pd31  1  0.75000000  0.06341050  0.91698671  1
  Pd  Pd32  1  0.75000000  0.90670231  0.58046016  1
  Pd  Pd33  1  0.25000000  0.09329769  0.41953984  1
  Pd  Pd34  1  0.25000000  0.59329769  0.08046016  1
  Pd  Pd35  1  0.75000000  0.40670231  0.91953984  1
