# generated using pymatgen
data_Tm6Nb4Al43
_symmetry_space_group_name_H-M   'P 1'
_cell_length_a   11.11415489
_cell_length_b   11.11415489
_cell_length_c   17.65543583
_cell_angle_alpha   90.00000000
_cell_angle_beta   90.00000000
_cell_angle_gamma   120.00000196
_symmetry_Int_Tables_number   1
_chemical_formula_structural   Tm6Nb4Al43
_chemical_formula_sum   'Tm12 Nb8 Al86'
_cell_volume   1888.69554378
_cell_formula_units_Z   2
loop_
 _symmetry_equiv_pos_site_id
 _symmetry_equiv_pos_as_xyz
  1  'x, y, z'
loop_
 _atom_site_type_symbol
 _atom_site_label
 _atom_site_symmetry_multiplicity
 _atom_site_fract_x
 _atom_site_fract_y
 _atom_site_fract_z
 _atom_site_occupancy
  Tm  Tm0  1  0.46973068  0.46973068  0.90387522  1
  Tm  Tm1  1  0.53026932  0.53026932  0.09612478  1
  Tm  Tm2  1  1.00000000  0.53026932  0.90387522  1
  Tm  Tm3  1  0.53026932  0.53026932  0.40387522  1
  Tm  Tm4  1  1.00000000  0.53026932  0.59612478  1
  Tm  Tm5  1  0.00000000  0.46973068  0.09612478  1
  Tm  Tm6  1  0.46973068  0.46973068  0.59612478  1
  Tm  Tm7  1  0.00000000  0.46973068  0.40387522  1
  Tm  Tm8  1  0.53026932  1.00000000  0.90387522  1
  Tm  Tm9  1  0.46973068  0.00000000  0.09612478  1
  Tm  Tm10  1  0.46973068  0.00000000  0.40387522  1
  Tm  Tm11  1  0.53026932  1.00000000  0.59612478  1
  Nb  Nb12  1  0.00000000  0.00000000  0.00000000  1
  Nb  Nb13  1  0.00000000  0.00000000  0.50000000  1
  Nb  Nb14  1  0.27476493  0.27476493  0.75000000  1
  Nb  Nb15  1  0.72523507  0.72523507  0.25000000  1
  Nb  Nb16  1  1.00000000  0.72523507  0.75000000  1
  Nb  Nb17  1  0.00000000  0.27476493  0.25000000  1
  Nb  Nb18  1  0.72523507  1.00000000  0.75000000  1
  Nb  Nb19  1  0.27476493  0.00000000  0.25000000  1
  Al  Al20  1  0.85015497  0.44559712  0.75000000  1
  Al  Al21  1  0.14984503  0.55440288  0.25000000  1
  Al  Al22  1  0.59544216  0.14984503  0.75000000  1
  Al  Al23  1  0.40455784  0.55440288  0.75000000  1
  Al  Al24  1  0.40455784  0.85015497  0.25000000  1
  Al  Al25  1  0.59544216  0.44559712  0.25000000  1
  Al  Al26  1  0.55440288  0.40455784  0.75000000  1
  Al  Al27  1  0.44559712  0.85015497  0.75000000  1
  Al  Al28  1  0.44559712  0.59544216  0.25000000  1
  Al  Al29  1  0.55440288  0.14984503  0.25000000  1
  Al  Al30  1  0.14984503  0.59544216  0.75000000  1
  Al  Al31  1  0.85015497  0.40455784  0.25000000  1
  Al  Al32  1  0.84080381  0.84080381  0.38483842  1
  Al  Al33  1  0.15919619  0.15919619  0.61516158  1
  Al  Al34  1  1.00000000  0.15919619  0.38483842  1
  Al  Al35  1  0.15919619  0.15919619  0.88483842  1
  Al  Al36  1  1.00000000  0.15919619  0.11516158  1
  Al  Al37  1  0.00000000  0.84080381  0.61516158  1
  Al  Al38  1  0.84080381  0.84080381  0.11516158  1
  Al  Al39  1  0.00000000  0.84080381  0.88483842  1
  Al  Al40  1  0.15919619  1.00000000  0.38483842  1
  Al  Al41  1  0.84080381  0.00000000  0.61516158  1
  Al  Al42  1  0.84080381  0.00000000  0.88483842  1
  Al  Al43  1  0.15919619  1.00000000  0.11516158  1
  Al  Al44  1  0.75283028  0.24716972  0.00000000  1
  Al  Al45  1  0.24716972  0.75283028  0.00000000  1
  Al  Al46  1  0.49433945  0.24716972  0.00000000  1
  Al  Al47  1  0.24716972  0.75283028  0.50000000  1
  Al  Al48  1  0.50566055  0.75283028  0.50000000  1
  Al  Al49  1  0.50566055  0.75283028  0.00000000  1
  Al  Al50  1  0.75283028  0.24716972  0.50000000  1
  Al  Al51  1  0.49433945  0.24716972  0.50000000  1
  Al  Al52  1  0.75283028  0.50566055  0.00000000  1
  Al  Al53  1  0.24716972  0.49433945  0.00000000  1
  Al  Al54  1  0.24716972  0.49433945  0.50000000  1
  Al  Al55  1  0.75283028  0.50566055  0.50000000  1
  Al  Al56  1  0.85281713  0.85281713  0.75000000  1
  Al  Al57  1  0.14718287  0.14718287  0.25000000  1
  Al  Al58  1  1.00000000  0.14718287  0.75000000  1
  Al  Al59  1  0.00000000  0.85281713  0.25000000  1
  Al  Al60  1  0.14718287  1.00000000  0.75000000  1
  Al  Al61  1  0.85281713  0.00000000  0.25000000  1
  Al  Al62  1  0.66666700  0.33333300  0.87374465  1
  Al  Al63  1  0.33333300  0.66666700  0.12625535  1
  Al  Al64  1  0.33333300  0.66666700  0.37374465  1
  Al  Al65  1  0.33333300  0.66666700  0.62625535  1
  Al  Al66  1  0.66666700  0.33333300  0.62625535  1
  Al  Al67  1  0.66666700  0.33333300  0.37374465  1
  Al  Al68  1  0.66666700  0.33333300  0.12625535  1
  Al  Al69  1  0.33333300  0.66666700  0.87374465  1
  Al  Al70  1  0.74290849  0.74290849  0.96965282  1
  Al  Al71  1  0.25709151  0.25709151  0.03034718  1
  Al  Al72  1  0.00000000  0.25709151  0.96965282  1
  Al  Al73  1  0.25709151  0.25709151  0.46965282  1
  Al  Al74  1  0.00000000  0.25709151  0.53034718  1
  Al  Al75  1  1.00000000  0.74290849  0.03034718  1
  Al  Al76  1  0.74290849  0.74290849  0.53034718  1
  Al  Al77  1  1.00000000  0.74290849  0.46965282  1
  Al  Al78  1  0.25709151  0.00000000  0.96965282  1
  Al  Al79  1  0.74290849  1.00000000  0.03034718  1
  Al  Al80  1  0.74290849  1.00000000  0.46965282  1
  Al  Al81  1  0.25709151  0.00000000  0.53034718  1
  Al  Al82  1  0.84324009  0.23794529  0.83671234  1
  Al  Al83  1  0.15675991  0.76205471  0.16328766  1
  Al  Al84  1  0.39470520  0.15675991  0.83671234  1
  Al  Al85  1  0.15675991  0.76205471  0.33671234  1
  Al  Al86  1  0.60529480  0.76205471  0.66328766  1
  Al  Al87  1  0.60529480  0.84324009  0.16328766  1
  Al  Al88  1  0.84324009  0.23794529  0.66328766  1
  Al  Al89  1  0.39470520  0.23794529  0.33671234  1
  Al  Al90  1  0.76205471  0.60529480  0.83671234  1
  Al  Al91  1  0.60529480  0.84324009  0.33671234  1
  Al  Al92  1  0.23794529  0.84324009  0.66328766  1
  Al  Al93  1  0.23794529  0.39470520  0.16328766  1
  Al  Al94  1  0.39470520  0.15675991  0.66328766  1
  Al  Al95  1  0.76205471  0.15675991  0.33671234  1
  Al  Al96  1  0.39470520  0.23794529  0.16328766  1
  Al  Al97  1  0.60529480  0.76205471  0.83671234  1
  Al  Al98  1  0.23794529  0.39470520  0.33671234  1
  Al  Al99  1  0.76205471  0.15675991  0.16328766  1
  Al  Al100  1  0.76205471  0.60529480  0.66328766  1
  Al  Al101  1  0.23794529  0.84324009  0.83671234  1
  Al  Al102  1  0.15675991  0.39470520  0.66328766  1
  Al  Al103  1  0.84324009  0.60529480  0.33671234  1
  Al  Al104  1  0.84324009  0.60529480  0.16328766  1
  Al  Al105  1  0.15675991  0.39470520  0.83671234  1
