# generated using pymatgen
data_U6Nb4Al43
_symmetry_space_group_name_H-M   'P 1'
_cell_length_a   11.13263950
_cell_length_b   11.13263950
_cell_length_c   17.56825302
_cell_angle_alpha   90.00000000
_cell_angle_beta   90.00000000
_cell_angle_gamma   119.99999881
_symmetry_Int_Tables_number   1
_chemical_formula_structural   U6Nb4Al43
_chemical_formula_sum   'U12 Nb8 Al86'
_cell_volume   1885.62577568
_cell_formula_units_Z   2
loop_
 _symmetry_equiv_pos_site_id
 _symmetry_equiv_pos_as_xyz
  1  'x, y, z'
loop_
 _atom_site_type_symbol
 _atom_site_label
 _atom_site_symmetry_multiplicity
 _atom_site_fract_x
 _atom_site_fract_y
 _atom_site_fract_z
 _atom_site_occupancy
  U  U0  1  0.47384476  0.47384476  0.91008170  1
  U  U1  1  0.52615524  0.52615524  0.08991830  1
  U  U2  1  1.00000000  0.52615524  0.91008170  1
  U  U3  1  0.52615524  0.52615524  0.41008170  1
  U  U4  1  1.00000000  0.52615524  0.58991830  1
  U  U5  1  0.00000000  0.47384476  0.08991830  1
  U  U6  1  0.47384476  0.47384476  0.58991830  1
  U  U7  1  0.00000000  0.47384476  0.41008170  1
  U  U8  1  0.52615524  1.00000000  0.91008170  1
  U  U9  1  0.47384476  0.00000000  0.08991830  1
  U  U10  1  0.47384476  0.00000000  0.41008170  1
  U  U11  1  0.52615524  1.00000000  0.58991830  1
  Nb  Nb12  1  -0.00000000  0.00000000  0.00000000  1
  Nb  Nb13  1  -0.00000000  0.00000000  0.50000000  1
  Nb  Nb14  1  0.27506433  0.27506433  0.75000000  1
  Nb  Nb15  1  0.72493567  0.72493567  0.25000000  1
  Nb  Nb16  1  0.00000000  0.72493567  0.75000000  1
  Nb  Nb17  1  1.00000000  0.27506433  0.25000000  1
  Nb  Nb18  1  0.72493567  0.00000000  0.75000000  1
  Nb  Nb19  1  0.27506433  1.00000000  0.25000000  1
  Al  Al20  1  0.85200666  0.44519336  0.75000000  1
  Al  Al21  1  0.14799334  0.55480664  0.25000000  1
  Al  Al22  1  0.59318670  0.14799334  0.75000000  1
  Al  Al23  1  0.40681330  0.55480664  0.75000000  1
  Al  Al24  1  0.40681330  0.85200666  0.25000000  1
  Al  Al25  1  0.59318670  0.44519336  0.25000000  1
  Al  Al26  1  0.55480664  0.40681330  0.75000000  1
  Al  Al27  1  0.44519336  0.85200666  0.75000000  1
  Al  Al28  1  0.44519336  0.59318670  0.25000000  1
  Al  Al29  1  0.55480664  0.14799334  0.25000000  1
  Al  Al30  1  0.14799334  0.59318670  0.75000000  1
  Al  Al31  1  0.85200666  0.40681330  0.25000000  1
  Al  Al32  1  0.83962686  0.83962686  0.38505195  1
  Al  Al33  1  0.16037314  0.16037314  0.61494805  1
  Al  Al34  1  0.00000000  0.16037314  0.38505195  1
  Al  Al35  1  0.16037314  0.16037314  0.88505195  1
  Al  Al36  1  0.00000000  0.16037314  0.11494805  1
  Al  Al37  1  1.00000000  0.83962686  0.61494805  1
  Al  Al38  1  0.83962686  0.83962686  0.11494805  1
  Al  Al39  1  1.00000000  0.83962686  0.88505195  1
  Al  Al40  1  0.16037314  0.00000000  0.38505195  1
  Al  Al41  1  0.83962686  1.00000000  0.61494805  1
  Al  Al42  1  0.83962686  1.00000000  0.88505195  1
  Al  Al43  1  0.16037314  0.00000000  0.11494805  1
  Al  Al44  1  0.75284537  0.24715463  0.00000000  1
  Al  Al45  1  0.24715463  0.75284537  0.00000000  1
  Al  Al46  1  0.49430926  0.24715463  0.00000000  1
  Al  Al47  1  0.24715463  0.75284537  0.50000000  1
  Al  Al48  1  0.50569074  0.75284537  0.50000000  1
  Al  Al49  1  0.50569074  0.75284537  0.00000000  1
  Al  Al50  1  0.75284537  0.24715463  0.50000000  1
  Al  Al51  1  0.49430926  0.24715463  0.50000000  1
  Al  Al52  1  0.75284537  0.50569074  0.00000000  1
  Al  Al53  1  0.24715463  0.49430926  0.00000000  1
  Al  Al54  1  0.24715463  0.49430926  0.50000000  1
  Al  Al55  1  0.75284537  0.50569074  0.50000000  1
  Al  Al56  1  0.85381468  0.85381468  0.75000000  1
  Al  Al57  1  0.14618532  0.14618532  0.25000000  1
  Al  Al58  1  1.00000000  0.14618532  0.75000000  1
  Al  Al59  1  0.00000000  0.85381468  0.25000000  1
  Al  Al60  1  0.14618532  1.00000000  0.75000000  1
  Al  Al61  1  0.85381468  0.00000000  0.25000000  1
  Al  Al62  1  0.66666700  0.33333300  0.87311726  1
  Al  Al63  1  0.33333300  0.66666700  0.12688274  1
  Al  Al64  1  0.33333300  0.66666700  0.37311726  1
  Al  Al65  1  0.33333300  0.66666700  0.62688274  1
  Al  Al66  1  0.66666700  0.33333300  0.62688274  1
  Al  Al67  1  0.66666700  0.33333300  0.37311726  1
  Al  Al68  1  0.66666700  0.33333300  0.12688274  1
  Al  Al69  1  0.33333300  0.66666700  0.87311726  1
  Al  Al70  1  0.74310107  0.74310107  0.97054829  1
  Al  Al71  1  0.25689893  0.25689893  0.02945171  1
  Al  Al72  1  0.00000000  0.25689893  0.97054829  1
  Al  Al73  1  0.25689893  0.25689893  0.47054829  1
  Al  Al74  1  0.00000000  0.25689893  0.52945171  1
  Al  Al75  1  1.00000000  0.74310107  0.02945171  1
  Al  Al76  1  0.74310107  0.74310107  0.52945171  1
  Al  Al77  1  1.00000000  0.74310107  0.47054829  1
  Al  Al78  1  0.25689893  0.00000000  0.97054829  1
  Al  Al79  1  0.74310107  1.00000000  0.02945171  1
  Al  Al80  1  0.74310107  1.00000000  0.47054829  1
  Al  Al81  1  0.25689893  0.00000000  0.52945171  1
  Al  Al82  1  0.84238431  0.23775601  0.83700588  1
  Al  Al83  1  0.15761569  0.76224399  0.16299412  1
  Al  Al84  1  0.39537170  0.15761569  0.83700588  1
  Al  Al85  1  0.15761569  0.76224399  0.33700588  1
  Al  Al86  1  0.60462830  0.76224399  0.66299412  1
  Al  Al87  1  0.60462830  0.84238431  0.16299412  1
  Al  Al88  1  0.84238431  0.23775601  0.66299412  1
  Al  Al89  1  0.39537170  0.23775601  0.33700588  1
  Al  Al90  1  0.76224399  0.60462830  0.83700588  1
  Al  Al91  1  0.60462830  0.84238431  0.33700588  1
  Al  Al92  1  0.23775601  0.84238431  0.66299412  1
  Al  Al93  1  0.23775601  0.39537170  0.16299412  1
  Al  Al94  1  0.39537170  0.15761569  0.66299412  1
  Al  Al95  1  0.76224399  0.15761569  0.33700588  1
  Al  Al96  1  0.39537170  0.23775601  0.16299412  1
  Al  Al97  1  0.60462830  0.76224399  0.83700588  1
  Al  Al98  1  0.23775601  0.39537170  0.33700588  1
  Al  Al99  1  0.76224399  0.15761569  0.16299412  1
  Al  Al100  1  0.76224399  0.60462830  0.66299412  1
  Al  Al101  1  0.23775601  0.84238431  0.83700588  1
  Al  Al102  1  0.15761569  0.39537170  0.66299412  1
  Al  Al103  1  0.84238431  0.60462830  0.33700588  1
  Al  Al104  1  0.84238431  0.60462830  0.16299412  1
  Al  Al105  1  0.15761569  0.39537170  0.83700588  1
