# generated using pymatgen
data_TbAl3Ni2
_symmetry_space_group_name_H-M   'P 1'
_cell_length_a   4.06054237
_cell_length_b   9.05939788
_cell_length_c   9.05939788
_cell_angle_alpha   120.00000336
_cell_angle_beta   90.00000000
_cell_angle_gamma   90.00000000
_symmetry_Int_Tables_number   1
_chemical_formula_structural   TbAl3Ni2
_chemical_formula_sum   'Tb3 Al9 Ni6'
_cell_volume   288.61130016
_cell_formula_units_Z   3
loop_
 _symmetry_equiv_pos_site_id
 _symmetry_equiv_pos_as_xyz
  1  'x, y, z'
loop_
 _atom_site_type_symbol
 _atom_site_label
 _atom_site_symmetry_multiplicity
 _atom_site_fract_x
 _atom_site_fract_y
 _atom_site_fract_z
 _atom_site_occupancy
  Tb  Tb0  1  0.50000000  0.66666700  0.33333300  1
  Tb  Tb1  1  0.50000000  0.33333300  0.66666700  1
  Tb  Tb2  1  -0.00000000  0.00000000  0.00000000  1
  Al  Al3  1  -0.00000000  0.50000000  0.50000000  1
  Al  Al4  1  -0.00000000  0.00000000  0.50000000  1
  Al  Al5  1  -0.00000000  0.50000000  0.00000000  1
  Al  Al6  1  0.50000000  0.70400623  0.70400623  1
  Al  Al7  1  0.50000000  0.29599377  0.29599377  1
  Al  Al8  1  0.50000000  1.00000000  0.29599377  1
  Al  Al9  1  0.50000000  0.00000000  0.70400623  1
  Al  Al10  1  0.50000000  0.29599377  1.00000000  1
  Al  Al11  1  0.50000000  0.70400623  0.00000000  1
  Ni  Ni12  1  0.00000000  0.81831653  0.18168347  1
  Ni  Ni13  1  -0.00000000  0.18168347  0.81831653  1
  Ni  Ni14  1  -0.00000000  0.36336694  0.18168347  1
  Ni  Ni15  1  0.00000000  0.63663306  0.81831653  1
  Ni  Ni16  1  -0.00000000  0.81831653  0.63663306  1
  Ni  Ni17  1  0.00000000  0.18168347  0.36336694  1
