# generated using pymatgen
data_TbGaCo4
_symmetry_space_group_name_H-M   'P 1'
_cell_length_a   4.02146828
_cell_length_b   8.60038267
_cell_length_c   8.60038267
_cell_angle_alpha   120.00000791
_cell_angle_beta   90.00000000
_cell_angle_gamma   90.00000000
_symmetry_Int_Tables_number   1
_chemical_formula_structural   TbGaCo4
_chemical_formula_sum   'Tb3 Ga3 Co12'
_cell_volume   257.60292809
_cell_formula_units_Z   3
loop_
 _symmetry_equiv_pos_site_id
 _symmetry_equiv_pos_as_xyz
  1  'x, y, z'
loop_
 _atom_site_type_symbol
 _atom_site_label
 _atom_site_symmetry_multiplicity
 _atom_site_fract_x
 _atom_site_fract_y
 _atom_site_fract_z
 _atom_site_occupancy
  Tb  Tb0  1  -0.00000000  0.66666700  0.33333300  1
  Tb  Tb1  1  -0.00000000  0.33333300  0.66666700  1
  Tb  Tb2  1  -0.00000000  -0.00000000  -0.00000000  1
  Ga  Ga3  1  0.50000000  0.50000000  0.50000000  1
  Ga  Ga4  1  0.50000000  -0.00000000  0.50000000  1
  Ga  Ga5  1  0.50000000  0.50000000  -0.00000000  1
  Co  Co6  1  0.00000000  0.67373949  0.67373949  1
  Co  Co7  1  -0.00000000  0.32626051  0.32626051  1
  Co  Co8  1  -0.00000000  0.00000000  0.32626051  1
  Co  Co9  1  0.00000000  1.00000000  0.67373949  1
  Co  Co10  1  0.00000000  0.32626051  0.00000000  1
  Co  Co11  1  -0.00000000  0.67373949  1.00000000  1
  Co  Co12  1  0.50000000  0.83963199  0.16036801  1
  Co  Co13  1  0.50000000  0.16036801  0.83963199  1
  Co  Co14  1  0.50000000  0.32073601  0.16036801  1
  Co  Co15  1  0.50000000  0.67926399  0.83963199  1
  Co  Co16  1  0.50000000  0.83963199  0.67926399  1
  Co  Co17  1  0.50000000  0.16036801  0.32073601  1
