# generated using pymatgen
data_TbSbIr
_symmetry_space_group_name_H-M   'P 1'
_cell_length_a   4.53176689
_cell_length_b   7.22986971
_cell_length_c   7.94756655
_cell_angle_alpha   90.00000000
_cell_angle_beta   90.00000000
_cell_angle_gamma   90.00000000
_symmetry_Int_Tables_number   1
_chemical_formula_structural   TbSbIr
_chemical_formula_sum   'Tb4 Sb4 Ir4'
_cell_volume   260.39473940
_cell_formula_units_Z   4
loop_
 _symmetry_equiv_pos_site_id
 _symmetry_equiv_pos_as_xyz
  1  'x, y, z'
loop_
 _atom_site_type_symbol
 _atom_site_label
 _atom_site_symmetry_multiplicity
 _atom_site_fract_x
 _atom_site_fract_y
 _atom_site_fract_z
 _atom_site_occupancy
  Tb  Tb0  1  0.75000000  0.98591365  0.30922284  1
  Tb  Tb1  1  0.25000000  0.01408635  0.69077716  1
  Tb  Tb2  1  0.25000000  0.51408635  0.80922284  1
  Tb  Tb3  1  0.75000000  0.48591365  0.19077716  1
  Sb  Sb4  1  0.75000000  0.82431192  0.91191683  1
  Sb  Sb5  1  0.25000000  0.17568808  0.08808317  1
  Sb  Sb6  1  0.25000000  0.67568808  0.41191683  1
  Sb  Sb7  1  0.75000000  0.32431192  0.58808317  1
  Ir  Ir8  1  0.75000000  0.70808090  0.58935720  1
  Ir  Ir9  1  0.25000000  0.29191910  0.41064280  1
  Ir  Ir10  1  0.25000000  0.79191910  0.08935720  1
  Ir  Ir11  1  0.75000000  0.20808090  0.91064280  1
