# generated using pymatgen
data_SrCaCrF7
_symmetry_space_group_name_H-M   'P 1'
_cell_length_a   7.41077137
_cell_length_b   8.09472857
_cell_length_c   10.01235752
_cell_angle_alpha   90.00000000
_cell_angle_beta   90.00000000
_cell_angle_gamma   90.00000000
_symmetry_Int_Tables_number   1
_chemical_formula_structural   SrCaCrF7
_chemical_formula_sum   'Sr4 Ca4 Cr4 F28'
_cell_volume   600.62313251
_cell_formula_units_Z   4
loop_
 _symmetry_equiv_pos_site_id
 _symmetry_equiv_pos_as_xyz
  1  'x, y, z'
loop_
 _atom_site_type_symbol
 _atom_site_label
 _atom_site_symmetry_multiplicity
 _atom_site_fract_x
 _atom_site_fract_y
 _atom_site_fract_z
 _atom_site_occupancy
  Sr  Sr0  1  0.75000000  0.69672915  0.10570224  1
  Sr  Sr1  1  0.25000000  0.30327085  0.89429776  1
  Sr  Sr2  1  0.25000000  0.80327085  0.60570224  1
  Sr  Sr3  1  0.75000000  0.19672915  0.39429776  1
  Ca  Ca4  1  0.75000000  0.88133674  0.75662838  1
  Ca  Ca5  1  0.25000000  0.11866326  0.24337162  1
  Ca  Ca6  1  0.25000000  0.61866326  0.25662838  1
  Ca  Ca7  1  0.75000000  0.38133674  0.74337162  1
  Cr  Cr8  1  0.75000000  0.68535379  0.44524575  1
  Cr  Cr9  1  0.25000000  0.31464621  0.55475425  1
  Cr  Cr10  1  0.25000000  0.81464621  0.94524575  1
  Cr  Cr11  1  0.75000000  0.18535379  0.05475425  1
  F  F12  1  0.75000000  0.89863566  0.36263273  1
  F  F13  1  0.25000000  0.10136434  0.63736727  1
  F  F14  1  0.25000000  0.60136434  0.86263273  1
  F  F15  1  0.75000000  0.39863566  0.13736727  1
  F  F16  1  0.75000000  0.96326233  0.97829191  1
  F  F17  1  0.25000000  0.03673767  0.02170809  1
  F  F18  1  0.25000000  0.53673767  0.47829191  1
  F  F19  1  0.75000000  0.46326233  0.52170809  1
  F  F20  1  0.92287723  0.75898734  0.58014221  1
  F  F21  1  0.07712277  0.24101266  0.41985779  1
  F  F22  1  0.07712277  0.74101266  0.08014221  1
  F  F23  1  0.42287723  0.24101266  0.41985779  1
  F  F24  1  0.92287723  0.25898734  0.91985779  1
  F  F25  1  0.57712277  0.75898734  0.58014221  1
  F  F26  1  0.57712277  0.25898734  0.91985779  1
  F  F27  1  0.42287723  0.74101266  0.08014221  1
  F  F28  1  0.75000000  0.62608150  0.85857502  1
  F  F29  1  0.25000000  0.37391850  0.14142498  1
  F  F30  1  0.25000000  0.87391850  0.35857502  1
  F  F31  1  0.75000000  0.12608150  0.64142498  1
  F  F32  1  0.43440357  0.87866243  0.81532533  1
  F  F33  1  0.56559643  0.12133757  0.18467467  1
  F  F34  1  0.56559643  0.62133757  0.31532533  1
  F  F35  1  0.93440357  0.12133757  0.18467467  1
  F  F36  1  0.43440357  0.37866243  0.68467467  1
  F  F37  1  0.06559643  0.87866243  0.81532533  1
  F  F38  1  0.06559643  0.37866243  0.68467467  1
  F  F39  1  0.93440357  0.62133757  0.31532533  1
