# generated using pymatgen
data_Tb6Nb4Al43
_symmetry_space_group_name_H-M   'P 1'
_cell_length_a   11.15920409
_cell_length_b   11.15920409
_cell_length_c   17.79046810
_cell_angle_alpha   90.00000000
_cell_angle_beta   90.00000000
_cell_angle_gamma   119.99999803
_symmetry_Int_Tables_number   1
_chemical_formula_structural   Tb6Nb4Al43
_chemical_formula_sum   'Tb12 Nb8 Al86'
_cell_volume   1918.60007159
_cell_formula_units_Z   2
loop_
 _symmetry_equiv_pos_site_id
 _symmetry_equiv_pos_as_xyz
  1  'x, y, z'
loop_
 _atom_site_type_symbol
 _atom_site_label
 _atom_site_symmetry_multiplicity
 _atom_site_fract_x
 _atom_site_fract_y
 _atom_site_fract_z
 _atom_site_occupancy
  Tb  Tb0  1  0.47056904  0.47056904  0.90418629  1
  Tb  Tb1  1  0.52943096  0.52943096  0.09581371  1
  Tb  Tb2  1  0.00000000  0.52943096  0.90418629  1
  Tb  Tb3  1  0.52943096  0.52943096  0.40418629  1
  Tb  Tb4  1  0.00000000  0.52943096  0.59581371  1
  Tb  Tb5  1  1.00000000  0.47056904  0.09581371  1
  Tb  Tb6  1  0.47056904  0.47056904  0.59581371  1
  Tb  Tb7  1  1.00000000  0.47056904  0.40418629  1
  Tb  Tb8  1  0.52943096  0.00000000  0.90418629  1
  Tb  Tb9  1  0.47056904  1.00000000  0.09581371  1
  Tb  Tb10  1  0.47056904  1.00000000  0.40418629  1
  Tb  Tb11  1  0.52943096  0.00000000  0.59581371  1
  Nb  Nb12  1  0.00000000  0.00000000  0.00000000  1
  Nb  Nb13  1  0.00000000  0.00000000  0.50000000  1
  Nb  Nb14  1  0.27284741  0.27284741  0.75000000  1
  Nb  Nb15  1  0.72715259  0.72715259  0.25000000  1
  Nb  Nb16  1  0.00000000  0.72715259  0.75000000  1
  Nb  Nb17  1  1.00000000  0.27284741  0.25000000  1
  Nb  Nb18  1  0.72715259  0.00000000  0.75000000  1
  Nb  Nb19  1  0.27284741  1.00000000  0.25000000  1
  Al  Al20  1  0.85118616  0.44631665  0.75000000  1
  Al  Al21  1  0.14881384  0.55368335  0.25000000  1
  Al  Al22  1  0.59513049  0.14881384  0.75000000  1
  Al  Al23  1  0.40486951  0.55368335  0.75000000  1
  Al  Al24  1  0.40486951  0.85118616  0.25000000  1
  Al  Al25  1  0.59513049  0.44631665  0.25000000  1
  Al  Al26  1  0.55368335  0.40486951  0.75000000  1
  Al  Al27  1  0.44631665  0.85118616  0.75000000  1
  Al  Al28  1  0.44631665  0.59513049  0.25000000  1
  Al  Al29  1  0.55368335  0.14881384  0.25000000  1
  Al  Al30  1  0.14881384  0.59513049  0.75000000  1
  Al  Al31  1  0.85118616  0.40486951  0.25000000  1
  Al  Al32  1  0.84090660  0.84090660  0.38483236  1
  Al  Al33  1  0.15909340  0.15909340  0.61516764  1
  Al  Al34  1  0.00000000  0.15909340  0.38483236  1
  Al  Al35  1  0.15909340  0.15909340  0.88483236  1
  Al  Al36  1  0.00000000  0.15909340  0.11516764  1
  Al  Al37  1  1.00000000  0.84090660  0.61516764  1
  Al  Al38  1  0.84090660  0.84090660  0.11516764  1
  Al  Al39  1  1.00000000  0.84090660  0.88483236  1
  Al  Al40  1  0.15909340  0.00000000  0.38483236  1
  Al  Al41  1  0.84090660  1.00000000  0.61516764  1
  Al  Al42  1  0.84090660  1.00000000  0.88483236  1
  Al  Al43  1  0.15909340  0.00000000  0.11516764  1
  Al  Al44  1  0.75279138  0.24720862  0.00000000  1
  Al  Al45  1  0.24720862  0.75279138  0.00000000  1
  Al  Al46  1  0.49441725  0.24720862  0.00000000  1
  Al  Al47  1  0.24720862  0.75279138  0.50000000  1
  Al  Al48  1  0.50558275  0.75279138  0.50000000  1
  Al  Al49  1  0.50558275  0.75279138  0.00000000  1
  Al  Al50  1  0.75279138  0.24720862  0.50000000  1
  Al  Al51  1  0.49441725  0.24720862  0.50000000  1
  Al  Al52  1  0.75279138  0.50558275  0.00000000  1
  Al  Al53  1  0.24720862  0.49441725  0.00000000  1
  Al  Al54  1  0.24720862  0.49441725  0.50000000  1
  Al  Al55  1  0.75279138  0.50558275  0.50000000  1
  Al  Al56  1  0.85304455  0.85304455  0.75000000  1
  Al  Al57  1  0.14695545  0.14695545  0.25000000  1
  Al  Al58  1  0.00000000  0.14695545  0.75000000  1
  Al  Al59  1  1.00000000  0.85304455  0.25000000  1
  Al  Al60  1  0.14695545  0.00000000  0.75000000  1
  Al  Al61  1  0.85304455  1.00000000  0.25000000  1
  Al  Al62  1  0.66666700  0.33333300  0.87339771  1
  Al  Al63  1  0.33333300  0.66666700  0.12660229  1
  Al  Al64  1  0.33333300  0.66666700  0.37339771  1
  Al  Al65  1  0.33333300  0.66666700  0.62660229  1
  Al  Al66  1  0.66666700  0.33333300  0.62660229  1
  Al  Al67  1  0.66666700  0.33333300  0.37339771  1
  Al  Al68  1  0.66666700  0.33333300  0.12660229  1
  Al  Al69  1  0.33333300  0.66666700  0.87339771  1
  Al  Al70  1  0.74396881  0.74396881  0.96975781  1
  Al  Al71  1  0.25603119  0.25603119  0.03024219  1
  Al  Al72  1  1.00000000  0.25603119  0.96975781  1
  Al  Al73  1  0.25603119  0.25603119  0.46975781  1
  Al  Al74  1  1.00000000  0.25603119  0.53024219  1
  Al  Al75  1  0.00000000  0.74396881  0.03024219  1
  Al  Al76  1  0.74396881  0.74396881  0.53024219  1
  Al  Al77  1  0.00000000  0.74396881  0.46975781  1
  Al  Al78  1  0.25603119  1.00000000  0.96975781  1
  Al  Al79  1  0.74396881  0.00000000  0.03024219  1
  Al  Al80  1  0.74396881  0.00000000  0.46975781  1
  Al  Al81  1  0.25603119  1.00000000  0.53024219  1
  Al  Al82  1  0.84279483  0.23741583  0.83618623  1
  Al  Al83  1  0.15720517  0.76258417  0.16381377  1
  Al  Al84  1  0.39462100  0.15720517  0.83618623  1
  Al  Al85  1  0.15720517  0.76258417  0.33618623  1
  Al  Al86  1  0.60537900  0.76258417  0.66381377  1
  Al  Al87  1  0.60537900  0.84279483  0.16381377  1
  Al  Al88  1  0.84279483  0.23741583  0.66381377  1
  Al  Al89  1  0.39462100  0.23741583  0.33618623  1
  Al  Al90  1  0.76258417  0.60537900  0.83618623  1
  Al  Al91  1  0.60537900  0.84279483  0.33618623  1
  Al  Al92  1  0.23741583  0.84279483  0.66381377  1
  Al  Al93  1  0.23741583  0.39462100  0.16381377  1
  Al  Al94  1  0.39462100  0.15720517  0.66381377  1
  Al  Al95  1  0.76258417  0.15720517  0.33618623  1
  Al  Al96  1  0.39462100  0.23741583  0.16381377  1
  Al  Al97  1  0.60537900  0.76258417  0.83618623  1
  Al  Al98  1  0.23741583  0.39462100  0.33618623  1
  Al  Al99  1  0.76258417  0.15720517  0.16381377  1
  Al  Al100  1  0.76258417  0.60537900  0.66381377  1
  Al  Al101  1  0.23741583  0.84279483  0.83618623  1
  Al  Al102  1  0.15720517  0.39462100  0.66381377  1
  Al  Al103  1  0.84279483  0.60537900  0.33618623  1
  Al  Al104  1  0.84279483  0.60537900  0.16381377  1
  Al  Al105  1  0.15720517  0.39462100  0.83618623  1
