# generated using pymatgen
data_TbIn2Pd
_symmetry_space_group_name_H-M   'P 1'
_cell_length_a   9.24767983
_cell_length_b   10.86712328
_cell_length_c   10.86712328
_cell_angle_alpha   79.56961237
_cell_angle_beta   64.81838935
_cell_angle_gamma   64.81838935
_symmetry_Int_Tables_number   1
_chemical_formula_structural   TbIn2Pd
_chemical_formula_sum   'Tb10 In20 Pd10'
_cell_volume   894.38448053
_cell_formula_units_Z   10
loop_
 _symmetry_equiv_pos_site_id
 _symmetry_equiv_pos_as_xyz
  1  'x, y, z'
loop_
 _atom_site_type_symbol
 _atom_site_label
 _atom_site_symmetry_multiplicity
 _atom_site_fract_x
 _atom_site_fract_y
 _atom_site_fract_z
 _atom_site_occupancy
  Tb  Tb0  1  0.47095054  -0.00000000  -0.00000000  1
  Tb  Tb1  1  0.00009308  -0.00000000  -0.00000000  1
  Tb  Tb2  1  0.67964066  0.71934550  0.71934550  1
  Tb  Tb3  1  0.11833165  0.28065450  0.28065450  1
  Tb  Tb4  1  0.39898616  0.28065450  0.71934550  1
  Tb  Tb5  1  0.39898616  0.71934550  0.28065450  1
  Tb  Tb6  1  0.68392866  0.00000000  0.40512423  1
  Tb  Tb7  1  0.08905289  0.00000000  0.59487577  1
  Tb  Tb8  1  0.08905289  0.59487577  -0.00000000  1
  Tb  Tb9  1  0.68392866  0.40512423  0.00000000  1
  In  In10  1  0.27871105  0.20938842  0.50698077  1
  In  In11  1  0.99508024  0.79061158  0.49301923  1
  In  In12  1  0.78569182  0.49301923  0.20938842  1
  In  In13  1  0.27871105  0.50698077  0.20938842  1
  In  In14  1  0.48809947  0.50698077  0.79061158  1
  In  In15  1  0.99508024  0.49301923  0.79061158  1
  In  In16  1  0.78569182  0.20938842  0.49301923  1
  In  In17  1  0.48809947  0.79061158  0.50698077  1
  In  In18  1  0.89320463  0.83558864  0.83558864  1
  In  In19  1  0.56438191  0.16441136  0.16441136  1
  In  In20  1  0.72879327  0.16441136  0.83558864  1
  In  In21  1  0.72879327  0.83558864  0.16441136  1
  In  In22  1  0.36572609  0.00000000  0.73590790  1
  In  In23  1  0.10163399  0.00000000  0.26409210  1
  In  In24  1  0.10163399  0.26409210  -0.00000000  1
  In  In25  1  0.36572609  0.73590790  -0.00000000  1
  In  In26  1  0.25910406  0.61753705  0.61753705  1
  In  In27  1  0.49417816  0.38246295  0.38246295  1
  In  In28  1  0.87664111  0.38246295  0.61753705  1
  In  In29  1  0.87664111  0.61753705  0.38246295  1
  Pd  Pd30  1  0.25157381  0.78603540  0.78603540  1
  Pd  Pd31  1  0.82364462  0.21396460  0.21396460  1
  Pd  Pd32  1  0.03760922  0.21396460  0.78603540  1
  Pd  Pd33  1  0.03760922  0.78603540  0.21396460  1
  Pd  Pd34  1  0.38404727  -0.00000000  0.32082696  1
  Pd  Pd35  1  0.70487423  0.00000000  0.67917304  1
  Pd  Pd36  1  0.70487423  0.67917304  -0.00000000  1
  Pd  Pd37  1  0.38404727  0.32082696  0.00000000  1
  Pd  Pd38  1  0.12737297  0.50000000  0.50000000  1
  Pd  Pd39  1  0.62737297  0.50000000  0.50000000  1
