# generated using pymatgen
data_TaNi11(BO5)4
_symmetry_space_group_name_H-M   'P 1'
_cell_length_a   6.12563840
_cell_length_b   6.12563840
_cell_length_c   21.59112703
_cell_angle_alpha   92.23900639
_cell_angle_beta   96.07870629
_cell_angle_gamma   119.27803975
_symmetry_Int_Tables_number   1
_chemical_formula_structural   TaNi11(BO5)4
_chemical_formula_sum   'Ta2 Ni22 B8 O40'
_cell_volume   698.84000275
_cell_formula_units_Z   2
loop_
 _symmetry_equiv_pos_site_id
 _symmetry_equiv_pos_as_xyz
  1  'x, y, z'
loop_
 _atom_site_type_symbol
 _atom_site_label
 _atom_site_symmetry_multiplicity
 _atom_site_fract_x
 _atom_site_fract_y
 _atom_site_fract_z
 _atom_site_occupancy
  Ta  Ta0  1  0.96514715  0.71514715  0.25000000  1
  Ta  Ta1  1  0.03485285  0.28485285  0.75000000  1
  Ni  Ni2  1  0.68683603  0.79389144  0.10890588  1
  Ni  Ni3  1  0.31316397  0.20610856  0.89109412  1
  Ni  Ni4  1  0.18498556  0.57793014  0.39109412  1
  Ni  Ni5  1  0.81501444  0.42206986  0.60890588  1
  Ni  Ni6  1  0.00000000  0.00000000  0.00000000  1
  Ni  Ni7  1  0.50000000  0.00000000  0.50000000  1
  Ni  Ni8  1  0.43838461  0.18838461  0.25000000  1
  Ni  Ni9  1  0.56161539  0.81161539  0.75000000  1
  Ni  Ni10  1  0.93096056  0.18249500  0.25026780  1
  Ni  Ni11  1  0.06903944  0.81750500  0.74973220  1
  Ni  Ni12  1  0.43222721  0.68069276  0.24973220  1
  Ni  Ni13  1  0.56777279  0.31930724  0.75026780  1
  Ni  Ni14  1  0.99909754  0.25056696  0.49946838  1
  Ni  Ni15  1  0.00090246  0.74943304  0.50053162  1
  Ni  Ni16  1  0.25109858  0.49962916  0.00053162  1
  Ni  Ni17  1  0.74890142  0.50037084  0.99946838  1
  Ni  Ni18  1  0.50000000  0.00000000  0.00000000  1
  Ni  Ni19  1  0.50000000  0.50000000  0.50000000  1
  Ni  Ni20  1  0.18902097  0.08275034  0.39346578  1
  Ni  Ni21  1  0.81097903  0.91724966  0.60653422  1
  Ni  Ni22  1  0.18928456  0.79555520  0.10653422  1
  Ni  Ni23  1  0.81071544  0.20444480  0.89346578  1
  B  B24  1  0.70101869  0.30558284  0.13015751  1
  B  B25  1  0.29898131  0.69441716  0.86984249  1
  B  B26  1  0.67542533  0.57086118  0.36984249  1
  B  B27  1  0.32457467  0.42913882  0.63015751  1
  B  B28  1  0.67173086  0.06830033  0.36832866  1
  B  B29  1  0.32826914  0.93169967  0.63167134  1
  B  B30  1  0.19997167  0.30340219  0.13167134  1
  B  B31  1  0.80002833  0.69659781  0.86832866  1
  O  O32  1  0.63333338  0.04008060  0.30217006  1
  O  O33  1  0.36666662  0.95991940  0.69782994  1
  O  O34  1  0.23791053  0.33116332  0.19782994  1
  O  O35  1  0.76208947  0.66883668  0.80217006  1
  O  O36  1  0.63315432  0.75628830  0.01368008  1
  O  O37  1  0.36684568  0.24371170  0.98631992  1
  O  O38  1  0.24260822  0.61947424  0.48631992  1
  O  O39  1  0.75739178  0.38052576  0.51368008  1
  O  O40  1  0.91596318  0.19833541  0.40009415  1
  O  O41  1  0.08403682  0.80166459  0.59990585  1
  O  O42  1  0.29824126  0.51586904  0.09990585  1
  O  O43  1  0.70175874  0.48413096  0.90009415  1
  O  O44  1  0.91909115  0.70080806  0.40103747  1
  O  O45  1  0.08090885  0.29919194  0.59896253  1
  O  O46  1  0.79977058  0.51805368  0.09896253  1
  O  O47  1  0.20022942  0.48194632  0.90103747  1
  O  O48  1  0.56990994  0.06581153  0.10026888  1
  O  O49  1  0.43009006  0.93418847  0.89973112  1
  O  O50  1  0.46554264  0.46964106  0.39973112  1
  O  O51  1  0.53445736  0.53035894  0.60026888  1
  O  O52  1  0.13050311  0.03390790  0.30003157  1
  O  O53  1  0.86949689  0.96609210  0.69996843  1
  O  O54  1  0.23387633  0.83047154  0.19996843  1
  O  O55  1  0.76612367  0.16952846  0.80003157  1
  O  O56  1  0.74193991  0.81784401  0.20338867  1
  O  O57  1  0.25806009  0.18215599  0.79661133  1
  O  O58  1  0.11445533  0.53855124  0.29661133  1
  O  O59  1  0.88554467  0.46144876  0.70338867  1
  O  O60  1  0.53598207  0.03489206  0.59992300  1
  O  O61  1  0.46401793  0.96510794  0.40007700  1
  O  O62  1  0.93496906  0.93605907  0.90007700  1
  O  O63  1  0.06503094  0.06394093  0.09992300  1
  O  O64  1  0.24251836  0.11958607  0.48739626  1
  O  O65  1  0.75748164  0.88041393  0.51260374  1
  O  O66  1  0.13218981  0.75512210  0.01260374  1
  O  O67  1  0.86781019  0.24487790  0.98739626  1
  O  O68  1  0.74080109  0.34253892  0.19698609  1
  O  O69  1  0.25919891  0.65746108  0.80301391  1
  O  O70  1  0.64555283  0.54381500  0.30301391  1
  O  O71  1  0.35444717  0.45618500  0.69698609  1
