# generated using pymatgen
data_Sr2TbTaO6
_symmetry_space_group_name_H-M   'P 1'
_cell_length_a   5.84887344
_cell_length_b   5.96145326
_cell_length_c   8.33296360
_cell_angle_alpha   90.00000000
_cell_angle_beta   90.23028963
_cell_angle_gamma   90.00000000
_symmetry_Int_Tables_number   1
_chemical_formula_structural   Sr2TbTaO6
_chemical_formula_sum   'Sr4 Tb2 Ta2 O12'
_cell_volume   290.54964183
_cell_formula_units_Z   2
loop_
 _symmetry_equiv_pos_site_id
 _symmetry_equiv_pos_as_xyz
  1  'x, y, z'
loop_
 _atom_site_type_symbol
 _atom_site_label
 _atom_site_symmetry_multiplicity
 _atom_site_fract_x
 _atom_site_fract_y
 _atom_site_fract_z
 _atom_site_occupancy
  Sr  Sr0  1  0.00960996  0.45977739  0.25191903  1
  Sr  Sr1  1  0.99039004  0.54022261  0.74808097  1
  Sr  Sr2  1  0.49039004  0.95977739  0.24808097  1
  Sr  Sr3  1  0.50960996  0.04022261  0.75191903  1
  Tb  Tb4  1  0.00000000  0.00000000  0.50000000  1
  Tb  Tb5  1  0.50000000  0.50000000  -0.00000000  1
  Ta  Ta6  1  0.00000000  0.00000000  -0.00000000  1
  Ta  Ta7  1  0.50000000  0.50000000  0.50000000  1
  O  O8  1  0.91615917  0.02814500  0.23358646  1
  O  O9  1  0.08384083  0.97185500  0.76641354  1
  O  O10  1  0.58384083  0.52814500  0.26641354  1
  O  O11  1  0.41615917  0.47185500  0.73358646  1
  O  O12  1  0.19228318  0.72589307  0.04843871  1
  O  O13  1  0.80771682  0.27410693  0.95156129  1
  O  O14  1  0.30771682  0.22589307  0.45156129  1
  O  O15  1  0.69228318  0.77410693  0.54843871  1
  O  O16  1  0.27530656  0.19452648  0.04127150  1
  O  O17  1  0.72469344  0.80547352  0.95872850  1
  O  O18  1  0.22469344  0.69452648  0.45872850  1
  O  O19  1  0.77530656  0.30547352  0.54127150  1
