# generated using pymatgen
data_Fe5(O4F)2
_symmetry_space_group_name_H-M   'P 1'
_cell_length_a   4.64977588
_cell_length_b   4.64727961
_cell_length_c   15.07274809
_cell_angle_alpha   90.00000000
_cell_angle_beta   90.00000000
_cell_angle_gamma   91.60148392
_symmetry_Int_Tables_number   1
_chemical_formula_structural   Fe5(O4F)2
_chemical_formula_sum   'Fe10 O16 F4'
_cell_volume   325.57690646
_cell_formula_units_Z   2
loop_
 _symmetry_equiv_pos_site_id
 _symmetry_equiv_pos_as_xyz
  1  'x, y, z'
loop_
 _atom_site_type_symbol
 _atom_site_label
 _atom_site_symmetry_multiplicity
 _atom_site_fract_x
 _atom_site_fract_y
 _atom_site_fract_z
 _atom_site_occupancy
  Fe  Fe0  1  0.00434823  0.98998965  0.00468140  1
  Fe  Fe1  1  0.02419742  0.01377018  0.20000000  1
  Fe  Fe2  1  0.00434823  0.98998965  0.39531860  1
  Fe  Fe3  1  0.99885777  0.99916565  0.59903139  1
  Fe  Fe4  1  0.99885777  0.99916565  0.80096861  1
  Fe  Fe5  1  0.49817833  0.48994436  0.09576339  1
  Fe  Fe6  1  0.47427188  0.52307427  0.50128357  1
  Fe  Fe7  1  0.49817833  0.48994436  0.30423661  1
  Fe  Fe8  1  0.52456334  0.47400214  0.70000000  1
  Fe  Fe9  1  0.47427188  0.52307427  0.89871643  1
  O  O10  1  0.20206934  0.80554839  0.10379476  1
  O  O11  1  0.20206934  0.80554839  0.29620524  1
  O  O12  1  0.17784933  0.81675089  0.49948946  1
  O  O13  1  0.17784933  0.81675089  0.90051054  1
  O  O14  1  0.29743083  0.30774881  0.99553844  1
  O  O15  1  0.32621655  0.31283575  0.20000000  1
  O  O16  1  0.29743083  0.30774881  0.40446156  1
  O  O17  1  0.30678034  0.30636233  0.60024987  1
  O  O18  1  0.30678034  0.30636233  0.79975013  1
  O  O19  1  0.68677734  0.69478531  0.99772861  1
  O  O20  1  0.68677734  0.69478531  0.40227139  1
  O  O21  1  0.69135148  0.69117272  0.60019692  1
  O  O22  1  0.69135148  0.69117272  0.79980308  1
  O  O23  1  0.81489226  0.18983486  0.10166096  1
  O  O24  1  0.81489226  0.18983486  0.29833904  1
  O  O25  1  0.82222189  0.17608759  0.70000000  1
  F  F26  1  0.20523026  0.79366776  0.70000000  1
  F  F27  1  0.70755428  0.69564356  0.20000000  1
  F  F28  1  0.79220149  0.20261925  0.49965560  1
  F  F29  1  0.79220149  0.20261925  0.90034440  1
