# generated using pymatgen
data_Sr2SmTaO6
_symmetry_space_group_name_H-M   'P 1'
_cell_length_a   5.88419580
_cell_length_b   6.02444419
_cell_length_c   8.40480826
_cell_angle_alpha   90.00000000
_cell_angle_beta   90.22824630
_cell_angle_gamma   90.00000000
_symmetry_Int_Tables_number   1
_chemical_formula_structural   Sr2SmTaO6
_chemical_formula_sum   'Sr4 Sm2 Ta2 O12'
_cell_volume   297.93976119
_cell_formula_units_Z   2
loop_
 _symmetry_equiv_pos_site_id
 _symmetry_equiv_pos_as_xyz
  1  'x, y, z'
loop_
 _atom_site_type_symbol
 _atom_site_label
 _atom_site_symmetry_multiplicity
 _atom_site_fract_x
 _atom_site_fract_y
 _atom_site_fract_z
 _atom_site_occupancy
  Sr  Sr0  1  0.01061640  0.45739175  0.25262398  1
  Sr  Sr1  1  0.98938360  0.54260825  0.74737602  1
  Sr  Sr2  1  0.48938360  0.95739175  0.24737602  1
  Sr  Sr3  1  0.51061640  0.04260825  0.75262398  1
  Sm  Sm4  1  -0.00000000  -0.00000000  0.50000000  1
  Sm  Sm5  1  0.50000000  0.50000000  -0.00000000  1
  Ta  Ta6  1  -0.00000000  -0.00000000  -0.00000000  1
  Ta  Ta7  1  0.50000000  0.50000000  0.50000000  1
  O  O8  1  0.91123296  0.03247669  0.23071868  1
  O  O9  1  0.08876704  0.96752331  0.76928132  1
  O  O10  1  0.58876704  0.53247669  0.26928132  1
  O  O11  1  0.41123296  0.46752331  0.73071868  1
  O  O12  1  0.18756669  0.72669266  0.05238545  1
  O  O13  1  0.81243331  0.27330734  0.94761455  1
  O  O14  1  0.31243331  0.22669266  0.44761455  1
  O  O15  1  0.68756669  0.77330734  0.55238545  1
  O  O16  1  0.27523214  0.18962719  0.04308928  1
  O  O17  1  0.72476786  0.81037281  0.95691072  1
  O  O18  1  0.22476786  0.68962719  0.45691072  1
  O  O19  1  0.77523214  0.31037281  0.54308928  1
