# generated using pymatgen
data_Ta2Ni3Te5
_symmetry_space_group_name_H-M   'P 1'
_cell_length_a   3.72687793
_cell_length_b   14.29489983
_cell_length_c   17.80158990
_cell_angle_alpha   90.00000000
_cell_angle_beta   90.00000000
_cell_angle_gamma   90.00000000
_symmetry_Int_Tables_number   1
_chemical_formula_structural   Ta2Ni3Te5
_chemical_formula_sum   'Ta8 Ni12 Te20'
_cell_volume   948.38587352
_cell_formula_units_Z   4
loop_
 _symmetry_equiv_pos_site_id
 _symmetry_equiv_pos_as_xyz
  1  'x, y, z'
loop_
 _atom_site_type_symbol
 _atom_site_label
 _atom_site_symmetry_multiplicity
 _atom_site_fract_x
 _atom_site_fract_y
 _atom_site_fract_z
 _atom_site_occupancy
  Ta  Ta0  1  0.75000000  0.75602203  0.58886846  1
  Ta  Ta1  1  0.25000000  0.24397797  0.41113154  1
  Ta  Ta2  1  0.25000000  0.74397797  0.08886846  1
  Ta  Ta3  1  0.75000000  0.25602203  0.91113154  1
  Ta  Ta4  1  0.75000000  0.75796797  0.33279321  1
  Ta  Ta5  1  0.25000000  0.24203203  0.66720679  1
  Ta  Ta6  1  0.25000000  0.74203203  0.83279321  1
  Ta  Ta7  1  0.75000000  0.25796797  0.16720679  1
  Ni  Ni8  1  0.75000000  0.79949115  0.73239710  1
  Ni  Ni9  1  0.25000000  0.20050885  0.26760290  1
  Ni  Ni10  1  0.25000000  0.70050885  0.23239710  1
  Ni  Ni11  1  0.75000000  0.29949115  0.76760290  1
  Ni  Ni12  1  0.75000000  0.75643101  0.96106874  1
  Ni  Ni13  1  0.25000000  0.24356899  0.03893126  1
  Ni  Ni14  1  0.25000000  0.74356899  0.46106874  1
  Ni  Ni15  1  0.75000000  0.25643101  0.53893126  1
  Ni  Ni16  1  0.75000000  0.80414595  0.18915478  1
  Ni  Ni17  1  0.25000000  0.19585405  0.81084522  1
  Ni  Ni18  1  0.25000000  0.69585405  0.68915478  1
  Ni  Ni19  1  0.75000000  0.30414595  0.31084522  1
  Te  Te20  1  0.75000000  0.38636414  0.44086439  1
  Te  Te21  1  0.25000000  0.61363586  0.55913561  1
  Te  Te22  1  0.25000000  0.11363586  0.94086439  1
  Te  Te23  1  0.75000000  0.88636414  0.05913561  1
  Te  Te24  1  0.75000000  0.86804010  0.46139550  1
  Te  Te25  1  0.25000000  0.13195990  0.53860450  1
  Te  Te26  1  0.25000000  0.63195990  0.96139550  1
  Te  Te27  1  0.75000000  0.36804010  0.03860450  1
  Te  Te28  1  0.75000000  0.61445281  0.15836639  1
  Te  Te29  1  0.25000000  0.38554719  0.84163361  1
  Te  Te30  1  0.25000000  0.88554719  0.65836639  1
  Te  Te31  1  0.75000000  0.11445281  0.34163361  1
  Te  Te32  1  0.75000000  0.61154267  0.76407443  1
  Te  Te33  1  0.25000000  0.38845733  0.23592557  1
  Te  Te34  1  0.25000000  0.88845733  0.26407443  1
  Te  Te35  1  0.75000000  0.11154267  0.73592557  1
  Te  Te36  1  0.75000000  0.88423093  0.86144263  1
  Te  Te37  1  0.25000000  0.11576907  0.13855737  1
  Te  Te38  1  0.25000000  0.61576907  0.36144263  1
  Te  Te39  1  0.75000000  0.38423093  0.63855737  1
