# generated using pymatgen
data_TaAsO5
_symmetry_space_group_name_H-M   'P 1'
_cell_length_a   5.57463022
_cell_length_b   11.82154168
_cell_length_c   6.95441301
_cell_angle_alpha   90.00000000
_cell_angle_beta   90.00000000
_cell_angle_gamma   90.00000000
_symmetry_Int_Tables_number   1
_chemical_formula_structural   TaAsO5
_chemical_formula_sum   'Ta4 As4 O20'
_cell_volume   458.30084885
_cell_formula_units_Z   4
loop_
 _symmetry_equiv_pos_site_id
 _symmetry_equiv_pos_as_xyz
  1  'x, y, z'
loop_
 _atom_site_type_symbol
 _atom_site_label
 _atom_site_symmetry_multiplicity
 _atom_site_fract_x
 _atom_site_fract_y
 _atom_site_fract_z
 _atom_site_occupancy
  Ta  Ta0  1  0.75000000  0.94029565  0.84019885  1
  Ta  Ta1  1  0.25000000  0.05970435  0.15980115  1
  Ta  Ta2  1  0.25000000  0.55970435  0.34019885  1
  Ta  Ta3  1  0.75000000  0.44029565  0.65980115  1
  As  As4  1  0.75000000  0.15371729  0.47064342  1
  As  As5  1  0.25000000  0.84628271  0.52935658  1
  As  As6  1  0.25000000  0.34628271  0.97064342  1
  As  As7  1  0.75000000  0.65371729  0.02935658  1
  O  O8  1  0.75000000  0.79530117  0.98293978  1
  O  O9  1  0.25000000  0.20469883  0.01706022  1
  O  O10  1  0.25000000  0.70469883  0.48293978  1
  O  O11  1  0.75000000  0.29530117  0.51706022  1
  O  O12  1  0.50272867  0.87505769  0.65531652  1
  O  O13  1  0.49727133  0.12494231  0.34468348  1
  O  O14  1  0.49727133  0.62494231  0.15531652  1
  O  O15  1  0.00272867  0.12494231  0.34468348  1
  O  O16  1  0.50272867  0.37505769  0.84468348  1
  O  O17  1  0.99727133  0.87505769  0.65531652  1
  O  O18  1  0.99727133  0.37505769  0.84468348  1
  O  O19  1  0.00272867  0.62494231  0.15531652  1
  O  O20  1  0.75000000  0.58334280  0.81539693  1
  O  O21  1  0.25000000  0.41665720  0.18460307  1
  O  O22  1  0.25000000  0.91665720  0.31539693  1
  O  O23  1  0.75000000  0.08334280  0.68460307  1
  O  O24  1  -0.00000000  -0.00000000  -0.00000000  1
  O  O25  1  0.00000000  0.50000000  0.50000000  1
  O  O26  1  0.50000000  -0.00000000  -0.00000000  1
  O  O27  1  0.50000000  0.50000000  0.50000000  1
