# generated using pymatgen
data_Tb4MgRu
_symmetry_space_group_name_H-M   'P 1'
_cell_length_a   9.74685290
_cell_length_b   9.74685290
_cell_length_c   9.74685290
_cell_angle_alpha   60.00000000
_cell_angle_beta   60.00000000
_cell_angle_gamma   60.00000000
_symmetry_Int_Tables_number   1
_chemical_formula_structural   Tb4MgRu
_chemical_formula_sum   'Tb16 Mg4 Ru4'
_cell_volume   654.75411592
_cell_formula_units_Z   4
loop_
 _symmetry_equiv_pos_site_id
 _symmetry_equiv_pos_as_xyz
  1  'x, y, z'
loop_
 _atom_site_type_symbol
 _atom_site_label
 _atom_site_symmetry_multiplicity
 _atom_site_fract_x
 _atom_site_fract_y
 _atom_site_fract_z
 _atom_site_occupancy
  Tb  Tb0  1  0.65650036  0.65650036  0.65650036  1
  Tb  Tb1  1  0.03049891  0.65650036  0.65650036  1
  Tb  Tb2  1  0.65650036  0.03049891  0.65650036  1
  Tb  Tb3  1  0.65650036  0.65650036  0.03049891  1
  Tb  Tb4  1  0.81320446  0.81320446  0.18679554  1
  Tb  Tb5  1  0.18679554  0.18679554  0.81320446  1
  Tb  Tb6  1  0.81320446  0.18679554  0.81320446  1
  Tb  Tb7  1  0.18679554  0.81320446  0.18679554  1
  Tb  Tb8  1  0.18679554  0.81320446  0.81320446  1
  Tb  Tb9  1  0.81320446  0.18679554  0.18679554  1
  Tb  Tb10  1  0.43704920  0.43704920  0.06295080  1
  Tb  Tb11  1  0.06295080  0.06295080  0.43704920  1
  Tb  Tb12  1  0.43704920  0.06295080  0.43704920  1
  Tb  Tb13  1  0.06295080  0.43704920  0.06295080  1
  Tb  Tb14  1  0.06295080  0.43704920  0.43704920  1
  Tb  Tb15  1  0.43704920  0.06295080  0.06295080  1
  Mg  Mg16  1  0.42098280  0.42098280  0.42098280  1
  Mg  Mg17  1  0.73705159  0.42098280  0.42098280  1
  Mg  Mg18  1  0.42098280  0.73705159  0.42098280  1
  Mg  Mg19  1  0.42098280  0.42098280  0.73705159  1
  Ru  Ru20  1  0.86104051  0.86104051  0.86104051  1
  Ru  Ru21  1  0.41687847  0.86104051  0.86104051  1
  Ru  Ru22  1  0.86104051  0.41687847  0.86104051  1
  Ru  Ru23  1  0.86104051  0.86104051  0.41687847  1
