# generated using pymatgen
data_Fe5(O4F)2
_symmetry_space_group_name_H-M   'P 1'
_cell_length_a   4.66634289
_cell_length_b   12.94803579
_cell_length_c   5.56693505
_cell_angle_alpha   102.94495522
_cell_angle_beta   91.73178353
_cell_angle_gamma   88.88678676
_symmetry_Int_Tables_number   1
_chemical_formula_structural   Fe5(O4F)2
_chemical_formula_sum   'Fe10 O16 F4'
_cell_volume   327.62849307
_cell_formula_units_Z   2
loop_
 _symmetry_equiv_pos_site_id
 _symmetry_equiv_pos_as_xyz
  1  'x, y, z'
loop_
 _atom_site_type_symbol
 _atom_site_label
 _atom_site_symmetry_multiplicity
 _atom_site_fract_x
 _atom_site_fract_y
 _atom_site_fract_z
 _atom_site_occupancy
  Fe  Fe0  1  0.49511422  0.99954584  0.48882783  1
  Fe  Fe1  1  0.49677904  0.39958356  0.30205025  1
  Fe  Fe2  1  0.46336975  0.20182227  0.91039064  1
  Fe  Fe3  1  0.51744213  0.60542432  0.68964613  1
  Fe  Fe4  1  0.52605087  0.80121867  0.09087163  1
  Fe  Fe5  1  0.99453921  0.39973335  0.79638859  1
  Fe  Fe6  1  0.00079349  0.80437035  0.60995165  1
  Fe  Fe7  1  0.00230150  0.19705732  0.38673847  1
  Fe  Fe8  1  0.97846752  0.59530973  0.21459961  1
  Fe  Fe9  1  0.01804149  0.99627108  0.00759018  1
  O  O10  1  0.81620055  0.86835371  0.92137731  1
  O  O11  1  0.81822679  0.66705253  0.52238087  1
  O  O12  1  0.81244196  0.05963919  0.30742600  1
  O  O13  1  0.80401619  0.45916598  0.10492373  1
  O  O14  1  0.69508749  0.46202252  0.61827013  1
  O  O15  1  0.69763077  0.66209062  0.01605314  1
  O  O16  1  0.69935388  0.85954419  0.41286221  1
  O  O17  1  0.68403327  0.26113397  0.21948730  1
  O  O18  1  0.29564899  0.34283701  0.98649351  1
  O  O19  1  0.31716570  0.74122842  0.78387011  1
  O  O20  1  0.29966490  0.13835409  0.58387451  1
  O  O21  1  0.31733746  0.93079595  0.18007609  1
  O  O22  1  0.30470033  0.53866679  0.38805283  1
  O  O23  1  0.19316673  0.13181770  0.07543074  1
  O  O24  1  0.19016935  0.94202633  0.68766779  1
  O  O25  1  0.17693437  0.33544246  0.48970399  1
  F  F26  1  0.79139651  0.25634540  0.72155344  1
  F  F27  1  0.69447516  0.06332643  0.81599350  1
  F  F28  1  0.19636901  0.54298349  0.88694859  1
  F  F29  1  0.20308236  0.73683673  0.28049823  1
