# generated using pymatgen
data_SmMg(BO2)5
_symmetry_space_group_name_H-M   'P 1'
_cell_length_a   7.68253215
_cell_length_b   8.70736914
_cell_length_c   9.47064869
_cell_angle_alpha   93.04948727
_cell_angle_beta   90.00000000
_cell_angle_gamma   90.00000000
_symmetry_Int_Tables_number   1
_chemical_formula_structural   SmMg(BO2)5
_chemical_formula_sum   'Sm4 Mg4 B20 O40'
_cell_volume   632.63855392
_cell_formula_units_Z   4
loop_
 _symmetry_equiv_pos_site_id
 _symmetry_equiv_pos_as_xyz
  1  'x, y, z'
loop_
 _atom_site_type_symbol
 _atom_site_label
 _atom_site_symmetry_multiplicity
 _atom_site_fract_x
 _atom_site_fract_y
 _atom_site_fract_z
 _atom_site_occupancy
  Sm  Sm0  1  0.81337773  0.81446379  0.76229308  1
  Sm  Sm1  1  0.18662227  0.18553621  0.23770692  1
  Sm  Sm2  1  0.31337773  0.68553621  0.73770692  1
  Sm  Sm3  1  0.68662227  0.31446379  0.26229308  1
  Mg  Mg4  1  0.09065565  0.10327153  0.62640721  1
  Mg  Mg5  1  0.90934435  0.89672847  0.37359279  1
  Mg  Mg6  1  0.59065565  0.39672847  0.87359279  1
  Mg  Mg7  1  0.40934435  0.60327153  0.12640721  1
  B  B8  1  0.17365722  0.98431605  0.89463379  1
  B  B9  1  0.82634278  0.01568395  0.10536621  1
  B  B10  1  0.67365722  0.51568395  0.60536621  1
  B  B11  1  0.32634278  0.48431605  0.39463379  1
  B  B12  1  0.42254524  0.08452533  0.73999223  1
  B  B13  1  0.57745476  0.91547467  0.26000777  1
  B  B14  1  0.92254524  0.41547467  0.76000777  1
  B  B15  1  0.07745476  0.58452533  0.23999223  1
  B  B16  1  0.18613059  0.43242927  0.91243254  1
  B  B17  1  0.81386941  0.56757073  0.08756746  1
  B  B18  1  0.68613059  0.06757073  0.58756746  1
  B  B19  1  0.31386941  0.93242927  0.41243254  1
  B  B20  1  0.53255997  0.72059928  0.44422593  1
  B  B21  1  0.46744003  0.27940072  0.55577407  1
  B  B22  1  0.03255997  0.77940072  0.05577407  1
  B  B23  1  0.96744003  0.22059928  0.94422593  1
  B  B24  1  0.40191155  0.15701941  0.00113060  1
  B  B25  1  0.59808845  0.84298059  0.99886940  1
  B  B26  1  0.90191155  0.34298059  0.49886940  1
  B  B27  1  0.09808845  0.65701941  0.50113060  1
  O  O28  1  0.08532366  0.49160487  0.80722361  1
  O  O29  1  0.91467634  0.50839513  0.19277639  1
  O  O30  1  0.58532366  0.00839513  0.69277639  1
  O  O31  1  0.41467634  0.99160487  0.30722361  1
  O  O32  1  0.12483934  0.31518048  0.99005570  1
  O  O33  1  0.87516066  0.68481952  0.00994430  1
  O  O34  1  0.62483934  0.18481952  0.50994430  1
  O  O35  1  0.37516066  0.81518048  0.49005570  1
  O  O36  1  0.60839498  0.67244692  0.58112354  1
  O  O37  1  0.39160502  0.32755308  0.41887646  1
  O  O38  1  0.10839498  0.82755308  0.91887646  1
  O  O39  1  0.89160502  0.17244692  0.08112354  1
  O  O40  1  0.28776877  0.96784254  0.76746110  1
  O  O41  1  0.71223123  0.03215746  0.23253890  1
  O  O42  1  0.78776877  0.53215746  0.73253890  1
  O  O43  1  0.21223123  0.46784254  0.26746110  1
  O  O44  1  0.34781766  0.50003901  0.92851296  1
  O  O45  1  0.65218234  0.49996099  0.07148704  1
  O  O46  1  0.84781766  -0.00003901  0.57148704  1
  O  O47  1  0.15218234  0.00003901  0.42851296  1
  O  O48  1  0.22670789  0.54588927  0.51728080  1
  O  O49  1  0.77329211  0.45411073  0.48271920  1
  O  O50  1  0.72670789  0.95411073  0.98271920  1
  O  O51  1  0.27329211  0.04588927  0.01728080  1
  O  O52  1  0.34887071  0.18358151  0.63386068  1
  O  O53  1  0.65112929  0.81641849  0.36613932  1
  O  O54  1  0.84887071  0.31641849  0.86613932  1
  O  O55  1  0.15112929  0.68358151  0.13386068  1
  O  O56  1  0.46848214  0.18289757  0.86974996  1
  O  O57  1  0.53151786  0.81710243  0.13025004  1
  O  O58  1  0.96848214  0.31710243  0.63025004  1
  O  O59  1  0.03151786  0.68289757  0.36974996  1
  O  O60  1  0.04731835  0.74030040  0.61898007  1
  O  O61  1  0.95268165  0.25969960  0.38101993  1
  O  O62  1  0.54731835  0.75969960  0.88101993  1
  O  O63  1  0.45268165  0.24030040  0.11898007  1
  O  O64  1  0.02766759  0.08571816  0.85170949  1
  O  O65  1  0.97233241  0.91428184  0.14829051  1
  O  O66  1  0.52766759  0.41428184  0.64829051  1
  O  O67  1  0.47233241  0.58571816  0.35170949  1
