# generated using pymatgen
data_Sm2(Al3Co)3
_symmetry_space_group_name_H-M   'P 1'
_cell_length_a   7.40981225
_cell_length_b   7.40981225
_cell_length_c   9.39998043
_cell_angle_alpha   90.00000000
_cell_angle_beta   90.00000000
_cell_angle_gamma   118.97332019
_symmetry_Int_Tables_number   1
_chemical_formula_structural   Sm2(Al3Co)3
_chemical_formula_sum   'Sm4 Al18 Co6'
_cell_volume   451.51548738
_cell_formula_units_Z   2
loop_
 _symmetry_equiv_pos_site_id
 _symmetry_equiv_pos_as_xyz
  1  'x, y, z'
loop_
 _atom_site_type_symbol
 _atom_site_label
 _atom_site_symmetry_multiplicity
 _atom_site_fract_x
 _atom_site_fract_y
 _atom_site_fract_z
 _atom_site_occupancy
  Sm  Sm0  1  0.67089579  0.99359574  0.25000000  1
  Sm  Sm1  1  0.32910421  0.00640426  0.75000000  1
  Sm  Sm2  1  0.99359574  0.67089579  0.25000000  1
  Sm  Sm3  1  0.00640426  0.32910421  0.75000000  1
  Al  Al4  1  0.12653927  0.12653927  0.25000000  1
  Al  Al5  1  0.87346073  0.87346073  0.75000000  1
  Al  Al6  1  0.33521280  0.00009364  0.06956082  1
  Al  Al7  1  0.66478720  0.99990636  0.93043918  1
  Al  Al8  1  0.66478720  0.99990636  0.56956082  1
  Al  Al9  1  0.00009364  0.33521280  0.43043918  1
  Al  Al10  1  0.33521280  0.00009364  0.43043918  1
  Al  Al11  1  0.99990636  0.66478720  0.56956082  1
  Al  Al12  1  0.99990636  0.66478720  0.93043918  1
  Al  Al13  1  0.00009364  0.33521280  0.06956082  1
  Al  Al14  1  0.33275033  0.33275033  0.54100573  1
  Al  Al15  1  0.66724967  0.66724967  0.45899427  1
  Al  Al16  1  0.66724967  0.66724967  0.04100573  1
  Al  Al17  1  0.33275033  0.33275033  0.95899427  1
  Al  Al18  1  0.55081840  0.33812122  0.25000000  1
  Al  Al19  1  0.44918160  0.66187878  0.75000000  1
  Al  Al20  1  0.33812122  0.55081840  0.25000000  1
  Al  Al21  1  0.66187878  0.44918160  0.75000000  1
  Co  Co22  1  0.32953022  0.67046978  -0.00000000  1
  Co  Co23  1  0.67046978  0.32953022  -0.00000000  1
  Co  Co24  1  0.67046978  0.32953022  0.50000000  1
  Co  Co25  1  0.32953022  0.67046978  0.50000000  1
  Co  Co26  1  -0.00000000  -0.00000000  -0.00000000  1
  Co  Co27  1  -0.00000000  -0.00000000  0.50000000  1
