# generated using pymatgen
data_Sr3Li6Nb2O11
_symmetry_space_group_name_H-M   'P 1'
_cell_length_a   5.86948204
_cell_length_b   8.44494644
_cell_length_c   10.70486813
_cell_angle_alpha   90.00000000
_cell_angle_beta   90.00000000
_cell_angle_gamma   90.00000000
_symmetry_Int_Tables_number   1
_chemical_formula_structural   Sr3Li6Nb2O11
_chemical_formula_sum   'Sr6 Li12 Nb4 O22'
_cell_volume   530.61313845
_cell_formula_units_Z   2
loop_
 _symmetry_equiv_pos_site_id
 _symmetry_equiv_pos_as_xyz
  1  'x, y, z'
loop_
 _atom_site_type_symbol
 _atom_site_label
 _atom_site_symmetry_multiplicity
 _atom_site_fract_x
 _atom_site_fract_y
 _atom_site_fract_z
 _atom_site_occupancy
  Sr  Sr0  1  0.50000000  0.73622159  0.00000000  1
  Sr  Sr1  1  0.50000000  0.26377841  0.00000000  1
  Sr  Sr2  1  0.50000000  0.26377841  0.50000000  1
  Sr  Sr3  1  0.50000000  0.73622159  0.50000000  1
  Sr  Sr4  1  0.38340043  0.00000000  0.75000000  1
  Sr  Sr5  1  0.61659957  -0.00000000  0.25000000  1
  Li  Li6  1  0.00000000  0.64560736  0.00000000  1
  Li  Li7  1  -0.00000000  0.35439264  0.00000000  1
  Li  Li8  1  0.00000000  0.35439264  0.50000000  1
  Li  Li9  1  -0.00000000  0.64560736  0.50000000  1
  Li  Li10  1  0.85340178  0.85295337  0.75000000  1
  Li  Li11  1  0.14659822  0.14704663  0.25000000  1
  Li  Li12  1  0.85340178  0.14704663  0.75000000  1
  Li  Li13  1  0.14659822  0.85295337  0.25000000  1
  Li  Li14  1  0.21905694  0.68557086  0.75000000  1
  Li  Li15  1  0.78094306  0.31442914  0.25000000  1
  Li  Li16  1  0.21905694  0.31442914  0.75000000  1
  Li  Li17  1  0.78094306  0.68557086  0.25000000  1
  Nb  Nb18  1  0.73688121  0.50000000  0.75000000  1
  Nb  Nb19  1  0.26311879  0.50000000  0.25000000  1
  Nb  Nb20  1  -0.00000000  0.00000000  0.00000000  1
  Nb  Nb21  1  0.00000000  -0.00000000  0.50000000  1
  O  O22  1  0.86576564  0.82635679  0.38902330  1
  O  O23  1  0.13423436  0.17364321  0.61097670  1
  O  O24  1  0.86576564  0.17364321  0.11097670  1
  O  O25  1  0.13423436  0.82635679  0.61097670  1
  O  O26  1  0.13423436  0.82635679  0.88902330  1
  O  O27  1  0.86576564  0.17364321  0.38902330  1
  O  O28  1  0.13423436  0.17364321  0.88902330  1
  O  O29  1  0.86576564  0.82635679  0.11097670  1
  O  O30  1  0.05700768  0.50000000  0.75000000  1
  O  O31  1  0.94299232  0.50000000  0.25000000  1
  O  O32  1  0.74793820  0.50000000  0.93964058  1
  O  O33  1  0.25206180  0.50000000  0.06035942  1
  O  O34  1  0.74793820  0.50000000  0.56035942  1
  O  O35  1  0.25206180  0.50000000  0.43964058  1
  O  O36  1  0.71775162  -0.00000000  0.89268830  1
  O  O37  1  0.28224838  0.00000000  0.10731170  1
  O  O38  1  0.71775162  0.00000000  0.60731170  1
  O  O39  1  0.28224838  0.00000000  0.39268830  1
  O  O40  1  0.56876651  0.69927646  0.75000000  1
  O  O41  1  0.43123349  0.30072354  0.25000000  1
  O  O42  1  0.56876651  0.30072354  0.75000000  1
  O  O43  1  0.43123349  0.69927646  0.25000000  1
