# generated using pymatgen
data_Sr3NbGa3(SiO7)2
_symmetry_space_group_name_H-M   'P 1'
_cell_length_a   5.16310371
_cell_length_b   8.38170003
_cell_length_c   8.38170003
_cell_angle_alpha   120.00000262
_cell_angle_beta   90.00000000
_cell_angle_gamma   90.00000000
_symmetry_Int_Tables_number   1
_chemical_formula_structural   Sr3NbGa3(SiO7)2
_chemical_formula_sum   'Sr3 Nb1 Ga3 Si2 O14'
_cell_volume   314.12731124
_cell_formula_units_Z   1
loop_
 _symmetry_equiv_pos_site_id
 _symmetry_equiv_pos_as_xyz
  1  'x, y, z'
loop_
 _atom_site_type_symbol
 _atom_site_label
 _atom_site_symmetry_multiplicity
 _atom_site_fract_x
 _atom_site_fract_y
 _atom_site_fract_z
 _atom_site_occupancy
  Sr  Sr0  1  -0.00000000  0.42912779  0.42912779  1
  Sr  Sr1  1  -0.00000000  0.00000000  0.57087221  1
  Sr  Sr2  1  -0.00000000  0.57087221  0.00000000  1
  Nb  Nb3  1  -0.00000000  0.00000000  0.00000000  1
  Ga  Ga4  1  0.50000000  0.74544962  0.74544962  1
  Ga  Ga5  1  0.50000000  0.00000000  0.25455038  1
  Ga  Ga6  1  0.50000000  0.25455038  0.00000000  1
  Si  Si7  1  0.46545443  0.66666700  0.33333300  1
  Si  Si8  1  0.53454557  0.33333300  0.66666700  1
  O  O9  1  0.77691414  0.66666700  0.33333300  1
  O  O10  1  0.22308586  0.33333300  0.66666700  1
  O  O11  1  0.66956807  0.52490225  0.69103038  1
  O  O12  1  0.66956807  0.16612814  0.47509775  1
  O  O13  1  0.33043193  0.83387186  0.30896962  1
  O  O14  1  0.66956807  0.30896962  0.83387186  1
  O  O15  1  0.33043193  0.69103038  0.52490225  1
  O  O16  1  0.33043193  0.47509775  0.16612814  1
  O  O17  1  0.76872315  0.87228973  0.09583099  1
  O  O18  1  0.76872315  0.22354126  0.12771027  1
  O  O19  1  0.23127685  0.77645874  0.90416901  1
  O  O20  1  0.76872315  0.90416901  0.77645874  1
  O  O21  1  0.23127685  0.09583099  0.87228973  1
  O  O22  1  0.23127685  0.12771027  0.22354126  1
