# generated using pymatgen
data_Fe3O5F
_symmetry_space_group_name_H-M   'P 1'
_cell_length_a   10.55382968
_cell_length_b   6.42697080
_cell_length_c   3.01807260
_cell_angle_alpha   90.00000000
_cell_angle_beta   90.00000000
_cell_angle_gamma   72.28445801
_symmetry_Int_Tables_number   1
_chemical_formula_structural   Fe3O5F
_chemical_formula_sum   'Fe6 O10 F2'
_cell_volume   195.00559932
_cell_formula_units_Z   2
loop_
 _symmetry_equiv_pos_site_id
 _symmetry_equiv_pos_as_xyz
  1  'x, y, z'
loop_
 _atom_site_type_symbol
 _atom_site_label
 _atom_site_symmetry_multiplicity
 _atom_site_fract_x
 _atom_site_fract_y
 _atom_site_fract_z
 _atom_site_occupancy
  Fe  Fe0  1  0.02092077  0.98953011  0.00000000  1
  Fe  Fe1  1  0.99445904  0.50275671  0.50000000  1
  Fe  Fe2  1  0.31240552  0.34384807  0.00000000  1
  Fe  Fe3  1  0.66666529  0.16661223  0.50000000  1
  Fe  Fe4  1  0.33887985  0.83062924  0.50000000  1
  Fe  Fe5  1  0.66665652  0.66660653  0.00000000  1
  O  O6  1  0.99708005  0.30725753  0.00000000  1
  O  O7  1  0.33630506  0.02613031  0.00000000  1
  O  O8  1  0.99710995  0.69560771  0.00000000  1
  O  O9  1  0.19590573  0.40205299  0.50000000  1
  O  O10  1  0.13742062  0.93133241  0.50000000  1
  O  O11  1  0.33615396  0.63775626  0.00000000  1
  O  O12  1  0.66670538  0.35476922  0.00000000  1
  O  O13  1  0.54245067  0.72862121  0.50000000  1
  O  O14  1  0.79092786  0.60453955  0.50000000  1
  O  O15  1  0.66661459  0.97844556  0.00000000  1
  F  F16  1  0.45841242  0.27096405  0.50000000  1
  F  F17  1  0.87492771  0.06253930  0.50000000  1
