# generated using pymatgen
data_PrSi2Ir3
_symmetry_space_group_name_H-M   'P 1'
_cell_length_a   5.64041591
_cell_length_b   6.72688095
_cell_length_c   6.72688095
_cell_angle_alpha   65.39570712
_cell_angle_beta   65.21309528
_cell_angle_gamma   65.21309528
_symmetry_Int_Tables_number   1
_chemical_formula_structural   PrSi2Ir3
_chemical_formula_sum   'Pr2 Si4 Ir6'
_cell_volume   201.21146317
_cell_formula_units_Z   2
loop_
 _symmetry_equiv_pos_site_id
 _symmetry_equiv_pos_as_xyz
  1  'x, y, z'
loop_
 _atom_site_type_symbol
 _atom_site_label
 _atom_site_symmetry_multiplicity
 _atom_site_fract_x
 _atom_site_fract_y
 _atom_site_fract_z
 _atom_site_occupancy
  Pr  Pr0  1  0.02928867  0.25000000  0.25000000  1
  Pr  Pr1  1  0.97071133  0.75000000  0.75000000  1
  Si  Si2  1  0.71939530  0.07933190  0.07933190  1
  Si  Si3  1  0.28060470  0.92066810  0.92066810  1
  Si  Si4  1  0.37805910  0.42066810  0.42066810  1
  Si  Si5  1  0.62194090  0.57933190  0.57933190  1
  Ir  Ir6  1  0.50000000  -0.00000000  0.50000000  1
  Ir  Ir7  1  0.50000000  0.50000000  0.00000000  1
  Ir  Ir8  1  0.00000000  0.71920095  0.28079905  1
  Ir  Ir9  1  -0.00000000  0.28079905  0.71920095  1
  Ir  Ir10  1  0.50000000  0.78079905  0.21920095  1
  Ir  Ir11  1  0.50000000  0.21920095  0.78079905  1
