# generated using pymatgen
data_Sr2GdTaO6
_symmetry_space_group_name_H-M   'P 1'
_cell_length_a   5.85682620
_cell_length_b   6.00863621
_cell_length_c   8.36740715
_cell_angle_alpha   90.00000000
_cell_angle_beta   90.12495250
_cell_angle_gamma   90.00000000
_symmetry_Int_Tables_number   1
_chemical_formula_structural   Sr2GdTaO6
_chemical_formula_sum   'Sr4 Gd2 Ta2 O12'
_cell_volume   294.46122645
_cell_formula_units_Z   2
loop_
 _symmetry_equiv_pos_site_id
 _symmetry_equiv_pos_as_xyz
  1  'x, y, z'
loop_
 _atom_site_type_symbol
 _atom_site_label
 _atom_site_symmetry_multiplicity
 _atom_site_fract_x
 _atom_site_fract_y
 _atom_site_fract_z
 _atom_site_occupancy
  Sr  Sr0  1  0.01107528  0.45638135  0.25259448  1
  Sr  Sr1  1  0.98892472  0.54361865  0.74740552  1
  Sr  Sr2  1  0.48892472  0.95638135  0.24740552  1
  Sr  Sr3  1  0.51107528  0.04361865  0.75259448  1
  Gd  Gd4  1  0.00000000  -0.00000000  0.50000000  1
  Gd  Gd5  1  0.50000000  0.50000000  -0.00000000  1
  Ta  Ta6  1  0.00000000  -0.00000000  -0.00000000  1
  Ta  Ta7  1  0.50000000  0.50000000  0.50000000  1
  O  O8  1  0.91412602  0.03080041  0.23207751  1
  O  O9  1  0.08587398  0.96919959  0.76792249  1
  O  O10  1  0.58587398  0.53080041  0.26792249  1
  O  O11  1  0.41412602  0.46919959  0.73207751  1
  O  O12  1  0.19024110  0.72741100  0.05028538  1
  O  O13  1  0.80975890  0.27258900  0.94971462  1
  O  O14  1  0.30975890  0.22741100  0.44971462  1
  O  O15  1  0.69024110  0.77258900  0.55028538  1
  O  O16  1  0.27526354  0.19179533  0.04136935  1
  O  O17  1  0.72473646  0.80820467  0.95863065  1
  O  O18  1  0.22473646  0.69179533  0.45863065  1
  O  O19  1  0.77526354  0.30820467  0.54136935  1
