# generated using pymatgen
data_RbPr(WO4)2
_symmetry_space_group_name_H-M   'P 1'
_cell_length_a   7.76990439
_cell_length_b   7.76990439
_cell_length_c   7.61413273
_cell_angle_alpha   62.94094461
_cell_angle_beta   62.94094461
_cell_angle_gamma   89.58828494
_symmetry_Int_Tables_number   1
_chemical_formula_structural   RbPr(WO4)2
_chemical_formula_sum   'Rb2 Pr2 W4 O16'
_cell_volume   352.79604352
_cell_formula_units_Z   2
loop_
 _symmetry_equiv_pos_site_id
 _symmetry_equiv_pos_as_xyz
  1  'x, y, z'
loop_
 _atom_site_type_symbol
 _atom_site_label
 _atom_site_symmetry_multiplicity
 _atom_site_fract_x
 _atom_site_fract_y
 _atom_site_fract_z
 _atom_site_occupancy
  Rb  Rb0  1  0.80033033  0.19966967  0.75000000  1
  Rb  Rb1  1  0.19966967  0.80033033  0.25000000  1
  Pr  Pr2  1  0.22420748  0.77579252  0.75000000  1
  Pr  Pr3  1  0.77579252  0.22420748  0.25000000  1
  W  W4  1  0.30427317  0.31335695  0.72219850  1
  W  W5  1  0.69572683  0.68664305  0.27780150  1
  W  W6  1  0.68664305  0.69572683  0.77780150  1
  W  W7  1  0.31335695  0.30427317  0.22219850  1
  O  O8  1  0.37913873  0.25003288  0.93988415  1
  O  O9  1  0.62086127  0.74996712  0.06011585  1
  O  O10  1  0.74996712  0.62086127  0.56011585  1
  O  O11  1  0.25003288  0.37913873  0.43988415  1
  O  O12  1  0.61699672  0.92815345  0.63447599  1
  O  O13  1  0.38300328  0.07184655  0.36552401  1
  O  O14  1  0.07184655  0.38300328  0.86552401  1
  O  O15  1  0.92815345  0.61699672  0.13447599  1
  O  O16  1  0.41577353  0.62844573  0.52722574  1
  O  O17  1  0.58422647  0.37155427  0.47277426  1
  O  O18  1  0.37155427  0.58422647  0.97277426  1
  O  O19  1  0.62844573  0.41577353  0.02722574  1
  O  O20  1  0.21399498  0.05540744  0.80822249  1
  O  O21  1  0.78600502  0.94459256  0.19177751  1
  O  O22  1  0.94459256  0.78600502  0.69177751  1
  O  O23  1  0.05540744  0.21399498  0.30822249  1
