# generated using pymatgen
data_RbSc(WO4)2
_symmetry_space_group_name_H-M   'P 1'
_cell_length_a   7.49052550
_cell_length_b   7.49052550
_cell_length_c   7.38976001
_cell_angle_alpha   61.83686045
_cell_angle_beta   61.83686045
_cell_angle_gamma   86.43869650
_symmetry_Int_Tables_number   1
_chemical_formula_structural   RbSc(WO4)2
_chemical_formula_sum   'Rb2 Sc2 W4 O16'
_cell_volume   315.29988769
_cell_formula_units_Z   2
loop_
 _symmetry_equiv_pos_site_id
 _symmetry_equiv_pos_as_xyz
  1  'x, y, z'
loop_
 _atom_site_type_symbol
 _atom_site_label
 _atom_site_symmetry_multiplicity
 _atom_site_fract_x
 _atom_site_fract_y
 _atom_site_fract_z
 _atom_site_occupancy
  Rb  Rb0  1  0.80120989  0.19879011  0.75000000  1
  Rb  Rb1  1  0.19879011  0.80120989  0.25000000  1
  Sc  Sc2  1  0.21960045  0.78039955  0.75000000  1
  Sc  Sc3  1  0.78039955  0.21960045  0.25000000  1
  W  W4  1  0.29671073  0.30951493  0.70881473  1
  W  W5  1  0.70328927  0.69048507  0.29118527  1
  W  W6  1  0.69048507  0.70328927  0.79118527  1
  W  W7  1  0.30951493  0.29671073  0.20881473  1
  O  O8  1  0.38100204  0.24337699  0.93757004  1
  O  O9  1  0.61899796  0.75662301  0.06242996  1
  O  O10  1  0.75662301  0.61899796  0.56242996  1
  O  O11  1  0.24337699  0.38100204  0.43757004  1
  O  O12  1  0.65286531  0.95725267  0.60701235  1
  O  O13  1  0.34713469  0.04274733  0.39298765  1
  O  O14  1  0.04274733  0.34713469  0.89298765  1
  O  O15  1  0.95725267  0.65286531  0.10701235  1
  O  O16  1  0.39709979  0.62713221  0.54791295  1
  O  O17  1  0.60290021  0.37286779  0.45208705  1
  O  O18  1  0.37286779  0.60290021  0.95208705  1
  O  O19  1  0.62713221  0.39709979  0.04791295  1
  O  O20  1  0.23232342  0.03614991  0.79623537  1
  O  O21  1  0.76767658  0.96385009  0.20376463  1
  O  O22  1  0.96385009  0.76767658  0.70376463  1
  O  O23  1  0.03614991  0.23232342  0.29623537  1
