# generated using pymatgen
data_Rb8Hf(MoO4)6
_symmetry_space_group_name_H-M   'P 1'
_cell_length_a   8.14437400
_cell_length_b   10.29410455
_cell_length_c   10.98345515
_cell_angle_alpha   62.05533301
_cell_angle_beta   81.47709493
_cell_angle_gamma   71.56317735
_symmetry_Int_Tables_number   1
_chemical_formula_structural   Rb8Hf(MoO4)6
_chemical_formula_sum   'Rb8 Hf1 Mo6 O24'
_cell_volume   771.71947436
_cell_formula_units_Z   1
loop_
 _symmetry_equiv_pos_site_id
 _symmetry_equiv_pos_as_xyz
  1  'x, y, z'
loop_
 _atom_site_type_symbol
 _atom_site_label
 _atom_site_symmetry_multiplicity
 _atom_site_fract_x
 _atom_site_fract_y
 _atom_site_fract_z
 _atom_site_occupancy
  Rb  Rb0  1  0.50000000  0.33485618  0.33028765  1
  Rb  Rb1  1  0.50000000  0.66514382  0.66971235  1
  Rb  Rb2  1  0.10986076  0.13394840  0.34700656  1
  Rb  Rb3  1  0.89013924  0.86605160  0.65299344  1
  Rb  Rb4  1  0.89013924  0.51904505  0.34700656  1
  Rb  Rb5  1  0.10986076  0.48095495  0.65299344  1
  Rb  Rb6  1  0.64514331  0.78690102  1.00000000  1
  Rb  Rb7  1  0.35485669  0.21309898  0.00000000  1
  Hf  Hf8  1  -0.00000000  -0.00000000  0.00000000  1
  Mo  Mo9  1  0.20499439  0.61700322  1.00000000  1
  Mo  Mo10  1  0.79500561  0.38299678  0.00000000  1
  Mo  Mo11  1  0.28507005  0.05189156  0.68968470  1
  Mo  Mo12  1  0.71492995  0.94810844  0.31031530  1
  Mo  Mo13  1  0.71492995  0.25842374  0.68968470  1
  Mo  Mo14  1  0.28507005  0.74157626  0.31031530  1
  O  O15  1  0.22712562  0.78319973  0.45375977  1
  O  O16  1  0.77287438  0.21680027  0.54624023  1
  O  O17  1  0.77287438  0.76304050  0.45375977  1
  O  O18  1  0.22712562  0.23695950  0.54624023  1
  O  O19  1  0.20241565  0.93340229  0.65432435  1
  O  O20  1  0.79758435  0.06659771  0.34567565  1
  O  O21  1  0.79758435  0.41227335  0.65432435  1
  O  O22  1  0.20241565  0.58772665  0.34567565  1
  O  O23  1  0.51444889  0.97235829  0.70942512  1
  O  O24  1  0.48555111  0.02764171  0.29057488  1
  O  O25  1  0.48555111  0.31821658  0.70942512  1
  O  O26  1  0.51444889  0.68178342  0.29057488  1
  O  O27  1  0.18804381  0.06090417  0.85147744  1
  O  O28  1  0.81195619  0.93909583  0.14852256  1
  O  O29  1  0.81195619  0.08761839  0.85147744  1
  O  O30  1  0.18804381  0.91238161  0.14852256  1
  O  O31  1  0.18956111  0.59388013  0.85124468  1
  O  O32  1  0.81043889  0.40611987  0.14875532  1
  O  O33  1  0.81043889  0.55487519  0.85124468  1
  O  O34  1  0.18956111  0.44512481  0.14875532  1
  O  O35  1  0.40497567  0.65017696  0.00000000  1
  O  O36  1  0.59502433  0.34982304  1.00000000  1
  O  O37  1  0.03190186  0.78903364  0.00000000  1
  O  O38  1  0.96809814  0.21096636  1.00000000  1
