# generated using pymatgen
data_Rb2SbF5
_symmetry_space_group_name_H-M   'P 1'
_cell_length_a   6.39212606
_cell_length_b   8.55599086
_cell_length_c   12.53693436
_cell_angle_alpha   90.00000000
_cell_angle_beta   90.00000000
_cell_angle_gamma   90.00000000
_symmetry_Int_Tables_number   1
_chemical_formula_structural   Rb2SbF5
_chemical_formula_sum   'Rb8 Sb4 F20'
_cell_volume   685.65712787
_cell_formula_units_Z   4
loop_
 _symmetry_equiv_pos_site_id
 _symmetry_equiv_pos_as_xyz
  1  'x, y, z'
loop_
 _atom_site_type_symbol
 _atom_site_label
 _atom_site_symmetry_multiplicity
 _atom_site_fract_x
 _atom_site_fract_y
 _atom_site_fract_z
 _atom_site_occupancy
  Rb  Rb0  1  0.75000000  0.48953436  0.27231051  1
  Rb  Rb1  1  0.25000000  0.51046564  0.72768949  1
  Rb  Rb2  1  0.25000000  0.01046564  0.77231051  1
  Rb  Rb3  1  0.75000000  0.98953436  0.22768949  1
  Rb  Rb4  1  0.75000000  0.84740005  0.57492646  1
  Rb  Rb5  1  0.25000000  0.15259995  0.42507354  1
  Rb  Rb6  1  0.25000000  0.65259995  0.07492646  1
  Rb  Rb7  1  0.75000000  0.34740005  0.92507354  1
  Sb  Sb8  1  0.75000000  0.82024508  0.93649944  1
  Sb  Sb9  1  0.25000000  0.17975492  0.06350056  1
  Sb  Sb10  1  0.25000000  0.67975492  0.43649944  1
  Sb  Sb11  1  0.75000000  0.32024508  0.56350056  1
  F  F12  1  0.75000000  0.69396836  0.09935846  1
  F  F13  1  0.25000000  0.30603164  0.90064154  1
  F  F14  1  0.25000000  0.80603164  0.59935846  1
  F  F15  1  0.75000000  0.19396836  0.40064154  1
  F  F16  1  0.98609555  0.66986429  0.88297861  1
  F  F17  1  0.01390445  0.33013571  0.11702139  1
  F  F18  1  0.01390445  0.83013571  0.38297861  1
  F  F19  1  0.48609555  0.33013571  0.11702139  1
  F  F20  1  0.98609555  0.16986429  0.61702139  1
  F  F21  1  0.51390445  0.66986429  0.88297861  1
  F  F22  1  0.51390445  0.16986429  0.61702139  1
  F  F23  1  0.48609555  0.83013571  0.38297861  1
  F  F24  1  0.00000000  0.00000000  -0.00000000  1
  F  F25  1  0.00000000  0.50000000  0.50000000  1
  F  F26  1  0.50000000  0.00000000  -0.00000000  1
  F  F27  1  0.50000000  0.50000000  0.50000000  1
  F  F28  1  0.75000000  0.93338620  0.78750857  1
  F  F29  1  0.25000000  0.06661380  0.21249143  1
  F  F30  1  0.25000000  0.56661380  0.28750857  1
  F  F31  1  0.75000000  0.43338620  0.71249143  1
