# generated using pymatgen
data_Rb2UBr5
_symmetry_space_group_name_H-M   'P 1'
_cell_length_a   8.82025280
_cell_length_b   9.36554721
_cell_length_c   14.17374587
_cell_angle_alpha   90.00000000
_cell_angle_beta   90.00000000
_cell_angle_gamma   90.00000000
_symmetry_Int_Tables_number   1
_chemical_formula_structural   Rb2UBr5
_chemical_formula_sum   'Rb8 U4 Br20'
_cell_volume   1170.84345320
_cell_formula_units_Z   4
loop_
 _symmetry_equiv_pos_site_id
 _symmetry_equiv_pos_as_xyz
  1  'x, y, z'
loop_
 _atom_site_type_symbol
 _atom_site_label
 _atom_site_symmetry_multiplicity
 _atom_site_fract_x
 _atom_site_fract_y
 _atom_site_fract_z
 _atom_site_occupancy
  Rb  Rb0  1  0.96313227  -0.00025188  0.67408132  1
  Rb  Rb1  1  0.03686773  0.00025188  0.32591868  1
  Rb  Rb2  1  0.46313227  0.00025188  0.82591868  1
  Rb  Rb3  1  0.03686773  0.49974812  0.32591868  1
  Rb  Rb4  1  0.53686773  -0.00025188  0.17408132  1
  Rb  Rb5  1  0.96313227  0.50025188  0.67408132  1
  Rb  Rb6  1  0.53686773  0.50025188  0.17408132  1
  Rb  Rb7  1  0.46313227  0.49974812  0.82591868  1
  U  U8  1  0.93026633  0.75000000  0.99886841  1
  U  U9  1  0.06973367  0.25000000  0.00113159  1
  U  U10  1  0.43026633  0.25000000  0.50113159  1
  U  U11  1  0.56973367  0.75000000  0.49886841  1
  Br  Br12  1  0.66910025  0.75000000  0.69585150  1
  Br  Br13  1  0.33089975  0.25000000  0.30414850  1
  Br  Br14  1  0.16910025  0.25000000  0.80414850  1
  Br  Br15  1  0.83089975  0.75000000  0.19585150  1
  Br  Br16  1  0.13152256  0.75000000  0.83347442  1
  Br  Br17  1  0.86847744  0.25000000  0.16652558  1
  Br  Br18  1  0.63152256  0.25000000  0.66652558  1
  Br  Br19  1  0.36847744  0.75000000  0.33347442  1
  Br  Br20  1  0.59115926  0.75000000  0.98811446  1
  Br  Br21  1  0.40884074  0.25000000  0.01188554  1
  Br  Br22  1  0.09115926  0.25000000  0.51188554  1
  Br  Br23  1  0.90884074  0.75000000  0.48811446  1
  Br  Br24  1  0.84633223  0.45940665  0.91913679  1
  Br  Br25  1  0.15366777  0.54059335  0.08086321  1
  Br  Br26  1  0.34633223  0.54059335  0.58086321  1
  Br  Br27  1  0.15366777  0.95940665  0.08086321  1
  Br  Br28  1  0.65366777  0.45940665  0.41913679  1
  Br  Br29  1  0.84633223  0.04059335  0.91913679  1
  Br  Br30  1  0.65366777  0.04059335  0.41913679  1
  Br  Br31  1  0.34633223  0.95940665  0.58086321  1
