# generated using pymatgen
data_Rb2NdBr5
_symmetry_space_group_name_H-M   'P 1'
_cell_length_a   8.79732641
_cell_length_b   9.37596310
_cell_length_c   14.13978766
_cell_angle_alpha   90.00000000
_cell_angle_beta   90.00000000
_cell_angle_gamma   90.00000000
_symmetry_Int_Tables_number   1
_chemical_formula_structural   Rb2NdBr5
_chemical_formula_sum   'Rb8 Nd4 Br20'
_cell_volume   1166.29787175
_cell_formula_units_Z   4
loop_
 _symmetry_equiv_pos_site_id
 _symmetry_equiv_pos_as_xyz
  1  'x, y, z'
loop_
 _atom_site_type_symbol
 _atom_site_label
 _atom_site_symmetry_multiplicity
 _atom_site_fract_x
 _atom_site_fract_y
 _atom_site_fract_z
 _atom_site_occupancy
  Rb  Rb0  1  0.55288326  0.49503270  0.67226728  1
  Rb  Rb1  1  0.44711674  0.50496730  0.32773272  1
  Rb  Rb2  1  0.05288326  0.50496730  0.82773272  1
  Rb  Rb3  1  0.44711674  0.99503270  0.32773272  1
  Rb  Rb4  1  0.94711674  0.49503270  0.17226728  1
  Rb  Rb5  1  0.55288326  0.00496730  0.67226728  1
  Rb  Rb6  1  0.94711674  0.00496730  0.17226728  1
  Rb  Rb7  1  0.05288326  0.99503270  0.82773272  1
  Nd  Nd8  1  0.57444566  0.75000000  0.99559019  1
  Nd  Nd9  1  0.42555434  0.25000000  0.00440981  1
  Nd  Nd10  1  0.07444566  0.25000000  0.50440981  1
  Nd  Nd11  1  0.92555434  0.75000000  0.49559019  1
  Br  Br12  1  0.37928696  0.75000000  0.82624847  1
  Br  Br13  1  0.62071304  0.25000000  0.17375153  1
  Br  Br14  1  0.87928696  0.25000000  0.67375153  1
  Br  Br15  1  0.12071304  0.75000000  0.32624847  1
  Br  Br16  1  0.66042453  0.45783834  0.92640442  1
  Br  Br17  1  0.33957547  0.54216166  0.07359558  1
  Br  Br18  1  0.16042453  0.54216166  0.57359558  1
  Br  Br19  1  0.33957547  0.95783834  0.07359558  1
  Br  Br20  1  0.83957547  0.45783834  0.42640442  1
  Br  Br21  1  0.66042453  0.04216166  0.92640442  1
  Br  Br22  1  0.83957547  0.04216166  0.42640442  1
  Br  Br23  1  0.16042453  0.95783834  0.57359558  1
  Br  Br24  1  0.91354512  0.75000000  0.99030370  1
  Br  Br25  1  0.08645488  0.25000000  0.00969630  1
  Br  Br26  1  0.41354512  0.25000000  0.50969630  1
  Br  Br27  1  0.58645488  0.75000000  0.49030370  1
  Br  Br28  1  0.84104507  0.75000000  0.69819208  1
  Br  Br29  1  0.15895493  0.25000000  0.30180792  1
  Br  Br30  1  0.34104507  0.25000000  0.80180792  1
  Br  Br31  1  0.65895493  0.75000000  0.19819208  1
