# generated using pymatgen
data_Fe3O5F
_symmetry_space_group_name_H-M   'P 1'
_cell_length_a   4.63641693
_cell_length_b   4.63641693
_cell_length_c   9.03492606
_cell_angle_alpha   90.00000000
_cell_angle_beta   90.00000000
_cell_angle_gamma   92.60712912
_symmetry_Int_Tables_number   1
_chemical_formula_structural   Fe3O5F
_chemical_formula_sum   'Fe6 O10 F2'
_cell_volume   194.01700941
_cell_formula_units_Z   2
loop_
 _symmetry_equiv_pos_site_id
 _symmetry_equiv_pos_as_xyz
  1  'x, y, z'
loop_
 _atom_site_type_symbol
 _atom_site_label
 _atom_site_symmetry_multiplicity
 _atom_site_fract_x
 _atom_site_fract_y
 _atom_site_fract_z
 _atom_site_occupancy
  Fe  Fe0  1  0.01086288  0.98913712  0.00623420  1
  Fe  Fe1  1  0.01086288  0.98913712  0.32709980  1
  Fe  Fe2  1  0.01366704  0.98633296  0.66666700  1
  Fe  Fe3  1  0.50393165  0.49606835  0.16666700  1
  Fe  Fe4  1  0.48240202  0.51759798  0.83349544  1
  Fe  Fe5  1  0.48240202  0.51759798  0.49983756  1
  O  O6  1  0.20534280  0.79465720  0.16666700  1
  O  O7  1  0.18417454  0.81582546  0.49457312  1
  O  O8  1  0.18417454  0.81582546  0.83875988  1
  O  O9  1  0.30972208  0.30403056  -0.00313228  1
  O  O10  1  0.30972208  0.30403056  0.33646528  1
  O  O11  1  0.30152351  0.31237364  0.66666700  1
  O  O12  1  0.69596944  0.69027792  -0.00313228  1
  O  O13  1  0.69596944  0.69027792  0.33646528  1
  O  O14  1  0.68762636  0.69847649  0.66666700  1
  O  O15  1  0.81751286  0.18248714  0.16666700  1
  F  F16  1  0.80206692  0.19793308  0.83149542  1
  F  F17  1  0.80206692  0.19793308  0.50183758  1
