# generated using pymatgen
data_Pr3(Sn3Pd2)2
_symmetry_space_group_name_H-M   'P 1'
_cell_length_a   4.64135475
_cell_length_b   16.95857499
_cell_length_c   15.84373971
_cell_angle_alpha   90.00000000
_cell_angle_beta   90.00000000
_cell_angle_gamma   90.00000000
_symmetry_Int_Tables_number   1
_chemical_formula_structural   Pr3(Sn3Pd2)2
_chemical_formula_sum   'Pr12 Sn24 Pd16'
_cell_volume   1247.07283474
_cell_formula_units_Z   4
loop_
 _symmetry_equiv_pos_site_id
 _symmetry_equiv_pos_as_xyz
  1  'x, y, z'
loop_
 _atom_site_type_symbol
 _atom_site_label
 _atom_site_symmetry_multiplicity
 _atom_site_fract_x
 _atom_site_fract_y
 _atom_site_fract_z
 _atom_site_occupancy
  Pr  Pr0  1  0.75000000  0.61533228  0.24731644  1
  Pr  Pr1  1  0.25000000  0.38466772  0.75268356  1
  Pr  Pr2  1  0.25000000  0.88466772  0.74731644  1
  Pr  Pr3  1  0.75000000  0.11533228  0.25268356  1
  Pr  Pr4  1  0.75000000  0.35717739  0.38116836  1
  Pr  Pr5  1  0.25000000  0.64282261  0.61883164  1
  Pr  Pr6  1  0.25000000  0.14282261  0.88116836  1
  Pr  Pr7  1  0.75000000  0.85717739  0.11883164  1
  Pr  Pr8  1  0.75000000  0.64989107  0.98374864  1
  Pr  Pr9  1  0.25000000  0.35010893  0.01625136  1
  Pr  Pr10  1  0.25000000  0.85010893  0.48374864  1
  Pr  Pr11  1  0.75000000  0.14989107  0.51625136  1
  Sn  Sn12  1  0.75000000  0.55039547  0.46077560  1
  Sn  Sn13  1  0.25000000  0.44960453  0.53922440  1
  Sn  Sn14  1  0.25000000  0.94960453  0.96077560  1
  Sn  Sn15  1  0.75000000  0.05039547  0.03922440  1
  Sn  Sn16  1  0.75000000  0.82966878  0.89398093  1
  Sn  Sn17  1  0.25000000  0.17033122  0.10601907  1
  Sn  Sn18  1  0.25000000  0.67033122  0.39398093  1
  Sn  Sn19  1  0.75000000  0.32966878  0.60601907  1
  Sn  Sn20  1  0.75000000  0.79348041  0.62071171  1
  Sn  Sn21  1  0.25000000  0.20651959  0.37928829  1
  Sn  Sn22  1  0.25000000  0.70651959  0.12071171  1
  Sn  Sn23  1  0.75000000  0.29348041  0.87928829  1
  Sn  Sn24  1  0.75000000  0.55711533  0.77000722  1
  Sn  Sn25  1  0.25000000  0.44288467  0.22999278  1
  Sn  Sn26  1  0.25000000  0.94288467  0.27000722  1
  Sn  Sn27  1  0.75000000  0.05711533  0.72999278  1
  Sn  Sn28  1  0.75000000  0.97436638  0.41988954  1
  Sn  Sn29  1  0.25000000  0.02563362  0.58011046  1
  Sn  Sn30  1  0.25000000  0.52563362  0.91988954  1
  Sn  Sn31  1  0.75000000  0.47436638  0.08011046  1
  Sn  Sn32  1  0.75000000  0.81043064  0.33767631  1
  Sn  Sn33  1  0.25000000  0.18956936  0.66232369  1
  Sn  Sn34  1  0.25000000  0.68956936  0.83767631  1
  Sn  Sn35  1  0.75000000  0.31043064  0.16232369  1
  Pd  Pd36  1  0.75000000  0.95234340  0.60004066  1
  Pd  Pd37  1  0.25000000  0.04765660  0.39995934  1
  Pd  Pd38  1  0.25000000  0.54765660  0.10004066  1
  Pd  Pd39  1  0.75000000  0.45234340  0.89995934  1
  Pd  Pd40  1  0.75000000  0.71778895  0.76685684  1
  Pd  Pd41  1  0.25000000  0.28221105  0.23314316  1
  Pd  Pd42  1  0.25000000  0.78221105  0.26685684  1
  Pd  Pd43  1  0.75000000  0.21778895  0.73314316  1
  Pd  Pd44  1  0.75000000  0.99045951  0.87816082  1
  Pd  Pd45  1  0.25000000  0.00954049  0.12183918  1
  Pd  Pd46  1  0.25000000  0.50954049  0.37816082  1
  Pd  Pd47  1  0.75000000  0.49045951  0.62183918  1
  Pd  Pd48  1  0.75000000  0.70796041  0.47479957  1
  Pd  Pd49  1  0.25000000  0.29203959  0.52520043  1
  Pd  Pd50  1  0.25000000  0.79203959  0.97479957  1
  Pd  Pd51  1  0.75000000  0.20796041  0.02520043  1
