# generated using pymatgen
data_Rb2Ni2(SO4)3
_symmetry_space_group_name_H-M   'P 1'
_cell_length_a   10.09874399
_cell_length_b   10.09874399
_cell_length_c   10.09874399
_cell_angle_alpha   90.00000000
_cell_angle_beta   90.00000000
_cell_angle_gamma   90.00000000
_symmetry_Int_Tables_number   1
_chemical_formula_structural   Rb2Ni2(SO4)3
_chemical_formula_sum   'Rb8 Ni8 S12 O48'
_cell_volume   1029.91667106
_cell_formula_units_Z   4
loop_
 _symmetry_equiv_pos_site_id
 _symmetry_equiv_pos_as_xyz
  1  'x, y, z'
loop_
 _atom_site_type_symbol
 _atom_site_label
 _atom_site_symmetry_multiplicity
 _atom_site_fract_x
 _atom_site_fract_y
 _atom_site_fract_z
 _atom_site_occupancy
  Rb  Rb0  1  0.04786236  0.04786236  0.04786236  1
  Rb  Rb1  1  0.45213764  0.95213764  0.54786236  1
  Rb  Rb2  1  0.95213764  0.54786236  0.45213764  1
  Rb  Rb3  1  0.54786236  0.45213764  0.95213764  1
  Rb  Rb4  1  0.81665416  0.81665416  0.81665416  1
  Rb  Rb5  1  0.68334584  0.18334584  0.31665416  1
  Rb  Rb6  1  0.18334584  0.31665416  0.68334584  1
  Rb  Rb7  1  0.31665416  0.68334584  0.18334584  1
  Ni  Ni8  1  0.33518192  0.33518192  0.33518192  1
  Ni  Ni9  1  0.16481808  0.66481808  0.83518192  1
  Ni  Ni10  1  0.66481808  0.83518192  0.16481808  1
  Ni  Ni11  1  0.83518192  0.16481808  0.66481808  1
  Ni  Ni12  1  0.59708921  0.59708921  0.59708921  1
  Ni  Ni13  1  0.90291079  0.40291079  0.09708921  1
  Ni  Ni14  1  0.40291079  0.09708921  0.90291079  1
  Ni  Ni15  1  0.09708921  0.90291079  0.40291079  1
  S  S16  1  0.01877361  0.21561214  0.37582859  1
  S  S17  1  0.48122639  0.78438786  0.87582859  1
  S  S18  1  0.98122639  0.71561214  0.12417141  1
  S  S19  1  0.37582859  0.01877361  0.21561214  1
  S  S20  1  0.51877361  0.28438786  0.62417141  1
  S  S21  1  0.87582859  0.48122639  0.78438786  1
  S  S22  1  0.12417141  0.98122639  0.71561214  1
  S  S23  1  0.62417141  0.51877361  0.28438786  1
  S  S24  1  0.21561214  0.37582859  0.01877361  1
  S  S25  1  0.71561214  0.12417141  0.98122639  1
  S  S26  1  0.28438786  0.62417141  0.51877361  1
  S  S27  1  0.78438786  0.87582859  0.48122639  1
  O  O28  1  0.00989928  0.07518965  0.33021275  1
  O  O29  1  0.49010072  0.92481035  0.83021275  1
  O  O30  1  0.99010072  0.57518965  0.16978725  1
  O  O31  1  0.33021275  0.00989928  0.07518965  1
  O  O32  1  0.50989928  0.42481035  0.66978725  1
  O  O33  1  0.83021275  0.49010072  0.92481035  1
  O  O34  1  0.16978725  0.99010072  0.57518965  1
  O  O35  1  0.66978725  0.50989928  0.42481035  1
  O  O36  1  0.07518965  0.33021275  0.00989928  1
  O  O37  1  0.57518965  0.16978725  0.99010072  1
  O  O38  1  0.42481035  0.66978725  0.50989928  1
  O  O39  1  0.92481035  0.83021275  0.49010072  1
  O  O40  1  0.26518518  0.50000089  0.44142332  1
  O  O41  1  0.23481482  0.49999911  0.94142332  1
  O  O42  1  0.73481482  0.00000089  0.05857668  1
  O  O43  1  0.44142332  0.26518518  0.50000089  1
  O  O44  1  0.76518518  -0.00000089  0.55857668  1
  O  O45  1  0.94142332  0.23481482  0.49999911  1
  O  O46  1  0.05857668  0.73481482  0.00000089  1
  O  O47  1  0.55857668  0.76518518  -0.00000089  1
  O  O48  1  0.50000089  0.44142332  0.26518518  1
  O  O49  1  0.00000089  0.05857668  0.73481482  1
  O  O50  1  -0.00000089  0.55857668  0.76518518  1
  O  O51  1  0.49999911  0.94142332  0.23481482  1
  O  O52  1  0.04169531  0.80272259  0.22587245  1
  O  O53  1  0.45830469  0.19727741  0.72587245  1
  O  O54  1  0.95830469  0.30272259  0.27412755  1
  O  O55  1  0.22587245  0.04169531  0.80272259  1
  O  O56  1  0.54169531  0.69727741  0.77412755  1
  O  O57  1  0.72587245  0.45830469  0.19727741  1
  O  O58  1  0.27412755  0.95830469  0.30272259  1
  O  O59  1  0.77412755  0.54169531  0.69727741  1
  O  O60  1  0.80272259  0.22587245  0.04169531  1
  O  O61  1  0.30272259  0.27412755  0.95830469  1
  O  O62  1  0.69727741  0.77412755  0.54169531  1
  O  O63  1  0.19727741  0.72587245  0.45830469  1
  O  O64  1  0.15819724  0.25343220  0.40207636  1
  O  O65  1  0.34180276  0.74656780  0.90207636  1
  O  O66  1  0.84180276  0.75343220  0.09792364  1
  O  O67  1  0.40207636  0.15819724  0.25343220  1
  O  O68  1  0.65819724  0.24656780  0.59792364  1
  O  O69  1  0.90207636  0.34180276  0.74656780  1
  O  O70  1  0.09792364  0.84180276  0.75343220  1
  O  O71  1  0.59792364  0.65819724  0.24656780  1
  O  O72  1  0.25343220  0.40207636  0.15819724  1
  O  O73  1  0.75343220  0.09792364  0.84180276  1
  O  O74  1  0.24656780  0.59792364  0.65819724  1
  O  O75  1  0.74656780  0.90207636  0.34180276  1
