# generated using pymatgen
data_Pr4MgNi
_symmetry_space_group_name_H-M   'P 1'
_cell_length_a   10.03910273
_cell_length_b   10.03910273
_cell_length_c   10.03910273
_cell_angle_alpha   60.00000000
_cell_angle_beta   60.00000000
_cell_angle_gamma   60.00000000
_symmetry_Int_Tables_number   1
_chemical_formula_structural   Pr4MgNi
_chemical_formula_sum   'Pr16 Mg4 Ni4'
_cell_volume   715.43420140
_cell_formula_units_Z   4
loop_
 _symmetry_equiv_pos_site_id
 _symmetry_equiv_pos_as_xyz
  1  'x, y, z'
loop_
 _atom_site_type_symbol
 _atom_site_label
 _atom_site_symmetry_multiplicity
 _atom_site_fract_x
 _atom_site_fract_y
 _atom_site_fract_z
 _atom_site_occupancy
  Pr  Pr0  1  0.81056651  0.81056651  0.18943349  1
  Pr  Pr1  1  0.18943349  0.18943349  0.81056651  1
  Pr  Pr2  1  0.81056651  0.18943349  0.81056651  1
  Pr  Pr3  1  0.18943349  0.81056651  0.18943349  1
  Pr  Pr4  1  0.18943349  0.81056651  0.81056651  1
  Pr  Pr5  1  0.81056651  0.18943349  0.18943349  1
  Pr  Pr6  1  0.43557448  0.43557448  0.06442552  1
  Pr  Pr7  1  0.06442552  0.06442552  0.43557448  1
  Pr  Pr8  1  0.43557448  0.06442552  0.43557448  1
  Pr  Pr9  1  0.06442552  0.43557448  0.06442552  1
  Pr  Pr10  1  0.06442552  0.43557448  0.43557448  1
  Pr  Pr11  1  0.43557448  0.06442552  0.06442552  1
  Pr  Pr12  1  0.65447966  0.65447966  0.65447966  1
  Pr  Pr13  1  0.03656101  0.65447966  0.65447966  1
  Pr  Pr14  1  0.65447966  0.03656101  0.65447966  1
  Pr  Pr15  1  0.65447966  0.65447966  0.03656101  1
  Mg  Mg16  1  0.42106614  0.42106614  0.42106614  1
  Mg  Mg17  1  0.73680158  0.42106614  0.42106614  1
  Mg  Mg18  1  0.42106614  0.73680158  0.42106614  1
  Mg  Mg19  1  0.42106614  0.42106614  0.73680158  1
  Ni  Ni20  1  0.85823592  0.85823592  0.85823592  1
  Ni  Ni21  1  0.42529225  0.85823592  0.85823592  1
  Ni  Ni22  1  0.85823592  0.42529225  0.85823592  1
  Ni  Ni23  1  0.85823592  0.85823592  0.42529225  1
