# generated using pymatgen
data_NaHo(Pd3O4)2
_symmetry_space_group_name_H-M   'P 1'
_cell_length_a   5.82806412
_cell_length_b   5.82806412
_cell_length_c   5.82806412
_cell_angle_alpha   90.00000000
_cell_angle_beta   90.00000000
_cell_angle_gamma   90.00000000
_symmetry_Int_Tables_number   1
_chemical_formula_structural   NaHo(Pd3O4)2
_chemical_formula_sum   'Na1 Ho1 Pd6 O8'
_cell_volume   197.95795724
_cell_formula_units_Z   1
loop_
 _symmetry_equiv_pos_site_id
 _symmetry_equiv_pos_as_xyz
  1  'x, y, z'
loop_
 _atom_site_type_symbol
 _atom_site_label
 _atom_site_symmetry_multiplicity
 _atom_site_fract_x
 _atom_site_fract_y
 _atom_site_fract_z
 _atom_site_occupancy
  Na  Na0  1  0.50000000  0.50000000  0.50000000  1
  Ho  Ho1  1  0.00000000  0.00000000  -0.00000000  1
  Pd  Pd2  1  0.25073947  0.00000000  0.50000000  1
  Pd  Pd3  1  0.74926053  0.00000000  0.50000000  1
  Pd  Pd4  1  0.50000000  0.25073947  -0.00000000  1
  Pd  Pd5  1  0.50000000  0.74926053  -0.00000000  1
  Pd  Pd6  1  0.00000000  0.50000000  0.25073947  1
  Pd  Pd7  1  0.00000000  0.50000000  0.74926053  1
  O  O8  1  0.23924118  0.23924118  0.23924118  1
  O  O9  1  0.76075882  0.76075882  0.76075882  1
  O  O10  1  0.76075882  0.76075882  0.23924118  1
  O  O11  1  0.76075882  0.23924118  0.76075882  1
  O  O12  1  0.23924118  0.23924118  0.76075882  1
  O  O13  1  0.23924118  0.76075882  0.23924118  1
  O  O14  1  0.23924118  0.76075882  0.76075882  1
  O  O15  1  0.76075882  0.23924118  0.23924118  1
