# generated using pymatgen
data_Nd3(Al3Os)4
_symmetry_space_group_name_H-M   'P 1'
_cell_length_a   8.92562463
_cell_length_b   8.92562463
_cell_length_c   9.69032697
_cell_angle_alpha   90.00000000
_cell_angle_beta   90.00000000
_cell_angle_gamma   119.99999774
_symmetry_Int_Tables_number   1
_chemical_formula_structural   Nd3(Al3Os)4
_chemical_formula_sum   'Nd6 Al24 Os8'
_cell_volume   668.56911509
_cell_formula_units_Z   2
loop_
 _symmetry_equiv_pos_site_id
 _symmetry_equiv_pos_as_xyz
  1  'x, y, z'
loop_
 _atom_site_type_symbol
 _atom_site_label
 _atom_site_symmetry_multiplicity
 _atom_site_fract_x
 _atom_site_fract_y
 _atom_site_fract_z
 _atom_site_occupancy
  Nd  Nd0  1  0.80748574  0.19251426  0.75000000  1
  Nd  Nd1  1  0.19251426  0.80748574  0.25000000  1
  Nd  Nd2  1  0.38502851  0.19251426  0.75000000  1
  Nd  Nd3  1  0.61497149  0.80748574  0.25000000  1
  Nd  Nd4  1  0.80748574  0.61497149  0.75000000  1
  Nd  Nd5  1  0.19251426  0.38502851  0.25000000  1
  Al  Al6  1  0.66666700  0.33333300  0.99038844  1
  Al  Al7  1  0.33333300  0.66666700  0.00961156  1
  Al  Al8  1  0.33333300  0.66666700  0.49038844  1
  Al  Al9  1  0.66666700  0.33333300  0.50961156  1
  Al  Al10  1  0.83731494  0.16268506  0.42548154  1
  Al  Al11  1  0.16268506  0.83731494  0.57451846  1
  Al  Al12  1  0.32537012  0.16268506  0.42548154  1
  Al  Al13  1  0.16268506  0.83731494  0.92548154  1
  Al  Al14  1  0.67462988  0.83731494  0.57451846  1
  Al  Al15  1  0.83731494  0.16268506  0.07451846  1
  Al  Al16  1  0.83731494  0.67462988  0.42548154  1
  Al  Al17  1  0.67462988  0.83731494  0.92548154  1
  Al  Al18  1  0.16268506  0.32537012  0.57451846  1
  Al  Al19  1  0.32537012  0.16268506  0.07451846  1
  Al  Al20  1  0.16268506  0.32537012  0.92548154  1
  Al  Al21  1  0.83731494  0.67462988  0.07451846  1
  Al  Al22  1  0.43866777  0.56133223  0.75000000  1
  Al  Al23  1  0.56133223  0.43866777  0.25000000  1
  Al  Al24  1  0.12266446  0.56133223  0.75000000  1
  Al  Al25  1  0.87733554  0.43866777  0.25000000  1
  Al  Al26  1  0.43866777  0.87733554  0.75000000  1
  Al  Al27  1  0.56133223  0.12266446  0.25000000  1
  Al  Al28  1  0.00000000  0.00000000  0.75000000  1
  Al  Al29  1  0.00000000  0.00000000  0.25000000  1
  Os  Os30  1  0.50000000  0.50000000  -0.00000000  1
  Os  Os31  1  0.00000000  0.50000000  -0.00000000  1
  Os  Os32  1  0.50000000  0.50000000  0.50000000  1
  Os  Os33  1  0.50000000  0.00000000  -0.00000000  1
  Os  Os34  1  0.00000000  0.50000000  0.50000000  1
  Os  Os35  1  0.50000000  0.00000000  0.50000000  1
  Os  Os36  1  0.00000000  0.00000000  -0.00000000  1
  Os  Os37  1  0.00000000  0.00000000  0.50000000  1
