# generated using pymatgen
data_Pr4CdIr
_symmetry_space_group_name_H-M   'P 1'
_cell_length_a   10.03267280
_cell_length_b   10.03267280
_cell_length_c   10.03267280
_cell_angle_alpha   60.00000000
_cell_angle_beta   60.00000000
_cell_angle_gamma   60.00000000
_symmetry_Int_Tables_number   1
_chemical_formula_structural   Pr4CdIr
_chemical_formula_sum   'Pr16 Cd4 Ir4'
_cell_volume   714.06039864
_cell_formula_units_Z   4
loop_
 _symmetry_equiv_pos_site_id
 _symmetry_equiv_pos_as_xyz
  1  'x, y, z'
loop_
 _atom_site_type_symbol
 _atom_site_label
 _atom_site_symmetry_multiplicity
 _atom_site_fract_x
 _atom_site_fract_y
 _atom_site_fract_z
 _atom_site_occupancy
  Pr  Pr0  1  0.65255863  0.65255863  0.65255863  1
  Pr  Pr1  1  0.04232410  0.65255863  0.65255863  1
  Pr  Pr2  1  0.65255863  0.04232410  0.65255863  1
  Pr  Pr3  1  0.65255863  0.65255863  0.04232410  1
  Pr  Pr4  1  0.81033204  0.81033204  0.18966796  1
  Pr  Pr5  1  0.18966796  0.18966796  0.81033204  1
  Pr  Pr6  1  0.81033204  0.18966796  0.81033204  1
  Pr  Pr7  1  0.18966796  0.81033204  0.18966796  1
  Pr  Pr8  1  0.18966796  0.81033204  0.81033204  1
  Pr  Pr9  1  0.81033204  0.18966796  0.18966796  1
  Pr  Pr10  1  0.43825788  0.43825788  0.06174212  1
  Pr  Pr11  1  0.06174212  0.06174212  0.43825788  1
  Pr  Pr12  1  0.43825788  0.06174212  0.43825788  1
  Pr  Pr13  1  0.06174212  0.43825788  0.06174212  1
  Pr  Pr14  1  0.06174212  0.43825788  0.43825788  1
  Pr  Pr15  1  0.43825788  0.06174212  0.06174212  1
  Cd  Cd16  1  0.42044473  0.42044473  0.42044473  1
  Cd  Cd17  1  0.73866582  0.42044473  0.42044473  1
  Cd  Cd18  1  0.42044473  0.73866582  0.42044473  1
  Cd  Cd19  1  0.42044473  0.42044473  0.73866582  1
  Ir  Ir20  1  0.85838492  0.85838492  0.85838492  1
  Ir  Ir21  1  0.42484524  0.85838492  0.85838492  1
  Ir  Ir22  1  0.85838492  0.42484524  0.85838492  1
  Ir  Ir23  1  0.85838492  0.85838492  0.42484524  1
