# generated using pymatgen
data_Pr4CdPd
_symmetry_space_group_name_H-M   'P 1'
_cell_length_a   10.11355258
_cell_length_b   10.11355258
_cell_length_c   10.11355258
_cell_angle_alpha   60.00000000
_cell_angle_beta   60.00000000
_cell_angle_gamma   60.00000000
_symmetry_Int_Tables_number   1
_chemical_formula_structural   Pr4CdPd
_chemical_formula_sum   'Pr16 Cd4 Pd4'
_cell_volume   731.46948298
_cell_formula_units_Z   4
loop_
 _symmetry_equiv_pos_site_id
 _symmetry_equiv_pos_as_xyz
  1  'x, y, z'
loop_
 _atom_site_type_symbol
 _atom_site_label
 _atom_site_symmetry_multiplicity
 _atom_site_fract_x
 _atom_site_fract_y
 _atom_site_fract_z
 _atom_site_occupancy
  Pr  Pr0  1  0.64952041  0.64952041  0.64952041  1
  Pr  Pr1  1  0.05143878  0.64952041  0.64952041  1
  Pr  Pr2  1  0.64952041  0.05143878  0.64952041  1
  Pr  Pr3  1  0.64952041  0.64952041  0.05143878  1
  Pr  Pr4  1  0.80686891  0.80686891  0.19313109  1
  Pr  Pr5  1  0.19313109  0.19313109  0.80686891  1
  Pr  Pr6  1  0.80686891  0.19313109  0.80686891  1
  Pr  Pr7  1  0.19313109  0.80686891  0.19313109  1
  Pr  Pr8  1  0.19313109  0.80686891  0.80686891  1
  Pr  Pr9  1  0.80686891  0.19313109  0.19313109  1
  Pr  Pr10  1  0.43483168  0.43483168  0.06516832  1
  Pr  Pr11  1  0.06516832  0.06516832  0.43483168  1
  Pr  Pr12  1  0.43483168  0.06516832  0.43483168  1
  Pr  Pr13  1  0.06516832  0.43483168  0.06516832  1
  Pr  Pr14  1  0.06516832  0.43483168  0.43483168  1
  Pr  Pr15  1  0.43483168  0.06516832  0.06516832  1
  Cd  Cd16  1  0.42053374  0.42053374  0.42053374  1
  Cd  Cd17  1  0.73839879  0.42053374  0.42053374  1
  Cd  Cd18  1  0.42053374  0.73839879  0.42053374  1
  Cd  Cd19  1  0.42053374  0.42053374  0.73839879  1
  Pd  Pd20  1  0.85687014  0.85687014  0.85687014  1
  Pd  Pd21  1  0.42938958  0.85687014  0.85687014  1
  Pd  Pd22  1  0.85687014  0.42938958  0.85687014  1
  Pd  Pd23  1  0.85687014  0.85687014  0.42938958  1
