# generated using pymatgen
data_Nd4CdIr
_symmetry_space_group_name_H-M   'P 1'
_cell_length_a   9.95360625
_cell_length_b   9.95360625
_cell_length_c   9.95360625
_cell_angle_alpha   60.00000000
_cell_angle_beta   60.00000000
_cell_angle_gamma   60.00000000
_symmetry_Int_Tables_number   1
_chemical_formula_structural   Nd4CdIr
_chemical_formula_sum   'Nd16 Cd4 Ir4'
_cell_volume   697.31076988
_cell_formula_units_Z   4
loop_
 _symmetry_equiv_pos_site_id
 _symmetry_equiv_pos_as_xyz
  1  'x, y, z'
loop_
 _atom_site_type_symbol
 _atom_site_label
 _atom_site_symmetry_multiplicity
 _atom_site_fract_x
 _atom_site_fract_y
 _atom_site_fract_z
 _atom_site_occupancy
  Nd  Nd0  1  0.65247814  0.65247814  0.65247814  1
  Nd  Nd1  1  0.04256558  0.65247814  0.65247814  1
  Nd  Nd2  1  0.65247814  0.04256558  0.65247814  1
  Nd  Nd3  1  0.65247814  0.65247814  0.04256558  1
  Nd  Nd4  1  0.81044126  0.81044126  0.18955874  1
  Nd  Nd5  1  0.18955874  0.18955874  0.81044126  1
  Nd  Nd6  1  0.81044126  0.18955874  0.81044126  1
  Nd  Nd7  1  0.18955874  0.81044126  0.18955874  1
  Nd  Nd8  1  0.18955874  0.81044126  0.81044126  1
  Nd  Nd9  1  0.81044126  0.18955874  0.18955874  1
  Nd  Nd10  1  0.43770642  0.43770642  0.06229358  1
  Nd  Nd11  1  0.06229358  0.06229358  0.43770642  1
  Nd  Nd12  1  0.43770642  0.06229358  0.43770642  1
  Nd  Nd13  1  0.06229358  0.43770642  0.06229358  1
  Nd  Nd14  1  0.06229358  0.43770642  0.43770642  1
  Nd  Nd15  1  0.43770642  0.06229358  0.06229358  1
  Cd  Cd16  1  0.42042482  0.42042482  0.42042482  1
  Cd  Cd17  1  0.73872555  0.42042482  0.42042482  1
  Cd  Cd18  1  0.42042482  0.73872555  0.42042482  1
  Cd  Cd19  1  0.42042482  0.42042482  0.73872555  1
  Ir  Ir20  1  0.85843354  0.85843354  0.85843354  1
  Ir  Ir21  1  0.42469937  0.85843354  0.85843354  1
  Ir  Ir22  1  0.85843354  0.42469937  0.85843354  1
  Ir  Ir23  1  0.85843354  0.85843354  0.42469937  1
