# generated using pymatgen
data_Rb5V3O10
_symmetry_space_group_name_H-M   'P 1'
_cell_length_a   8.58799119
_cell_length_b   8.58799119
_cell_length_c   19.88582671
_cell_angle_alpha   90.00000000
_cell_angle_beta   90.00000000
_cell_angle_gamma   90.00000000
_symmetry_Int_Tables_number   1
_chemical_formula_structural   Rb5V3O10
_chemical_formula_sum   'Rb20 V12 O40'
_cell_volume   1466.65116326
_cell_formula_units_Z   4
loop_
 _symmetry_equiv_pos_site_id
 _symmetry_equiv_pos_as_xyz
  1  'x, y, z'
loop_
 _atom_site_type_symbol
 _atom_site_label
 _atom_site_symmetry_multiplicity
 _atom_site_fract_x
 _atom_site_fract_y
 _atom_site_fract_z
 _atom_site_occupancy
  Rb  Rb0  1  0.47654147  0.01025627  0.13255447  1
  Rb  Rb1  1  0.52345853  0.98974373  0.63255447  1
  Rb  Rb2  1  0.48974373  0.97654147  0.38255447  1
  Rb  Rb3  1  0.02345853  0.51025627  0.11744553  1
  Rb  Rb4  1  0.51025627  0.02345853  0.88255447  1
  Rb  Rb5  1  0.97654147  0.48974373  0.61744553  1
  Rb  Rb6  1  0.01025627  0.47654147  0.86744553  1
  Rb  Rb7  1  0.98974373  0.52345853  0.36744553  1
  Rb  Rb8  1  0.00071101  0.02876670  0.11110484  1
  Rb  Rb9  1  0.99928899  0.97123330  0.61110484  1
  Rb  Rb10  1  0.47123330  0.50071101  0.36110484  1
  Rb  Rb11  1  0.49928899  0.52876670  0.13889516  1
  Rb  Rb12  1  0.52876670  0.49928899  0.86110484  1
  Rb  Rb13  1  0.50071101  0.47123330  0.63889516  1
  Rb  Rb14  1  0.02876670  0.00071101  0.88889516  1
  Rb  Rb15  1  0.97123330  0.99928899  0.38889516  1
  Rb  Rb16  1  0.76287566  0.76287566  0.00000000  1
  Rb  Rb17  1  0.23712434  0.23712434  0.50000000  1
  Rb  Rb18  1  0.73712434  0.26287566  0.25000000  1
  Rb  Rb19  1  0.26287566  0.73712434  0.75000000  1
  V  V20  1  0.22961830  0.22788391  0.26783265  1
  V  V21  1  0.77038170  0.77211609  0.76783265  1
  V  V22  1  0.27211609  0.72961830  0.51783265  1
  V  V23  1  0.27038170  0.72788391  0.98216735  1
  V  V24  1  0.72788391  0.27038170  0.01783265  1
  V  V25  1  0.72961830  0.27211609  0.48216735  1
  V  V26  1  0.22788391  0.22961830  0.73216735  1
  V  V27  1  0.77211609  0.77038170  0.23216735  1
  V  V28  1  0.31140976  0.31140976  0.00000000  1
  V  V29  1  0.68859024  0.68859024  0.50000000  1
  V  V30  1  0.18859024  0.81140976  0.25000000  1
  V  V31  1  0.81140976  0.18859024  0.75000000  1
  O  O32  1  0.06651706  0.31931294  0.23784240  1
  O  O33  1  0.93348294  0.68068706  0.73784240  1
  O  O34  1  0.18068706  0.56651706  0.48784240  1
  O  O35  1  0.43348294  0.81931294  0.01215760  1
  O  O36  1  0.81931294  0.43348294  0.98784240  1
  O  O37  1  0.56651706  0.18068706  0.51215760  1
  O  O38  1  0.31931294  0.06651706  0.76215760  1
  O  O39  1  0.68068706  0.93348294  0.26215760  1
  O  O40  1  0.24361501  0.22558952  0.07028804  1
  O  O41  1  0.75638499  0.77441048  0.57028804  1
  O  O42  1  0.27441048  0.74361501  0.32028804  1
  O  O43  1  0.25638499  0.72558952  0.17971196  1
  O  O44  1  0.72558952  0.25638499  0.82028804  1
  O  O45  1  0.74361501  0.27441048  0.67971196  1
  O  O46  1  0.22558952  0.24361501  0.92971196  1
  O  O47  1  0.77441048  0.75638499  0.42971196  1
  O  O48  1  0.23122332  0.23893047  0.35427538  1
  O  O49  1  0.76877668  0.76106953  0.85427538  1
  O  O50  1  0.26106953  0.73122332  0.60427538  1
  O  O51  1  0.26877668  0.73893047  0.89572462  1
  O  O52  1  0.73893047  0.26877668  0.10427538  1
  O  O53  1  0.73122332  0.26106953  0.39572462  1
  O  O54  1  0.23893047  0.23122332  0.64572462  1
  O  O55  1  0.76106953  0.76877668  0.14572462  1
  O  O56  1  0.22088412  0.01865494  0.24160322  1
  O  O57  1  0.77911588  0.98134506  0.74160322  1
  O  O58  1  0.48134506  0.72088412  0.49160322  1
  O  O59  1  0.27911588  0.51865494  0.00839678  1
  O  O60  1  0.51865494  0.27911588  0.99160322  1
  O  O61  1  0.72088412  0.48134506  0.50839678  1
  O  O62  1  0.01865494  0.22088412  0.75839678  1
  O  O63  1  0.98134506  0.77911588  0.25839678  1
  O  O64  1  0.39792606  0.30906257  0.23780628  1
  O  O65  1  0.60207394  0.69093743  0.73780628  1
  O  O66  1  0.19093743  0.89792606  0.48780628  1
  O  O67  1  0.10207394  0.80906257  0.01219372  1
  O  O68  1  0.80906257  0.10207394  0.98780628  1
  O  O69  1  0.89792606  0.19093743  0.51219372  1
  O  O70  1  0.30906257  0.39792606  0.76219372  1
  O  O71  1  0.69093743  0.60207394  0.26219372  1
