# generated using pymatgen
data_Fe3O5F
_symmetry_space_group_name_H-M   'P 1'
_cell_length_a   4.63893759
_cell_length_b   4.63893759
_cell_length_c   9.01166222
_cell_angle_alpha   90.69080360
_cell_angle_beta   89.30919640
_cell_angle_gamma   92.66159868
_symmetry_Int_Tables_number   1
_chemical_formula_structural   Fe3O5F
_chemical_formula_sum   'Fe6 O10 F2'
_cell_volume   193.69252881
_cell_formula_units_Z   2
loop_
 _symmetry_equiv_pos_site_id
 _symmetry_equiv_pos_as_xyz
  1  'x, y, z'
loop_
 _atom_site_type_symbol
 _atom_site_label
 _atom_site_symmetry_multiplicity
 _atom_site_fract_x
 _atom_site_fract_y
 _atom_site_fract_z
 _atom_site_occupancy
  Fe  Fe0  1  0.00421148  0.99578852  0.00828927  1
  Fe  Fe1  1  0.99578852  0.00421148  0.32504373  1
  Fe  Fe2  1  0.00000000  0.00000000  0.66666700  1
  Fe  Fe3  1  0.50000000  0.50000000  0.16666700  1
  Fe  Fe4  1  0.47406613  0.52593387  0.83397663  1
  Fe  Fe5  1  0.52593387  0.47406613  0.49935637  1
  O  O6  1  0.19371556  0.80628444  0.17094231  1
  O  O7  1  0.17858158  0.82141842  0.83569291  1
  O  O8  1  0.30029735  0.31468731  0.00002611  1
  O  O9  1  0.31468731  0.30029735  0.33330789  1
  O  O10  1  0.30516589  0.30516589  0.66666700  1
  O  O11  1  0.68531269  0.69970265  0.00002611  1
  O  O12  1  0.69970265  0.68531269  0.33330789  1
  O  O13  1  0.69483411  0.69483411  0.66666700  1
  O  O14  1  0.80628444  0.19371556  0.16239069  1
  O  O15  1  0.82141842  0.17858158  0.49764009  1
  F  F16  1  0.20548320  0.79451680  0.49884228  1
  F  F17  1  0.79451680  0.20548320  0.83449072  1
