# generated using pymatgen
data_Ni2PPd
_symmetry_space_group_name_H-M   'P 1'
_cell_length_a   3.47228754
_cell_length_b   4.57853951
_cell_length_c   6.55722006
_cell_angle_alpha   90.00000000
_cell_angle_beta   90.00000000
_cell_angle_gamma   112.28361083
_symmetry_Int_Tables_number   1
_chemical_formula_structural   Ni2PPd
_chemical_formula_sum   'Ni4 P2 Pd2'
_cell_volume   96.46139121
_cell_formula_units_Z   2
loop_
 _symmetry_equiv_pos_site_id
 _symmetry_equiv_pos_as_xyz
  1  'x, y, z'
loop_
 _atom_site_type_symbol
 _atom_site_label
 _atom_site_symmetry_multiplicity
 _atom_site_fract_x
 _atom_site_fract_y
 _atom_site_fract_z
 _atom_site_occupancy
  Ni  Ni0  1  0.14728435  0.29456870  0.05466112  1
  Ni  Ni1  1  0.85271565  0.70543130  0.94533888  1
  Ni  Ni2  1  0.85271565  0.70543130  0.55466112  1
  Ni  Ni3  1  0.14728435  0.29456870  0.44533888  1
  P  P4  1  0.73134615  0.46269229  0.25000000  1
  P  P5  1  0.26865385  0.53730771  0.75000000  1
  Pd  Pd6  1  0.44519315  0.89038630  0.25000000  1
  Pd  Pd7  1  0.55480685  0.10961370  0.75000000  1
