# generated using pymatgen
data_Fe3O5F
_symmetry_space_group_name_H-M   'P 1'
_cell_length_a   4.64186587
_cell_length_b   7.61296574
_cell_length_c   5.53535384
_cell_angle_alpha   94.54611726
_cell_angle_beta   91.99176505
_cell_angle_gamma   88.48959334
_symmetry_Int_Tables_number   1
_chemical_formula_structural   Fe3O5F
_chemical_formula_sum   'Fe6 O10 F2'
_cell_volume   194.82242812
_cell_formula_units_Z   2
loop_
 _symmetry_equiv_pos_site_id
 _symmetry_equiv_pos_as_xyz
  1  'x, y, z'
loop_
 _atom_site_type_symbol
 _atom_site_label
 _atom_site_symmetry_multiplicity
 _atom_site_fract_x
 _atom_site_fract_y
 _atom_site_fract_z
 _atom_site_occupancy
  Fe  Fe0  1  0.51390227  0.67099509  0.15643845  1
  Fe  Fe1  1  0.49836520  -0.00145177  0.50096388  1
  Fe  Fe2  1  0.51782498  0.34022031  0.82241409  1
  Fe  Fe3  1  0.99545227  0.67206388  0.67558653  1
  Fe  Fe4  1  0.97898376  0.32429148  0.34618820  1
  Fe  Fe5  1  0.99121258  0.99224294  0.00093074  1
  O  O6  1  0.81575732  0.44413732  0.63071085  1
  O  O7  1  0.80167123  0.76710203  0.96480221  1
  O  O8  1  0.80628918  0.09633254  0.28977829  1
  O  O9  1  0.69648958  0.10512425  0.79640582  1
  O  O10  1  0.69091051  0.76662926  0.46152130  1
  O  O11  1  0.69155973  0.43450707  0.12988661  1
  O  O12  1  0.30662173  0.56483091  0.86848515  1
  O  O13  1  0.31014783  0.23215717  0.53839769  1
  O  O14  1  0.30370036  0.89620766  0.20574889  1
  O  O15  1  0.18520691  0.89624721  0.71021990  1
  F  F16  1  0.19682278  0.23410109  0.03750717  1
  F  F17  1  0.19908077  0.56426354  0.36401321  1
