# generated using pymatgen
data_Na3Nd9B8O27
_symmetry_space_group_name_H-M   'P 1'
_cell_length_a   8.54217408
_cell_length_b   8.83124892
_cell_length_c   8.83124892
_cell_angle_alpha   119.99999685
_cell_angle_beta   90.00000000
_cell_angle_gamma   90.00000000
_symmetry_Int_Tables_number   1
_chemical_formula_structural   Na3Nd9B8O27
_chemical_formula_sum   'Na3 Nd9 B8 O27'
_cell_volume   576.95682512
_cell_formula_units_Z   1
loop_
 _symmetry_equiv_pos_site_id
 _symmetry_equiv_pos_as_xyz
  1  'x, y, z'
loop_
 _atom_site_type_symbol
 _atom_site_label
 _atom_site_symmetry_multiplicity
 _atom_site_fract_x
 _atom_site_fract_y
 _atom_site_fract_z
 _atom_site_occupancy
  Na  Na0  1  0.00000000  0.66374643  0.66374643  1
  Na  Na1  1  0.00000000  1.00000000  0.33625357  1
  Na  Na2  1  0.00000000  0.33625357  1.00000000  1
  Nd  Nd3  1  0.76541236  0.34820340  0.34820340  1
  Nd  Nd4  1  0.76541236  1.00000000  0.65179660  1
  Nd  Nd5  1  0.23458764  0.34820340  0.34820340  1
  Nd  Nd6  1  0.23458764  1.00000000  0.65179660  1
  Nd  Nd7  1  0.76541236  0.65179660  1.00000000  1
  Nd  Nd8  1  0.23458764  0.65179660  1.00000000  1
  Nd  Nd9  1  0.50000000  0.71751937  0.71751937  1
  Nd  Nd10  1  0.50000000  1.00000000  0.28248063  1
  Nd  Nd11  1  0.50000000  0.28248063  1.00000000  1
  B  B12  1  0.79041486  0.00000000  0.00000000  1
  B  B13  1  0.20958514  0.00000000  0.00000000  1
  B  B14  1  0.00000000  0.66666700  0.33333300  1
  B  B15  1  0.00000000  0.33333300  0.66666700  1
  B  B16  1  0.67625597  0.66666700  0.33333300  1
  B  B17  1  0.32374403  0.66666700  0.33333300  1
  B  B18  1  0.32374403  0.33333300  0.66666700  1
  B  B19  1  0.67625597  0.33333300  0.66666700  1
  O  O20  1  0.68281957  0.82231870  0.33384172  1
  O  O21  1  0.68281957  0.51152302  0.17768130  1
  O  O22  1  0.31718043  0.82231870  0.33384172  1
  O  O23  1  0.31718043  0.48847698  0.66615828  1
  O  O24  1  0.68281957  0.66615828  0.48847698  1
  O  O25  1  0.31718043  0.51152302  0.17768130  1
  O  O26  1  0.31718043  0.33384172  0.82231870  1
  O  O27  1  0.68281957  0.48847698  0.66615828  1
  O  O28  1  0.31718043  0.66615828  0.48847698  1
  O  O29  1  0.68281957  0.33384172  0.82231870  1
  O  O30  1  0.31718043  0.17768130  0.51152302  1
  O  O31  1  0.68281957  0.17768130  0.51152302  1
  O  O32  1  0.00000000  0.67768068  0.18070199  1
  O  O33  1  0.00000000  0.50302131  0.32231932  1
  O  O34  1  0.00000000  0.49697869  0.81929801  1
  O  O35  1  0.00000000  0.81929801  0.49697869  1
  O  O36  1  0.00000000  0.18070199  0.67768068  1
  O  O37  1  0.00000000  0.32231932  0.50302131  1
  O  O38  1  0.50000000  0.25682210  0.25682210  1
  O  O39  1  0.50000000  0.00000000  0.74317790  1
  O  O40  1  0.50000000  0.74317790  0.00000000  1
  O  O41  1  0.78802638  0.84319182  0.84319182  1
  O  O42  1  0.78802638  0.00000000  0.15680818  1
  O  O43  1  0.21197362  0.84319182  0.84319182  1
  O  O44  1  0.21197362  0.00000000  0.15680818  1
  O  O45  1  0.78802638  0.15680818  0.00000000  1
  O  O46  1  0.21197362  0.15680818  0.00000000  1
