# generated using pymatgen
data_NaLaAgTe4
_symmetry_space_group_name_H-M   'P 1'
_cell_length_a   4.38019035
_cell_length_b   4.54572566
_cell_length_c   21.30188568
_cell_angle_alpha   90.00000000
_cell_angle_beta   90.00000000
_cell_angle_gamma   90.00000000
_symmetry_Int_Tables_number   1
_chemical_formula_structural   NaLaAgTe4
_chemical_formula_sum   'Na2 La2 Ag2 Te8'
_cell_volume   424.14490621
_cell_formula_units_Z   2
loop_
 _symmetry_equiv_pos_site_id
 _symmetry_equiv_pos_as_xyz
  1  'x, y, z'
loop_
 _atom_site_type_symbol
 _atom_site_label
 _atom_site_symmetry_multiplicity
 _atom_site_fract_x
 _atom_site_fract_y
 _atom_site_fract_z
 _atom_site_occupancy
  Na  Na0  1  0.50000000  0.00000000  0.86380006  1
  Na  Na1  1  0.00000000  0.50000000  0.13619994  1
  La  La2  1  0.50000000  -0.00000000  0.39908938  1
  La  La3  1  0.00000000  0.50000000  0.60091062  1
  Ag  Ag4  1  0.00000000  0.00000000  0.99948650  1
  Ag  Ag5  1  0.50000000  0.50000000  0.00051350  1
  Te  Te6  1  -0.00000000  0.00000000  0.72371048  1
  Te  Te7  1  0.50000000  0.50000000  0.27628952  1
  Te  Te8  1  0.50000000  -0.00000000  0.55779303  1
  Te  Te9  1  0.00000000  0.50000000  0.44220697  1
  Te  Te10  1  0.00000000  -0.00000000  0.27557638  1
  Te  Te11  1  0.50000000  0.50000000  0.72442362  1
  Te  Te12  1  0.50000000  -0.00000000  0.08736291  1
  Te  Te13  1  0.00000000  0.50000000  0.91263709  1
