# generated using pymatgen
data_Nb4P2AuS20
_symmetry_space_group_name_H-M   'P 1'
_cell_length_a   7.82480498
_cell_length_b   13.41798677
_cell_length_c   13.13666857
_cell_angle_alpha   92.23243425
_cell_angle_beta   90.00000000
_cell_angle_gamma   106.95250910
_symmetry_Int_Tables_number   1
_chemical_formula_structural   Nb4P2AuS20
_chemical_formula_sum   'Nb8 P4 Au2 S40'
_cell_volume   1318.23222622
_cell_formula_units_Z   2
loop_
 _symmetry_equiv_pos_site_id
 _symmetry_equiv_pos_as_xyz
  1  'x, y, z'
loop_
 _atom_site_type_symbol
 _atom_site_label
 _atom_site_symmetry_multiplicity
 _atom_site_fract_x
 _atom_site_fract_y
 _atom_site_fract_z
 _atom_site_occupancy
  Nb  Nb0  1  0.41825366  0.71849590  0.99454273  1
  Nb  Nb1  1  0.58174634  0.28150410  0.00545727  1
  Nb  Nb2  1  0.69975776  0.28150410  0.50545727  1
  Nb  Nb3  1  0.30024224  0.71849590  0.49454273  1
  Nb  Nb4  1  0.57342167  0.27997161  0.72280807  1
  Nb  Nb5  1  0.42657833  0.72002839  0.27719193  1
  Nb  Nb6  1  0.29345006  0.72002839  0.77719193  1
  Nb  Nb7  1  0.70654994  0.27997161  0.22280807  1
  P  P8  1  0.21091460  0.20410236  0.86441511  1
  P  P9  1  0.78908540  0.79589764  0.13558489  1
  P  P10  1  0.00681224  0.79589764  0.63558489  1
  P  P11  1  0.99318776  0.20410236  0.36441511  1
  Au  Au12  1  -0.00000000  -0.00000000  -0.00000000  1
  Au  Au13  1  -0.00000000  -0.00000000  0.50000000  1
  S  S14  1  0.50029067  0.68594861  0.63627932  1
  S  S15  1  0.49970933  0.31405139  0.36372068  1
  S  S16  1  0.81434207  0.31405139  0.86372068  1
  S  S17  1  0.18565793  0.68594861  0.13627932  1
  S  S18  1  0.42666972  0.14088827  0.85951455  1
  S  S19  1  0.57333028  0.85911173  0.14048545  1
  S  S20  1  0.28578145  0.85911173  0.64048545  1
  S  S21  1  0.71421855  0.14088827  0.35951455  1
  S  S22  1  0.24882001  0.28974832  0.73668315  1
  S  S23  1  0.75117999  0.71025168  0.26331685  1
  S  S24  1  0.95907169  0.71025168  0.76331685  1
  S  S25  1  0.04092831  0.28974832  0.23668315  1
  S  S26  1  0.86967227  0.90389932  0.63909863  1
  S  S27  1  0.13032773  0.09610068  0.36090137  1
  S  S28  1  0.96577295  0.09610068  0.86090137  1
  S  S29  1  0.03422705  0.90389932  0.13909863  1
  S  S30  1  0.26372003  0.29753124  0.99464886  1
  S  S31  1  0.73627997  0.70246876  0.00535114  1
  S  S32  1  0.96618879  0.70246876  0.50535114  1
  S  S33  1  0.03381121  0.29753124  0.49464886  1
  S  S34  1  0.54827514  0.85615318  0.86227991  1
  S  S35  1  0.45172486  0.14384682  0.13772009  1
  S  S36  1  0.69212196  0.14384682  0.63772009  1
  S  S37  1  0.30787804  0.85615318  0.36227991  1
  S  S38  1  0.57555996  0.41658641  0.59753889  1
  S  S39  1  0.42444004  0.58341359  0.40246111  1
  S  S40  1  0.15897355  0.58341359  0.90246111  1
  S  S41  1  0.84102645  0.41658641  0.09753889  1
  S  S42  1  0.40752159  0.58147973  0.85832972  1
  S  S43  1  0.59247841  0.41852027  0.14167028  1
  S  S44  1  0.82604186  0.41852027  0.64167028  1
  S  S45  1  0.17395814  0.58147973  0.35832972  1
  S  S46  1  0.66756050  0.41945651  0.86962848  1
  S  S47  1  0.33243950  0.58054349  0.13037152  1
  S  S48  1  0.24810399  0.58054349  0.63037152  1
  S  S49  1  0.75189601  0.41945651  0.36962848  1
  S  S50  1  0.30537930  0.85759840  0.92170768  1
  S  S51  1  0.69462070  0.14240160  0.07829232  1
  S  S52  1  0.44778089  0.14240160  0.57829232  1
  S  S53  1  0.55221911  0.85759840  0.42170768  1
