# generated using pymatgen
data_Nd3NiGe2
_symmetry_space_group_name_H-M   'P 1'
_cell_length_a   4.30798801
_cell_length_b   11.87860396
_cell_length_c   11.74342451
_cell_angle_alpha   90.00000000
_cell_angle_beta   90.00000000
_cell_angle_gamma   90.00000000
_symmetry_Int_Tables_number   1
_chemical_formula_structural   Nd3NiGe2
_chemical_formula_sum   'Nd12 Ni4 Ge8'
_cell_volume   600.94489358
_cell_formula_units_Z   4
loop_
 _symmetry_equiv_pos_site_id
 _symmetry_equiv_pos_as_xyz
  1  'x, y, z'
loop_
 _atom_site_type_symbol
 _atom_site_label
 _atom_site_symmetry_multiplicity
 _atom_site_fract_x
 _atom_site_fract_y
 _atom_site_fract_z
 _atom_site_occupancy
  Nd  Nd0  1  0.75000000  0.94174538  0.62540967  1
  Nd  Nd1  1  0.25000000  0.05825462  0.37459033  1
  Nd  Nd2  1  0.25000000  0.55825462  0.12540967  1
  Nd  Nd3  1  0.75000000  0.44174538  0.87459033  1
  Nd  Nd4  1  0.75000000  0.78365922  0.30403674  1
  Nd  Nd5  1  0.25000000  0.21634078  0.69596326  1
  Nd  Nd6  1  0.25000000  0.71634078  0.80403674  1
  Nd  Nd7  1  0.75000000  0.28365922  0.19596326  1
  Nd  Nd8  1  0.75000000  0.61625780  0.55775223  1
  Nd  Nd9  1  0.25000000  0.38374220  0.44224777  1
  Nd  Nd10  1  0.25000000  0.88374220  0.05775223  1
  Nd  Nd11  1  0.75000000  0.11625780  0.94224777  1
  Ni  Ni12  1  0.75000000  0.86996875  0.86615175  1
  Ni  Ni13  1  0.25000000  0.13003125  0.13384825  1
  Ni  Ni14  1  0.25000000  0.63003125  0.36615175  1
  Ni  Ni15  1  0.75000000  0.36996875  0.63384825  1
  Ge  Ge16  1  0.75000000  0.52373775  0.31271856  1
  Ge  Ge17  1  0.25000000  0.47626225  0.68728144  1
  Ge  Ge18  1  0.25000000  0.97626225  0.81271856  1
  Ge  Ge19  1  0.75000000  0.02373775  0.18728144  1
  Ge  Ge20  1  0.75000000  0.69617512  0.99515441  1
  Ge  Ge21  1  0.25000000  0.30382488  0.00484559  1
  Ge  Ge22  1  0.25000000  0.80382488  0.49515441  1
  Ge  Ge23  1  0.75000000  0.19617512  0.50484559  1
