# generated using pymatgen
data_NaNd(CO3)2
_symmetry_space_group_name_H-M   'P 1'
_cell_length_a   5.16955491
_cell_length_b   6.41023047
_cell_length_c   7.15275684
_cell_angle_alpha   90.00000000
_cell_angle_beta   90.00000000
_cell_angle_gamma   90.00000000
_symmetry_Int_Tables_number   1
_chemical_formula_structural   NaNd(CO3)2
_chemical_formula_sum   'Na2 Nd2 C4 O12'
_cell_volume   237.02833083
_cell_formula_units_Z   2
loop_
 _symmetry_equiv_pos_site_id
 _symmetry_equiv_pos_as_xyz
  1  'x, y, z'
loop_
 _atom_site_type_symbol
 _atom_site_label
 _atom_site_symmetry_multiplicity
 _atom_site_fract_x
 _atom_site_fract_y
 _atom_site_fract_z
 _atom_site_occupancy
  Na  Na0  1  0.00000000  0.48228367  0.02779390  1
  Na  Na1  1  -0.00000000  0.51771633  0.52779390  1
  Nd  Nd2  1  0.50000000  0.12979015  0.32795812  1
  Nd  Nd3  1  0.50000000  0.87020985  0.82795812  1
  C  C4  1  0.50000000  0.58018341  0.24320093  1
  C  C5  1  0.50000000  0.41981659  0.74320093  1
  C  C6  1  0.00000000  0.03632118  0.99855998  1
  C  C7  1  -0.00000000  0.96367882  0.49855998  1
  O  O8  1  0.00000000  0.14193361  0.41446935  1
  O  O9  1  0.00000000  0.85806639  0.91446935  1
  O  O10  1  0.28744350  0.48366028  0.28024663  1
  O  O11  1  0.71255650  0.51633972  0.78024663  1
  O  O12  1  0.28744350  0.51633972  0.78024663  1
  O  O13  1  0.71255650  0.48366028  0.28024663  1
  O  O14  1  0.22075829  0.12522293  0.03434743  1
  O  O15  1  0.77924171  0.87477707  0.53434743  1
  O  O16  1  0.22075829  0.87477707  0.53434743  1
  O  O17  1  0.77924171  0.12522293  0.03434743  1
  O  O18  1  0.50000000  0.23465395  0.66482959  1
  O  O19  1  0.50000000  0.76534605  0.16482959  1
