# generated using pymatgen
data_NaH4C3N3O4
_symmetry_space_group_name_H-M   'P 1'
_cell_length_a   3.88223356
_cell_length_b   9.13692355
_cell_length_c   9.35840205
_cell_angle_alpha   91.51894812
_cell_angle_beta   95.51577212
_cell_angle_gamma   91.21168992
_symmetry_Int_Tables_number   1
_chemical_formula_structural   NaH4C3N3O4
_chemical_formula_sum   'Na2 H8 C6 N6 O8'
_cell_volume   330.21135158
_cell_formula_units_Z   2
loop_
 _symmetry_equiv_pos_site_id
 _symmetry_equiv_pos_as_xyz
  1  'x, y, z'
loop_
 _atom_site_type_symbol
 _atom_site_label
 _atom_site_symmetry_multiplicity
 _atom_site_fract_x
 _atom_site_fract_y
 _atom_site_fract_z
 _atom_site_occupancy
  Na  Na0  1  0.34323750  0.61994733  0.13879716  1
  Na  Na1  1  0.65676250  0.38005267  0.86120284  1
  H  H2  1  0.41689609  0.11736813  0.01372391  1
  H  H3  1  0.58310391  0.88263187  0.98627609  1
  H  H4  1  0.07799786  0.34965806  0.62281408  1
  H  H5  1  0.92200214  0.65034194  0.37718592  1
  H  H6  1  0.06067864  0.51239225  0.68671168  1
  H  H7  1  0.93932136  0.48760775  0.31328832  1
  H  H8  1  0.13383932  0.95173069  0.39228422  1
  H  H9  1  0.86616068  0.04826931  0.60771578  1
  C  C10  1  0.10094675  0.17997471  0.37352149  1
  C  C11  1  0.89905325  0.82002529  0.62647851  1
  C  C12  1  0.24167228  0.27166461  0.15597601  1
  C  C13  1  0.75832772  0.72833539  0.84402399  1
  C  C14  1  0.29325789  0.00921785  0.19490406  1
  C  C15  1  0.70674211  0.99078215  0.80509594  1
  N  N16  1  0.17716434  0.03817373  0.32548364  1
  N  N17  1  0.82283566  0.96182627  0.67451636  1
  N  N18  1  0.12806882  0.29429451  0.28625640  1
  N  N19  1  0.87193118  0.70570549  0.71374360  1
  N  N20  1  0.32592532  0.12998303  0.11363473  1
  N  N21  1  0.67407468  0.87001697  0.88636527  1
  O  O22  1  0.36673484  0.88404957  0.15137137  1
  O  O23  1  0.63326516  0.11595043  0.84862863  1
  O  O24  1  0.27642336  0.37106681  0.06708574  1
  O  O25  1  0.72357664  0.62893319  0.93291426  1
  O  O26  1  0.00500219  0.19296765  0.49777755  1
  O  O27  1  0.99499781  0.80703235  0.50222245  1
  O  O28  1  0.12039683  0.41060405  0.71187311  1
  O  O29  1  0.87960317  0.58939595  0.28812689  1
