# generated using pymatgen
data_Na6Mn(SO4)4
_symmetry_space_group_name_H-M   'P 1'
_cell_length_a   8.42120555
_cell_length_b   9.40018928
_cell_length_c   10.01119989
_cell_angle_alpha   90.00000000
_cell_angle_beta   113.69649834
_cell_angle_gamma   90.00000000
_symmetry_Int_Tables_number   1
_chemical_formula_structural   Na6Mn(SO4)4
_chemical_formula_sum   'Na12 Mn2 S8 O32'
_cell_volume   725.67827600
_cell_formula_units_Z   2
loop_
 _symmetry_equiv_pos_site_id
 _symmetry_equiv_pos_as_xyz
  1  'x, y, z'
loop_
 _atom_site_type_symbol
 _atom_site_label
 _atom_site_symmetry_multiplicity
 _atom_site_fract_x
 _atom_site_fract_y
 _atom_site_fract_z
 _atom_site_occupancy
  Na  Na0  1  0.91110984  0.84877681  0.55301782  1
  Na  Na1  1  0.08889016  0.15122319  0.44698218  1
  Na  Na2  1  0.58889016  0.34877681  0.44698218  1
  Na  Na3  1  0.41110984  0.65122319  0.55301782  1
  Na  Na4  1  0.53223580  0.98473223  0.68858215  1
  Na  Na5  1  0.46776420  0.01526777  0.31141785  1
  Na  Na6  1  0.96776420  0.48473223  0.31141785  1
  Na  Na7  1  0.03223580  0.51526777  0.68858215  1
  Na  Na8  1  0.81650672  0.36268187  0.88929813  1
  Na  Na9  1  0.18349328  0.63731813  0.11070187  1
  Na  Na10  1  0.68349328  0.86268187  0.11070187  1
  Na  Na11  1  0.31650672  0.13731813  0.88929813  1
  Mn  Mn12  1  0.00000000  0.00000000  0.00000000  1
  Mn  Mn13  1  0.50000000  0.50000000  0.00000000  1
  S  S14  1  0.77507495  0.69367995  0.85908568  1
  S  S15  1  0.22492505  0.30632005  0.14091432  1
  S  S16  1  0.72492505  0.19367995  0.14091432  1
  S  S17  1  0.27507495  0.80632005  0.85908568  1
  S  S18  1  0.65517004  0.64835261  0.33970203  1
  S  S19  1  0.34482996  0.35164739  0.66029797  1
  S  S20  1  0.84482996  0.14835261  0.66029797  1
  S  S21  1  0.15517004  0.85164739  0.33970203  1
  O  O22  1  0.84181525  0.81188493  0.96928510  1
  O  O23  1  0.15818475  0.18811507  0.03071490  1
  O  O24  1  0.65818475  0.31188493  0.03071490  1
  O  O25  1  0.34181525  0.68811507  0.96928510  1
  O  O26  1  0.92308791  0.60403787  0.86332142  1
  O  O27  1  0.07691209  0.39596213  0.13667858  1
  O  O28  1  0.57691209  0.10403787  0.13667858  1
  O  O29  1  0.42308791  0.89596213  0.86332142  1
  O  O30  1  0.00183371  0.91520894  0.35464870  1
  O  O31  1  0.99816629  0.08479106  0.64535130  1
  O  O32  1  0.49816629  0.41520894  0.64535130  1
  O  O33  1  0.50183371  0.58479106  0.35464870  1
  O  O34  1  0.67989521  0.75521373  0.71172730  1
  O  O35  1  0.32010479  0.24478627  0.28827270  1
  O  O36  1  0.82010479  0.25521373  0.28827270  1
  O  O37  1  0.17989521  0.74478627  0.71172730  1
  O  O38  1  0.65894150  0.60446712  0.90365721  1
  O  O39  1  0.34105850  0.39553288  0.09634279  1
  O  O40  1  0.84105850  0.10446712  0.09634279  1
  O  O41  1  0.15894150  0.89553288  0.90365721  1
  O  O42  1  0.81799165  0.60423867  0.46395895  1
  O  O43  1  0.18200835  0.39576133  0.53604105  1
  O  O44  1  0.68200835  0.10423867  0.53604105  1
  O  O45  1  0.31799165  0.89576133  0.46395895  1
  O  O46  1  0.32914982  0.40358356  0.79711657  1
  O  O47  1  0.67085018  0.59641644  0.20288343  1
  O  O48  1  0.17085018  0.90358356  0.20288343  1
  O  O49  1  0.82914982  0.09641644  0.79711657  1
  O  O50  1  0.85874249  0.30647479  0.66827169  1
  O  O51  1  0.14125751  0.69352521  0.33172831  1
  O  O52  1  0.64125751  0.80647479  0.33172831  1
  O  O53  1  0.35874249  0.19352521  0.66827169  1
