# generated using pymatgen
data_NaBi(MoO4)2
_symmetry_space_group_name_H-M   'P 1'
_cell_length_a   5.32885574
_cell_length_b   5.32885574
_cell_length_c   6.93707585
_cell_angle_alpha   112.58695744
_cell_angle_beta   112.58695744
_cell_angle_gamma   90.00000000
_symmetry_Int_Tables_number   1
_chemical_formula_structural   NaBi(MoO4)2
_chemical_formula_sum   'Na1 Bi1 Mo2 O8'
_cell_volume   165.39628120
_cell_formula_units_Z   1
loop_
 _symmetry_equiv_pos_site_id
 _symmetry_equiv_pos_as_xyz
  1  'x, y, z'
loop_
 _atom_site_type_symbol
 _atom_site_label
 _atom_site_symmetry_multiplicity
 _atom_site_fract_x
 _atom_site_fract_y
 _atom_site_fract_z
 _atom_site_occupancy
  Na  Na0  1  0.75000000  0.25000000  0.50000000  1
  Bi  Bi1  1  0.50000000  0.50000000  -0.00000000  1
  Mo  Mo2  1  -0.00000000  0.00000000  -0.00000000  1
  Mo  Mo3  1  0.25000000  0.75000000  0.50000000  1
  O  O4  1  0.48094333  0.59437947  0.67254502  1
  O  O5  1  0.19160169  0.07816555  0.67254502  1
  O  O6  1  0.92183445  0.51905667  0.32745498  1
  O  O7  1  0.40562053  0.80839831  0.32745498  1
  O  O8  1  0.32465722  0.23796807  0.16469646  1
  O  O9  1  0.84003924  0.92672840  0.16469646  1
  O  O10  1  0.07327160  0.67534278  0.83530354  1
  O  O11  1  0.76203193  0.15996076  0.83530354  1
