# generated using pymatgen
data_Na2ZrS3
_symmetry_space_group_name_H-M   'P 1'
_cell_length_a   6.70475081
_cell_length_b   6.70917027
_cell_length_c   6.98804236
_cell_angle_alpha   80.69781950
_cell_angle_beta   71.12551829
_cell_angle_gamma   60.02179516
_symmetry_Int_Tables_number   1
_chemical_formula_structural   Na2ZrS3
_chemical_formula_sum   'Na4 Zr2 S6'
_cell_volume   257.64958824
_cell_formula_units_Z   2
loop_
 _symmetry_equiv_pos_site_id
 _symmetry_equiv_pos_as_xyz
  1  'x, y, z'
loop_
 _atom_site_type_symbol
 _atom_site_label
 _atom_site_symmetry_multiplicity
 _atom_site_fract_x
 _atom_site_fract_y
 _atom_site_fract_z
 _atom_site_occupancy
  Na  Na0  1  0.34091656  0.31816688  0.50000000  1
  Na  Na1  1  0.65908344  0.68183312  0.50000000  1
  Na  Na2  1  0.50000000  -0.00000000  -0.00000000  1
  Na  Na3  1  -0.00000000  -0.00000000  0.50000000  1
  Zr  Zr4  1  0.16821295  0.66357411  1.00000000  1
  Zr  Zr5  1  0.83178705  0.33642589  0.00000000  1
  S  S6  1  0.21380447  1.00000000  0.77847585  1
  S  S7  1  0.78619553  0.00000000  0.22152415  1
  S  S8  1  0.57446427  0.36113348  0.77816062  1
  S  S9  1  0.42553573  0.63886652  0.22183938  1
  S  S10  1  0.06440225  0.36113348  0.22183938  1
  S  S11  1  0.93559775  0.63886652  0.77816062  1
