# generated using pymatgen
data_CoP2O7
_symmetry_space_group_name_H-M   'P 1'
_cell_length_a   8.99891028
_cell_length_b   9.52326117
_cell_length_c   12.87783082
_cell_angle_alpha   90.00000000
_cell_angle_beta   90.00000000
_cell_angle_gamma   109.85798913
_symmetry_Int_Tables_number   1
_chemical_formula_structural   CoP2O7
_chemical_formula_sum   'Co8 P16 O56'
_cell_volume   1037.99300044
_cell_formula_units_Z   8
loop_
 _symmetry_equiv_pos_site_id
 _symmetry_equiv_pos_as_xyz
  1  'x, y, z'
loop_
 _atom_site_type_symbol
 _atom_site_label
 _atom_site_symmetry_multiplicity
 _atom_site_fract_x
 _atom_site_fract_y
 _atom_site_fract_z
 _atom_site_occupancy
  Co  Co0  1  0.24625523  0.74599531  0.75346072  1
  Co  Co1  1  0.75374477  0.75400469  0.25346072  1
  Co  Co2  1  0.75374477  0.25400469  0.24653928  1
  Co  Co3  1  0.24625523  0.24599531  0.74653928  1
  Co  Co4  1  0.25095151  0.50231834  0.58767062  1
  Co  Co5  1  0.74904849  0.99768166  0.08767062  1
  Co  Co6  1  0.74904849  0.49768166  0.41232938  1
  Co  Co7  1  0.25095151  0.00231834  0.91232938  1
  P  P8  1  0.48289568  0.56687636  0.78795911  1
  P  P9  1  0.51710432  0.93312364  0.28795911  1
  P  P10  1  0.51710432  0.43312364  0.21204089  1
  P  P11  1  0.48289568  0.06687636  0.71204089  1
  P  P12  1  0.44142258  0.26254710  0.53669736  1
  P  P13  1  0.55857742  0.23745290  0.03669736  1
  P  P14  1  0.55857742  0.73745290  0.46330264  1
  P  P15  1  0.44142258  0.76254710  0.96330264  1
  P  P16  1  0.00786456  0.42652057  0.77773856  1
  P  P17  1  0.99213544  0.07347943  0.27773856  1
  P  P18  1  0.99213544  0.57347943  0.22226144  1
  P  P19  1  0.00786456  0.92652057  0.72226144  1
  P  P20  1  0.04340099  0.23073966  0.95172404  1
  P  P21  1  0.95659901  0.26926034  0.45172404  1
  P  P22  1  0.95659901  0.76926034  0.04827596  1
  P  P23  1  0.04340099  0.73073966  0.54827596  1
  O  O24  1  0.37459313  0.62796372  0.71779497  1
  O  O25  1  0.62540687  0.87203628  0.21779497  1
  O  O26  1  0.62540687  0.37203628  0.28220503  1
  O  O27  1  0.37459313  0.12796372  0.78220503  1
  O  O28  1  0.39047830  0.40320983  0.81977428  1
  O  O29  1  0.60952170  0.09679017  0.31977428  1
  O  O30  1  0.60952170  0.59679017  0.18022572  1
  O  O31  1  0.39047830  0.90320983  0.68022572  1
  O  O32  1  0.63722606  0.58518428  0.73639193  1
  O  O33  1  0.36277394  0.91481572  0.23639193  1
  O  O34  1  0.36277394  0.41481572  0.26360807  1
  O  O35  1  0.63722606  0.08518428  0.76360807  1
  O  O36  1  0.50601891  0.65498616  0.89477502  1
  O  O37  1  0.49398109  0.84501384  0.39477502  1
  O  O38  1  0.49398109  0.34501384  0.10522498  1
  O  O39  1  0.50601891  0.15498616  0.60522498  1
  O  O40  1  0.41076422  0.60789741  0.49531051  1
  O  O41  1  0.58923578  0.89210259  0.99531051  1
  O  O42  1  0.58923578  0.39210259  0.50468949  1
  O  O43  1  0.41076422  0.10789741  0.00468949  1
  O  O44  1  0.34812998  0.18080647  0.44540672  1
  O  O45  1  0.65187002  0.31919353  0.94540672  1
  O  O46  1  0.65187002  0.81919353  0.55459328  1
  O  O47  1  0.34812998  0.68080647  0.05459328  1
  O  O48  1  0.34431803  0.32577995  0.61494377  1
  O  O49  1  0.65568197  0.17422005  0.11494377  1
  O  O50  1  0.65568197  0.67422005  0.38505623  1
  O  O51  1  0.34431803  0.82577995  0.88505623  1
  O  O52  1  0.12237417  0.36897447  0.70988028  1
  O  O53  1  0.87762583  0.13102553  0.20988028  1
  O  O54  1  0.87762583  0.63102553  0.29011972  1
  O  O55  1  0.12237417  0.86897447  0.79011972  1
  O  O56  1  0.10232796  0.08322932  0.67688397  1
  O  O57  1  0.89767204  0.41677068  0.17688397  1
  O  O58  1  0.89767204  0.91677068  0.32311603  1
  O  O59  1  0.10232796  0.58322932  0.82311603  1
  O  O60  1  0.86482003  0.42220620  0.71783284  1
  O  O61  1  0.13517997  0.07779380  0.21783284  1
  O  O62  1  0.13517997  0.57779380  0.28216716  1
  O  O63  1  0.86482003  0.92220620  0.78216716  1
  O  O64  1  0.96413153  0.31791748  0.87483949  1
  O  O65  1  0.03586847  0.18208252  0.37483949  1
  O  O66  1  0.03586847  0.68208252  0.12516051  1
  O  O67  1  0.96413153  0.81791748  0.62516051  1
  O  O68  1  0.90454185  0.09770280  0.98972560  1
  O  O69  1  0.09545815  0.40229720  0.48972560  1
  O  O70  1  0.09545815  0.90229720  0.01027440  1
  O  O71  1  0.90454185  0.59770280  0.51027440  1
  O  O72  1  0.13456574  0.32935370  0.03733639  1
  O  O73  1  0.86543426  0.17064630  0.53733639  1
  O  O74  1  0.86543426  0.67064630  0.96266361  1
  O  O75  1  0.13456574  0.82935370  0.46266361  1
  O  O76  1  0.14953902  0.66896692  0.62120679  1
  O  O77  1  0.85046098  0.83103308  0.12120679  1
  O  O78  1  0.85046098  0.33103308  0.37879321  1
  O  O79  1  0.14953902  0.16896692  0.87879321  1
