# generated using pymatgen
data_Lu6Co2Sn
_symmetry_space_group_name_H-M   'P 1'
_cell_length_a   8.16470228
_cell_length_b   8.16470228
_cell_length_c   8.16470228
_cell_angle_alpha   106.83362197
_cell_angle_beta   110.25572048
_cell_angle_gamma   111.35809671
_symmetry_Int_Tables_number   1
_chemical_formula_structural   Lu6Co2Sn
_chemical_formula_sum   'Lu12 Co4 Sn2'
_cell_volume   418.28291043
_cell_formula_units_Z   2
loop_
 _symmetry_equiv_pos_site_id
 _symmetry_equiv_pos_as_xyz
  1  'x, y, z'
loop_
 _atom_site_type_symbol
 _atom_site_label
 _atom_site_symmetry_multiplicity
 _atom_site_fract_x
 _atom_site_fract_y
 _atom_site_fract_z
 _atom_site_occupancy
  Lu  Lu0  1  0.78888563  0.76419251  0.55307814  1
  Lu  Lu1  1  0.21111437  0.23580749  0.44692186  1
  Lu  Lu2  1  0.21111437  0.76419251  0.97530689  1
  Lu  Lu3  1  0.78888563  0.23580749  0.02469311  1
  Lu  Lu4  1  0.53008013  0.71475859  0.81532154  1
  Lu  Lu5  1  0.46991987  0.28524141  0.18467846  1
  Lu  Lu6  1  0.10056295  0.28524141  0.81532154  1
  Lu  Lu7  1  0.89943705  0.71475859  0.18467846  1
  Lu  Lu8  1  0.69170900  0.37149438  0.67978537  1
  Lu  Lu9  1  0.30829100  0.62850562  0.32021463  1
  Lu  Lu10  1  0.30829100  0.98807637  0.67978537  1
  Lu  Lu11  1  0.69170900  0.01192363  0.32021463  1
  Co  Co12  1  0.63712096  0.00000000  0.63712096  1
  Co  Co13  1  0.36287904  -0.00000000  0.36287904  1
  Co  Co14  1  0.50000000  0.38552497  0.88552497  1
  Co  Co15  1  0.50000000  0.61447503  0.11447503  1
  Sn  Sn16  1  0.00000000  0.50000000  0.50000000  1
  Sn  Sn17  1  0.00000000  -0.00000000  0.00000000  1
