# generated using pymatgen
data_Nd3Ho2(GaO4)3
_symmetry_space_group_name_H-M   'P 1'
_cell_length_a   11.32427467
_cell_length_b   11.32427467
_cell_length_c   11.32427467
_cell_angle_alpha   109.47122063
_cell_angle_beta   109.47122063
_cell_angle_gamma   109.47122063
_symmetry_Int_Tables_number   1
_chemical_formula_structural   Nd3Ho2(GaO4)3
_chemical_formula_sum   'Nd12 Ho8 Ga12 O48'
_cell_volume   1117.91631230
_cell_formula_units_Z   4
loop_
 _symmetry_equiv_pos_site_id
 _symmetry_equiv_pos_as_xyz
  1  'x, y, z'
loop_
 _atom_site_type_symbol
 _atom_site_label
 _atom_site_symmetry_multiplicity
 _atom_site_fract_x
 _atom_site_fract_y
 _atom_site_fract_z
 _atom_site_occupancy
  Nd  Nd0  1  0.87500000  0.62500000  0.75000000  1
  Nd  Nd1  1  0.12500000  0.37500000  0.25000000  1
  Nd  Nd2  1  0.62500000  0.87500000  0.25000000  1
  Nd  Nd3  1  0.62500000  0.75000000  0.87500000  1
  Nd  Nd4  1  0.87500000  0.25000000  0.62500000  1
  Nd  Nd5  1  0.37500000  0.12500000  0.75000000  1
  Nd  Nd6  1  0.37500000  0.25000000  0.12500000  1
  Nd  Nd7  1  0.12500000  0.75000000  0.37500000  1
  Nd  Nd8  1  0.75000000  0.87500000  0.62500000  1
  Nd  Nd9  1  0.25000000  0.12500000  0.37500000  1
  Nd  Nd10  1  0.25000000  0.62500000  0.87500000  1
  Nd  Nd11  1  0.75000000  0.37500000  0.12500000  1
  Ho  Ho12  1  0.00000000  0.00000000  0.00000000  1
  Ho  Ho13  1  0.50000000  0.00000000  0.50000000  1
  Ho  Ho14  1  0.50000000  0.50000000  0.00000000  1
  Ho  Ho15  1  0.00000000  0.00000000  0.50000000  1
  Ho  Ho16  1  0.00000000  0.50000000  0.50000000  1
  Ho  Ho17  1  0.50000000  0.50000000  0.50000000  1
  Ho  Ho18  1  0.50000000  0.00000000  0.00000000  1
  Ho  Ho19  1  0.00000000  0.50000000  0.00000000  1
  Ga  Ga20  1  0.62500000  0.37500000  0.75000000  1
  Ga  Ga21  1  0.37500000  0.62500000  0.25000000  1
  Ga  Ga22  1  0.87500000  0.12500000  0.25000000  1
  Ga  Ga23  1  0.37500000  0.75000000  0.62500000  1
  Ga  Ga24  1  0.62500000  0.25000000  0.37500000  1
  Ga  Ga25  1  0.12500000  0.87500000  0.75000000  1
  Ga  Ga26  1  0.12500000  0.25000000  0.87500000  1
  Ga  Ga27  1  0.87500000  0.75000000  0.12500000  1
  Ga  Ga28  1  0.75000000  0.62500000  0.37500000  1
  Ga  Ga29  1  0.25000000  0.37500000  0.62500000  1
  Ga  Ga30  1  0.25000000  0.87500000  0.12500000  1
  Ga  Ga31  1  0.75000000  0.12500000  0.87500000  1
  O  O32  1  0.71674888  0.62817764  0.52825239  1
  O  O33  1  0.28325112  0.37182236  0.47174761  1
  O  O34  1  0.78325112  0.81150350  0.41142875  1
  O  O35  1  0.40007475  0.87182236  0.08857125  1
  O  O36  1  0.62817764  0.52825239  0.71674888  1
  O  O37  1  0.71674888  0.08857125  0.68849650  1
  O  O38  1  0.21674888  0.18849650  0.58857125  1
  O  O39  1  0.59992525  0.12817764  0.91142875  1
  O  O40  1  0.37182236  0.47174761  0.28325112  1
  O  O41  1  0.28325112  0.91142875  0.31150350  1
  O  O42  1  0.09992525  0.68849650  0.97174761  1
  O  O43  1  0.81150350  0.41142875  0.78325112  1
  O  O44  1  0.78325112  0.97174761  0.87182236  1
  O  O45  1  0.90007475  0.31150350  0.02825239  1
  O  O46  1  0.18849650  0.58857125  0.21674888  1
  O  O47  1  0.21674888  0.02825239  0.12817764  1
  O  O48  1  0.87182236  0.08857125  0.40007475  1
  O  O49  1  0.40007475  0.52825239  0.81150350  1
  O  O50  1  0.12817764  0.91142875  0.59992525  1
  O  O51  1  0.59992525  0.47174761  0.18849650  1
  O  O52  1  0.68849650  0.97174761  0.09992525  1
  O  O53  1  0.09992525  0.41142875  0.62817764  1
  O  O54  1  0.31150350  0.02825239  0.90007475  1
  O  O55  1  0.90007475  0.58857125  0.37182236  1
  O  O56  1  0.52825239  0.71674888  0.62817764  1
  O  O57  1  0.62817764  0.09992525  0.41142875  1
  O  O58  1  0.47174761  0.28325112  0.37182236  1
  O  O59  1  0.37182236  0.90007475  0.58857125  1
  O  O60  1  0.08857125  0.40007475  0.87182236  1
  O  O61  1  0.87182236  0.78325112  0.97174761  1
  O  O62  1  0.91142875  0.59992525  0.12817764  1
  O  O63  1  0.12817764  0.21674888  0.02825239  1
  O  O64  1  0.97174761  0.09992525  0.68849650  1
  O  O65  1  0.68849650  0.71674888  0.08857125  1
  O  O66  1  0.02825239  0.90007475  0.31150350  1
  O  O67  1  0.31150350  0.28325112  0.91142875  1
  O  O68  1  0.41142875  0.78325112  0.81150350  1
  O  O69  1  0.81150350  0.40007475  0.52825239  1
  O  O70  1  0.58857125  0.21674888  0.18849650  1
  O  O71  1  0.18849650  0.59992525  0.47174761  1
  O  O72  1  0.08857125  0.68849650  0.71674888  1
  O  O73  1  0.91142875  0.31150350  0.28325112  1
  O  O74  1  0.97174761  0.87182236  0.78325112  1
  O  O75  1  0.02825239  0.12817764  0.21674888  1
  O  O76  1  0.41142875  0.62817764  0.09992525  1
  O  O77  1  0.58857125  0.37182236  0.90007475  1
  O  O78  1  0.52825239  0.81150350  0.40007475  1
  O  O79  1  0.47174761  0.18849650  0.59992525  1
