# generated using pymatgen
data_Re3Br7
_symmetry_space_group_name_H-M   'P 1'
_cell_length_a   10.18700179
_cell_length_b   10.76618703
_cell_length_c   14.90829478
_cell_angle_alpha   92.83595600
_cell_angle_beta   102.15779942
_cell_angle_gamma   101.51257125
_symmetry_Int_Tables_number   1
_chemical_formula_structural   Re3Br7
_chemical_formula_sum   'Re12 Br28'
_cell_volume   1559.07563826
_cell_formula_units_Z   4
loop_
 _symmetry_equiv_pos_site_id
 _symmetry_equiv_pos_as_xyz
  1  'x, y, z'
loop_
 _atom_site_type_symbol
 _atom_site_label
 _atom_site_symmetry_multiplicity
 _atom_site_fract_x
 _atom_site_fract_y
 _atom_site_fract_z
 _atom_site_occupancy
  Re  Re0  1  0.32312261  0.24567810  0.11704277  1
  Re  Re1  1  0.67687739  0.75432190  0.88295723  1
  Re  Re2  1  0.56552301  0.13447176  0.28414098  1
  Re  Re3  1  0.43447699  0.86552824  0.71585902  1
  Re  Re4  1  0.32111192  0.04237950  0.16129493  1
  Re  Re5  1  0.67888808  0.95762050  0.83870507  1
  Re  Re6  1  0.33205504  0.17669235  0.31731640  1
  Re  Re7  1  0.66794496  0.82330765  0.68268360  1
  Re  Re8  1  0.33138701  0.38905659  0.27275953  1
  Re  Re9  1  0.66861299  0.61094341  0.72724047  1
  Re  Re10  1  0.56611160  0.33640461  0.23884180  1
  Re  Re11  1  0.43388840  0.66359539  0.76115820  1
  Br  Br12  1  0.21732569  0.14222217  0.44896674  1
  Br  Br13  1  0.78267431  0.85777783  0.55103326  1
  Br  Br14  1  0.11032115  0.31627842  0.14729303  1
  Br  Br15  1  0.88967885  0.68372158  0.85270697  1
  Br  Br16  1  0.54797807  0.29285007  0.06978156  1
  Br  Br17  1  0.45202193  0.70714993  0.93021844  1
  Br  Br18  1  0.56688299  0.48369348  0.37872267  1
  Br  Br19  1  0.43311701  0.51630652  0.62127733  1
  Br  Br20  1  0.54974819  0.00771163  0.13308399  1
  Br  Br21  1  0.45025181  0.99228837  0.86691601  1
  Br  Br22  1  0.60541207  0.10613382  0.69686483  1
  Br  Br23  1  0.39458793  0.89386618  0.30313517  1
  Br  Br24  1  0.19504912  0.54673295  0.75225680  1
  Br  Br25  1  0.80495088  0.45326705  0.24774320  1
  Br  Br26  1  0.21795779  0.23598157  0.94992987  1
  Br  Br27  1  0.78204221  0.76401843  0.05007013  1
  Br  Br28  1  0.21324954  0.48682066  0.37409442  1
  Br  Br29  1  0.78675046  0.51317934  0.62590558  1
  Br  Br30  1  0.10909411  0.03312299  0.22664945  1
  Br  Br31  1  0.89090589  0.96687701  0.77335055  1
  Br  Br32  1  0.80447277  0.10704113  0.33946432  1
  Br  Br33  1  0.19552723  0.89295887  0.66053568  1
  Br  Br34  1  0.54459088  0.19165576  0.44572902  1
  Br  Br35  1  0.45540912  0.80834424  0.55427098  1
  Br  Br36  1  0.40690127  0.54926050  0.16103230  1
  Br  Br37  1  0.59309873  0.45073950  0.83896770  1
  Br  Br38  1  0.19635042  0.88420559  0.02849352  1
  Br  Br39  1  0.80364958  0.11579441  0.97150648  1
