# generated using pymatgen
data_Na3ErBr6
_symmetry_space_group_name_H-M   'P 1'
_cell_length_a   7.34068133
_cell_length_b   7.73619255
_cell_length_c   10.91476719
_cell_angle_alpha   90.00000000
_cell_angle_beta   91.01484289
_cell_angle_gamma   90.00000000
_symmetry_Int_Tables_number   1
_chemical_formula_structural   Na3ErBr6
_chemical_formula_sum   'Na6 Er2 Br12'
_cell_volume   619.74065981
_cell_formula_units_Z   2
loop_
 _symmetry_equiv_pos_site_id
 _symmetry_equiv_pos_as_xyz
  1  'x, y, z'
loop_
 _atom_site_type_symbol
 _atom_site_label
 _atom_site_symmetry_multiplicity
 _atom_site_fract_x
 _atom_site_fract_y
 _atom_site_fract_z
 _atom_site_occupancy
  Na  Na0  1  -0.00000000  0.00000000  0.50000000  1
  Na  Na1  1  0.50000000  0.50000000  -0.00000000  1
  Na  Na2  1  0.98097509  0.56662189  0.26272598  1
  Na  Na3  1  0.01902491  0.43337811  0.73727402  1
  Na  Na4  1  0.51902491  0.06662189  0.23727402  1
  Na  Na5  1  0.48097509  0.93337811  0.76272598  1
  Er  Er6  1  0.00000000  0.00000000  0.00000000  1
  Er  Er7  1  0.50000000  0.50000000  0.50000000  1
  Br  Br8  1  0.83419252  0.30444676  0.07895987  1
  Br  Br9  1  0.16580748  0.69555324  0.92104013  1
  Br  Br10  1  0.66580748  0.80444676  0.42104013  1
  Br  Br11  1  0.33419252  0.19555324  0.57895987  1
  Br  Br12  1  0.13598835  0.93321141  0.23692566  1
  Br  Br13  1  0.86401165  0.06678859  0.76307434  1
  Br  Br14  1  0.36401165  0.43321141  0.26307434  1
  Br  Br15  1  0.63598835  0.56678859  0.73692566  1
  Br  Br16  1  0.68754635  0.82207314  0.06154949  1
  Br  Br17  1  0.31245365  0.17792686  0.93845051  1
  Br  Br18  1  0.81245365  0.32207314  0.43845051  1
  Br  Br19  1  0.18754635  0.67792686  0.56154949  1
