# generated using pymatgen
data_Nd23Cd4Pt7
_symmetry_space_group_name_H-M   'P 1'
_cell_length_a   10.09837508
_cell_length_b   10.09837508
_cell_length_c   22.84586643
_cell_angle_alpha   90.00000000
_cell_angle_beta   90.00000000
_cell_angle_gamma   119.99999788
_symmetry_Int_Tables_number   1
_chemical_formula_structural   Nd23Cd4Pt7
_chemical_formula_sum   'Nd46 Cd8 Pt14'
_cell_volume   2017.62880241
_cell_formula_units_Z   2
loop_
 _symmetry_equiv_pos_site_id
 _symmetry_equiv_pos_as_xyz
  1  'x, y, z'
loop_
 _atom_site_type_symbol
 _atom_site_label
 _atom_site_symmetry_multiplicity
 _atom_site_fract_x
 _atom_site_fract_y
 _atom_site_fract_z
 _atom_site_occupancy
  Nd  Nd0  1  0.20540138  0.41080276  0.72093340  1
  Nd  Nd1  1  0.20540138  0.79459862  0.72093340  1
  Nd  Nd2  1  0.79459862  0.58919724  0.22093340  1
  Nd  Nd3  1  0.58919724  0.79459862  0.72093340  1
  Nd  Nd4  1  0.79459862  0.20540138  0.22093340  1
  Nd  Nd5  1  0.41080276  0.20540138  0.22093340  1
  Nd  Nd6  1  0.79428007  0.58856014  0.94540320  1
  Nd  Nd7  1  0.79428007  0.20571993  0.94540320  1
  Nd  Nd8  1  0.20571993  0.41143986  0.44540320  1
  Nd  Nd9  1  0.41143986  0.20571993  0.94540320  1
  Nd  Nd10  1  0.20571993  0.79428007  0.44540320  1
  Nd  Nd11  1  0.58856014  0.79428007  0.44540320  1
  Nd  Nd12  1  0.21133406  0.42266811  0.98939241  1
  Nd  Nd13  1  0.21133406  0.78866594  0.98939241  1
  Nd  Nd14  1  0.78866594  0.57733189  0.48939241  1
  Nd  Nd15  1  0.57733189  0.78866594  0.98939241  1
  Nd  Nd16  1  0.78866594  0.21133406  0.48939241  1
  Nd  Nd17  1  0.42266811  0.21133406  0.48939241  1
  Nd  Nd18  1  0.87114149  0.74228298  0.63627429  1
  Nd  Nd19  1  0.87114149  0.12885851  0.63627429  1
  Nd  Nd20  1  0.12885851  0.25771702  0.13627429  1
  Nd  Nd21  1  0.25771702  0.12885851  0.63627429  1
  Nd  Nd22  1  0.12885851  0.87114149  0.13627429  1
  Nd  Nd23  1  0.74228298  0.87114149  0.13627429  1
  Nd  Nd24  1  0.45645111  0.91290222  0.85625913  1
  Nd  Nd25  1  0.45645111  0.54354889  0.85625913  1
  Nd  Nd26  1  0.54354889  0.08709778  0.35625913  1
  Nd  Nd27  1  0.08709778  0.54354889  0.85625913  1
  Nd  Nd28  1  0.54354889  0.45645111  0.35625913  1
  Nd  Nd29  1  0.91290222  0.45645111  0.35625913  1
  Nd  Nd30  1  -0.00000000  -0.00000000  0.99606676  1
  Nd  Nd31  1  -0.00000000  -0.00000000  0.49606676  1
  Nd  Nd32  1  0.46130772  0.92261543  0.58488378  1
  Nd  Nd33  1  0.46130772  0.53869228  0.58488378  1
  Nd  Nd34  1  0.53869228  0.07738457  0.08488378  1
  Nd  Nd35  1  0.07738457  0.53869228  0.58488378  1
  Nd  Nd36  1  0.53869228  0.46130772  0.08488378  1
  Nd  Nd37  1  0.92261543  0.46130772  0.08488378  1
  Nd  Nd38  1  0.80146257  0.60292515  0.78398763  1
  Nd  Nd39  1  0.80146257  0.19853743  0.78398763  1
  Nd  Nd40  1  0.19853743  0.39707485  0.28398763  1
  Nd  Nd41  1  0.39707485  0.19853743  0.78398763  1
  Nd  Nd42  1  0.19853743  0.80146257  0.28398763  1
  Nd  Nd43  1  0.60292515  0.80146257  0.28398763  1
  Nd  Nd44  1  0.66666700  0.33333300  0.64231287  1
  Nd  Nd45  1  0.33333300  0.66666700  0.14231287  1
  Cd  Cd46  1  -0.00000000  -0.00000000  0.74882707  1
  Cd  Cd47  1  -0.00000000  -0.00000000  0.24882707  1
  Cd  Cd48  1  0.10752744  0.21505488  0.86347044  1
  Cd  Cd49  1  0.10752744  0.89247256  0.86347044  1
  Cd  Cd50  1  0.89247256  0.78494512  0.36347044  1
  Cd  Cd51  1  0.78494512  0.89247256  0.86347044  1
  Cd  Cd52  1  0.89247256  0.10752744  0.36347044  1
  Cd  Cd53  1  0.21505488  0.10752744  0.36347044  1
  Pt  Pt54  1  0.52284633  0.04569266  0.71081541  1
  Pt  Pt55  1  0.52284633  0.47715367  0.71081541  1
  Pt  Pt56  1  0.47715367  0.95430734  0.21081541  1
  Pt  Pt57  1  0.95430734  0.47715367  0.71081541  1
  Pt  Pt58  1  0.47715367  0.52284633  0.21081541  1
  Pt  Pt59  1  0.04569266  0.52284633  0.21081541  1
  Pt  Pt60  1  0.66666700  0.33333300  0.86120797  1
  Pt  Pt61  1  0.33333300  0.66666700  0.36120797  1
  Pt  Pt62  1  0.14286518  0.28573036  0.56468210  1
  Pt  Pt63  1  0.14286518  0.85713482  0.56468210  1
  Pt  Pt64  1  0.85713482  0.71426964  0.06468210  1
  Pt  Pt65  1  0.71426964  0.85713482  0.56468210  1
  Pt  Pt66  1  0.85713482  0.14286518  0.06468210  1
  Pt  Pt67  1  0.28573036  0.14286518  0.06468210  1
