# generated using pymatgen
data_Sc50In3Rh13
_symmetry_space_group_name_H-M   'P 1'
_cell_length_a   12.59164421
_cell_length_b   12.59164421
_cell_length_c   12.59164421
_cell_angle_alpha   60.00000000
_cell_angle_beta   60.00000000
_cell_angle_gamma   60.00000000
_symmetry_Int_Tables_number   1
_chemical_formula_structural   Sc50In3Rh13
_chemical_formula_sum   'Sc50 In3 Rh13'
_cell_volume   1411.66723184
_cell_formula_units_Z   1
loop_
 _symmetry_equiv_pos_site_id
 _symmetry_equiv_pos_as_xyz
  1  'x, y, z'
loop_
 _atom_site_type_symbol
 _atom_site_label
 _atom_site_symmetry_multiplicity
 _atom_site_fract_x
 _atom_site_fract_y
 _atom_site_fract_z
 _atom_site_occupancy
  Sc  Sc0  1  0.78793252  0.78793252  0.21206748  1
  Sc  Sc1  1  0.21206748  0.21206748  0.78793252  1
  Sc  Sc2  1  0.78793252  0.21206748  0.78793252  1
  Sc  Sc3  1  0.21206748  0.78793252  0.21206748  1
  Sc  Sc4  1  0.21206748  0.78793252  0.78793252  1
  Sc  Sc5  1  0.78793252  0.21206748  0.21206748  1
  Sc  Sc6  1  0.80766642  0.00674775  0.67874687  1
  Sc  Sc7  1  0.19233358  0.99325225  0.32125313  1
  Sc  Sc8  1  0.50683896  0.67874687  0.00674775  1
  Sc  Sc9  1  0.67874687  0.50683896  0.80766642  1
  Sc  Sc10  1  0.00674775  0.67874687  0.80766642  1
  Sc  Sc11  1  0.49316104  0.32125313  0.99325225  1
  Sc  Sc12  1  0.32125313  0.49316104  0.19233358  1
  Sc  Sc13  1  0.99325225  0.32125313  0.19233358  1
  Sc  Sc14  1  0.00674775  0.80766642  0.50683896  1
  Sc  Sc15  1  0.67874687  0.00674775  0.50683896  1
  Sc  Sc16  1  0.99325225  0.19233358  0.49316104  1
  Sc  Sc17  1  0.32125313  0.99325225  0.49316104  1
  Sc  Sc18  1  0.50683896  0.80766642  0.67874687  1
  Sc  Sc19  1  0.49316104  0.19233358  0.32125313  1
  Sc  Sc20  1  0.80766642  0.50683896  0.00674775  1
  Sc  Sc21  1  0.19233358  0.49316104  0.99325225  1
  Sc  Sc22  1  0.67874687  0.80766642  0.00674775  1
  Sc  Sc23  1  0.32125313  0.19233358  0.99325225  1
  Sc  Sc24  1  0.80766642  0.67874687  0.50683896  1
  Sc  Sc25  1  0.19233358  0.32125313  0.49316104  1
  Sc  Sc26  1  0.50683896  0.00674775  0.80766642  1
  Sc  Sc27  1  0.49316104  0.99325225  0.19233358  1
  Sc  Sc28  1  0.00674775  0.50683896  0.67874687  1
  Sc  Sc29  1  0.99325225  0.49316104  0.32125313  1
  Sc  Sc30  1  0.26064822  0.73935178  0.55236897  1
  Sc  Sc31  1  0.73935178  0.26064822  0.44763103  1
  Sc  Sc32  1  0.44763103  0.55236897  0.73935178  1
  Sc  Sc33  1  0.55236897  0.44763103  0.26064822  1
  Sc  Sc34  1  0.73935178  0.55236897  0.26064822  1
  Sc  Sc35  1  0.26064822  0.44763103  0.73935178  1
  Sc  Sc36  1  0.55236897  0.73935178  0.44763103  1
  Sc  Sc37  1  0.44763103  0.26064822  0.55236897  1
  Sc  Sc38  1  0.55236897  0.26064822  0.73935178  1
  Sc  Sc39  1  0.44763103  0.73935178  0.26064822  1
  Sc  Sc40  1  0.26064822  0.55236897  0.44763103  1
  Sc  Sc41  1  0.73935178  0.44763103  0.55236897  1
  Sc  Sc42  1  0.91002828  0.91002828  0.91002828  1
  Sc  Sc43  1  0.08997172  0.08997172  0.08997172  1
  Sc  Sc44  1  0.26991515  0.91002828  0.91002828  1
  Sc  Sc45  1  0.91002828  0.26991515  0.91002828  1
  Sc  Sc46  1  0.73008485  0.08997172  0.08997172  1
  Sc  Sc47  1  0.08997172  0.73008485  0.08997172  1
  Sc  Sc48  1  0.91002828  0.91002828  0.26991515  1
  Sc  Sc49  1  0.08997172  0.08997172  0.73008485  1
  In  In50  1  0.75000000  0.75000000  0.75000000  1
  In  In51  1  0.25000000  0.25000000  0.25000000  1
  In  In52  1  0.50000000  0.50000000  0.50000000  1
  Rh  Rh53  1  0.00000000  0.00000000  -0.00000000  1
  Rh  Rh54  1  0.06276238  0.93723762  0.62989893  1
  Rh  Rh55  1  0.93723762  0.06276238  0.37010107  1
  Rh  Rh56  1  0.37010107  0.62989893  0.93723762  1
  Rh  Rh57  1  0.62989893  0.37010107  0.06276238  1
  Rh  Rh58  1  0.93723762  0.62989893  0.06276238  1
  Rh  Rh59  1  0.06276238  0.37010107  0.93723762  1
  Rh  Rh60  1  0.62989893  0.93723762  0.37010107  1
  Rh  Rh61  1  0.37010107  0.06276238  0.62989893  1
  Rh  Rh62  1  0.62989893  0.06276238  0.93723762  1
  Rh  Rh63  1  0.37010107  0.93723762  0.06276238  1
  Rh  Rh64  1  0.06276238  0.62989893  0.37010107  1
  Rh  Rh65  1  0.93723762  0.37010107  0.62989893  1
