# generated using pymatgen
data_Lu4CdIr
_symmetry_space_group_name_H-M   'P 1'
_cell_length_a   9.45919250
_cell_length_b   9.45919250
_cell_length_c   9.45919250
_cell_angle_alpha   60.00000000
_cell_angle_beta   60.00000000
_cell_angle_gamma   60.00000000
_symmetry_Int_Tables_number   1
_chemical_formula_structural   Lu4CdIr
_chemical_formula_sum   'Lu16 Cd4 Ir4'
_cell_volume   598.47662555
_cell_formula_units_Z   4
loop_
 _symmetry_equiv_pos_site_id
 _symmetry_equiv_pos_as_xyz
  1  'x, y, z'
loop_
 _atom_site_type_symbol
 _atom_site_label
 _atom_site_symmetry_multiplicity
 _atom_site_fract_x
 _atom_site_fract_y
 _atom_site_fract_z
 _atom_site_occupancy
  Lu  Lu0  1  0.65094571  0.65094571  0.65094571  1
  Lu  Lu1  1  0.04716288  0.65094571  0.65094571  1
  Lu  Lu2  1  0.65094571  0.04716288  0.65094571  1
  Lu  Lu3  1  0.65094571  0.65094571  0.04716288  1
  Lu  Lu4  1  0.81035167  0.81035167  0.18964833  1
  Lu  Lu5  1  0.18964833  0.18964833  0.81035167  1
  Lu  Lu6  1  0.81035167  0.18964833  0.81035167  1
  Lu  Lu7  1  0.18964833  0.81035167  0.18964833  1
  Lu  Lu8  1  0.18964833  0.81035167  0.81035167  1
  Lu  Lu9  1  0.81035167  0.18964833  0.18964833  1
  Lu  Lu10  1  0.43764874  0.43764874  0.06235126  1
  Lu  Lu11  1  0.06235126  0.06235126  0.43764874  1
  Lu  Lu12  1  0.43764874  0.06235126  0.43764874  1
  Lu  Lu13  1  0.06235126  0.43764874  0.06235126  1
  Lu  Lu14  1  0.06235126  0.43764874  0.43764874  1
  Lu  Lu15  1  0.43764874  0.06235126  0.06235126  1
  Cd  Cd16  1  0.41833011  0.41833011  0.41833011  1
  Cd  Cd17  1  0.74500967  0.41833011  0.41833011  1
  Cd  Cd18  1  0.41833011  0.74500967  0.41833011  1
  Cd  Cd19  1  0.41833011  0.41833011  0.74500967  1
  Ir  Ir20  1  0.85800981  0.85800981  0.85800981  1
  Ir  Ir21  1  0.42597057  0.85800981  0.85800981  1
  Ir  Ir22  1  0.85800981  0.42597057  0.85800981  1
  Ir  Ir23  1  0.85800981  0.85800981  0.42597057  1
