# generated using pymatgen
data_Lu4(Al8Pt3)3
_symmetry_space_group_name_H-M   'P 1'
_cell_length_a   7.47040857
_cell_length_b   7.52840757
_cell_length_c   13.17400846
_cell_angle_alpha   84.62036294
_cell_angle_beta   79.24021305
_cell_angle_gamma   59.96431741
_symmetry_Int_Tables_number   1
_chemical_formula_structural   Lu4(Al8Pt3)3
_chemical_formula_sum   'Lu4 Al24 Pt9'
_cell_volume   630.13890342
_cell_formula_units_Z   1
loop_
 _symmetry_equiv_pos_site_id
 _symmetry_equiv_pos_as_xyz
  1  'x, y, z'
loop_
 _atom_site_type_symbol
 _atom_site_label
 _atom_site_symmetry_multiplicity
 _atom_site_fract_x
 _atom_site_fract_y
 _atom_site_fract_z
 _atom_site_occupancy
  Lu  Lu0  1  0.39358698  0.16906322  0.80718078  1
  Lu  Lu1  1  0.60641302  0.83093678  0.19281922  1
  Lu  Lu2  1  0.73468385  0.49865829  0.80685347  1
  Lu  Lu3  1  0.26531615  0.50134171  0.19314653  1
  Al  Al4  1  0.68445551  0.83401662  0.94391520  1
  Al  Al5  1  0.31554449  0.16598338  0.05608480  1
  Al  Al6  1  0.14618224  0.83261014  0.56081990  1
  Al  Al7  1  0.85381776  0.16738986  0.43918010  1
  Al  Al8  1  0.47900704  0.16645830  0.55831366  1
  Al  Al9  1  0.52099296  0.83354170  0.44168634  1
  Al  Al10  1  0.21760033  0.16531434  0.32805887  1
  Al  Al11  1  0.78239967  0.83468566  0.67194113  1
  Al  Al12  1  0.43764509  0.50570606  0.67201272  1
  Al  Al13  1  0.56235491  0.49429394  0.32798728  1
  Al  Al14  1  0.10911077  0.16063609  0.67079147  1
  Al  Al15  1  0.89088923  0.83936391  0.32920853  1
  Al  Al16  1  0.35414947  0.49910701  0.94406373  1
  Al  Al17  1  0.64585053  0.50089299  0.05593627  1
  Al  Al18  1  0.01650880  0.16810490  0.95148675  1
  Al  Al19  1  0.98349120  0.83189510  0.04851325  1
  Al  Al20  1  0.18675699  0.49970596  0.44135417  1
  Al  Al21  1  0.81324301  0.50029404  0.55864583  1
  Al  Al22  1  0.73316429  0.16373088  0.18308433  1
  Al  Al23  1  0.26683571  0.83626912  0.81691567  1
  Al  Al24  1  0.06165785  0.63079645  0.81570993  1
  Al  Al25  1  0.93834215  0.36920355  0.18429007  1
  Al  Al26  1  0.85473068  0.04202229  0.81618095  1
  Al  Al27  1  0.14526932  0.95797771  0.18381905  1
  Pt  Pt28  1  0.12001045  0.49153228  0.63941178  1
  Pt  Pt29  1  0.87998955  0.50846772  0.36058822  1
  Pt  Pt30  1  0.65715498  0.17129326  0.99970645  1
  Pt  Pt31  1  0.34284502  0.82870674  0.00029355  1
  Pt  Pt32  1  0.53815341  0.16677874  0.36063083  1
  Pt  Pt33  1  0.46184659  0.83322126  0.63936917  1
  Pt  Pt34  1  0.77845312  0.17497546  0.63752215  1
  Pt  Pt35  1  0.22154688  0.82502454  0.36247785  1
  Pt  Pt36  1  -0.00000000  0.50000000  0.00000000  1
