# generated using pymatgen
data_Na3LuBr6
_symmetry_space_group_name_H-M   'P 1'
_cell_length_a   7.34609498
_cell_length_b   7.70770799
_cell_length_c   10.85519640
_cell_angle_alpha   90.00000000
_cell_angle_beta   90.07534948
_cell_angle_gamma   90.00000000
_symmetry_Int_Tables_number   1
_chemical_formula_structural   Na3LuBr6
_chemical_formula_sum   'Na6 Lu2 Br12'
_cell_volume   614.63756820
_cell_formula_units_Z   2
loop_
 _symmetry_equiv_pos_site_id
 _symmetry_equiv_pos_as_xyz
  1  'x, y, z'
loop_
 _atom_site_type_symbol
 _atom_site_label
 _atom_site_symmetry_multiplicity
 _atom_site_fract_x
 _atom_site_fract_y
 _atom_site_fract_z
 _atom_site_occupancy
  Na  Na0  1  0.00000000  0.00000000  0.50000000  1
  Na  Na1  1  0.50000000  0.50000000  0.00000000  1
  Na  Na2  1  0.98435256  0.55998743  0.26060270  1
  Na  Na3  1  0.01564744  0.44001257  0.73939730  1
  Na  Na4  1  0.51564744  0.05998743  0.23939730  1
  Na  Na5  1  0.48435256  0.94001257  0.76060270  1
  Lu  Lu6  1  0.00000000  0.00000000  0.00000000  1
  Lu  Lu7  1  0.50000000  0.50000000  0.50000000  1
  Br  Br8  1  0.82604016  0.29818004  0.07512625  1
  Br  Br9  1  0.17395984  0.70181996  0.92487375  1
  Br  Br10  1  0.67395984  0.79818004  0.42487375  1
  Br  Br11  1  0.32604016  0.20181996  0.57512625  1
  Br  Br12  1  0.12629591  0.94174653  0.23735528  1
  Br  Br13  1  0.87370409  0.05825347  0.76264472  1
  Br  Br14  1  0.37370409  0.44174653  0.26264472  1
  Br  Br15  1  0.62629591  0.55825347  0.73735528  1
  Br  Br16  1  0.69239404  0.81848148  0.05763663  1
  Br  Br17  1  0.30760596  0.18151852  0.94236337  1
  Br  Br18  1  0.80760596  0.31848148  0.44236337  1
  Br  Br19  1  0.19239404  0.68151852  0.55763663  1
