# generated using pymatgen
data_Fe3O5F
_symmetry_space_group_name_H-M   'P 1'
_cell_length_a   7.36891411
_cell_length_b   5.54805085
_cell_length_c   5.54805085
_cell_angle_alpha   70.68024405
_cell_angle_beta   70.55607292
_cell_angle_gamma   70.55607292
_symmetry_Int_Tables_number   1
_chemical_formula_structural   Fe3O5F
_chemical_formula_sum   'Fe6 O10 F2'
_cell_volume   195.41481391
_cell_formula_units_Z   2
loop_
 _symmetry_equiv_pos_site_id
 _symmetry_equiv_pos_as_xyz
  1  'x, y, z'
loop_
 _atom_site_type_symbol
 _atom_site_label
 _atom_site_symmetry_multiplicity
 _atom_site_fract_x
 _atom_site_fract_y
 _atom_site_fract_z
 _atom_site_occupancy
  Fe  Fe0  1  0.84703014  0.67585558  0.67585558  1
  Fe  Fe1  1  0.66328006  0.32614484  0.32614484  1
  Fe  Fe2  1  0.32327125  0.65617838  0.65617838  1
  Fe  Fe3  1  0.16282760  0.33075060  0.33075060  1
  Fe  Fe4  1  0.50976509  0.00400168  0.00400168  1
  Fe  Fe5  1  0.99207960  0.00401030  0.00401030  1
  O  O6  1  0.66617334  0.03171560  0.64440535  1
  O  O7  1  0.32939880  0.35748642  0.96873837  1
  O  O8  1  0.95384814  0.22957974  0.22957974  1
  O  O9  1  0.03925037  0.77740721  0.77740721  1
  O  O10  1  0.37780880  0.42860470  0.42860470  1
  O  O11  1  0.70062637  0.10186025  0.10186025  1
  O  O12  1  0.32939880  0.96873837  0.35748642  1
  O  O13  1  0.66617334  0.64440535  0.03171560  1
  O  O14  1  0.00389237  0.30782294  0.69162079  1
  O  O15  1  0.00389237  0.69162079  0.30782294  1
  F  F16  1  0.30263111  0.89478614  0.89478614  1
  F  F17  1  0.62865345  0.56903209  0.56903209  1
