# generated using pymatgen
data_LuZrF7
_symmetry_space_group_name_H-M   'P 1'
_cell_length_a   5.64786464
_cell_length_b   6.02601015
_cell_length_c   8.20917260
_cell_angle_alpha   102.37702449
_cell_angle_beta   90.00000000
_cell_angle_gamma   90.00000000
_symmetry_Int_Tables_number   1
_chemical_formula_structural   LuZrF7
_chemical_formula_sum   'Lu2 Zr2 F14'
_cell_volume   272.89818006
_cell_formula_units_Z   2
loop_
 _symmetry_equiv_pos_site_id
 _symmetry_equiv_pos_as_xyz
  1  'x, y, z'
loop_
 _atom_site_type_symbol
 _atom_site_label
 _atom_site_symmetry_multiplicity
 _atom_site_fract_x
 _atom_site_fract_y
 _atom_site_fract_z
 _atom_site_occupancy
  Lu  Lu0  1  0.69718585  0.65307958  0.68178171  1
  Lu  Lu1  1  0.19718585  0.34692042  0.31821829  1
  Zr  Zr2  1  0.70767933  0.81197893  0.22358940  1
  Zr  Zr3  1  0.20767933  0.18802107  0.77641060  1
  F  F4  1  0.89013277  0.45479910  0.47862231  1
  F  F5  1  0.39013277  0.54520090  0.52137769  1
  F  F6  1  0.43006222  0.91697234  0.76525599  1
  F  F7  1  0.93006222  0.08302766  0.23474401  1
  F  F8  1  0.93954977  0.95410750  0.76048404  1
  F  F9  1  0.43954977  0.04589250  0.23951596  1
  F  F10  1  0.99113498  0.46148109  0.78688220  1
  F  F11  1  0.49113498  0.53851891  0.21311780  1
  F  F12  1  0.70237839  0.75386453  0.97113387  1
  F  F13  1  0.20237839  0.24613547  0.02886613  1
  F  F14  1  0.70955352  0.86065596  0.47801601  1
  F  F15  1  0.20955352  0.13934404  0.52198399  1
  F  F16  1  0.50868317  0.38284376  0.77995448  1
  F  F17  1  0.00868317  0.61715624  0.22004552  1
