# generated using pymatgen
data_Mn2Tl2(SO4)3
_symmetry_space_group_name_H-M   'P 1'
_cell_length_a   10.38258888
_cell_length_b   10.38258888
_cell_length_c   10.38258888
_cell_angle_alpha   90.00000000
_cell_angle_beta   90.00000000
_cell_angle_gamma   90.00000000
_symmetry_Int_Tables_number   1
_chemical_formula_structural   Mn2Tl2(SO4)3
_chemical_formula_sum   'Mn8 Tl8 S12 O48'
_cell_volume   1119.22389269
_cell_formula_units_Z   4
loop_
 _symmetry_equiv_pos_site_id
 _symmetry_equiv_pos_as_xyz
  1  'x, y, z'
loop_
 _atom_site_type_symbol
 _atom_site_label
 _atom_site_symmetry_multiplicity
 _atom_site_fract_x
 _atom_site_fract_y
 _atom_site_fract_z
 _atom_site_occupancy
  Mn  Mn0  1  0.33494523  0.33494523  0.33494523  1
  Mn  Mn1  1  0.16505477  0.66505477  0.83494523  1
  Mn  Mn2  1  0.66505477  0.83494523  0.16505477  1
  Mn  Mn3  1  0.83494523  0.16505477  0.66505477  1
  Mn  Mn4  1  0.59832698  0.59832698  0.59832698  1
  Mn  Mn5  1  0.90167302  0.40167302  0.09832698  1
  Mn  Mn6  1  0.40167302  0.09832698  0.90167302  1
  Mn  Mn7  1  0.09832698  0.90167302  0.40167302  1
  Tl  Tl8  1  0.04827603  0.04827603  0.04827603  1
  Tl  Tl9  1  0.45172397  0.95172397  0.54827603  1
  Tl  Tl10  1  0.95172397  0.54827603  0.45172397  1
  Tl  Tl11  1  0.54827603  0.45172397  0.95172397  1
  Tl  Tl12  1  0.81703489  0.81703489  0.81703489  1
  Tl  Tl13  1  0.68296511  0.18296511  0.31703489  1
  Tl  Tl14  1  0.18296511  0.31703489  0.68296511  1
  Tl  Tl15  1  0.31703489  0.68296511  0.18296511  1
  S  S16  1  0.01789797  0.21629915  0.37588190  1
  S  S17  1  0.48210203  0.78370085  0.87588190  1
  S  S18  1  0.98210203  0.71629915  0.12411810  1
  S  S19  1  0.37588190  0.01789797  0.21629915  1
  S  S20  1  0.51789797  0.28370085  0.62411810  1
  S  S21  1  0.87588190  0.48210203  0.78370085  1
  S  S22  1  0.12411810  0.98210203  0.71629915  1
  S  S23  1  0.62411810  0.51789797  0.28370085  1
  S  S24  1  0.21629915  0.37588190  0.01789797  1
  S  S25  1  0.71629915  0.12411810  0.98210203  1
  S  S26  1  0.28370085  0.62411810  0.51789797  1
  S  S27  1  0.78370085  0.87588190  0.48210203  1
  O  O28  1  0.00889831  0.08003033  0.32991825  1
  O  O29  1  0.49110169  0.91996967  0.82991825  1
  O  O30  1  0.99110169  0.58003033  0.17008175  1
  O  O31  1  0.32991825  0.00889831  0.08003033  1
  O  O32  1  0.50889831  0.41996967  0.67008175  1
  O  O33  1  0.82991825  0.49110169  0.91996967  1
  O  O34  1  0.17008175  0.99110169  0.58003033  1
  O  O35  1  0.67008175  0.50889831  0.41996967  1
  O  O36  1  0.08003033  0.32991825  0.00889831  1
  O  O37  1  0.58003033  0.17008175  0.99110169  1
  O  O38  1  0.41996967  0.67008175  0.50889831  1
  O  O39  1  0.91996967  0.82991825  0.49110169  1
  O  O40  1  0.26585050  0.50284071  0.44294385  1
  O  O41  1  0.23414950  0.49715929  0.94294385  1
  O  O42  1  0.73414950  0.00284071  0.05705615  1
  O  O43  1  0.44294385  0.26585050  0.50284071  1
  O  O44  1  0.76585050  0.99715929  0.55705615  1
  O  O45  1  0.94294385  0.23414950  0.49715929  1
  O  O46  1  0.05705615  0.73414950  0.00284071  1
  O  O47  1  0.55705615  0.76585050  0.99715929  1
  O  O48  1  0.50284071  0.44294385  0.26585050  1
  O  O49  1  0.00284071  0.05705615  0.73414950  1
  O  O50  1  0.99715929  0.55705615  0.76585050  1
  O  O51  1  0.49715929  0.94294385  0.23414950  1
  O  O52  1  0.03998311  0.80177397  0.22353585  1
  O  O53  1  0.46001689  0.19822603  0.72353585  1
  O  O54  1  0.96001689  0.30177397  0.27646415  1
  O  O55  1  0.22353585  0.03998311  0.80177397  1
  O  O56  1  0.53998311  0.69822603  0.77646415  1
  O  O57  1  0.72353585  0.46001689  0.19822603  1
  O  O58  1  0.27646415  0.96001689  0.30177397  1
  O  O59  1  0.77646415  0.53998311  0.69822603  1
  O  O60  1  0.80177397  0.22353585  0.03998311  1
  O  O61  1  0.30177397  0.27646415  0.96001689  1
  O  O62  1  0.69822603  0.77646415  0.53998311  1
  O  O63  1  0.19822603  0.72353585  0.46001689  1
  O  O64  1  0.15406041  0.25175214  0.40171313  1
  O  O65  1  0.34593959  0.74824786  0.90171313  1
  O  O66  1  0.84593959  0.75175214  0.09828687  1
  O  O67  1  0.40171313  0.15406041  0.25175214  1
  O  O68  1  0.65406041  0.24824786  0.59828687  1
  O  O69  1  0.90171313  0.34593959  0.74824786  1
  O  O70  1  0.09828687  0.84593959  0.75175214  1
  O  O71  1  0.59828687  0.65406041  0.24824786  1
  O  O72  1  0.25175214  0.40171313  0.15406041  1
  O  O73  1  0.75175214  0.09828687  0.84593959  1
  O  O74  1  0.24824786  0.59828687  0.65406041  1
  O  O75  1  0.74824786  0.90171313  0.34593959  1
