# generated using pymatgen
data_LiGd(WO4)2
_symmetry_space_group_name_H-M   'P 1'
_cell_length_a   5.16100756
_cell_length_b   5.89820243
_cell_length_c   10.18819051
_cell_angle_alpha   90.00000000
_cell_angle_beta   94.71259529
_cell_angle_gamma   90.00000000
_symmetry_Int_Tables_number   1
_chemical_formula_structural   LiGd(WO4)2
_chemical_formula_sum   'Li2 Gd2 W4 O16'
_cell_volume   309.08685895
_cell_formula_units_Z   2
loop_
 _symmetry_equiv_pos_site_id
 _symmetry_equiv_pos_as_xyz
  1  'x, y, z'
loop_
 _atom_site_type_symbol
 _atom_site_label
 _atom_site_symmetry_multiplicity
 _atom_site_fract_x
 _atom_site_fract_y
 _atom_site_fract_z
 _atom_site_occupancy
  Li  Li0  1  0.25000000  0.68994912  0.25000000  1
  Li  Li1  1  0.75000000  0.31005088  0.75000000  1
  Gd  Gd2  1  0.75000000  0.30408999  0.25000000  1
  Gd  Gd3  1  0.25000000  0.69591001  0.75000000  1
  W  W4  1  0.75040241  0.82636848  0.01372990  1
  W  W5  1  0.24959759  0.17363152  0.98627010  1
  W  W6  1  0.74959759  0.82636848  0.48627010  1
  W  W7  1  0.25040241  0.17363152  0.51372990  1
  O  O8  1  0.45115005  0.89383018  0.59576403  1
  O  O9  1  0.54884995  0.10616982  0.40423597  1
  O  O10  1  0.04884995  0.89383018  0.90423597  1
  O  O11  1  0.95115005  0.10616982  0.09576403  1
  O  O12  1  0.11171268  0.37230678  0.38842677  1
  O  O13  1  0.88828732  0.62769322  0.61157323  1
  O  O14  1  0.38828732  0.37230678  0.11157323  1
  O  O15  1  0.61171268  0.62769322  0.88842677  1
  O  O16  1  0.03366064  0.91301726  0.38886546  1
  O  O17  1  0.96633936  0.08698274  0.61113454  1
  O  O18  1  0.46633936  0.91301726  0.11113454  1
  O  O19  1  0.53366064  0.08698274  0.88886546  1
  O  O20  1  0.90356157  0.62800329  0.13386360  1
  O  O21  1  0.09643843  0.37199671  0.86613640  1
  O  O22  1  0.59643843  0.62800329  0.36613640  1
  O  O23  1  0.40356157  0.37199671  0.63386360  1
