# generated using pymatgen
data_Li2TcO3
_symmetry_space_group_name_H-M   'P 1'
_cell_length_a   4.84975611
_cell_length_b   4.84975611
_cell_length_c   10.30570382
_cell_angle_alpha   94.45274317
_cell_angle_beta   94.45274317
_cell_angle_gamma   119.93958998
_symmetry_Int_Tables_number   1
_chemical_formula_structural   Li2TcO3
_chemical_formula_sum   'Li8 Tc4 O12'
_cell_volume   207.50203973
_cell_formula_units_Z   4
loop_
 _symmetry_equiv_pos_site_id
 _symmetry_equiv_pos_as_xyz
  1  'x, y, z'
loop_
 _atom_site_type_symbol
 _atom_site_label
 _atom_site_symmetry_multiplicity
 _atom_site_fract_x
 _atom_site_fract_y
 _atom_site_fract_z
 _atom_site_occupancy
  Li  Li0  1  0.66014648  0.81928410  0.99969052  1
  Li  Li1  1  0.33985352  0.18071590  0.00030948  1
  Li  Li2  1  0.18071590  0.33985352  0.50030948  1
  Li  Li3  1  0.81928410  0.66014648  0.49969052  1
  Li  Li4  1  0.58413596  0.41586404  0.75000000  1
  Li  Li5  1  0.41586404  0.58413596  0.25000000  1
  Li  Li6  1  0.50000000  -0.00000000  0.50000000  1
  Li  Li7  1  -0.00000000  0.50000000  0.00000000  1
  Tc  Tc8  1  0.24970832  0.75029168  0.75000000  1
  Tc  Tc9  1  0.75029168  0.24970832  0.25000000  1
  Tc  Tc10  1  0.91700498  0.08299502  0.75000000  1
  Tc  Tc11  1  0.08299502  0.91700498  0.25000000  1
  O  O12  1  0.78392937  0.95060731  0.37238728  1
  O  O13  1  0.21607063  0.04939269  0.62761272  1
  O  O14  1  0.04939269  0.21607063  0.12761272  1
  O  O15  1  0.95060731  0.78392937  0.87238728  1
  O  O16  1  0.54321108  0.70162028  0.62900577  1
  O  O17  1  0.45678892  0.29837972  0.37099423  1
  O  O18  1  0.29837972  0.45678892  0.87099423  1
  O  O19  1  0.70162028  0.54321108  0.12900577  1
  O  O20  1  0.62397867  0.13037308  0.87220551  1
  O  O21  1  0.37602133  0.86962692  0.12779449  1
  O  O22  1  0.86962692  0.37602133  0.62779449  1
  O  O23  1  0.13037308  0.62397867  0.37220551  1
