# generated using pymatgen
data_LiLa(WO4)2
_symmetry_space_group_name_H-M   'P 1'
_cell_length_a   7.27450740
_cell_length_b   7.49758332
_cell_length_c   7.62644036
_cell_angle_alpha   113.72668803
_cell_angle_beta   115.65510175
_cell_angle_gamma   91.32198779
_symmetry_Int_Tables_number   1
_chemical_formula_structural   LiLa(WO4)2
_chemical_formula_sum   'Li2 La2 W4 O16'
_cell_volume   333.30363309
_cell_formula_units_Z   2
loop_
 _symmetry_equiv_pos_site_id
 _symmetry_equiv_pos_as_xyz
  1  'x, y, z'
loop_
 _atom_site_type_symbol
 _atom_site_label
 _atom_site_symmetry_multiplicity
 _atom_site_fract_x
 _atom_site_fract_y
 _atom_site_fract_z
 _atom_site_occupancy
  Li  Li0  1  0.25030456  0.67685821  0.00996613  1
  Li  Li1  1  0.74969544  0.32314179  0.99003387  1
  La  La2  1  0.18510501  0.28722758  0.46151309  1
  La  La3  1  0.81489499  0.71277242  0.53848691  1
  W  W4  1  0.26192208  0.29245416  0.02876338  1
  W  W5  1  0.73807792  0.70754584  0.97123662  1
  W  W6  1  0.64566256  0.10276448  0.28253539  1
  W  W7  1  0.35433744  0.89723552  0.71746461  1
  O  O8  1  0.18465636  0.36544858  0.80941724  1
  O  O9  1  0.81534364  0.63455142  0.19058276  1
  O  O10  1  0.44516587  0.53478510  0.24866797  1
  O  O11  1  0.55483413  0.46521490  0.75133203  1
  O  O12  1  0.86083332  0.00943827  0.19817146  1
  O  O13  1  0.13916668  0.99056173  0.80182854  1
  O  O14  1  0.70518407  0.01111170  0.48080319  1
  O  O15  1  0.29481593  0.98888830  0.51919681  1
  O  O16  1  0.17999565  0.64264305  0.56357570  1
  O  O17  1  0.82000435  0.35735695  0.43642430  1
  O  O18  1  0.48124299  0.82764120  0.00941861  1
  O  O19  1  0.51875701  0.17235880  0.99058139  1
  O  O20  1  0.04258649  0.30268537  0.08854385  1
  O  O21  1  0.95741351  0.69731463  0.91145615  1
  O  O22  1  0.38480706  0.17058470  0.25590914  1
  O  O23  1  0.61519294  0.82941530  0.74409086  1
