# generated using pymatgen
data_Fe3O5F
_symmetry_space_group_name_H-M   'P 1'
_cell_length_a   4.64545617
_cell_length_b   7.58329801
_cell_length_c   5.55344901
_cell_angle_alpha   94.47058592
_cell_angle_beta   92.59685549
_cell_angle_gamma   88.84993918
_symmetry_Int_Tables_number   1
_chemical_formula_structural   Fe3O5F
_chemical_formula_sum   'Fe6 O10 F2'
_cell_volume   194.81383508
_cell_formula_units_Z   2
loop_
 _symmetry_equiv_pos_site_id
 _symmetry_equiv_pos_as_xyz
  1  'x, y, z'
loop_
 _atom_site_type_symbol
 _atom_site_label
 _atom_site_symmetry_multiplicity
 _atom_site_fract_x
 _atom_site_fract_y
 _atom_site_fract_z
 _atom_site_occupancy
  Fe  Fe0  1  0.52081708  0.67497993  0.15461443  1
  Fe  Fe1  1  0.47917793  0.99168304  0.51205444  1
  Fe  Fe2  1  0.50000271  0.33333068  0.83332872  1
  Fe  Fe3  1  0.98803327  0.66587605  0.67921842  1
  Fe  Fe4  1  0.00000578  0.33332825  0.33333694  1
  Fe  Fe5  1  0.01195880  0.00079796  0.98745286  1
  O  O6  1  0.81642008  0.43689538  0.62296879  1
  O  O7  1  0.81003039  0.77784785  0.96599287  1
  O  O8  1  0.69117629  0.10223813  0.79474925  1
  O  O9  1  0.69401428  0.76756801  0.46155316  1
  O  O10  1  0.69629272  0.43699803  0.13041801  1
  O  O11  1  0.30881987  0.56442967  0.87191184  1
  O  O12  1  0.30371066  0.22966720  0.53625055  1
  O  O13  1  0.30598812  0.89909976  0.20511603  1
  O  O14  1  0.18357967  0.22976858  0.04369622  1
  O  O15  1  0.18997215  0.88882236  0.70067075  1
  F  F16  1  0.79693402  0.09757158  0.29869609  1
  F  F17  1  0.20306618  0.56909454  0.36797063  1
