# generated using pymatgen
data_Li2MnGeO4
_symmetry_space_group_name_H-M   'P 1'
_cell_length_a   5.17225100
_cell_length_b   5.56102559
_cell_length_c   6.50268693
_cell_angle_alpha   90.00000000
_cell_angle_beta   90.00000000
_cell_angle_gamma   90.00000000
_symmetry_Int_Tables_number   1
_chemical_formula_structural   Li2MnGeO4
_chemical_formula_sum   'Li4 Mn2 Ge2 O8'
_cell_volume   187.03691532
_cell_formula_units_Z   2
loop_
 _symmetry_equiv_pos_site_id
 _symmetry_equiv_pos_as_xyz
  1  'x, y, z'
loop_
 _atom_site_type_symbol
 _atom_site_label
 _atom_site_symmetry_multiplicity
 _atom_site_fract_x
 _atom_site_fract_y
 _atom_site_fract_z
 _atom_site_occupancy
  Li  Li0  1  0.50357975  0.83247718  0.75027846  1
  Li  Li1  1  0.00357975  0.16752282  0.74972154  1
  Li  Li2  1  0.00357975  0.16752282  0.25027846  1
  Li  Li3  1  0.50357975  0.83247718  0.24972154  1
  Mn  Mn4  1  0.50004660  0.33230502  -0.00000000  1
  Mn  Mn5  1  0.00004660  0.66769498  0.50000000  1
  Ge  Ge6  1  0.00681333  0.67843806  0.00000000  1
  Ge  Ge7  1  0.50681333  0.32156194  0.50000000  1
  O  O8  1  0.90551273  0.36996083  0.00000000  1
  O  O9  1  0.40551273  0.63003917  0.50000000  1
  O  O10  1  0.88976516  0.82773840  0.77548005  1
  O  O11  1  0.38976516  0.17226160  0.72451995  1
  O  O12  1  0.38976516  0.17226160  0.27548005  1
  O  O13  1  0.88976516  0.82773840  0.22451995  1
  O  O14  1  0.35343753  0.68279571  0.00000000  1
  O  O15  1  0.85343753  0.31720429  0.50000000  1
