# generated using pymatgen
data_Lu5Ni2Sb
_symmetry_space_group_name_H-M   'P 1'
_cell_length_a   7.40102140
_cell_length_b   7.40102140
_cell_length_c   8.50896108
_cell_angle_alpha   115.77866225
_cell_angle_beta   115.77866225
_cell_angle_gamma   90.00000000
_symmetry_Int_Tables_number   1
_chemical_formula_structural   Lu5Ni2Sb
_chemical_formula_sum   'Lu10 Ni4 Sb2'
_cell_volume   367.50329028
_cell_formula_units_Z   2
loop_
 _symmetry_equiv_pos_site_id
 _symmetry_equiv_pos_as_xyz
  1  'x, y, z'
loop_
 _atom_site_type_symbol
 _atom_site_label
 _atom_site_symmetry_multiplicity
 _atom_site_fract_x
 _atom_site_fract_y
 _atom_site_fract_z
 _atom_site_occupancy
  Lu  Lu0  1  0.00000000  0.00000000  0.00000000  1
  Lu  Lu1  1  0.50000000  0.50000000  0.00000000  1
  Lu  Lu2  1  0.29529100  0.79529100  0.27300429  1
  Lu  Lu3  1  0.70470900  0.20470900  0.72699571  1
  Lu  Lu4  1  0.97771329  0.47771329  0.27300429  1
  Lu  Lu5  1  0.47771329  0.29529100  0.27300429  1
  Lu  Lu6  1  0.20470900  0.02228671  0.72699571  1
  Lu  Lu7  1  0.02228671  0.52228671  0.72699571  1
  Lu  Lu8  1  0.52228671  0.70470900  0.72699571  1
  Lu  Lu9  1  0.79529100  0.97771329  0.27300429  1
  Ni  Ni10  1  0.62835236  0.12835236  1.00000000  1
  Ni  Ni11  1  0.37164764  0.87164764  0.00000000  1
  Ni  Ni12  1  0.87164764  0.62835236  0.00000000  1
  Ni  Ni13  1  0.12835236  0.37164764  -0.00000000  1
  Sb  Sb14  1  0.25000000  0.25000000  0.50000000  1
  Sb  Sb15  1  0.75000000  0.75000000  0.50000000  1
