# generated using pymatgen
data_Li2Al
_symmetry_space_group_name_H-M   'P 1'
_cell_length_a   4.44282197
_cell_length_b   4.59639115
_cell_length_c   5.33176694
_cell_angle_alpha   115.53347519
_cell_angle_beta   90.00000000
_cell_angle_gamma   90.00000000
_symmetry_Int_Tables_number   1
_chemical_formula_structural   Li2Al
_chemical_formula_sum   'Li4 Al2'
_cell_volume   98.24584189
_cell_formula_units_Z   2
loop_
 _symmetry_equiv_pos_site_id
 _symmetry_equiv_pos_as_xyz
  1  'x, y, z'
loop_
 _atom_site_type_symbol
 _atom_site_label
 _atom_site_symmetry_multiplicity
 _atom_site_fract_x
 _atom_site_fract_y
 _atom_site_fract_z
 _atom_site_occupancy
  Li  Li0  1  0.25000000  0.75852479  0.51704959  1
  Li  Li1  1  0.75000000  0.24147521  0.48295041  1
  Li  Li2  1  0.25000000  0.40907451  0.81814902  1
  Li  Li3  1  0.75000000  0.59092549  0.18185098  1
  Al  Al4  1  0.25000000  0.07705499  0.15410998  1
  Al  Al5  1  0.75000000  0.92294501  0.84589002  1
