# generated using pymatgen
data_Lu4MgRh
_symmetry_space_group_name_H-M   'P 1'
_cell_length_a   9.51815137
_cell_length_b   9.51815137
_cell_length_c   9.51815137
_cell_angle_alpha   60.00000000
_cell_angle_beta   60.00000000
_cell_angle_gamma   60.00000000
_symmetry_Int_Tables_number   1
_chemical_formula_structural   Lu4MgRh
_chemical_formula_sum   'Lu16 Mg4 Rh4'
_cell_volume   609.73738553
_cell_formula_units_Z   4
loop_
 _symmetry_equiv_pos_site_id
 _symmetry_equiv_pos_as_xyz
  1  'x, y, z'
loop_
 _atom_site_type_symbol
 _atom_site_label
 _atom_site_symmetry_multiplicity
 _atom_site_fract_x
 _atom_site_fract_y
 _atom_site_fract_z
 _atom_site_occupancy
  Lu  Lu0  1  0.65276617  0.65276617  0.65276617  1
  Lu  Lu1  1  0.04170148  0.65276617  0.65276617  1
  Lu  Lu2  1  0.65276617  0.04170148  0.65276617  1
  Lu  Lu3  1  0.65276617  0.65276617  0.04170148  1
  Lu  Lu4  1  0.81298882  0.81298882  0.18701118  1
  Lu  Lu5  1  0.18701118  0.18701118  0.81298882  1
  Lu  Lu6  1  0.81298882  0.18701118  0.81298882  1
  Lu  Lu7  1  0.18701118  0.81298882  0.18701118  1
  Lu  Lu8  1  0.18701118  0.81298882  0.81298882  1
  Lu  Lu9  1  0.81298882  0.18701118  0.18701118  1
  Lu  Lu10  1  0.43623635  0.43623635  0.06376365  1
  Lu  Lu11  1  0.06376365  0.06376365  0.43623635  1
  Lu  Lu12  1  0.43623635  0.06376365  0.43623635  1
  Lu  Lu13  1  0.06376365  0.43623635  0.06376365  1
  Lu  Lu14  1  0.06376365  0.43623635  0.43623635  1
  Lu  Lu15  1  0.43623635  0.06376365  0.06376365  1
  Mg  Mg16  1  0.42018169  0.42018169  0.42018169  1
  Mg  Mg17  1  0.73945493  0.42018169  0.42018169  1
  Mg  Mg18  1  0.42018169  0.73945493  0.42018169  1
  Mg  Mg19  1  0.42018169  0.42018169  0.73945493  1
  Rh  Rh20  1  0.85806861  0.85806861  0.85806861  1
  Rh  Rh21  1  0.42579416  0.85806861  0.85806861  1
  Rh  Rh22  1  0.85806861  0.42579416  0.85806861  1
  Rh  Rh23  1  0.85806861  0.85806861  0.42579416  1
