# generated using pymatgen
data_Lu2B6Rh
_symmetry_space_group_name_H-M   'P 1'
_cell_length_a   3.59654207
_cell_length_b   9.07425825
_cell_length_c   11.39006802
_cell_angle_alpha   90.00000000
_cell_angle_beta   90.00000000
_cell_angle_gamma   90.00000000
_symmetry_Int_Tables_number   1
_chemical_formula_structural   Lu2B6Rh
_chemical_formula_sum   'Lu8 B24 Rh4'
_cell_volume   371.72570805
_cell_formula_units_Z   4
loop_
 _symmetry_equiv_pos_site_id
 _symmetry_equiv_pos_as_xyz
  1  'x, y, z'
loop_
 _atom_site_type_symbol
 _atom_site_label
 _atom_site_symmetry_multiplicity
 _atom_site_fract_x
 _atom_site_fract_y
 _atom_site_fract_z
 _atom_site_occupancy
  Lu  Lu0  1  0.50000000  0.32163406  0.41329478  1
  Lu  Lu1  1  0.50000000  0.67836594  0.58670522  1
  Lu  Lu2  1  0.50000000  0.17836594  0.91329478  1
  Lu  Lu3  1  0.50000000  0.82163406  0.08670522  1
  Lu  Lu4  1  0.50000000  0.44491079  0.12595177  1
  Lu  Lu5  1  0.50000000  0.55508921  0.87404823  1
  Lu  Lu6  1  0.50000000  0.05508921  0.62595177  1
  Lu  Lu7  1  0.50000000  0.94491079  0.37404823  1
  B  B8  1  0.00000000  0.10887608  0.47004304  1
  B  B9  1  -0.00000000  0.89112392  0.52995696  1
  B  B10  1  0.00000000  0.39112392  0.97004304  1
  B  B11  1  -0.00000000  0.60887608  0.02995696  1
  B  B12  1  0.00000000  0.13379405  0.31605741  1
  B  B13  1  0.00000000  0.86620595  0.68394259  1
  B  B14  1  0.00000000  0.36620595  0.81605741  1
  B  B15  1  -0.00000000  0.63379405  0.18394259  1
  B  B16  1  0.00000000  0.05335892  0.06549880  1
  B  B17  1  -0.00000000  0.94664108  0.93450120  1
  B  B18  1  0.00000000  0.44664108  0.56549880  1
  B  B19  1  0.00000000  0.55335892  0.43450120  1
  B  B20  1  0.00000000  0.48244020  0.28791856  1
  B  B21  1  -0.00000000  0.51755980  0.71208144  1
  B  B22  1  -0.00000000  0.01755980  0.78791856  1
  B  B23  1  0.00000000  0.98244020  0.21208144  1
  B  B24  1  0.00000000  0.25103152  0.07909534  1
  B  B25  1  -0.00000000  0.74896848  0.92090466  1
  B  B26  1  -0.00000000  0.24896848  0.57909534  1
  B  B27  1  0.00000000  0.75103152  0.42090466  1
  B  B28  1  0.00000000  0.29582540  0.23553278  1
  B  B29  1  0.00000000  0.70417460  0.76446722  1
  B  B30  1  0.00000000  0.20417460  0.73553278  1
  B  B31  1  0.00000000  0.79582540  0.26446722  1
  Rh  Rh32  1  0.50000000  0.14043537  0.17887997  1
  Rh  Rh33  1  0.50000000  0.85956463  0.82112003  1
  Rh  Rh34  1  0.50000000  0.35956463  0.67887997  1
  Rh  Rh35  1  0.50000000  0.64043537  0.32112003  1
