# generated using pymatgen
data_Rb4Nb6O17
_symmetry_space_group_name_H-M   'P 1'
_cell_length_a   6.64457263
_cell_length_b   34.72878398
_cell_length_c   7.96756724
_cell_angle_alpha   90.00000000
_cell_angle_beta   90.00000000
_cell_angle_gamma   90.00000000
_symmetry_Int_Tables_number   1
_chemical_formula_structural   Rb4Nb6O17
_chemical_formula_sum   'Rb16 Nb24 O68'
_cell_volume   1838.57930357
_cell_formula_units_Z   4
loop_
 _symmetry_equiv_pos_site_id
 _symmetry_equiv_pos_as_xyz
  1  'x, y, z'
loop_
 _atom_site_type_symbol
 _atom_site_label
 _atom_site_symmetry_multiplicity
 _atom_site_fract_x
 _atom_site_fract_y
 _atom_site_fract_z
 _atom_site_occupancy
  Rb  Rb0  1  0.64315519  0.78223826  0.48073215  1
  Rb  Rb1  1  0.35684481  0.21776174  0.98073215  1
  Rb  Rb2  1  0.85684481  0.28223826  0.48073215  1
  Rb  Rb3  1  0.14315519  0.71776174  0.98073215  1
  Rb  Rb4  1  0.79557105  0.98020145  0.47486952  1
  Rb  Rb5  1  0.20442895  0.01979855  0.97486952  1
  Rb  Rb6  1  0.70442895  0.48020145  0.47486952  1
  Rb  Rb7  1  0.29557105  0.51979855  0.97486952  1
  Rb  Rb8  1  0.83481486  0.58138281  0.98303652  1
  Rb  Rb9  1  0.16518514  0.41861719  0.48303652  1
  Rb  Rb10  1  0.66518514  0.08138281  0.98303652  1
  Rb  Rb11  1  0.33481486  0.91861719  0.48303652  1
  Rb  Rb12  1  0.65100526  0.78015733  0.98233891  1
  Rb  Rb13  1  0.34899474  0.21984267  0.48233891  1
  Rb  Rb14  1  0.84899474  0.28015733  0.98233891  1
  Rb  Rb15  1  0.15100526  0.71984267  0.48233891  1
  Nb  Nb16  1  0.76636563  0.87293527  0.72065454  1
  Nb  Nb17  1  0.23363437  0.12706473  0.22065454  1
  Nb  Nb18  1  0.73363437  0.37293527  0.72065454  1
  Nb  Nb19  1  0.26636563  0.62706473  0.22065454  1
  Nb  Nb20  1  0.67812704  0.94859885  0.97312277  1
  Nb  Nb21  1  0.32187296  0.05140115  0.47312277  1
  Nb  Nb22  1  0.82187296  0.44859885  0.97312277  1
  Nb  Nb23  1  0.17812704  0.55140115  0.47312277  1
  Nb  Nb24  1  0.63603222  0.59546130  0.47709022  1
  Nb  Nb25  1  0.36396778  0.40453870  0.97709022  1
  Nb  Nb26  1  0.86396778  0.09546130  0.47709022  1
  Nb  Nb27  1  0.13603222  0.90453870  0.97709022  1
  Nb  Nb28  1  0.75849821  0.87442583  0.23359943  1
  Nb  Nb29  1  0.24150179  0.12557417  0.73359943  1
  Nb  Nb30  1  0.74150179  0.37442583  0.23359943  1
  Nb  Nb31  1  0.25849821  0.62557417  0.73359943  1
  Nb  Nb32  1  0.21093132  0.82640889  0.72876799  1
  Nb  Nb33  1  0.78906868  0.17359111  0.22876799  1
  Nb  Nb34  1  0.28906868  0.32640889  0.72876799  1
  Nb  Nb35  1  0.71093132  0.67359111  0.22876799  1
  Nb  Nb36  1  0.70271635  0.67223058  0.73388446  1
  Nb  Nb37  1  0.29728365  0.32776942  0.23388446  1
  Nb  Nb38  1  0.79728365  0.17223058  0.73388446  1
  Nb  Nb39  1  0.20271635  0.82776942  0.23388446  1
  O  O40  1  0.71466421  0.65643315  0.47771498  1
  O  O41  1  0.28533579  0.34356685  0.97771498  1
  O  O42  1  0.78533579  0.15643315  0.47771498  1
  O  O43  1  0.21466421  0.84356685  0.97771498  1
  O  O44  1  0.68445054  0.93018233  0.21142492  1
  O  O45  1  0.31554946  0.06981767  0.71142492  1
  O  O46  1  0.81554946  0.43018233  0.21142492  1
  O  O47  1  0.18445054  0.56981767  0.71142492  1
  O  O48  1  0.80093869  0.87935350  0.97759432  1
  O  O49  1  0.19906131  0.12064650  0.47759432  1
  O  O50  1  0.69906131  0.37935350  0.97759432  1
  O  O51  1  0.30093869  0.62064650  0.47759432  1
  O  O52  1  0.78358210  0.88007095  0.47748663  1
  O  O53  1  0.21641790  0.11992905  0.97748663  1
  O  O54  1  0.71641790  0.38007095  0.47748663  1
  O  O55  1  0.28358210  0.61992905  0.97748663  1
  O  O56  1  0.78164941  0.72148805  0.70396721  1
  O  O57  1  0.21835059  0.27851195  0.20396721  1
  O  O58  1  0.71835059  0.22148805  0.70396721  1
  O  O59  1  0.28164941  0.77851195  0.20396721  1
  O  O60  1  0.28680419  0.77677633  0.75110806  1
  O  O61  1  0.71319581  0.22322367  0.25110806  1
  O  O62  1  0.21319581  0.27677633  0.75110806  1
  O  O63  1  0.78680419  0.72322367  0.25110806  1
  O  O64  1  0.38574957  0.92862795  0.97030299  1
  O  O65  1  0.61425043  0.07137205  0.47030299  1
  O  O66  1  0.11425043  0.42862795  0.97030299  1
  O  O67  1  0.88574957  0.57137205  0.47030299  1
  O  O68  1  0.41515872  0.39075256  0.74121456  1
  O  O69  1  0.58484128  0.60924744  0.24121456  1
  O  O70  1  0.08484128  0.89075256  0.74121456  1
  O  O71  1  0.91515872  0.10924744  0.24121456  1
  O  O72  1  0.69322495  0.92922838  0.73900282  1
  O  O73  1  0.30677505  0.07077162  0.23900282  1
  O  O74  1  0.80677505  0.42922838  0.73900282  1
  O  O75  1  0.19322495  0.57077162  0.23900282  1
  O  O76  1  0.58575646  0.60872443  0.71368290  1
  O  O77  1  0.41424354  0.39127557  0.21368290  1
  O  O78  1  0.91424354  0.10872443  0.71368290  1
  O  O79  1  0.08575646  0.89127557  0.21368290  1
  O  O80  1  0.40802647  0.67697378  0.73027534  1
  O  O81  1  0.59197353  0.32302622  0.23027534  1
  O  O82  1  0.09197353  0.17697378  0.73027534  1
  O  O83  1  0.90802647  0.82302622  0.23027534  1
  O  O84  1  0.87399355  0.49952071  0.96686197  1
  O  O85  1  0.12600645  0.50047929  0.46686197  1
  O  O86  1  0.62600645  0.99952071  0.96686197  1
  O  O87  1  0.37399355  0.00047929  0.46686197  1
  O  O88  1  0.50969243  0.84990625  0.72642489  1
  O  O89  1  0.49030757  0.15009375  0.22642489  1
  O  O90  1  0.99030757  0.34990625  0.72642489  1
  O  O91  1  0.00969243  0.65009375  0.22642489  1
  O  O92  1  0.72695032  0.66821836  0.98024036  1
  O  O93  1  0.27304968  0.33178164  0.48024036  1
  O  O94  1  0.77304968  0.16821836  0.98024036  1
  O  O95  1  0.22695032  0.83178164  0.48024036  1
  O  O96  1  0.00159989  0.64765635  0.73137098  1
  O  O97  1  0.99840011  0.35234365  0.23137098  1
  O  O98  1  0.49840011  0.14765635  0.73137098  1
  O  O99  1  0.50159989  0.85234365  0.23137098  1
  O  O100  1  0.98014608  0.95193821  0.97885714  1
  O  O101  1  0.01985392  0.04806179  0.47885714  1
  O  O102  1  0.51985392  0.45193821  0.97885714  1
  O  O103  1  0.48014608  0.54806179  0.47885714  1
  O  O104  1  0.91464773  0.82189857  0.72737343  1
  O  O105  1  0.08535227  0.17810143  0.22737343  1
  O  O106  1  0.58535227  0.32189857  0.72737343  1
  O  O107  1  0.41464773  0.67810143  0.22737343  1
