# generated using pymatgen
data_LiCaP
_symmetry_space_group_name_H-M   'P 1'
_cell_length_a   4.16980216
_cell_length_b   7.07083808
_cell_length_c   7.87537609
_cell_angle_alpha   90.00000000
_cell_angle_beta   90.00000000
_cell_angle_gamma   90.00000000
_symmetry_Int_Tables_number   1
_chemical_formula_structural   LiCaP
_chemical_formula_sum   'Li4 Ca4 P4'
_cell_volume   232.19755634
_cell_formula_units_Z   4
loop_
 _symmetry_equiv_pos_site_id
 _symmetry_equiv_pos_as_xyz
  1  'x, y, z'
loop_
 _atom_site_type_symbol
 _atom_site_label
 _atom_site_symmetry_multiplicity
 _atom_site_fract_x
 _atom_site_fract_y
 _atom_site_fract_z
 _atom_site_occupancy
  Li  Li0  1  0.75000000  0.86046477  0.93821428  1
  Li  Li1  1  0.25000000  0.13953523  0.06178572  1
  Li  Li2  1  0.25000000  0.63953523  0.43821428  1
  Li  Li3  1  0.75000000  0.36046477  0.56178572  1
  Ca  Ca4  1  0.75000000  0.97815445  0.30963139  1
  Ca  Ca5  1  0.25000000  0.02184555  0.69036861  1
  Ca  Ca6  1  0.25000000  0.52184555  0.80963139  1
  Ca  Ca7  1  0.75000000  0.47815445  0.19036861  1
  P  P8  1  0.75000000  0.73338531  0.60991042  1
  P  P9  1  0.25000000  0.26661469  0.39008958  1
  P  P10  1  0.25000000  0.76661469  0.10991042  1
  P  P11  1  0.75000000  0.23338531  0.89008958  1
