# generated using pymatgen
data_MgP2(HO)12
_symmetry_space_group_name_H-M   'P 1'
_cell_length_a   7.84919510
_cell_length_b   7.82042149
_cell_length_c   9.31047597
_cell_angle_alpha   67.12490815
_cell_angle_beta   84.94905225
_cell_angle_gamma   73.03856005
_symmetry_Int_Tables_number   1
_chemical_formula_structural   MgP2(HO)12
_chemical_formula_sum   'Mg2 P4 H24 O24'
_cell_volume   503.45377088
_cell_formula_units_Z   2
loop_
 _symmetry_equiv_pos_site_id
 _symmetry_equiv_pos_as_xyz
  1  'x, y, z'
loop_
 _atom_site_type_symbol
 _atom_site_label
 _atom_site_symmetry_multiplicity
 _atom_site_fract_x
 _atom_site_fract_y
 _atom_site_fract_z
 _atom_site_occupancy
  Mg  Mg0  1  0.13663813  0.23464698  0.79134192  1
  Mg  Mg1  1  0.86336187  0.76535302  0.20865808  1
  P  P2  1  0.08605980  0.09314002  0.18272488  1
  P  P3  1  0.91394020  0.90685998  0.81727512  1
  P  P4  1  0.23070460  0.42676488  0.41150784  1
  P  P5  1  0.76929540  0.57323512  0.58849216  1
  H  H6  1  0.35480935  0.50126874  0.09371442  1
  H  H7  1  0.64519065  0.49873126  0.90628558  1
  H  H8  1  0.66444416  0.17021518  0.08038154  1
  H  H9  1  0.33555584  0.82978482  0.91961846  1
  H  H10  1  0.31117475  0.99277025  0.34137374  1
  H  H11  1  0.68882525  0.00722975  0.65862626  1
  H  H12  1  0.60672291  0.58337343  0.27064661  1
  H  H13  1  0.39327709  0.41662657  0.72935339  1
  H  H14  1  0.17216147  0.63275447  0.00433387  1
  H  H15  1  0.82783853  0.36724553  0.99566613  1
  H  H16  1  0.00507193  0.32101933  0.28674630  1
  H  H17  1  0.99492807  0.67898067  0.71325370  1
  H  H18  1  0.17084884  0.73170193  0.36269674  1
  H  H19  1  0.82915116  0.26829807  0.63730326  1
  H  H20  1  0.29928372  0.03933524  0.55850681  1
  H  H21  1  0.70071628  0.96066476  0.44149319  1
  H  H22  1  0.53843884  0.03226455  0.13243874  1
  H  H23  1  0.46156116  0.96773545  0.86756126  1
  H  H24  1  0.50232716  0.25579940  0.37383775  1
  H  H25  1  0.49767284  0.74420060  0.62616225  1
  H  H26  1  0.68876878  0.55853833  0.11635741  1
  H  H27  1  0.31123122  0.44146167  0.88364259  1
  H  H28  1  0.77973924  0.13435869  0.41123586  1
  H  H29  1  0.22026076  0.86564131  0.58876414  1
  O  O30  1  0.05060880  0.21982435  0.01179540  1
  O  O31  1  0.94939120  0.78017565  0.98820460  1
  O  O32  1  0.39849910  0.36769508  0.31232841  1
  O  O33  1  0.60150090  0.63230492  0.68767159  1
  O  O34  1  0.66286284  0.03339869  0.11835868  1
  O  O35  1  0.33713716  0.96660131  0.88164132  1
  O  O36  1  0.29048579  0.05314839  0.22449937  1
  O  O37  1  0.70951421  0.94685161  0.77550063  1
  O  O38  1  0.06499376  0.48969101  0.30739172  1
  O  O39  1  0.93500624  0.51030899  0.69260828  1
  O  O40  1  0.69859938  0.41730717  0.01152702  1
  O  O41  1  0.30140062  0.58269283  0.98847298  1
  O  O42  1  0.24183621  0.25938476  0.56792161  1
  O  O43  1  0.75816379  0.74061524  0.43207839  1
  O  O44  1  0.67638597  0.63732278  0.18142837  1
  O  O45  1  0.32361403  0.36267722  0.81857163  1
  O  O46  1  0.04080403  0.90119292  0.23807234  1
  O  O47  1  0.95919597  0.09880708  0.76192766  1
  O  O48  1  0.97247159  0.20271842  0.28845160  1
  O  O49  1  0.02752841  0.79728158  0.71154840  1
  O  O50  1  0.25144909  0.60604512  0.44009342  1
  O  O51  1  0.74855091  0.39395488  0.55990658  1
  O  O52  1  0.67805344  0.08409937  0.46024235  1
  O  O53  1  0.32194656  0.91590063  0.53975765  1
