# generated using pymatgen
data_Fe2O3F
_symmetry_space_group_name_H-M   'P 1'
_cell_length_a   4.65740101
_cell_length_b   13.06082862
_cell_length_c   5.53865801
_cell_angle_alpha   102.98815223
_cell_angle_beta   90.75981902
_cell_angle_gamma   89.29575939
_symmetry_Int_Tables_number   1
_chemical_formula_structural   Fe2O3F
_chemical_formula_sum   'Fe10 O15 F5'
_cell_volume   328.25061665
_cell_formula_units_Z   5
loop_
 _symmetry_equiv_pos_site_id
 _symmetry_equiv_pos_as_xyz
  1  'x, y, z'
loop_
 _atom_site_type_symbol
 _atom_site_label
 _atom_site_symmetry_multiplicity
 _atom_site_fract_x
 _atom_site_fract_y
 _atom_site_fract_z
 _atom_site_occupancy
  Fe  Fe0  1  0.52456188  0.99143412  0.49907606  1
  Fe  Fe1  1  0.47162615  0.40766569  0.30188122  1
  Fe  Fe2  1  0.50085185  0.20043608  0.89875105  1
  Fe  Fe3  1  0.51531585  0.60479789  0.69289748  1
  Fe  Fe4  1  0.50213997  0.79891039  0.09890000  1
  Fe  Fe5  1  0.98269465  0.39317098  0.79697527  1
  Fe  Fe6  1  0.01288963  0.80144220  0.60156436  1
  Fe  Fe7  1  0.99941411  0.19981798  0.39974463  1
  Fe  Fe8  1  0.96398021  0.59272492  0.21083888  1
  Fe  Fe9  1  0.02253565  0.00848561  0.00084639  1
  O  O10  1  0.79780256  0.25394267  0.70718350  1
  O  O11  1  0.81401555  0.66776373  0.52283017  1
  O  O12  1  0.81504214  0.06569967  0.31572441  1
  O  O13  1  0.79689076  0.45580192  0.10839142  1
  O  O14  1  0.69518799  0.06201799  0.81660429  1
  O  O15  1  0.68899552  0.46481846  0.61618826  1
  O  O16  1  0.68854690  0.66164323  0.01613320  1
  O  O17  1  0.70752084  0.85411258  0.40965975  1
  O  O18  1  0.30225406  0.33781206  0.98225306  1
  O  O19  1  0.31149499  0.74131640  0.78422078  1
  O  O20  1  0.31442406  0.93442321  0.18333772  1
  O  O21  1  0.29660278  0.54605948  0.39071336  1
  O  O22  1  0.20262298  0.14689628  0.09230788  1
  O  O23  1  0.19637315  0.93731474  0.68650256  1
  O  O24  1  0.18559768  0.33453086  0.48440091  1
  F  F25  1  0.81029341  0.86388137  0.92283142  1
  F  F26  1  0.69024484  0.26524780  0.22184948  1
  F  F27  1  0.30724391  0.13358512  0.57790330  1
  F  F28  1  0.18816264  0.53926457  0.88608630  1
  F  F29  1  0.19467028  0.73498202  0.27340089  1
