# generated using pymatgen
data_LuSbO4
_symmetry_space_group_name_H-M   'P 1'
_cell_length_a   5.31773084
_cell_length_b   7.61548767
_cell_length_c   7.51654654
_cell_angle_alpha   81.13302249
_cell_angle_beta   91.17495483
_cell_angle_gamma   91.18743269
_symmetry_Int_Tables_number   1
_chemical_formula_structural   LuSbO4
_chemical_formula_sum   'Lu4 Sb4 O16'
_cell_volume   300.64977111
_cell_formula_units_Z   4
loop_
 _symmetry_equiv_pos_site_id
 _symmetry_equiv_pos_as_xyz
  1  'x, y, z'
loop_
 _atom_site_type_symbol
 _atom_site_label
 _atom_site_symmetry_multiplicity
 _atom_site_fract_x
 _atom_site_fract_y
 _atom_site_fract_z
 _atom_site_occupancy
  Lu  Lu0  1  0.25731604  0.14822665  0.63223065  1
  Lu  Lu1  1  0.74268396  0.85177335  0.36776935  1
  Lu  Lu2  1  0.22227218  0.15424285  0.11909586  1
  Lu  Lu3  1  0.77772782  0.84575715  0.88090414  1
  Sb  Sb4  1  0.24029156  0.65904529  0.18988188  1
  Sb  Sb5  1  0.75970844  0.34095471  0.81011812  1
  Sb  Sb6  1  0.73789730  0.32939052  0.31060759  1
  Sb  Sb7  1  0.26210270  0.67060948  0.68939241  1
  O  O8  1  0.08504995  0.43435508  0.68639545  1
  O  O9  1  0.91495005  0.56564492  0.31360455  1
  O  O10  1  0.60846506  0.31465345  0.56265908  1
  O  O11  1  0.39153494  0.68534655  0.43734092  1
  O  O12  1  0.89081016  0.33390611  0.06329625  1
  O  O13  1  0.10918984  0.66609389  0.93670375  1
  O  O14  1  0.40505333  0.42415807  0.19886212  1
  O  O15  1  0.59494667  0.57584193  0.80113788  1
  O  O16  1  0.04526218  0.88819994  0.17005144  1
  O  O17  1  0.95473782  0.11180006  0.82994856  1
  O  O18  1  0.54742036  0.10138771  0.30211812  1
  O  O19  1  0.45257964  0.89861229  0.69788188  1
  O  O20  1  0.45775535  0.20187316  0.88702498  1
  O  O21  1  0.54224465  0.79812684  0.11297502  1
  O  O22  1  0.03033944  0.17890375  0.38579050  1
  O  O23  1  0.96966056  0.82109625  0.61420950  1
