# generated using pymatgen
data_SmIn2Pd
_symmetry_space_group_name_H-M   'P 1'
_cell_length_a   9.25801519
_cell_length_b   10.98482307
_cell_length_c   10.98482307
_cell_angle_alpha   79.77127143
_cell_angle_beta   65.07697495
_cell_angle_gamma   65.07697495
_symmetry_Int_Tables_number   1
_chemical_formula_structural   SmIn2Pd
_chemical_formula_sum   'Sm10 In20 Pd10'
_cell_volume   918.75271162
_cell_formula_units_Z   10
loop_
 _symmetry_equiv_pos_site_id
 _symmetry_equiv_pos_as_xyz
  1  'x, y, z'
loop_
 _atom_site_type_symbol
 _atom_site_label
 _atom_site_symmetry_multiplicity
 _atom_site_fract_x
 _atom_site_fract_y
 _atom_site_fract_z
 _atom_site_occupancy
  Sm  Sm0  1  0.66812801  0.71941082  0.71941082  1
  Sm  Sm1  1  0.10694964  0.28058918  0.28058918  1
  Sm  Sm2  1  0.38753883  0.28058918  0.71941082  1
  Sm  Sm3  1  0.38753883  0.71941082  0.28058918  1
  Sm  Sm4  1  0.67466457  -0.00000000  0.40364363  1
  Sm  Sm5  1  0.07830819  0.00000000  0.59635637  1
  Sm  Sm6  1  0.07830819  0.59635637  -0.00000000  1
  Sm  Sm7  1  0.67466457  0.40364363  -0.00000000  1
  Sm  Sm8  1  0.46244550  0.00000000  0.00000000  1
  Sm  Sm9  1  0.99296598  0.00000000  0.00000000  1
  In  In10  1  0.26647110  0.21035039  0.50692109  1
  In  In11  1  0.98374258  0.78964961  0.49307891  1
  In  In12  1  0.77339219  0.49307891  0.21035039  1
  In  In13  1  0.26647110  0.50692109  0.21035039  1
  In  In14  1  0.47682149  0.50692109  0.78964961  1
  In  In15  1  0.98374258  0.49307891  0.78964961  1
  In  In16  1  0.77339219  0.21035039  0.49307891  1
  In  In17  1  0.47682149  0.78964961  0.50692109  1
  In  In18  1  0.24850611  0.61721159  0.61721159  1
  In  In19  1  0.48292930  0.38278841  0.38278841  1
  In  In20  1  0.86571770  0.38278841  0.61721159  1
  In  In21  1  0.86571770  0.61721159  0.38278841  1
  In  In22  1  0.35654433  0.00000000  0.73325579  1
  In  In23  1  0.08980012  -0.00000000  0.26674421  1
  In  In24  1  0.08980012  0.26674421  0.00000000  1
  In  In25  1  0.35654433  0.73325579  -0.00000000  1
  In  In26  1  0.88457321  0.83479919  0.83479919  1
  In  In27  1  0.55417159  0.16520081  0.16520081  1
  In  In28  1  0.71937240  0.16520081  0.83479919  1
  In  In29  1  0.71937240  0.83479919  0.16520081  1
  Pd  Pd30  1  0.11607938  0.50000000  0.50000000  1
  Pd  Pd31  1  0.61607938  0.50000000  0.50000000  1
  Pd  Pd32  1  0.37540448  -0.00000000  0.31994770  1
  Pd  Pd33  1  0.69535218  0.00000000  0.68005230  1
  Pd  Pd34  1  0.69535218  0.68005230  -0.00000000  1
  Pd  Pd35  1  0.37540448  0.31994770  0.00000000  1
  Pd  Pd36  1  0.24360977  0.78489312  0.78489312  1
  Pd  Pd37  1  0.81339602  0.21510688  0.21510688  1
  Pd  Pd38  1  0.02850289  0.21510688  0.78489312  1
  Pd  Pd39  1  0.02850289  0.78489312  0.21510688  1
