# generated using pymatgen
data_KWCl6
_symmetry_space_group_name_H-M   'P 1'
_cell_length_a   6.40404917
_cell_length_b   6.84021996
_cell_length_c   12.29001597
_cell_angle_alpha   100.36231917
_cell_angle_beta   89.99999995
_cell_angle_gamma   117.91215359
_symmetry_Int_Tables_number   1
_chemical_formula_structural   KWCl6
_chemical_formula_sum   'K2 W2 Cl12'
_cell_volume   465.77546955
_cell_formula_units_Z   2
loop_
 _symmetry_equiv_pos_site_id
 _symmetry_equiv_pos_as_xyz
  1  'x, y, z'
loop_
 _atom_site_type_symbol
 _atom_site_label
 _atom_site_symmetry_multiplicity
 _atom_site_fract_x
 _atom_site_fract_y
 _atom_site_fract_z
 _atom_site_occupancy
  K  K0  1  0.88193600  0.00000000  0.75000000  1
  K  K1  1  0.11806400  1.00000000  0.25000000  1
  W  W2  1  0.50000000  0.50000000  -0.00000000  1
  W  W3  1  0.00000000  0.50000000  0.50000000  1
  Cl  Cl4  1  0.46156292  0.16007464  0.89618631  1
  Cl  Cl5  1  0.53843708  0.83992536  0.10381369  1
  Cl  Cl6  1  0.30148829  0.83992536  0.60381369  1
  Cl  Cl7  1  0.69851171  0.16007464  0.39618631  1
  Cl  Cl8  1  0.37234833  0.57283145  0.84037985  1
  Cl  Cl9  1  0.62765167  0.42716855  0.15962015  1
  Cl  Cl10  1  0.79951689  0.42716855  0.65962015  1
  Cl  Cl11  1  0.20048311  0.57283145  0.34037985  1
  Cl  Cl12  1  0.79742615  0.69225079  0.45944195  1
  Cl  Cl13  1  0.20257385  0.30774921  0.54055805  1
  Cl  Cl14  1  0.10517536  0.30774921  0.04055805  1
  Cl  Cl15  1  0.89482464  0.69225079  0.95944195  1
