# generated using pymatgen
data_Fe3O5F
_symmetry_space_group_name_H-M   'P 1'
_cell_length_a   4.66287949
_cell_length_b   13.97035230
_cell_length_c   3.00245081
_cell_angle_alpha   90.00000000
_cell_angle_beta   90.00000000
_cell_angle_gamma   92.54026898
_symmetry_Int_Tables_number   1
_chemical_formula_structural   Fe3O5F
_chemical_formula_sum   'Fe6 O10 F2'
_cell_volume   195.39365982
_cell_formula_units_Z   2
loop_
 _symmetry_equiv_pos_site_id
 _symmetry_equiv_pos_as_xyz
  1  'x, y, z'
loop_
 _atom_site_type_symbol
 _atom_site_label
 _atom_site_symmetry_multiplicity
 _atom_site_fract_x
 _atom_site_fract_y
 _atom_site_fract_z
 _atom_site_occupancy
  Fe  Fe0  1  0.00000000  0.00000000  0.00000000  1
  Fe  Fe1  1  0.97809841  0.34065316  0.00000000  1
  Fe  Fe2  1  0.02190159  0.65934684  0.00000000  1
  Fe  Fe3  1  0.51834764  0.16068769  0.50000000  1
  Fe  Fe4  1  0.50000000  0.50000000  0.50000000  1
  Fe  Fe5  1  0.48165236  0.83931231  0.50000000  1
  O  O6  1  0.20375529  0.60324181  0.50000000  1
  O  O7  1  0.17934248  0.93785868  0.50000000  1
  O  O8  1  0.31984400  0.10156608  0.00000000  1
  O  O9  1  0.30333031  0.77081517  0.00000000  1
  O  O10  1  0.30109269  0.43533852  0.00000000  1
  O  O11  1  0.69666969  0.22918483  0.00000000  1
  O  O12  1  0.69890731  0.56466148  0.00000000  1
  O  O13  1  0.68015600  0.89843392  0.00000000  1
  O  O14  1  0.82065752  0.06214132  0.50000000  1
  O  O15  1  0.79624471  0.39675819  0.50000000  1
  F  F16  1  0.19141498  0.26665603  0.50000000  1
  F  F17  1  0.80858502  0.73334397  0.50000000  1
