# generated using pymatgen
data_KZn(PO3)3
_symmetry_space_group_name_H-M   'P 1'
_cell_length_a   6.69134998
_cell_length_b   6.69134998
_cell_length_c   10.00972149
_cell_angle_alpha   90.00000000
_cell_angle_beta   90.00000000
_cell_angle_gamma   119.99999126
_symmetry_Int_Tables_number   1
_chemical_formula_structural   KZn(PO3)3
_chemical_formula_sum   'K2 Zn2 P6 O18'
_cell_volume   388.13262938
_cell_formula_units_Z   2
loop_
 _symmetry_equiv_pos_site_id
 _symmetry_equiv_pos_as_xyz
  1  'x, y, z'
loop_
 _atom_site_type_symbol
 _atom_site_label
 _atom_site_symmetry_multiplicity
 _atom_site_fract_x
 _atom_site_fract_y
 _atom_site_fract_z
 _atom_site_occupancy
  K  K0  1  0.33333300  0.66666700  0.00000000  1
  K  K1  1  0.33333300  0.66666700  0.50000000  1
  Zn  Zn2  1  0.00000000  0.00000000  -0.00000000  1
  Zn  Zn3  1  0.00000000  0.00000000  0.50000000  1
  P  P4  1  0.89264970  0.27571324  0.75000000  1
  P  P5  1  0.38306353  0.10735030  0.75000000  1
  P  P6  1  0.38306353  0.27571324  0.25000000  1
  P  P7  1  0.72428676  0.61693647  0.75000000  1
  P  P8  1  0.72428676  0.10735030  0.25000000  1
  P  P9  1  0.89264970  0.61693647  0.25000000  1
  O  O10  1  0.74062197  0.73826870  0.87880905  1
  O  O11  1  0.99764674  0.25937803  0.87880905  1
  O  O12  1  0.74062197  0.73826870  0.62119095  1
  O  O13  1  0.99764674  0.73826870  0.37880905  1
  O  O14  1  0.26173130  0.00235326  0.87880905  1
  O  O15  1  0.99764674  0.25937803  0.62119095  1
  O  O16  1  0.26173130  0.25937803  0.37880905  1
  O  O17  1  0.99764674  0.73826870  0.12119095  1
  O  O18  1  0.26173130  0.00235326  0.62119095  1
  O  O19  1  0.26173130  0.25937803  0.12119095  1
  O  O20  1  0.74062197  0.00235326  0.37880905  1
  O  O21  1  0.74062197  0.00235326  0.12119095  1
  O  O22  1  0.90493530  0.52383908  0.75000000  1
  O  O23  1  0.61890378  0.09506470  0.75000000  1
  O  O24  1  0.61890378  0.52383908  0.25000000  1
  O  O25  1  0.47616092  0.38109622  0.75000000  1
  O  O26  1  0.47616092  0.09506470  0.25000000  1
  O  O27  1  0.90493530  0.38109622  0.25000000  1
