# generated using pymatgen
data_KLa(WO4)2
_symmetry_space_group_name_H-M   'P 1'
_cell_length_a   7.62322921
_cell_length_b   7.62322921
_cell_length_c   7.67165053
_cell_angle_alpha   113.88267104
_cell_angle_beta   113.88267104
_cell_angle_gamma   92.97139727
_symmetry_Int_Tables_number   1
_chemical_formula_structural   KLa(WO4)2
_chemical_formula_sum   'K2 La2 W4 O16'
_cell_volume   360.12466910
_cell_formula_units_Z   2
loop_
 _symmetry_equiv_pos_site_id
 _symmetry_equiv_pos_as_xyz
  1  'x, y, z'
loop_
 _atom_site_type_symbol
 _atom_site_label
 _atom_site_symmetry_multiplicity
 _atom_site_fract_x
 _atom_site_fract_y
 _atom_site_fract_z
 _atom_site_occupancy
  K  K0  1  0.69061081  0.69061081  0.52818438  1
  K  K1  1  0.30938919  0.30938919  0.47181562  1
  La  La2  1  0.70085548  0.29914452  0.00000000  1
  La  La3  1  0.29914452  0.70085548  0.00000000  1
  W  W4  1  0.20424247  0.20424247  0.94218688  1
  W  W5  1  0.79575753  0.79575753  0.05781312  1
  W  W6  1  0.83997600  0.16002400  0.50000000  1
  W  W7  1  0.16002400  0.83997600  0.50000000  1
  O  O8  1  0.34336285  0.09376324  0.73949047  1
  O  O9  1  0.65663715  0.90623676  0.26050953  1
  O  O10  1  0.90623676  0.65663715  0.26050953  1
  O  O11  1  0.09376324  0.34336285  0.73949047  1
  O  O12  1  0.69304280  0.21384799  0.64295878  1
  O  O13  1  0.30695720  0.78615201  0.35704122  1
  O  O14  1  0.78615201  0.30695720  0.35704122  1
  O  O15  1  0.21384799  0.69304280  0.64295878  1
  O  O16  1  0.70597408  0.95720430  0.93702527  1
  O  O17  1  0.29402592  0.04279570  0.06297473  1
  O  O18  1  0.04279570  0.29402592  0.06297473  1
  O  O19  1  0.95720430  0.70597408  0.93702527  1
  O  O20  1  0.98398610  0.98398610  0.65543779  1
  O  O21  1  0.01601390  0.01601390  0.34456221  1
  O  O22  1  0.57525325  0.57525325  0.89141878  1
  O  O23  1  0.42474675  0.42474675  0.10858122  1
