# generated using pymatgen
data_KEr(MoO4)2
_symmetry_space_group_name_H-M   'P 1'
_cell_length_a   5.11755212
_cell_length_b   8.06663061
_cell_length_c   18.42838335
_cell_angle_alpha   90.00000000
_cell_angle_beta   90.00000000
_cell_angle_gamma   90.00000000
_symmetry_Int_Tables_number   1
_chemical_formula_structural   KEr(MoO4)2
_chemical_formula_sum   'K4 Er4 Mo8 O32'
_cell_volume   760.74951196
_cell_formula_units_Z   4
loop_
 _symmetry_equiv_pos_site_id
 _symmetry_equiv_pos_as_xyz
  1  'x, y, z'
loop_
 _atom_site_type_symbol
 _atom_site_label
 _atom_site_symmetry_multiplicity
 _atom_site_fract_x
 _atom_site_fract_y
 _atom_site_fract_z
 _atom_site_occupancy
  K  K0  1  -0.00000000  0.75000000  0.23009089  1
  K  K1  1  0.00000000  0.25000000  0.76990911  1
  K  K2  1  0.50000000  0.25000000  0.26990911  1
  K  K3  1  0.50000000  0.75000000  0.73009089  1
  Er  Er4  1  0.00000000  0.75000000  0.99412695  1
  Er  Er5  1  0.00000000  0.25000000  0.00587305  1
  Er  Er6  1  0.50000000  0.25000000  0.50587305  1
  Er  Er7  1  0.50000000  0.75000000  0.49412695  1
  Mo  Mo8  1  0.97764047  0.98390031  0.60088081  1
  Mo  Mo9  1  0.02235953  0.01609969  0.39911919  1
  Mo  Mo10  1  0.52235953  0.48390031  0.89911919  1
  Mo  Mo11  1  0.02235953  0.51609969  0.60088081  1
  Mo  Mo12  1  0.47764047  0.51609969  0.10088081  1
  Mo  Mo13  1  0.97764047  0.48390031  0.39911919  1
  Mo  Mo14  1  0.47764047  0.01609969  0.89911919  1
  Mo  Mo15  1  0.52235953  0.98390031  0.10088081  1
  O  O16  1  0.89786934  0.52555594  0.68925918  1
  O  O17  1  0.10213066  0.47444406  0.31074082  1
  O  O18  1  0.60213066  0.02555594  0.81074082  1
  O  O19  1  0.10213066  0.97444406  0.68925918  1
  O  O20  1  0.39786934  0.97444406  0.18925918  1
  O  O21  1  0.89786934  0.02555594  0.31074082  1
  O  O22  1  0.39786934  0.47444406  0.81074082  1
  O  O23  1  0.60213066  0.52555594  0.18925918  1
  O  O24  1  0.73239331  0.66261334  0.90144152  1
  O  O25  1  0.26760669  0.33738666  0.09855848  1
  O  O26  1  0.76760669  0.16261334  0.59855848  1
  O  O27  1  0.26760669  0.83738666  0.90144152  1
  O  O28  1  0.23239331  0.83738666  0.40144152  1
  O  O29  1  0.73239331  0.16261334  0.09855848  1
  O  O30  1  0.23239331  0.33738666  0.59855848  1
  O  O31  1  0.76760669  0.66261334  0.40144152  1
  O  O32  1  0.75300262  0.99519604  0.96533708  1
  O  O33  1  0.24699738  0.00480396  0.03466292  1
  O  O34  1  0.74699738  0.49519604  0.53466292  1
  O  O35  1  0.24699738  0.50480396  0.96533708  1
  O  O36  1  0.25300262  0.50480396  0.46533708  1
  O  O37  1  0.75300262  0.49519604  0.03466292  1
  O  O38  1  0.25300262  0.00480396  0.53466292  1
  O  O39  1  0.74699738  0.99519604  0.46533708  1
  O  O40  1  0.75289652  0.80960647  0.59218378  1
  O  O41  1  0.24710348  0.19039353  0.40781622  1
  O  O42  1  0.74710348  0.30960647  0.90781622  1
  O  O43  1  0.24710348  0.69039353  0.59218378  1
  O  O44  1  0.25289652  0.69039353  0.09218378  1
  O  O45  1  0.75289652  0.30960647  0.40781622  1
  O  O46  1  0.25289652  0.19039353  0.90781622  1
  O  O47  1  0.74710348  0.80960647  0.09218378  1
