# generated using pymatgen
data_K2RbYbV2O8
_symmetry_space_group_name_H-M   'P 1'
_cell_length_a   6.04182076
_cell_length_b   6.04182076
_cell_length_c   7.90732606
_cell_angle_alpha   90.00000000
_cell_angle_beta   90.00000000
_cell_angle_gamma   119.99999623
_symmetry_Int_Tables_number   1
_chemical_formula_structural   K2RbYbV2O8
_chemical_formula_sum   'K2 Rb1 Yb1 V2 O8'
_cell_volume   249.97465010
_cell_formula_units_Z   1
loop_
 _symmetry_equiv_pos_site_id
 _symmetry_equiv_pos_as_xyz
  1  'x, y, z'
loop_
 _atom_site_type_symbol
 _atom_site_label
 _atom_site_symmetry_multiplicity
 _atom_site_fract_x
 _atom_site_fract_y
 _atom_site_fract_z
 _atom_site_occupancy
  K  K0  1  0.66666700  0.33333300  0.30154369  1
  K  K1  1  0.33333300  0.66666700  0.69845631  1
  Rb  Rb2  1  0.00000000  0.00000000  -0.00000000  1
  Yb  Yb3  1  0.00000000  0.00000000  0.50000000  1
  V  V4  1  0.66666700  0.33333300  0.74859510  1
  V  V5  1  0.33333300  0.66666700  0.25140490  1
  O  O6  1  0.66666700  0.33333300  0.96621279  1
  O  O7  1  0.33333300  0.66666700  0.03378721  1
  O  O8  1  0.82371115  0.64742229  0.67343032  1
  O  O9  1  0.17628885  0.35257771  0.32656968  1
  O  O10  1  0.82371115  0.17628885  0.67343032  1
  O  O11  1  0.17628885  0.82371115  0.32656968  1
  O  O12  1  0.35257771  0.17628885  0.67343032  1
  O  O13  1  0.64742229  0.82371115  0.32656968  1
