# generated using pymatgen
data_LaGa4Os
_symmetry_space_group_name_H-M   'P 1'
_cell_length_a   7.76102497
_cell_length_b   8.91218878
_cell_length_c   9.79077769
_cell_angle_alpha   90.00000000
_cell_angle_beta   90.00000000
_cell_angle_gamma   90.00000000
_symmetry_Int_Tables_number   1
_chemical_formula_structural   LaGa4Os
_chemical_formula_sum   'La6 Ga24 Os6'
_cell_volume   677.20576650
_cell_formula_units_Z   6
loop_
 _symmetry_equiv_pos_site_id
 _symmetry_equiv_pos_as_xyz
  1  'x, y, z'
loop_
 _atom_site_type_symbol
 _atom_site_label
 _atom_site_symmetry_multiplicity
 _atom_site_fract_x
 _atom_site_fract_y
 _atom_site_fract_z
 _atom_site_occupancy
  La  La0  1  0.67846870  0.50000000  0.75000000  1
  La  La1  1  0.32153130  0.50000000  0.25000000  1
  La  La2  1  0.16121020  0.75108504  0.75000000  1
  La  La3  1  0.83878980  0.24891496  0.25000000  1
  La  La4  1  0.16121020  0.24891496  0.75000000  1
  La  La5  1  0.83878980  0.75108504  0.25000000  1
  Ga  Ga6  1  0.82067029  0.76445568  0.92476006  1
  Ga  Ga7  1  0.17932971  0.23554432  0.07523994  1
  Ga  Ga8  1  0.82067029  0.23554432  0.57523994  1
  Ga  Ga9  1  0.17932971  0.76445568  0.07523994  1
  Ga  Ga10  1  0.17932971  0.76445568  0.42476006  1
  Ga  Ga11  1  0.82067029  0.23554432  0.92476006  1
  Ga  Ga12  1  0.17932971  0.23554432  0.42476006  1
  Ga  Ga13  1  0.82067029  0.76445568  0.57523994  1
  Ga  Ga14  1  0.86950749  0.00000000  0.75000000  1
  Ga  Ga15  1  0.13049251  0.00000000  0.25000000  1
  Ga  Ga16  1  0.66152422  0.00000000  0.43973268  1
  Ga  Ga17  1  0.33847578  0.00000000  0.56026732  1
  Ga  Ga18  1  0.66152422  0.00000000  0.06026732  1
  Ga  Ga19  1  0.33847578  0.00000000  0.93973268  1
  Ga  Ga20  1  0.54791954  0.84377969  0.75000000  1
  Ga  Ga21  1  0.45208046  0.15622031  0.25000000  1
  Ga  Ga22  1  0.54791954  0.15622031  0.75000000  1
  Ga  Ga23  1  0.45208046  0.84377969  0.25000000  1
  Ga  Ga24  1  0.34390185  0.50000000  0.91514505  1
  Ga  Ga25  1  0.65609815  0.50000000  0.08485495  1
  Ga  Ga26  1  0.34390185  0.50000000  0.58485495  1
  Ga  Ga27  1  0.65609815  0.50000000  0.41514505  1
  Ga  Ga28  1  -0.00000000  0.50000000  -0.00000000  1
  Ga  Ga29  1  -0.00000000  0.50000000  0.50000000  1
  Os  Os30  1  0.50000000  0.74153370  -0.00000000  1
  Os  Os31  1  0.50000000  0.25846630  -0.00000000  1
  Os  Os32  1  0.50000000  0.25846630  0.50000000  1
  Os  Os33  1  0.50000000  0.74153370  0.50000000  1
  Os  Os34  1  -0.00000000  0.00000000  -0.00000000  1
  Os  Os35  1  -0.00000000  0.00000000  0.50000000  1
