# generated using pymatgen
data_KTmP2O7
_symmetry_space_group_name_H-M   'P 1'
_cell_length_a   7.77484802
_cell_length_b   8.72444729
_cell_length_c   10.91609931
_cell_angle_alpha   90.00000000
_cell_angle_beta   90.00000000
_cell_angle_gamma   106.61878404
_symmetry_Int_Tables_number   1
_chemical_formula_structural   KTmP2O7
_chemical_formula_sum   'K4 Tm4 P8 O28'
_cell_volume   709.52312915
_cell_formula_units_Z   4
loop_
 _symmetry_equiv_pos_site_id
 _symmetry_equiv_pos_as_xyz
  1  'x, y, z'
loop_
 _atom_site_type_symbol
 _atom_site_label
 _atom_site_symmetry_multiplicity
 _atom_site_fract_x
 _atom_site_fract_y
 _atom_site_fract_z
 _atom_site_occupancy
  K  K0  1  0.82294387  0.93993230  0.32142485  1
  K  K1  1  0.17705613  0.06006770  0.67857515  1
  K  K2  1  0.17705613  0.56006770  0.82142485  1
  K  K3  1  0.82294387  0.43993230  0.17857515  1
  Tm  Tm4  1  0.76374680  0.74310447  0.89967107  1
  Tm  Tm5  1  0.23625320  0.25689553  0.10032893  1
  Tm  Tm6  1  0.23625320  0.75689553  0.39967107  1
  Tm  Tm7  1  0.76374680  0.24310447  0.60032893  1
  P  P8  1  0.56386034  0.80712818  0.63445999  1
  P  P9  1  0.43613966  0.19287182  0.36554001  1
  P  P10  1  0.43613966  0.69287182  0.13445999  1
  P  P11  1  0.56386034  0.30712818  0.86554001  1
  P  P12  1  0.86993198  0.67919066  0.59769952  1
  P  P13  1  0.13006802  0.32080934  0.40230048  1
  P  P14  1  0.13006802  0.82080934  0.09769952  1
  P  P15  1  0.86993198  0.17919066  0.90230048  1
  O  O16  1  0.37894959  0.76367208  0.57433477  1
  O  O17  1  0.62105041  0.23632792  0.42566523  1
  O  O18  1  0.62105041  0.73632792  0.07433477  1
  O  O19  1  0.37894959  0.26367208  0.92566523  1
  O  O20  1  0.92458978  0.74922056  0.72616037  1
  O  O21  1  0.07541022  0.25077944  0.27383963  1
  O  O22  1  0.07541022  0.75077944  0.22616037  1
  O  O23  1  0.92458978  0.24922056  0.77383963  1
  O  O24  1  0.54767490  0.75825776  0.76991551  1
  O  O25  1  0.45232510  0.24174224  0.23008449  1
  O  O26  1  0.45232510  0.74174224  0.26991551  1
  O  O27  1  0.54767490  0.25825776  0.73008449  1
  O  O28  1  0.67333051  0.97963473  0.61012512  1
  O  O29  1  0.32666949  0.02036527  0.38987488  1
  O  O30  1  0.32666949  0.52036527  0.11012512  1
  O  O31  1  0.67333051  0.47963473  0.88987488  1
  O  O32  1  0.85485260  0.00268337  0.90859394  1
  O  O33  1  0.14514740  0.99731663  0.09140606  1
  O  O34  1  0.14514740  0.49731663  0.40859394  1
  O  O35  1  0.85485260  0.50268337  0.59140606  1
  O  O36  1  0.67092507  0.69548240  0.56533176  1
  O  O37  1  0.32907493  0.30451760  0.43466824  1
  O  O38  1  0.32907493  0.80451760  0.06533176  1
  O  O39  1  0.67092507  0.19548240  0.93466824  1
  O  O40  1  0.00557683  0.72098053  0.99953288  1
  O  O41  1  0.99442317  0.27901947  0.00046712  1
  O  O42  1  0.99442317  0.77901947  0.49953288  1
  O  O43  1  0.00557683  0.22098053  0.50046712  1
