# generated using pymatgen
data_Pr8Sb14Rh17
_symmetry_space_group_name_H-M   'P 1'
_cell_length_a   12.31146204
_cell_length_b   12.31146204
_cell_length_c   14.00718537
_cell_angle_alpha   116.07003723
_cell_angle_beta   116.07003723
_cell_angle_gamma   90.00000000
_symmetry_Int_Tables_number   1
_chemical_formula_structural   Pr8Sb14Rh17
_chemical_formula_sum   'Pr16 Sb28 Rh34'
_cell_volume   1663.25916066
_cell_formula_units_Z   2
loop_
 _symmetry_equiv_pos_site_id
 _symmetry_equiv_pos_as_xyz
  1  'x, y, z'
loop_
 _atom_site_type_symbol
 _atom_site_label
 _atom_site_symmetry_multiplicity
 _atom_site_fract_x
 _atom_site_fract_y
 _atom_site_fract_z
 _atom_site_occupancy
  Pr  Pr0  1  0.41339418  0.91339418  0.35433382  1
  Pr  Pr1  1  0.94093964  0.44093964  0.35433382  1
  Pr  Pr2  1  0.44093964  0.41339418  0.35433382  1
  Pr  Pr3  1  0.91339418  0.94093964  0.35433382  1
  Pr  Pr4  1  0.16976241  0.16976241  0.33952482  1
  Pr  Pr5  1  0.66976241  0.66976241  0.33952482  1
  Pr  Pr6  1  0.67091061  0.17091061  0.34182121  1
  Pr  Pr7  1  0.17091061  0.67091061  0.34182121  1
  Pr  Pr8  1  0.43828672  0.67679046  0.85678758  1
  Pr  Pr9  1  0.41850086  0.17999712  0.85678758  1
  Pr  Pr10  1  0.17999712  0.43828672  0.85678758  1
  Pr  Pr11  1  0.93828672  0.67999712  0.85678758  1
  Pr  Pr12  1  0.67679046  0.41850086  0.85678758  1
  Pr  Pr13  1  0.91850086  0.17679046  0.85678758  1
  Pr  Pr14  1  0.67999712  0.91850086  0.85678758  1
  Pr  Pr15  1  0.17679046  0.93828672  0.85678758  1
  Sb  Sb16  1  0.48338309  0.22387047  0.46820648  1
  Sb  Sb17  1  0.98482339  0.24433601  0.46820648  1
  Sb  Sb18  1  0.24433601  0.48338309  0.46820648  1
  Sb  Sb19  1  0.98338309  0.74433601  0.46820648  1
  Sb  Sb20  1  0.22387047  0.98482339  0.46820648  1
  Sb  Sb21  1  0.48482339  0.72387047  0.46820648  1
  Sb  Sb22  1  0.74433601  0.48482339  0.46820648  1
  Sb  Sb23  1  0.72387047  0.98338309  0.46820648  1
  Sb  Sb24  1  0.21128518  0.17457659  0.11141580  1
  Sb  Sb25  1  0.90013061  0.93683921  0.11141580  1
  Sb  Sb26  1  0.93683921  0.21128518  0.11141580  1
  Sb  Sb27  1  0.71128518  0.43683921  0.11141580  1
  Sb  Sb28  1  0.17457659  0.90013061  0.11141580  1
  Sb  Sb29  1  0.40013061  0.67457659  0.11141580  1
  Sb  Sb30  1  0.43683921  0.40013061  0.11141580  1
  Sb  Sb31  1  0.67457659  0.71128518  0.11141580  1
  Sb  Sb32  1  0.37666331  0.37666331  0.75332661  1
  Sb  Sb33  1  0.87666331  0.87666331  0.75332661  1
  Sb  Sb34  1  0.62245342  0.12245342  0.06613640  1
  Sb  Sb35  1  0.44368298  0.94368298  0.06613640  1
  Sb  Sb36  1  0.94368298  0.62245342  0.06613640  1
  Sb  Sb37  1  0.12245342  0.44368298  0.06613640  1
  Sb  Sb38  1  0.87586162  0.37586162  0.75172325  1
  Sb  Sb39  1  0.37586162  0.87586162  0.75172325  1
  Sb  Sb40  1  0.60817651  0.10817651  0.73126749  1
  Sb  Sb41  1  0.12309098  0.62309098  0.73126749  1
  Sb  Sb42  1  0.62309098  0.60817651  0.73126749  1
  Sb  Sb43  1  0.10817651  0.12309098  0.73126749  1
  Rh  Rh44  1  0.15401383  0.38017868  0.23483345  1
  Rh  Rh45  1  0.08081962  0.85465477  0.23483345  1
  Rh  Rh46  1  0.85465477  0.15401383  0.23483345  1
  Rh  Rh47  1  0.65401383  0.35465477  0.23483345  1
  Rh  Rh48  1  0.38017868  0.08081962  0.23483345  1
  Rh  Rh49  1  0.58081962  0.88017868  0.23483345  1
  Rh  Rh50  1  0.35465477  0.58081962  0.23483345  1
  Rh  Rh51  1  0.88017868  0.65401383  0.23483345  1
  Rh  Rh52  1  0.41712854  0.91712854  0.59646987  1
  Rh  Rh53  1  0.17934133  0.67934133  0.59646987  1
  Rh  Rh54  1  0.67934133  0.41712854  0.59646987  1
  Rh  Rh55  1  0.91712854  0.17934133  0.59646987  1
  Rh  Rh56  1  0.16938998  0.66938998  0.08876095  1
  Rh  Rh57  1  0.91937097  0.41937097  0.08876095  1
  Rh  Rh58  1  0.41937097  0.16938998  0.08876095  1
  Rh  Rh59  1  0.66938998  0.91937097  0.08876095  1
  Rh  Rh60  1  0.70955756  0.20955756  0.96252690  1
  Rh  Rh61  1  0.25296934  0.75296934  0.96252690  1
  Rh  Rh62  1  0.75296934  0.70955756  0.96252690  1
  Rh  Rh63  1  0.20955756  0.25296934  0.96252690  1
  Rh  Rh64  1  0.42852940  0.41899006  0.60317455  1
  Rh  Rh65  1  0.17464515  0.18418448  0.60317455  1
  Rh  Rh66  1  0.18418448  0.42852940  0.60317455  1
  Rh  Rh67  1  0.92852940  0.68418448  0.60317455  1
  Rh  Rh68  1  0.41899006  0.17464515  0.60317455  1
  Rh  Rh69  1  0.67464515  0.91899006  0.60317455  1
  Rh  Rh70  1  0.68418448  0.67464515  0.60317455  1
  Rh  Rh71  1  0.91899006  0.92852940  0.60317455  1
  Rh  Rh72  1  0.93195118  0.43195118  0.61301414  1
  Rh  Rh73  1  0.68106296  0.18106296  0.61301414  1
  Rh  Rh74  1  0.18106296  0.93195118  0.61301414  1
  Rh  Rh75  1  0.43195118  0.68106296  0.61301414  1
  Rh  Rh76  1  0.00275678  0.00275678  0.00551355  1
  Rh  Rh77  1  0.50275678  0.50275678  0.00551355  1
