# generated using pymatgen
data_K3TmF6
_symmetry_space_group_name_H-M   'P 1'
_cell_length_a   6.35656625
_cell_length_b   6.57208109
_cell_length_c   9.11389693
_cell_angle_alpha   90.00000000
_cell_angle_beta   89.67707320
_cell_angle_gamma   90.00000000
_symmetry_Int_Tables_number   1
_chemical_formula_structural   K3TmF6
_chemical_formula_sum   'K6 Tm2 F12'
_cell_volume   380.73491544
_cell_formula_units_Z   2
loop_
 _symmetry_equiv_pos_site_id
 _symmetry_equiv_pos_as_xyz
  1  'x, y, z'
loop_
 _atom_site_type_symbol
 _atom_site_label
 _atom_site_symmetry_multiplicity
 _atom_site_fract_x
 _atom_site_fract_y
 _atom_site_fract_z
 _atom_site_occupancy
  K  K0  1  -0.00000000  0.00000000  0.50000000  1
  K  K1  1  0.50000000  0.50000000  0.00000000  1
  K  K2  1  0.01191036  0.45068775  0.25304765  1
  K  K3  1  0.98808964  0.54931225  0.74695235  1
  K  K4  1  0.48808964  0.95068775  0.24695235  1
  K  K5  1  0.51191036  0.04931225  0.75304765  1
  Tm  Tm6  1  -0.00000000  -0.00000000  0.00000000  1
  Tm  Tm7  1  0.50000000  0.50000000  0.50000000  1
  F  F8  1  0.16828918  0.72877821  0.06377693  1
  F  F9  1  0.83171082  0.27122179  0.93622307  1
  F  F10  1  0.33171082  0.22877821  0.43622307  1
  F  F11  1  0.66828918  0.77122179  0.56377693  1
  F  F12  1  0.89551477  0.04907980  0.22238410  1
  F  F13  1  0.10448523  0.95092020  0.77761590  1
  F  F14  1  0.60448523  0.54907980  0.27761590  1
  F  F15  1  0.39551477  0.45092020  0.72238410  1
  F  F16  1  0.27683844  0.17534764  0.04676918  1
  F  F17  1  0.72316156  0.82465236  0.95323082  1
  F  F18  1  0.22316156  0.67534764  0.45323082  1
  F  F19  1  0.77683844  0.32465236  0.54676918  1
