# generated using pymatgen
data_KGd2Cl7
_symmetry_space_group_name_H-M   'P 1'
_cell_length_a   7.03011758
_cell_length_b   12.82048889
_cell_length_c   13.38728006
_cell_angle_alpha   90.00000000
_cell_angle_beta   90.68966710
_cell_angle_gamma   90.00000000
_symmetry_Int_Tables_number   1
_chemical_formula_structural   KGd2Cl7
_chemical_formula_sum   'K4 Gd8 Cl28'
_cell_volume   1206.50204224
_cell_formula_units_Z   4
loop_
 _symmetry_equiv_pos_site_id
 _symmetry_equiv_pos_as_xyz
  1  'x, y, z'
loop_
 _atom_site_type_symbol
 _atom_site_label
 _atom_site_symmetry_multiplicity
 _atom_site_fract_x
 _atom_site_fract_y
 _atom_site_fract_z
 _atom_site_occupancy
  K  K0  1  0.26593405  0.79848139  0.03750406  1
  K  K1  1  0.73406595  0.20151861  0.96249594  1
  K  K2  1  0.73406595  0.29848139  0.46249594  1
  K  K3  1  0.26593405  0.70151861  0.53750406  1
  Gd  Gd4  1  0.22089184  0.46263877  0.23724129  1
  Gd  Gd5  1  0.77910816  0.53736123  0.76275871  1
  Gd  Gd6  1  0.77910816  0.96263877  0.26275871  1
  Gd  Gd7  1  0.22089184  0.03736123  0.73724129  1
  Gd  Gd8  1  0.27454841  0.16033533  0.24838443  1
  Gd  Gd9  1  0.72545159  0.83966467  0.75161557  1
  Gd  Gd10  1  0.72545159  0.66033533  0.25161557  1
  Gd  Gd11  1  0.27454841  0.33966467  0.74838443  1
  Cl  Cl12  1  0.05682585  0.02619954  0.13361834  1
  Cl  Cl13  1  0.94317415  0.97380046  0.86638166  1
  Cl  Cl14  1  0.94317415  0.52619954  0.36638166  1
  Cl  Cl15  1  0.05682585  0.47380046  0.63361834  1
  Cl  Cl16  1  0.25743147  0.31490744  0.39167199  1
  Cl  Cl17  1  0.74256853  0.68509256  0.60832801  1
  Cl  Cl18  1  0.74256853  0.81490744  0.10832801  1
  Cl  Cl19  1  0.25743147  0.18509256  0.89167199  1
  Cl  Cl20  1  0.48379320  0.32226760  0.17262007  1
  Cl  Cl21  1  0.51620680  0.67773240  0.82737993  1
  Cl  Cl22  1  0.51620680  0.82226760  0.32737993  1
  Cl  Cl23  1  0.48379320  0.17773240  0.67262007  1
  Cl  Cl24  1  0.02554346  0.07479852  0.37977410  1
  Cl  Cl25  1  0.97445654  0.92520148  0.62022590  1
  Cl  Cl26  1  0.97445654  0.57479852  0.12022590  1
  Cl  Cl27  1  0.02554346  0.42520148  0.87977410  1
  Cl  Cl28  1  0.53786007  0.05868586  0.12996698  1
  Cl  Cl29  1  0.46213993  0.94131414  0.87003302  1
  Cl  Cl30  1  0.46213993  0.55868586  0.37003302  1
  Cl  Cl31  1  0.53786007  0.44131414  0.62996698  1
  Cl  Cl32  1  0.00263267  0.29658252  0.17552178  1
  Cl  Cl33  1  0.99736733  0.70341748  0.82447822  1
  Cl  Cl34  1  0.99736733  0.79658252  0.32447822  1
  Cl  Cl35  1  0.00263267  0.20341748  0.67552178  1
  Cl  Cl36  1  0.54551210  0.08770787  0.37809149  1
  Cl  Cl37  1  0.45448790  0.91229213  0.62190851  1
  Cl  Cl38  1  0.45448790  0.58770787  0.12190851  1
  Cl  Cl39  1  0.54551210  0.41229213  0.87809149  1
