# generated using pymatgen
data_Co3(OF2)2
_symmetry_space_group_name_H-M   'P 1'
_cell_length_a   4.66753222
_cell_length_b   7.63225513
_cell_length_c   5.61794661
_cell_angle_alpha   93.21509852
_cell_angle_beta   91.17849473
_cell_angle_gamma   88.40667656
_symmetry_Int_Tables_number   1
_chemical_formula_structural   Co3(OF2)2
_chemical_formula_sum   'Co6 O4 F8'
_cell_volume   199.70409853
_cell_formula_units_Z   2
loop_
 _symmetry_equiv_pos_site_id
 _symmetry_equiv_pos_as_xyz
  1  'x, y, z'
loop_
 _atom_site_type_symbol
 _atom_site_label
 _atom_site_symmetry_multiplicity
 _atom_site_fract_x
 _atom_site_fract_y
 _atom_site_fract_z
 _atom_site_occupancy
  Co  Co0  1  0.48630191  0.00548057  0.49163975  1
  Co  Co1  1  0.49323254  0.33582550  0.83510577  1
  Co  Co2  1  0.53825676  0.66597268  0.17591113  1
  Co  Co3  1  0.97067077  0.67473863  0.66915650  1
  Co  Co4  1  0.00615442  0.33822741  0.32858254  1
  Co  Co5  1  0.97389074  0.97778494  0.00336171  1
  O  O6  1  0.79134771  0.76244743  0.98037795  1
  O  O7  1  0.68452170  0.77344564  0.45253313  1
  O  O8  1  0.71307022  0.44578387  0.15014404  1
  O  O9  1  0.30222259  0.22855563  0.52072876  1
  F  F10  1  0.81808638  0.43229554  0.64068296  1
  F  F11  1  0.79909343  0.10120501  0.28871735  1
  F  F12  1  0.69948509  0.09754096  0.78807509  1
  F  F13  1  0.31116559  0.57868057  0.88638333  1
  F  F14  1  0.31138005  0.88780015  0.18886118  1
  F  F15  1  0.18913038  0.21759770  0.02932243  1
  F  F16  1  0.18525103  0.90451480  0.70254038  1
  F  F17  1  0.22673770  0.57210198  0.36787700  1
