# generated using pymatgen
data_K2CeBr5
_symmetry_space_group_name_H-M   'P 1'
_cell_length_a   8.59288740
_cell_length_b   9.34702128
_cell_length_c   13.60095728
_cell_angle_alpha   90.00000000
_cell_angle_beta   90.00000000
_cell_angle_gamma   90.00000000
_symmetry_Int_Tables_number   1
_chemical_formula_structural   K2CeBr5
_chemical_formula_sum   'K8 Ce4 Br20'
_cell_volume   1092.40034555
_cell_formula_units_Z   4
loop_
 _symmetry_equiv_pos_site_id
 _symmetry_equiv_pos_as_xyz
  1  'x, y, z'
loop_
 _atom_site_type_symbol
 _atom_site_label
 _atom_site_symmetry_multiplicity
 _atom_site_fract_x
 _atom_site_fract_y
 _atom_site_fract_z
 _atom_site_occupancy
  K  K0  1  0.54984523  0.49434295  0.67083019  1
  K  K1  1  0.45015477  0.50565705  0.32916981  1
  K  K2  1  0.04984523  0.50565705  0.82916981  1
  K  K3  1  0.45015477  0.99434295  0.32916981  1
  K  K4  1  0.95015477  0.49434295  0.17083019  1
  K  K5  1  0.54984523  0.00565705  0.67083019  1
  K  K6  1  0.95015477  0.00565705  0.17083019  1
  K  K7  1  0.04984523  0.99434295  0.82916981  1
  Ce  Ce8  1  0.57683467  0.75000000  0.99413472  1
  Ce  Ce9  1  0.42316533  0.25000000  0.00586528  1
  Ce  Ce10  1  0.07683467  0.25000000  0.50586528  1
  Ce  Ce11  1  0.92316533  0.75000000  0.49413472  1
  Br  Br12  1  0.37287238  0.75000000  0.81896160  1
  Br  Br13  1  0.62712762  0.25000000  0.18103840  1
  Br  Br14  1  0.87287238  0.25000000  0.68103840  1
  Br  Br15  1  0.12712762  0.75000000  0.31896160  1
  Br  Br16  1  0.66522594  0.45648422  0.92230746  1
  Br  Br17  1  0.33477406  0.54351578  0.07769254  1
  Br  Br18  1  0.16522594  0.54351578  0.57769254  1
  Br  Br19  1  0.33477406  0.95648422  0.07769254  1
  Br  Br20  1  0.83477406  0.45648422  0.42230746  1
  Br  Br21  1  0.66522594  0.04351578  0.92230746  1
  Br  Br22  1  0.83477406  0.04351578  0.42230746  1
  Br  Br23  1  0.16522594  0.95648422  0.57769254  1
  Br  Br24  1  0.92610823  0.75000000  0.99294993  1
  Br  Br25  1  0.07389177  0.25000000  0.00705007  1
  Br  Br26  1  0.42610823  0.25000000  0.50705007  1
  Br  Br27  1  0.57389177  0.75000000  0.49294993  1
  Br  Br28  1  0.83481392  0.75000000  0.70560972  1
  Br  Br29  1  0.16518608  0.25000000  0.29439028  1
  Br  Br30  1  0.33481392  0.25000000  0.79439028  1
  Br  Br31  1  0.66518608  0.75000000  0.20560972  1
