# generated using pymatgen
data_K9Ce(PS4)4
_symmetry_space_group_name_H-M   'P 1'
_cell_length_a   9.91110085
_cell_length_b   11.37847781
_cell_length_c   16.97831697
_cell_angle_alpha   74.84286705
_cell_angle_beta   73.02974424
_cell_angle_gamma   64.18163975
_symmetry_Int_Tables_number   1
_chemical_formula_structural   K9Ce(PS4)4
_chemical_formula_sum   'K18 Ce2 P8 S32'
_cell_volume   1628.32869593
_cell_formula_units_Z   2
loop_
 _symmetry_equiv_pos_site_id
 _symmetry_equiv_pos_as_xyz
  1  'x, y, z'
loop_
 _atom_site_type_symbol
 _atom_site_label
 _atom_site_symmetry_multiplicity
 _atom_site_fract_x
 _atom_site_fract_y
 _atom_site_fract_z
 _atom_site_occupancy
  K  K0  1  0.47398629  0.39883770  0.13000207  1
  K  K1  1  0.52601371  0.60116230  0.86999793  1
  K  K2  1  0.00282606  0.10116230  0.36999793  1
  K  K3  1  0.99717394  0.89883770  0.63000207  1
  K  K4  1  0.49132297  0.12464468  0.37016032  1
  K  K5  1  0.50867703  0.87535532  0.62983968  1
  K  K6  1  0.98612798  0.37535532  0.12983968  1
  K  K7  1  0.01387202  0.62464468  0.87016032  1
  K  K8  1  0.09507703  0.81302699  0.02195465  1
  K  K9  1  0.90492297  0.18697301  0.97804535  1
  K  K10  1  0.93005866  0.68697301  0.47804535  1
  K  K11  1  0.06994134  0.31302699  0.52195465  1
  K  K12  1  0.40368497  0.06067609  0.10421182  1
  K  K13  1  0.59631503  0.93932391  0.89578818  1
  K  K14  1  0.56857288  0.43932391  0.39578818  1
  K  K15  1  0.43142712  0.56067609  0.60421182  1
  K  K16  1  0.24653934  0.75000000  0.25000000  1
  K  K17  1  0.75346066  0.25000000  0.75000000  1
  Ce  Ce18  1  0.74592207  0.75000000  0.25000000  1
  Ce  Ce19  1  0.25407793  0.25000000  0.75000000  1
  P  P20  1  0.85769082  0.04594204  0.21023770  1
  P  P21  1  0.14230918  0.95405796  0.78976230  1
  P  P22  1  0.11387056  0.45405796  0.28976230  1
  P  P23  1  0.88612944  0.54594204  0.71023770  1
  P  P24  1  0.37648356  0.83976329  0.41809129  1
  P  P25  1  0.62351644  0.16023671  0.58190871  1
  P  P26  1  0.63433815  0.66023671  0.08190871  1
  P  P27  1  0.36566185  0.33976329  0.91809129  1
  S  S28  1  0.72779279  0.01675834  0.50786293  1
  S  S29  1  0.27220721  0.98324166  0.49213707  1
  S  S30  1  0.25241406  0.48324166  0.99213707  1
  S  S31  1  0.74758594  0.51675834  0.00786293  1
  S  S32  1  0.74256021  0.22995515  0.24375923  1
  S  S33  1  0.25743979  0.77004485  0.75624077  1
  S  S34  1  0.21627458  0.27004485  0.25624077  1
  S  S35  1  0.78372542  0.72995515  0.74375923  1
  S  S36  1  0.86616436  0.89942407  0.31378793  1
  S  S37  1  0.13383564  0.10057593  0.68621207  1
  S  S38  1  0.07937637  0.60057593  0.18621207  1
  S  S39  1  0.92062363  0.39942407  0.81378793  1
  S  S40  1  0.41159135  0.92038550  0.29282196  1
  S  S41  1  0.58840865  0.07961450  0.70717804  1
  S  S42  1  0.62479881  0.57961450  0.20717804  1
  S  S43  1  0.37520119  0.42038550  0.79282196  1
  S  S44  1  0.74786030  0.00680442  0.13986167  1
  S  S45  1  0.25213970  0.99319558  0.86013833  1
  S  S46  1  0.89452639  0.49319558  0.36013833  1
  S  S47  1  0.10547361  0.50680442  0.63986167  1
  S  S48  1  0.42362061  0.77366470  0.05437234  1
  S  S49  1  0.57637939  0.22633530  0.94562766  1
  S  S50  1  0.25165765  0.72633530  0.44562766  1
  S  S51  1  0.74834235  0.27366470  0.55437234  1
  S  S52  1  0.24132638  0.46899372  0.35888157  1
  S  S53  1  0.75867362  0.53100628  0.64111843  1
  S  S54  1  0.06920167  0.03100628  0.14111843  1
  S  S55  1  0.93079833  0.96899372  0.85888157  1
  S  S56  1  0.59656545  0.71684898  0.43448032  1
  S  S57  1  0.40343455  0.28315102  0.56551968  1
  S  S58  1  0.74789475  0.78315102  0.06551968  1
  S  S59  1  0.25210525  0.21684898  0.93448032  1
