# generated using pymatgen
data_Fe2O3F
_symmetry_space_group_name_H-M   'P 1'
_cell_length_a   6.01691322
_cell_length_b   6.39059245
_cell_length_c   7.53486563
_cell_angle_alpha   90.00000000
_cell_angle_beta   113.53264023
_cell_angle_gamma   90.00000000
_symmetry_Int_Tables_number   1
_chemical_formula_structural   Fe2O3F
_chemical_formula_sum   'Fe8 O12 F4'
_cell_volume   265.63207091
_cell_formula_units_Z   4
loop_
 _symmetry_equiv_pos_site_id
 _symmetry_equiv_pos_as_xyz
  1  'x, y, z'
loop_
 _atom_site_type_symbol
 _atom_site_label
 _atom_site_symmetry_multiplicity
 _atom_site_fract_x
 _atom_site_fract_y
 _atom_site_fract_z
 _atom_site_occupancy
  Fe  Fe0  1  0.49942413  0.00000000  0.00150483  1
  Fe  Fe1  1  0.00208070  0.00000000  0.00150483  1
  Fe  Fe2  1  0.76101661  0.50000000  0.02203423  1
  Fe  Fe3  1  0.24738656  0.50000000  0.99477312  1
  Fe  Fe4  1  0.50261344  0.00000000  0.50522688  1
  Fe  Fe5  1  0.98898339  0.00000000  0.47796577  1
  Fe  Fe6  1  0.74791930  0.50000000  0.49849517  1
  Fe  Fe7  1  0.25057587  0.50000000  0.49849517  1
  O  O8  1  0.84053937  0.00000000  0.18107974  1
  O  O9  1  0.50089369  0.30538274  0.00068926  1
  O  O10  1  0.99979557  0.30538274  0.00068926  1
  O  O11  1  0.50089369  0.69461726  0.00068926  1
  O  O12  1  0.75020443  0.19461726  0.49931074  1
  O  O13  1  0.24910631  0.19461726  0.49931074  1
  O  O14  1  0.99979557  0.69461726  0.00068926  1
  O  O15  1  0.16405499  0.00000000  0.82810897  1
  O  O16  1  0.90946063  0.50000000  0.31892026  1
  O  O17  1  0.58594501  0.50000000  0.67189103  1
  O  O18  1  0.75020443  0.80538274  0.49931074  1
  O  O19  1  0.24910631  0.80538274  0.49931074  1
  F  F20  1  0.35317284  0.00000000  0.20634668  1
  F  F21  1  0.65019316  0.00000000  0.80038633  1
  F  F22  1  0.39682716  0.50000000  0.29365332  1
  F  F23  1  0.09980684  0.50000000  0.69961367  1
