# generated using pymatgen
data_La8Sb14Pt17
_symmetry_space_group_name_H-M   'P 1'
_cell_length_a   12.76372010
_cell_length_b   12.76372010
_cell_length_c   14.11667188
_cell_angle_alpha   116.87719048
_cell_angle_beta   116.87719048
_cell_angle_gamma   90.00000000
_symmetry_Int_Tables_number   1
_chemical_formula_structural   La8Sb14Pt17
_chemical_formula_sum   'La16 Sb28 Pt34'
_cell_volume   1768.36414443
_cell_formula_units_Z   2
loop_
 _symmetry_equiv_pos_site_id
 _symmetry_equiv_pos_as_xyz
  1  'x, y, z'
loop_
 _atom_site_type_symbol
 _atom_site_label
 _atom_site_symmetry_multiplicity
 _atom_site_fract_x
 _atom_site_fract_y
 _atom_site_fract_z
 _atom_site_occupancy
  La  La0  1  0.42938578  0.92938578  0.35994428  1
  La  La1  1  0.93055850  0.43055850  0.35994428  1
  La  La2  1  0.43055850  0.42938578  0.35994428  1
  La  La3  1  0.92938578  0.93055850  0.35994428  1
  La  La4  1  0.17608899  0.17608899  0.35217798  1
  La  La5  1  0.67608899  0.67608899  0.35217798  1
  La  La6  1  0.67129923  0.17129923  0.34259846  1
  La  La7  1  0.17129923  0.67129923  0.34259846  1
  La  La8  1  0.43966380  0.67339241  0.84935747  1
  La  La9  1  0.40969367  0.17596506  0.84935747  1
  La  La10  1  0.17596506  0.43966380  0.84935747  1
  La  La11  1  0.93966380  0.67596506  0.84935747  1
  La  La12  1  0.67339241  0.40969367  0.84935747  1
  La  La13  1  0.90969367  0.17339241  0.84935747  1
  La  La14  1  0.67596506  0.90969367  0.84935747  1
  La  La15  1  0.17339241  0.93966380  0.84935747  1
  Sb  Sb16  1  0.49179238  0.24494179  0.47526811  1
  Sb  Sb17  1  0.98347573  0.23032632  0.47526811  1
  Sb  Sb18  1  0.23032632  0.49179238  0.47526811  1
  Sb  Sb19  1  0.99179238  0.73032632  0.47526811  1
  Sb  Sb20  1  0.24494179  0.98347573  0.47526811  1
  Sb  Sb21  1  0.48347573  0.74494179  0.47526811  1
  Sb  Sb22  1  0.73032632  0.48347573  0.47526811  1
  Sb  Sb23  1  0.74494179  0.99179238  0.47526811  1
  Sb  Sb24  1  0.20017388  0.17898501  0.10522378  1
  Sb  Sb25  1  0.90504990  0.92623877  0.10522378  1
  Sb  Sb26  1  0.92623877  0.20017388  0.10522378  1
  Sb  Sb27  1  0.70017388  0.42623877  0.10522378  1
  Sb  Sb28  1  0.17898501  0.90504990  0.10522378  1
  Sb  Sb29  1  0.40504990  0.67898501  0.10522378  1
  Sb  Sb30  1  0.42623877  0.40504990  0.10522378  1
  Sb  Sb31  1  0.67898501  0.70017388  0.10522378  1
  Sb  Sb32  1  0.37568367  0.37568367  0.75136735  1
  Sb  Sb33  1  0.87568367  0.87568367  0.75136735  1
  Sb  Sb34  1  0.63494090  0.13494090  0.07622646  1
  Sb  Sb35  1  0.44128556  0.94128556  0.07622646  1
  Sb  Sb36  1  0.94128556  0.63494090  0.07622646  1
  Sb  Sb37  1  0.13494090  0.44128556  0.07622646  1
  Sb  Sb38  1  0.90089747  0.40089747  0.80179494  1
  Sb  Sb39  1  0.40089747  0.90089747  0.80179494  1
  Sb  Sb40  1  0.57953488  0.07953488  0.71154501  1
  Sb  Sb41  1  0.13201014  0.63201014  0.71154501  1
  Sb  Sb42  1  0.63201014  0.57953488  0.71154501  1
  Sb  Sb43  1  0.07953488  0.13201014  0.71154501  1
  Pt  Pt44  1  0.13816794  0.37133174  0.23738682  1
  Pt  Pt45  1  0.09921888  0.86605508  0.23738682  1
  Pt  Pt46  1  0.86605508  0.13816794  0.23738682  1
  Pt  Pt47  1  0.63816794  0.36605508  0.23738682  1
  Pt  Pt48  1  0.37133174  0.09921888  0.23738682  1
  Pt  Pt49  1  0.59921888  0.87133174  0.23738682  1
  Pt  Pt50  1  0.36605508  0.59921888  0.23738682  1
  Pt  Pt51  1  0.87133174  0.63816794  0.23738682  1
  Pt  Pt52  1  0.38613628  0.88613628  0.60173257  1
  Pt  Pt53  1  0.21559630  0.71559630  0.60173257  1
  Pt  Pt54  1  0.71559630  0.38613628  0.60173257  1
  Pt  Pt55  1  0.88613628  0.21559630  0.60173257  1
  Pt  Pt56  1  0.16188620  0.66188620  0.08267298  1
  Pt  Pt57  1  0.92078678  0.42078678  0.08267298  1
  Pt  Pt58  1  0.42078678  0.16188620  0.08267298  1
  Pt  Pt59  1  0.66188620  0.92078678  0.08267298  1
  Pt  Pt60  1  0.71149749  0.21149749  0.95334340  1
  Pt  Pt61  1  0.24184591  0.74184591  0.95334340  1
  Pt  Pt62  1  0.74184591  0.71149749  0.95334340  1
  Pt  Pt63  1  0.21149749  0.24184591  0.95334340  1
  Pt  Pt64  1  0.41395566  0.42573515  0.60146507  1
  Pt  Pt65  1  0.18750941  0.17572992  0.60146507  1
  Pt  Pt66  1  0.17572992  0.41395566  0.60146507  1
  Pt  Pt67  1  0.91395566  0.67572992  0.60146507  1
  Pt  Pt68  1  0.42573515  0.18750941  0.60146507  1
  Pt  Pt69  1  0.68750941  0.92573515  0.60146507  1
  Pt  Pt70  1  0.67572992  0.68750941  0.60146507  1
  Pt  Pt71  1  0.92573515  0.91395566  0.60146507  1
  Pt  Pt72  1  0.94553947  0.44553947  0.60988715  1
  Pt  Pt73  1  0.66434768  0.16434768  0.60988715  1
  Pt  Pt74  1  0.16434768  0.94553947  0.60988715  1
  Pt  Pt75  1  0.44553947  0.66434768  0.60988715  1
  Pt  Pt76  1  0.00057626  0.00057626  0.00115252  1
  Pt  Pt77  1  0.50057626  0.50057626  0.00115252  1
