# generated using pymatgen
data_KHf6CCl15
_symmetry_space_group_name_H-M   'P 1'
_cell_length_a   9.73991072
_cell_length_b   13.94139002
_cell_length_c   18.57733832
_cell_angle_alpha   90.00000000
_cell_angle_beta   90.00000000
_cell_angle_gamma   90.00000000
_symmetry_Int_Tables_number   1
_chemical_formula_structural   KHf6CCl15
_chemical_formula_sum   'K4 Hf24 C4 Cl60'
_cell_volume   2522.57764860
_cell_formula_units_Z   4
loop_
 _symmetry_equiv_pos_site_id
 _symmetry_equiv_pos_as_xyz
  1  'x, y, z'
loop_
 _atom_site_type_symbol
 _atom_site_label
 _atom_site_symmetry_multiplicity
 _atom_site_fract_x
 _atom_site_fract_y
 _atom_site_fract_z
 _atom_site_occupancy
  K  K0  1  0.16931195  0.75257963  0.75000000  1
  K  K1  1  0.83068805  0.24742037  0.25000000  1
  K  K2  1  0.16931195  0.24742037  0.75000000  1
  K  K3  1  0.83068805  0.75257963  0.25000000  1
  Hf  Hf4  1  0.88457868  0.50000000  0.75000000  1
  Hf  Hf5  1  0.11542132  0.50000000  0.25000000  1
  Hf  Hf6  1  0.91955827  0.00000000  0.38750189  1
  Hf  Hf7  1  0.08044173  0.00000000  0.61249811  1
  Hf  Hf8  1  0.91955827  0.00000000  0.11249811  1
  Hf  Hf9  1  0.08044173  0.00000000  0.88750189  1
  Hf  Hf10  1  0.65772270  0.61503179  0.83655821  1
  Hf  Hf11  1  0.34227730  0.38496821  0.16344179  1
  Hf  Hf12  1  0.65772270  0.38496821  0.66344179  1
  Hf  Hf13  1  0.34227730  0.61503179  0.16344179  1
  Hf  Hf14  1  0.34227730  0.61503179  0.33655821  1
  Hf  Hf15  1  0.65772270  0.38496821  0.83655821  1
  Hf  Hf16  1  0.34227730  0.38496821  0.33655821  1
  Hf  Hf17  1  0.65772270  0.61503179  0.66344179  1
  Hf  Hf18  1  0.42856476  0.50000000  0.75000000  1
  Hf  Hf19  1  0.57143524  0.50000000  0.25000000  1
  Hf  Hf20  1  0.84465790  0.88527777  0.97054075  1
  Hf  Hf21  1  0.15534210  0.11472223  0.02945925  1
  Hf  Hf22  1  0.84465790  0.11472223  0.52945925  1
  Hf  Hf23  1  0.15534210  0.88527777  0.02945925  1
  Hf  Hf24  1  0.15534210  0.88527777  0.47054075  1
  Hf  Hf25  1  0.84465790  0.11472223  0.97054075  1
  Hf  Hf26  1  0.15534210  0.11472223  0.47054075  1
  Hf  Hf27  1  0.84465790  0.88527777  0.52945925  1
  C  C28  1  -0.00000000  0.00000000  -0.00000000  1
  C  C29  1  -0.00000000  0.00000000  0.50000000  1
  C  C30  1  0.65616021  0.50000000  0.75000000  1
  C  C31  1  0.34383979  0.50000000  0.25000000  1
  Cl  Cl32  1  0.18336111  0.00000000  0.75000000  1
  Cl  Cl33  1  0.81663889  0.00000000  0.25000000  1
  Cl  Cl34  1  0.15745520  0.50000000  0.75000000  1
  Cl  Cl35  1  0.84254480  0.50000000  0.25000000  1
  Cl  Cl36  1  0.65800411  0.50000000  0.94054167  1
  Cl  Cl37  1  0.34199589  0.50000000  0.05945833  1
  Cl  Cl38  1  0.65800411  0.50000000  0.55945833  1
  Cl  Cl39  1  0.34199589  0.50000000  0.44054167  1
  Cl  Cl40  1  -0.00000000  0.74726245  -0.00000000  1
  Cl  Cl41  1  -0.00000000  0.25273755  -0.00000000  1
  Cl  Cl42  1  -0.00000000  0.25273755  0.50000000  1
  Cl  Cl43  1  -0.00000000  0.74726245  0.50000000  1
  Cl  Cl44  1  0.64998481  0.75343914  0.75000000  1
  Cl  Cl45  1  0.35001519  0.24656086  0.25000000  1
  Cl  Cl46  1  0.64998481  0.24656086  0.75000000  1
  Cl  Cl47  1  0.35001519  0.75343914  0.25000000  1
  Cl  Cl48  1  0.66130725  0.75064967  0.93702019  1
  Cl  Cl49  1  0.33869275  0.24935033  0.06297981  1
  Cl  Cl50  1  0.66130725  0.24935033  0.56297981  1
  Cl  Cl51  1  0.33869275  0.75064967  0.06297981  1
  Cl  Cl52  1  0.33869275  0.75064967  0.43702019  1
  Cl  Cl53  1  0.66130725  0.24935033  0.93702019  1
  Cl  Cl54  1  0.33869275  0.24935033  0.43702019  1
  Cl  Cl55  1  0.66130725  0.75064967  0.56297981  1
  Cl  Cl56  1  0.91857625  0.87524037  0.84121848  1
  Cl  Cl57  1  0.08142375  0.12475963  0.15878152  1
  Cl  Cl58  1  0.91857625  0.12475963  0.65878152  1
  Cl  Cl59  1  0.08142375  0.87524037  0.15878152  1
  Cl  Cl60  1  0.08142375  0.87524037  0.34121848  1
  Cl  Cl61  1  0.91857625  0.12475963  0.84121848  1
  Cl  Cl62  1  0.08142375  0.12475963  0.34121848  1
  Cl  Cl63  1  0.91857625  0.87524037  0.65878152  1
  Cl  Cl64  1  0.91546754  0.62528712  0.84492437  1
  Cl  Cl65  1  0.08453246  0.37471288  0.15507563  1
  Cl  Cl66  1  0.91546754  0.37471288  0.65507563  1
  Cl  Cl67  1  0.08453246  0.62528712  0.15507563  1
  Cl  Cl68  1  0.08453246  0.62528712  0.34492437  1
  Cl  Cl69  1  0.91546754  0.37471288  0.84492437  1
  Cl  Cl70  1  0.08453246  0.37471288  0.34492437  1
  Cl  Cl71  1  0.91546754  0.62528712  0.65507563  1
  Cl  Cl72  1  0.65839702  0.00000000  0.93432087  1
  Cl  Cl73  1  0.34160298  0.00000000  0.06567913  1
  Cl  Cl74  1  0.65839702  0.00000000  0.56567913  1
  Cl  Cl75  1  0.34160298  0.00000000  0.43432087  1
  Cl  Cl76  1  0.39897111  0.62620330  0.84634246  1
  Cl  Cl77  1  0.60102889  0.37379670  0.15365754  1
  Cl  Cl78  1  0.39897111  0.37379670  0.65365754  1
  Cl  Cl79  1  0.60102889  0.62620330  0.15365754  1
  Cl  Cl80  1  0.60102889  0.62620330  0.34634246  1
  Cl  Cl81  1  0.39897111  0.37379670  0.84634246  1
  Cl  Cl82  1  0.60102889  0.37379670  0.34634246  1
  Cl  Cl83  1  0.39897111  0.62620330  0.65365754  1
  Cl  Cl84  1  0.73875674  0.87291752  0.40515960  1
  Cl  Cl85  1  0.26124326  0.12708248  0.59484040  1
  Cl  Cl86  1  0.73875674  0.12708248  0.09484040  1
  Cl  Cl87  1  0.26124326  0.87291752  0.59484040  1
  Cl  Cl88  1  0.26124326  0.87291752  0.90515960  1
  Cl  Cl89  1  0.73875674  0.12708248  0.40515960  1
  Cl  Cl90  1  0.26124326  0.12708248  0.90515960  1
  Cl  Cl91  1  0.73875674  0.87291752  0.09484040  1
