# generated using pymatgen
data_La12Co6Pb
_symmetry_space_group_name_H-M   'P 1'
_cell_length_a   8.81684310
_cell_length_b   8.81684310
_cell_length_c   8.81684310
_cell_angle_alpha   109.47122063
_cell_angle_beta   109.47122063
_cell_angle_gamma   109.47122063
_symmetry_Int_Tables_number   1
_chemical_formula_structural   La12Co6Pb
_chemical_formula_sum   'La12 Co6 Pb1'
_cell_volume   527.61538043
_cell_formula_units_Z   1
loop_
 _symmetry_equiv_pos_site_id
 _symmetry_equiv_pos_as_xyz
  1  'x, y, z'
loop_
 _atom_site_type_symbol
 _atom_site_label
 _atom_site_symmetry_multiplicity
 _atom_site_fract_x
 _atom_site_fract_y
 _atom_site_fract_z
 _atom_site_occupancy
  La  La0  1  0.80970643  0.68727339  0.49697982  1
  La  La1  1  0.19029357  0.31272661  0.50302018  1
  La  La2  1  0.19029357  0.68727339  0.87756696  1
  La  La3  1  0.80970643  0.31272661  0.12243304  1
  La  La4  1  0.68727339  0.49697982  0.80970643  1
  La  La5  1  0.31272661  0.50302018  0.19029357  1
  La  La6  1  0.68727339  0.87756696  0.19029357  1
  La  La7  1  0.31272661  0.12243304  0.80970643  1
  La  La8  1  0.49697982  0.80970643  0.68727339  1
  La  La9  1  0.50302018  0.19029357  0.31272661  1
  La  La10  1  0.12243304  0.80970643  0.31272661  1
  La  La11  1  0.87756696  0.19029357  0.68727339  1
  Co  Co12  1  0.88310219  0.38310219  0.50000000  1
  Co  Co13  1  0.11689781  0.61689781  0.50000000  1
  Co  Co14  1  0.38310219  0.50000000  0.88310219  1
  Co  Co15  1  0.61689781  0.50000000  0.11689781  1
  Co  Co16  1  0.50000000  0.88310219  0.38310219  1
  Co  Co17  1  0.50000000  0.11689781  0.61689781  1
  Pb  Pb18  1  -0.00000000  -0.00000000  0.00000000  1
