# generated using pymatgen
data_K8Zr6BeBr20
_symmetry_space_group_name_H-M   'P 1'
_cell_length_a   11.74991557
_cell_length_b   11.74991557
_cell_length_c   11.74991557
_cell_angle_alpha   60.00000000
_cell_angle_beta   60.00000000
_cell_angle_gamma   60.00000000
_symmetry_Int_Tables_number   1
_chemical_formula_structural   K8Zr6BeBr20
_chemical_formula_sum   'K8 Zr6 Be1 Br20'
_cell_volume   1147.06820086
_cell_formula_units_Z   1
loop_
 _symmetry_equiv_pos_site_id
 _symmetry_equiv_pos_as_xyz
  1  'x, y, z'
loop_
 _atom_site_type_symbol
 _atom_site_label
 _atom_site_symmetry_multiplicity
 _atom_site_fract_x
 _atom_site_fract_y
 _atom_site_fract_z
 _atom_site_occupancy
  K  K0  1  0.64049381  0.64049381  0.64049381  1
  K  K1  1  0.35950619  0.35950619  0.35950619  1
  K  K2  1  0.07851857  0.64049381  0.64049381  1
  K  K3  1  0.64049381  0.07851857  0.64049381  1
  K  K4  1  0.92148143  0.35950619  0.35950619  1
  K  K5  1  0.35950619  0.92148143  0.35950619  1
  K  K6  1  0.64049381  0.64049381  0.07851857  1
  K  K7  1  0.35950619  0.35950619  0.92148143  1
  Zr  Zr8  1  0.85550957  0.85550957  0.14449043  1
  Zr  Zr9  1  0.14449043  0.14449043  0.85550957  1
  Zr  Zr10  1  0.85550957  0.14449043  0.85550957  1
  Zr  Zr11  1  0.14449043  0.85550957  0.14449043  1
  Zr  Zr12  1  0.14449043  0.85550957  0.85550957  1
  Zr  Zr13  1  0.85550957  0.14449043  0.14449043  1
  Be  Be14  1  0.00000000  -0.00000000  -0.00000000  1
  Br  Br15  1  0.00000000  -0.00000000  0.67086783  1
  Br  Br16  1  -0.00000000  0.00000000  0.32913217  1
  Br  Br17  1  0.32913217  0.67086783  -0.00000000  1
  Br  Br18  1  0.67086783  0.32913217  0.00000000  1
  Br  Br19  1  -0.00000000  0.67086783  0.00000000  1
  Br  Br20  1  0.67086783  0.00000000  0.32913217  1
  Br  Br21  1  0.00000000  0.32913217  -0.00000000  1
  Br  Br22  1  0.32913217  -0.00000000  0.67086783  1
  Br  Br23  1  0.67086783  -0.00000000  0.00000000  1
  Br  Br24  1  0.32913217  0.00000000  -0.00000000  1
  Br  Br25  1  -0.00000000  0.67086783  0.32913217  1
  Br  Br26  1  0.00000000  0.32913217  0.67086783  1
  Br  Br27  1  0.68190107  0.68190107  0.31809893  1
  Br  Br28  1  0.31809893  0.31809893  0.68190107  1
  Br  Br29  1  0.68190107  0.31809893  0.68190107  1
  Br  Br30  1  0.31809893  0.68190107  0.31809893  1
  Br  Br31  1  0.31809893  0.68190107  0.68190107  1
  Br  Br32  1  0.68190107  0.31809893  0.31809893  1
  Br  Br33  1  0.75000000  0.75000000  0.75000000  1
  Br  Br34  1  0.25000000  0.25000000  0.25000000  1
