# generated using pymatgen
data_HoFeB4
_symmetry_space_group_name_H-M   'P 1'
_cell_length_a   3.36543155
_cell_length_b   5.87602908
_cell_length_c   11.36471685
_cell_angle_alpha   90.00000000
_cell_angle_beta   90.00000000
_cell_angle_gamma   90.00000000
_symmetry_Int_Tables_number   1
_chemical_formula_structural   HoFeB4
_chemical_formula_sum   'Ho4 Fe4 B16'
_cell_volume   224.74152219
_cell_formula_units_Z   4
loop_
 _symmetry_equiv_pos_site_id
 _symmetry_equiv_pos_as_xyz
  1  'x, y, z'
loop_
 _atom_site_type_symbol
 _atom_site_label
 _atom_site_symmetry_multiplicity
 _atom_site_fract_x
 _atom_site_fract_y
 _atom_site_fract_z
 _atom_site_occupancy
  Ho  Ho0  1  0.50000000  0.37401888  0.15009371  1
  Ho  Ho1  1  0.50000000  0.62598112  0.84990629  1
  Ho  Ho2  1  0.50000000  0.12598112  0.65009371  1
  Ho  Ho3  1  0.50000000  0.87401888  0.34990629  1
  Fe  Fe4  1  0.50000000  0.36674219  0.41123456  1
  Fe  Fe5  1  0.50000000  0.63325781  0.58876544  1
  Fe  Fe6  1  0.50000000  0.13325781  0.91123456  1
  Fe  Fe7  1  0.50000000  0.86674219  0.08876544  1
  B  B8  1  0.00000000  0.11158951  0.04595444  1
  B  B9  1  -0.00000000  0.88841049  0.95404556  1
  B  B10  1  -0.00000000  0.38841049  0.54595444  1
  B  B11  1  0.00000000  0.61158951  0.45404556  1
  B  B12  1  -0.00000000  0.13910335  0.46806662  1
  B  B13  1  -0.00000000  0.86089665  0.53193338  1
  B  B14  1  -0.00000000  0.36089665  0.96806662  1
  B  B15  1  -0.00000000  0.63910335  0.03193338  1
  B  B16  1  0.00000000  0.02463918  0.19030116  1
  B  B17  1  -0.00000000  0.97536082  0.80969884  1
  B  B18  1  -0.00000000  0.47536082  0.69030116  1
  B  B19  1  -0.00000000  0.52463918  0.30969884  1
  B  B20  1  0.00000000  0.21798802  0.31595283  1
  B  B21  1  -0.00000000  0.78201198  0.68404717  1
  B  B22  1  -0.00000000  0.28201198  0.81595283  1
  B  B23  1  0.00000000  0.71798802  0.18404717  1
