# generated using pymatgen
data_K3Hf4Ag2F23
_symmetry_space_group_name_H-M   'P 1'
_cell_length_a   7.95628927
_cell_length_b   10.31568476
_cell_length_c   11.42632268
_cell_angle_alpha   90.00000000
_cell_angle_beta   90.00000000
_cell_angle_gamma   97.34964097
_symmetry_Int_Tables_number   1
_chemical_formula_structural   K3Hf4Ag2F23
_chemical_formula_sum   'K6 Hf8 Ag4 F46'
_cell_volume   930.10547513
_cell_formula_units_Z   2
loop_
 _symmetry_equiv_pos_site_id
 _symmetry_equiv_pos_as_xyz
  1  'x, y, z'
loop_
 _atom_site_type_symbol
 _atom_site_label
 _atom_site_symmetry_multiplicity
 _atom_site_fract_x
 _atom_site_fract_y
 _atom_site_fract_z
 _atom_site_occupancy
  K  K0  1  0.78914710  0.86350307  0.47977619  1
  K  K1  1  0.21085290  0.13649693  0.52022381  1
  K  K2  1  0.21085290  0.63649693  0.97977619  1
  K  K3  1  0.78914710  0.36350307  0.02022381  1
  K  K4  1  0.50000000  -0.00000000  -0.00000000  1
  K  K5  1  0.50000000  0.50000000  0.50000000  1
  Hf  Hf6  1  0.97330051  0.95794113  0.81861537  1
  Hf  Hf7  1  0.02669949  0.04205887  0.18138463  1
  Hf  Hf8  1  0.02669949  0.54205887  0.31861537  1
  Hf  Hf9  1  0.97330051  0.45794113  0.68138463  1
  Hf  Hf10  1  0.66790804  0.66194723  0.80617003  1
  Hf  Hf11  1  0.33209196  0.33805277  0.19382997  1
  Hf  Hf12  1  0.33209196  0.83805277  0.30617003  1
  Hf  Hf13  1  0.66790804  0.16194723  0.69382997  1
  Ag  Ag14  1  0.31846169  0.81330446  0.66144659  1
  Ag  Ag15  1  0.68153831  0.18669554  0.33855341  1
  Ag  Ag16  1  0.68153831  0.68669554  0.16144659  1
  Ag  Ag17  1  0.31846169  0.31330446  0.83855341  1
  F  F18  1  0.48239527  0.76246251  0.85994359  1
  F  F19  1  0.51760473  0.23753749  0.14005641  1
  F  F20  1  0.51760473  0.73753749  0.35994359  1
  F  F21  1  0.48239527  0.26246251  0.64005641  1
  F  F22  1  0.84952077  0.65155033  0.36537833  1
  F  F23  1  0.15047923  0.34844967  0.63462167  1
  F  F24  1  0.15047923  0.84844967  0.86537833  1
  F  F25  1  0.84952077  0.15155033  0.13462167  1
  F  F26  1  0.85698711  0.87913809  0.18409945  1
  F  F27  1  0.14301289  0.12086191  0.81590055  1
  F  F28  1  0.14301289  0.62086191  0.68409945  1
  F  F29  1  0.85698711  0.37913809  0.31590055  1
  F  F30  1  0.88912410  0.56871097  0.83609661  1
  F  F31  1  0.11087590  0.43128903  0.16390339  1
  F  F32  1  0.11087590  0.93128903  0.33609661  1
  F  F33  1  0.88912410  0.06871097  0.66390339  1
  F  F34  1  0.63940805  0.59272332  0.97298917  1
  F  F35  1  0.36059195  0.40727668  0.02701083  1
  F  F36  1  0.36059195  0.90727668  0.47298917  1
  F  F37  1  0.63940805  0.09272332  0.52701083  1
  F  F38  1  0.81145606  0.80981739  0.91404991  1
  F  F39  1  0.18854394  0.19018261  0.08595009  1
  F  F40  1  0.18854394  0.69018261  0.41404991  1
  F  F41  1  0.81145606  0.30981739  0.58595009  1
  F  F42  1  0.82177381  0.81529945  0.71090067  1
  F  F43  1  0.17822619  0.18470055  0.28909933  1
  F  F44  1  0.17822619  0.68470055  0.21090067  1
  F  F45  1  0.82177381  0.31529945  0.78909933  1
  F  F46  1  0.76434986  0.56117921  0.64794626  1
  F  F47  1  0.23565014  0.43882079  0.35205374  1
  F  F48  1  0.23565014  0.93882079  0.14794626  1
  F  F49  1  0.76434986  0.06117921  0.85205374  1
  F  F50  1  0.11640698  0.92567979  0.65997461  1
  F  F51  1  0.88359302  0.07432021  0.34002539  1
  F  F52  1  0.88359302  0.57432021  0.15997461  1
  F  F53  1  0.11640698  0.42567979  0.84002539  1
  F  F54  1  0.52691318  0.70767072  0.64660696  1
  F  F55  1  0.47308682  0.29232928  0.35339304  1
  F  F56  1  0.47308682  0.79232928  0.14660696  1
  F  F57  1  0.52691318  0.20767072  0.85339304  1
  F  F58  1  -0.00000000  -0.00000000  -0.00000000  1
  F  F59  1  -0.00000000  0.50000000  0.50000000  1
  F  F60  1  0.49910704  -0.00004186  0.71588625  1
  F  F61  1  0.50089296  0.00004186  0.28411375  1
  F  F62  1  0.50089296  0.50004186  0.21588625  1
  F  F63  1  0.49910704  0.49995814  0.78411375  1
