# generated using pymatgen
data_K4Mg(MoO4)3
_symmetry_space_group_name_H-M   'P 1'
_cell_length_a   7.99771196
_cell_length_b   10.15661778
_cell_length_c   10.07718347
_cell_angle_alpha   92.96926644
_cell_angle_beta   106.77480367
_cell_angle_gamma   106.52466520
_symmetry_Int_Tables_number   1
_chemical_formula_structural   K4Mg(MoO4)3
_chemical_formula_sum   'K8 Mg2 Mo6 O24'
_cell_volume   743.32734430
_cell_formula_units_Z   2
loop_
 _symmetry_equiv_pos_site_id
 _symmetry_equiv_pos_as_xyz
  1  'x, y, z'
loop_
 _atom_site_type_symbol
 _atom_site_label
 _atom_site_symmetry_multiplicity
 _atom_site_fract_x
 _atom_site_fract_y
 _atom_site_fract_z
 _atom_site_occupancy
  K  K0  1  -0.00000000  0.50000000  0.50000000  1
  K  K1  1  0.21717889  0.72469423  0.26064386  1
  K  K2  1  0.78282111  0.27530577  0.73935614  1
  K  K3  1  0.25142049  0.02500388  0.97220571  1
  K  K4  1  0.74857951  0.97499612  0.02779429  1
  K  K5  1  0.64399305  0.38680131  0.06778306  1
  K  K6  1  0.35600695  0.61319869  0.93221694  1
  K  K7  1  0.50000000  0.50000000  0.50000000  1
  Mg  Mg8  1  0.16843158  0.05469826  0.37311829  1
  Mg  Mg9  1  0.83156842  0.94530174  0.62688171  1
  Mo  Mo10  1  0.23104547  0.23950878  0.68248231  1
  Mo  Mo11  1  0.76895453  0.76049122  0.31751769  1
  Mo  Mo12  1  0.12338962  0.31620604  0.14032393  1
  Mo  Mo13  1  0.87661038  0.68379396  0.85967607  1
  Mo  Mo14  1  0.61627901  0.11019190  0.34937508  1
  Mo  Mo15  1  0.38372099  0.88980810  0.65062492  1
  O  O16  1  0.21296163  0.40786112  0.71550173  1
  O  O17  1  0.78703837  0.59213888  0.28449827  1
  O  O18  1  0.16653859  0.44621365  0.28475634  1
  O  O19  1  0.83346141  0.55378635  0.71524366  1
  O  O20  1  0.44185356  0.23311972  0.80127132  1
  O  O21  1  0.55814644  0.76688028  0.19872868  1
  O  O22  1  0.11761873  0.14538151  0.19273303  1
  O  O23  1  0.88238127  0.85461849  0.80726697  1
  O  O24  1  0.23526765  0.23197270  0.50243353  1
  O  O25  1  0.76473235  0.76802730  0.49756647  1
  O  O26  1  0.29862591  0.36906135  0.05987777  1
  O  O27  1  0.70137409  0.63093865  0.94012223  1
  O  O28  1  0.90505480  0.29491781  0.01318316  1
  O  O29  1  0.09494520  0.70508219  0.98681684  1
  O  O30  1  0.38739640  0.00848158  0.34592283  1
  O  O31  1  0.61260360  0.99151842  0.65407717  1
  O  O32  1  0.78530709  0.02592598  0.42622035  1
  O  O33  1  0.21469291  0.97407402  0.57377965  1
  O  O34  1  0.60717882  0.13004532  0.17246206  1
  O  O35  1  0.39282118  0.86995468  0.82753794  1
  O  O36  1  0.68040094  0.27807506  0.44834339  1
  O  O37  1  0.31959906  0.72192494  0.55165661  1
  O  O38  1  0.03570010  0.12140415  0.71986827  1
  O  O39  1  0.96429990  0.87859585  0.28013173  1
