# generated using pymatgen
data_K2NdI5
_symmetry_space_group_name_H-M   'P 1'
_cell_length_a   9.28090151
_cell_length_b   9.85976885
_cell_length_c   14.66449527
_cell_angle_alpha   90.00000000
_cell_angle_beta   90.00000000
_cell_angle_gamma   90.00000000
_symmetry_Int_Tables_number   1
_chemical_formula_structural   K2NdI5
_chemical_formula_sum   'K8 Nd4 I20'
_cell_volume   1341.91194041
_cell_formula_units_Z   4
loop_
 _symmetry_equiv_pos_site_id
 _symmetry_equiv_pos_as_xyz
  1  'x, y, z'
loop_
 _atom_site_type_symbol
 _atom_site_label
 _atom_site_symmetry_multiplicity
 _atom_site_fract_x
 _atom_site_fract_y
 _atom_site_fract_z
 _atom_site_occupancy
  K  K0  1  0.55138123  0.49538574  0.67162864  1
  K  K1  1  0.44861877  0.50461426  0.32837136  1
  K  K2  1  0.05138123  0.50461426  0.82837136  1
  K  K3  1  0.44861877  0.99538574  0.32837136  1
  K  K4  1  0.94861877  0.49538574  0.17162864  1
  K  K5  1  0.55138123  0.00461426  0.67162864  1
  K  K6  1  0.94861877  0.00461426  0.17162864  1
  K  K7  1  0.05138123  0.99538574  0.82837136  1
  Nd  Nd8  1  0.57910797  0.75000000  0.99478852  1
  Nd  Nd9  1  0.42089203  0.25000000  0.00521148  1
  Nd  Nd10  1  0.07910797  0.25000000  0.50521148  1
  Nd  Nd11  1  0.92089203  0.75000000  0.49478852  1
  I  I12  1  0.37165063  0.75000000  0.81933876  1
  I  I13  1  0.62834937  0.25000000  0.18066124  1
  I  I14  1  0.87165063  0.25000000  0.68066124  1
  I  I15  1  0.12834937  0.75000000  0.31933876  1
  I  I16  1  0.66525502  0.45545184  0.92256804  1
  I  I17  1  0.33474498  0.54454816  0.07743196  1
  I  I18  1  0.16525502  0.54454816  0.57743196  1
  I  I19  1  0.33474498  0.95545184  0.07743196  1
  I  I20  1  0.83474498  0.45545184  0.42256804  1
  I  I21  1  0.66525502  0.04454816  0.92256804  1
  I  I22  1  0.83474498  0.04454816  0.42256804  1
  I  I23  1  0.16525502  0.95545184  0.57743196  1
  I  I24  1  0.92742367  0.75000000  0.99273907  1
  I  I25  1  0.07257633  0.25000000  0.00726093  1
  I  I26  1  0.42742367  0.25000000  0.50726093  1
  I  I27  1  0.57257633  0.75000000  0.49273907  1
  I  I28  1  0.83608354  0.75000000  0.70536527  1
  I  I29  1  0.16391646  0.25000000  0.29463473  1
  I  I30  1  0.33608354  0.25000000  0.79463473  1
  I  I31  1  0.66391646  0.75000000  0.20536527  1
