# generated using pymatgen
data_Fe4O7F
_symmetry_space_group_name_H-M   'P 1'
_cell_length_a   8.94174290
_cell_length_b   5.54287555
_cell_length_c   5.54287555
_cell_angle_alpha   71.08745983
_cell_angle_beta   84.80813257
_cell_angle_gamma   84.80813257
_symmetry_Int_Tables_number   1
_chemical_formula_structural   Fe4O7F
_chemical_formula_sum   'Fe8 O14 F2'
_cell_volume   258.27816097
_cell_formula_units_Z   2
loop_
 _symmetry_equiv_pos_site_id
 _symmetry_equiv_pos_as_xyz
  1  'x, y, z'
loop_
 _atom_site_type_symbol
 _atom_site_label
 _atom_site_symmetry_multiplicity
 _atom_site_fract_x
 _atom_site_fract_y
 _atom_site_fract_z
 _atom_site_occupancy
  Fe  Fe0  1  0.61284833  0.86269846  0.86269846  1
  Fe  Fe1  1  0.87731384  0.63041866  0.63041866  1
  Fe  Fe2  1  0.50000000  0.50000000  0.50000000  1
  Fe  Fe3  1  0.24516605  0.73363551  0.73363551  1
  Fe  Fe4  1  0.75483395  0.26636449  0.26636449  1
  Fe  Fe5  1  0.12268616  0.36958134  0.36958134  1
  Fe  Fe6  1  0.38715167  0.13730154  0.13730154  1
  Fe  Fe7  1  0.00000000  0.00000000  0.00000000  1
  O  O8  1  0.74995743  0.55963481  0.94820469  1
  O  O9  1  0.50000000  0.18718036  0.81281964  1
  O  O10  1  0.74995743  0.94820469  0.55963481  1
  O  O11  1  0.46691243  0.71149129  0.71149129  1
  O  O12  1  0.71487912  0.48398322  0.48398322  1
  O  O13  1  0.96960280  0.21858821  0.21858821  1
  O  O14  1  0.28512088  0.51601678  0.51601678  1
  O  O15  1  0.03039720  0.78141179  0.78141179  1
  O  O16  1  0.53308757  0.28850871  0.28850871  1
  O  O17  1  0.25004257  0.05179531  0.44036519  1
  O  O18  1  0.50000000  0.81281964  0.18718036  1
  O  O19  1  0.00000000  0.30746110  0.69253890  1
  O  O20  1  0.25004257  0.44036519  0.05179531  1
  O  O21  1  0.00000000  0.69253890  0.30746110  1
  F  F22  1  0.22662856  0.97260792  0.97260792  1
  F  F23  1  0.77337144  0.02739208  0.02739208  1
