# generated using pymatgen
data_HoHfF7
_symmetry_space_group_name_H-M   'P 1'
_cell_length_a   5.73084701
_cell_length_b   6.03567087
_cell_length_c   8.25517490
_cell_angle_alpha   102.77803538
_cell_angle_beta   90.00000000
_cell_angle_gamma   90.00000000
_symmetry_Int_Tables_number   1
_chemical_formula_structural   HoHfF7
_chemical_formula_sum   'Ho2 Hf2 F14'
_cell_volume   278.47074247
_cell_formula_units_Z   2
loop_
 _symmetry_equiv_pos_site_id
 _symmetry_equiv_pos_as_xyz
  1  'x, y, z'
loop_
 _atom_site_type_symbol
 _atom_site_label
 _atom_site_symmetry_multiplicity
 _atom_site_fract_x
 _atom_site_fract_y
 _atom_site_fract_z
 _atom_site_occupancy
  Ho  Ho0  1  0.69806696  0.65548089  0.68525641  1
  Ho  Ho1  1  0.19806696  0.34451911  0.31474359  1
  Hf  Hf2  1  0.70830515  0.81095053  0.22401813  1
  Hf  Hf3  1  0.20830515  0.18904947  0.77598187  1
  F  F4  1  0.89492068  0.45655824  0.47830640  1
  F  F5  1  0.39492068  0.54344176  0.52169360  1
  F  F6  1  0.43021299  0.92855042  0.77045485  1
  F  F7  1  0.93021299  0.07144958  0.22954515  1
  F  F8  1  0.95042878  0.95581276  0.75873845  1
  F  F9  1  0.45042878  0.04418724  0.24126155  1
  F  F10  1  0.99257896  0.45425773  0.78868571  1
  F  F11  1  0.49257896  0.54574227  0.21131429  1
  F  F12  1  0.69847296  0.75429292  0.97606096  1
  F  F13  1  0.19847296  0.24570708  0.02393904  1
  F  F14  1  0.70583723  0.86299689  0.47265680  1
  F  F15  1  0.20583723  0.13700311  0.52734320  1
  F  F16  1  0.49753629  0.38246862  0.78276018  1
  F  F17  1  0.99753629  0.61753138  0.21723982  1
