# generated using pymatgen
data_HoAg(WO4)2
_symmetry_space_group_name_H-M   'P 1'
_cell_length_a   7.31740450
_cell_length_b   7.37939452
_cell_length_c   7.37939452
_cell_angle_alpha   94.26371143
_cell_angle_beta   114.15075731
_cell_angle_gamma   114.15075731
_symmetry_Int_Tables_number   1
_chemical_formula_structural   HoAg(WO4)2
_chemical_formula_sum   'Ho2 Ag2 W4 O16'
_cell_volume   317.47856642
_cell_formula_units_Z   2
loop_
 _symmetry_equiv_pos_site_id
 _symmetry_equiv_pos_as_xyz
  1  'x, y, z'
loop_
 _atom_site_type_symbol
 _atom_site_label
 _atom_site_symmetry_multiplicity
 _atom_site_fract_x
 _atom_site_fract_y
 _atom_site_fract_z
 _atom_site_occupancy
  Ho  Ho0  1  0.00000000  0.69829759  0.30170241  1
  Ho  Ho1  1  0.00000000  0.30170241  0.69829759  1
  Ag  Ag2  1  0.51760787  0.68217271  0.68217271  1
  Ag  Ag3  1  0.48239213  0.31782729  0.31782729  1
  W  W4  1  0.96885478  0.21136693  0.21136693  1
  W  W5  1  0.03114522  0.78863307  0.78863307  1
  W  W6  1  0.50000000  0.83512783  0.16487217  1
  W  W7  1  0.50000000  0.16487217  0.83512783  1
  O  O8  1  0.75760651  0.35448486  0.10267217  1
  O  O9  1  0.24239349  0.64551514  0.89732783  1
  O  O10  1  0.24239349  0.89732783  0.64551514  1
  O  O11  1  0.75760651  0.10267217  0.35448486  1
  O  O12  1  0.65075431  0.68618780  0.21960345  1
  O  O13  1  0.34924569  0.31381220  0.78039655  1
  O  O14  1  0.34924569  0.78039655  0.31381220  1
  O  O15  1  0.65075431  0.21960345  0.68618780  1
  O  O16  1  0.91425675  0.69953930  0.96058616  1
  O  O17  1  0.08574325  0.30046070  0.03941384  1
  O  O18  1  0.08574325  0.03941384  0.30046070  1
  O  O19  1  0.91425675  0.96058616  0.69953930  1
  O  O20  1  0.65829192  0.97779044  0.97779044  1
  O  O21  1  0.34170808  0.02220956  0.02220956  1
  O  O22  1  0.86435934  0.55528529  0.55528529  1
  O  O23  1  0.13564066  0.44471471  0.44471471  1
