# generated using pymatgen
data_Ho6Ni20P13
_symmetry_space_group_name_H-M   'P 1'
_cell_length_a   3.73298313
_cell_length_b   12.62335784
_cell_length_c   12.62335784
_cell_angle_alpha   120.00000146
_cell_angle_beta   90.00000000
_cell_angle_gamma   90.00000000
_symmetry_Int_Tables_number   1
_chemical_formula_structural   Ho6Ni20P13
_chemical_formula_sum   'Ho6 Ni20 P13'
_cell_volume   515.15324468
_cell_formula_units_Z   1
loop_
 _symmetry_equiv_pos_site_id
 _symmetry_equiv_pos_as_xyz
  1  'x, y, z'
loop_
 _atom_site_type_symbol
 _atom_site_label
 _atom_site_symmetry_multiplicity
 _atom_site_fract_x
 _atom_site_fract_y
 _atom_site_fract_z
 _atom_site_occupancy
  Ho  Ho0  1  -0.00000000  0.52838246  0.80943137  1
  Ho  Ho1  1  0.00000000  0.28104891  0.47161754  1
  Ho  Ho2  1  -0.00000000  0.19056863  0.71895109  1
  Ho  Ho3  1  0.50000000  0.81127613  0.28188167  1
  Ho  Ho4  1  0.50000000  0.47060553  0.18872387  1
  Ho  Ho5  1  0.50000000  0.71811833  0.52939447  1
  Ni  Ni6  1  0.00000000  0.80406983  0.90776398  1
  Ni  Ni7  1  -0.00000000  0.10369414  0.19593017  1
  Ni  Ni8  1  -0.00000000  0.09223602  0.89630586  1
  Ni  Ni9  1  0.50000000  0.33333300  0.66666700  1
  Ni  Ni10  1  0.50000000  0.92288786  0.08205205  1
  Ni  Ni11  1  0.50000000  0.15916418  0.07711214  1
  Ni  Ni12  1  0.50000000  0.91794795  0.84083582  1
  Ni  Ni13  1  -0.00000000  0.66666700  0.33333300  1
  Ni  Ni14  1  0.00000000  0.56151092  0.58199470  1
  Ni  Ni15  1  0.00000000  0.02048378  0.43848908  1
  Ni  Ni16  1  -0.00000000  0.41800530  0.97951622  1
  Ni  Ni17  1  0.50000000  0.68056090  0.75046544  1
  Ni  Ni18  1  0.50000000  0.06990454  0.31943910  1
  Ni  Ni19  1  0.50000000  0.24953456  0.93009546  1
  Ni  Ni20  1  0.50000000  0.97984425  0.56624986  1
  Ni  Ni21  1  0.50000000  0.58640561  0.02015575  1
  Ni  Ni22  1  0.50000000  0.43375014  0.41359439  1
  Ni  Ni23  1  0.00000000  0.75698712  0.07762920  1
  Ni  Ni24  1  -0.00000000  0.32064207  0.24301288  1
  Ni  Ni25  1  -0.00000000  0.92237080  0.67935793  1
  P  P26  1  0.50000000  0.47466214  0.61215818  1
  P  P27  1  0.50000000  0.13749604  0.52533786  1
  P  P28  1  0.50000000  0.38784182  0.86250396  1
  P  P29  1  0.50000000  0.71848506  0.95008871  1
  P  P30  1  0.50000000  0.23160365  0.28151494  1
  P  P31  1  0.50000000  0.04991129  0.76839635  1
  P  P32  1  0.00000000  0.86186914  0.47672685  1
  P  P33  1  0.00000000  0.61485771  0.13813086  1
  P  P34  1  -0.00000000  0.52327315  0.38514229  1
  P  P35  1  0.00000000  0.95010067  0.23422805  1
  P  P36  1  0.00000000  0.28412738  0.04989933  1
  P  P37  1  -0.00000000  0.76577195  0.71587262  1
  P  P38  1  -0.00000000  0.00000000  0.00000000  1
