# generated using pymatgen
data_HfSiRu
_symmetry_space_group_name_H-M   'P 1'
_cell_length_a   6.67369319
_cell_length_b   7.36701700
_cell_length_c   7.60752585
_cell_angle_alpha   118.95959399
_cell_angle_beta   116.01615084
_cell_angle_gamma   90.00000000
_symmetry_Int_Tables_number   1
_chemical_formula_structural   HfSiRu
_chemical_formula_sum   'Hf6 Si6 Ru6'
_cell_volume   283.16629019
_cell_formula_units_Z   6
loop_
 _symmetry_equiv_pos_site_id
 _symmetry_equiv_pos_as_xyz
  1  'x, y, z'
loop_
 _atom_site_type_symbol
 _atom_site_label
 _atom_site_symmetry_multiplicity
 _atom_site_fract_x
 _atom_site_fract_y
 _atom_site_fract_z
 _atom_site_occupancy
  Hf  Hf0  1  0.24194517  0.47081411  0.44162821  1
  Hf  Hf1  1  0.80031696  0.52918589  0.55837179  1
  Hf  Hf2  1  0.66338868  0.74744244  0.99488487  1
  Hf  Hf3  1  0.66850380  0.25255756  0.00511513  1
  Hf  Hf4  1  0.84790124  0.05220942  0.60441883  1
  Hf  Hf5  1  0.24348241  0.94779058  0.39558117  1
  Si  Si6  1  0.28149469  0.27554531  0.05109062  1
  Si  Si7  1  0.23040408  0.72445469  0.94890938  1
  Si  Si8  1  0.57766804  0.83821495  0.66508568  1
  Si  Si9  1  0.91258235  0.16178505  0.33491432  1
  Si  Si10  1  0.91258235  0.67312926  0.33491432  1
  Si  Si11  1  0.57766804  0.32687074  0.66508568  1
  Ru  Ru12  1  0.00041843  0.00000000  0.00000000  1
  Ru  Ru13  1  0.00041843  0.50000000  0.00000000  1
  Ru  Ru14  1  0.49427702  0.65142079  0.24774137  1
  Ru  Ru15  1  0.24653565  0.34857921  0.75225863  1
  Ru  Ru16  1  0.24653565  0.90367942  0.75225863  1
  Ru  Ru17  1  0.49427702  0.09632058  0.24774137  1
