# generated using pymatgen
data_HoSbRh
_symmetry_space_group_name_H-M   'P 1'
_cell_length_a   4.58111046
_cell_length_b   7.15538002
_cell_length_c   7.81611758
_cell_angle_alpha   90.00000000
_cell_angle_beta   90.00000000
_cell_angle_gamma   90.00000000
_symmetry_Int_Tables_number   1
_chemical_formula_structural   HoSbRh
_chemical_formula_sum   'Ho4 Sb4 Rh4'
_cell_volume   256.20910039
_cell_formula_units_Z   4
loop_
 _symmetry_equiv_pos_site_id
 _symmetry_equiv_pos_as_xyz
  1  'x, y, z'
loop_
 _atom_site_type_symbol
 _atom_site_label
 _atom_site_symmetry_multiplicity
 _atom_site_fract_x
 _atom_site_fract_y
 _atom_site_fract_z
 _atom_site_occupancy
  Ho  Ho0  1  0.75000000  0.98944422  0.30114346  1
  Ho  Ho1  1  0.25000000  0.01055578  0.69885654  1
  Ho  Ho2  1  0.25000000  0.51055578  0.80114346  1
  Ho  Ho3  1  0.75000000  0.48944422  0.19885654  1
  Sb  Sb4  1  0.75000000  0.81048311  0.90830201  1
  Sb  Sb5  1  0.25000000  0.18951689  0.09169799  1
  Sb  Sb6  1  0.25000000  0.68951689  0.40830201  1
  Sb  Sb7  1  0.75000000  0.31048311  0.59169799  1
  Rh  Rh8  1  0.75000000  0.70018966  0.58094799  1
  Rh  Rh9  1  0.25000000  0.29981034  0.41905201  1
  Rh  Rh10  1  0.25000000  0.79981034  0.08094799  1
  Rh  Rh11  1  0.75000000  0.20018966  0.91905201  1
