# generated using pymatgen
data_LiFe2(SiO4)2
_symmetry_space_group_name_H-M   'P 1'
_cell_length_a   10.97286337
_cell_length_b   11.06230966
_cell_length_c   11.58614164
_cell_angle_alpha   90.00000000
_cell_angle_beta   90.00000000
_cell_angle_gamma   60.12133603
_symmetry_Int_Tables_number   1
_chemical_formula_structural   LiFe2(SiO4)2
_chemical_formula_sum   'Li6 Fe12 Si12 O48'
_cell_volume   1219.45266278
_cell_formula_units_Z   6
loop_
 _symmetry_equiv_pos_site_id
 _symmetry_equiv_pos_as_xyz
  1  'x, y, z'
loop_
 _atom_site_type_symbol
 _atom_site_label
 _atom_site_symmetry_multiplicity
 _atom_site_fract_x
 _atom_site_fract_y
 _atom_site_fract_z
 _atom_site_occupancy
  Li  Li0  1  0.00000000  0.50000000  0.01204601  1
  Li  Li1  1  0.00000000  0.00000000  0.49862227  1
  Li  Li2  1  0.50000000  0.50000000  0.31924589  1
  Li  Li3  1  0.50000000  0.50000000  0.68127600  1
  Li  Li4  1  0.50000000  0.00000000  0.98380730  1
  Li  Li5  1  0.50000000  0.00000000  0.34607229  1
  Fe  Fe6  1  0.99906349  0.74761487  0.33226531  1
  Fe  Fe7  1  0.25177714  0.75063900  0.00155310  1
  Fe  Fe8  1  0.24085472  0.50575675  0.66529978  1
  Fe  Fe9  1  0.49246913  0.75392946  0.33248913  1
  Fe  Fe10  1  0.00093651  0.25238513  0.33226531  1
  Fe  Fe11  1  0.24736323  0.24728981  0.00106813  1
  Fe  Fe12  1  0.75263677  0.75271019  0.00106813  1
  Fe  Fe13  1  0.25209249  0.99973075  0.66772014  1
  Fe  Fe14  1  0.50753087  0.24607054  0.33248913  1
  Fe  Fe15  1  0.75914528  0.49424325  0.66529978  1
  Fe  Fe16  1  0.74822286  0.24936100  0.00155310  1
  Fe  Fe17  1  0.74790751  0.00026925  0.66772014  1
  Si  Si18  1  -0.00026560  0.74737455  0.83741057  1
  Si  Si19  1  0.25250213  0.74577745  0.50132698  1
  Si  Si20  1  0.00026560  0.25262545  0.83741057  1
  Si  Si21  1  0.25297372  0.49677971  0.16592696  1
  Si  Si22  1  0.50514382  0.74652002  0.83231546  1
  Si  Si23  1  0.25764931  0.24685483  0.49729530  1
  Si  Si24  1  0.74235069  0.75314517  0.49729530  1
  Si  Si25  1  0.49485618  0.25347998  0.83231546  1
  Si  Si26  1  0.74702628  0.50322029  0.16592696  1
  Si  Si27  1  0.25803538  0.00060661  0.16670002  1
  Si  Si28  1  0.74749787  0.25422255  0.50132698  1
  Si  Si29  1  0.74196462  0.99939339  0.16670002  1
  O  O30  1  0.20762379  0.89839650  0.56033269  1
  O  O31  1  0.09881172  0.79345145  0.44063822  1
  O  O32  1  0.10529151  0.79134330  0.90072174  1
  O  O33  1  0.22304604  0.88806454  0.10726814  1
  O  O34  1  0.38606476  0.92831372  0.26162067  1
  O  O35  1  0.08051986  0.62070219  0.74565450  1
  O  O36  1  0.12464310  0.59195909  0.25257823  1
  O  O37  1  0.41014877  0.87436215  0.74584601  1
  O  O38  1  0.38171051  0.68993964  0.40643831  1
  O  O39  1  0.30777788  0.61792475  0.59530465  1
  O  O40  1  0.28786547  0.59153350  0.08006237  1
  O  O41  1  0.40977974  0.70981283  0.91685777  1
  O  O42  1  0.68589883  0.92757156  0.07119393  1
  O  O43  1  0.07150986  0.31163523  0.93097998  1
  O  O44  1  0.19848539  0.40607586  0.09110435  1
  O  O45  1  0.59419576  0.80202089  0.90874397  1
  O  O46  1  0.22065369  0.39070757  0.56253998  1
  O  O47  1  0.59856968  0.81188745  0.41906442  1
  O  O48  1  0.12227676  0.28791051  0.41534611  1
  O  O49  1  0.71262256  0.87936979  0.58469268  1
  O  O50  1  0.39828693  0.40457887  0.24112436  1
  O  O51  1  0.59849515  0.60215565  0.75812887  1
  O  O52  1  0.11032509  0.11076385  0.22873480  1
  O  O53  1  0.88755627  0.89268478  0.77425848  1
  O  O54  1  0.11244373  0.10731522  0.77425848  1
  O  O55  1  0.88967491  0.88923615  0.22873480  1
  O  O56  1  0.40150485  0.39784435  0.75812887  1
  O  O57  1  0.60171307  0.59542113  0.24112436  1
  O  O58  1  0.28737744  0.12063021  0.58469268  1
  O  O59  1  0.87772324  0.71208949  0.41534611  1
  O  O60  1  0.40143032  0.18811255  0.41906442  1
  O  O61  1  0.77934631  0.60929243  0.56253998  1
  O  O62  1  0.40580424  0.19797811  0.90874397  1
  O  O63  1  0.80151461  0.59392414  0.09110435  1
  O  O64  1  0.92849014  0.68836477  0.93097998  1
  O  O65  1  0.31410117  0.07242844  0.07119393  1
  O  O66  1  0.59022026  0.29018717  0.91685777  1
  O  O67  1  0.71213453  0.40846650  0.08006237  1
  O  O68  1  0.69222212  0.38207525  0.59530465  1
  O  O69  1  0.61828949  0.31006036  0.40643831  1
  O  O70  1  0.58985123  0.12563785  0.74584601  1
  O  O71  1  0.87535690  0.40804091  0.25257823  1
  O  O72  1  0.91948014  0.37929781  0.74565450  1
  O  O73  1  0.61393524  0.07168628  0.26162067  1
  O  O74  1  0.77695396  0.11193546  0.10726814  1
  O  O75  1  0.89470849  0.20865670  0.90072174  1
  O  O76  1  0.79237621  0.10160350  0.56033269  1
  O  O77  1  0.90118828  0.20654855  0.44063822  1
