# generated using pymatgen
data_Hf5MnSb2
_symmetry_space_group_name_H-M   'P 1'
_cell_length_a   5.58295643
_cell_length_b   8.24550847
_cell_length_c   8.24550847
_cell_angle_alpha   83.41870023
_cell_angle_beta   70.21172876
_cell_angle_gamma   70.21172876
_symmetry_Int_Tables_number   1
_chemical_formula_structural   Hf5MnSb2
_chemical_formula_sum   'Hf10 Mn2 Sb4'
_cell_volume   336.07197654
_cell_formula_units_Z   2
loop_
 _symmetry_equiv_pos_site_id
 _symmetry_equiv_pos_as_xyz
  1  'x, y, z'
loop_
 _atom_site_type_symbol
 _atom_site_label
 _atom_site_symmetry_multiplicity
 _atom_site_fract_x
 _atom_site_fract_y
 _atom_site_fract_z
 _atom_site_occupancy
  Hf  Hf0  1  0.06969049  0.12952817  0.73109085  1
  Hf  Hf1  1  0.93030951  0.87047183  0.26890915  1
  Hf  Hf2  1  0.80078134  0.26890915  0.12952817  1
  Hf  Hf3  1  0.43030951  0.26890915  0.87047183  1
  Hf  Hf4  1  0.19921866  0.73109085  0.87047183  1
  Hf  Hf5  1  0.56969049  0.73109085  0.12952817  1
  Hf  Hf6  1  0.69921866  0.87047183  0.73109085  1
  Hf  Hf7  1  0.30078134  0.12952817  0.26890915  1
  Hf  Hf8  1  0.25000000  0.50000000  0.50000000  1
  Hf  Hf9  1  0.75000000  0.50000000  0.50000000  1
  Mn  Mn10  1  0.25000000  0.00000000  0.00000000  1
  Mn  Mn11  1  0.75000000  0.00000000  0.00000000  1
  Sb  Sb12  1  0.16428547  0.50000000  0.17142906  1
  Sb  Sb13  1  0.83571453  0.50000000  0.82857094  1
  Sb  Sb14  1  0.33571453  0.82857094  0.50000000  1
  Sb  Sb15  1  0.66428547  0.17142906  0.50000000  1
