# generated using pymatgen
data_Ho6Nb4Al43
_symmetry_space_group_name_H-M   'P 1'
_cell_length_a   11.12355490
_cell_length_b   11.12355490
_cell_length_c   17.72862805
_cell_angle_alpha   90.00000000
_cell_angle_beta   90.00000000
_cell_angle_gamma   119.99999643
_symmetry_Int_Tables_number   1
_chemical_formula_structural   Ho6Nb4Al43
_chemical_formula_sum   'Ho12 Nb8 Al86'
_cell_volume   1899.73481164
_cell_formula_units_Z   2
loop_
 _symmetry_equiv_pos_site_id
 _symmetry_equiv_pos_as_xyz
  1  'x, y, z'
loop_
 _atom_site_type_symbol
 _atom_site_label
 _atom_site_symmetry_multiplicity
 _atom_site_fract_x
 _atom_site_fract_y
 _atom_site_fract_z
 _atom_site_occupancy
  Ho  Ho0  1  0.47010078  0.47010078  0.90391040  1
  Ho  Ho1  1  0.52989922  0.52989922  0.09608960  1
  Ho  Ho2  1  0.00000000  0.52989922  0.90391040  1
  Ho  Ho3  1  0.52989922  0.52989922  0.40391040  1
  Ho  Ho4  1  0.00000000  0.52989922  0.59608960  1
  Ho  Ho5  1  1.00000000  0.47010078  0.09608960  1
  Ho  Ho6  1  0.47010078  0.47010078  0.59608960  1
  Ho  Ho7  1  1.00000000  0.47010078  0.40391040  1
  Ho  Ho8  1  0.52989922  0.00000000  0.90391040  1
  Ho  Ho9  1  0.47010078  1.00000000  0.09608960  1
  Ho  Ho10  1  0.47010078  1.00000000  0.40391040  1
  Ho  Ho11  1  0.52989922  0.00000000  0.59608960  1
  Nb  Nb12  1  0.00000000  -0.00000000  0.00000000  1
  Nb  Nb13  1  0.00000000  -0.00000000  0.50000000  1
  Nb  Nb14  1  0.27422647  0.27422647  0.75000000  1
  Nb  Nb15  1  0.72577353  0.72577353  0.25000000  1
  Nb  Nb16  1  0.00000000  0.72577353  0.75000000  1
  Nb  Nb17  1  1.00000000  0.27422647  0.25000000  1
  Nb  Nb18  1  0.72577353  0.00000000  0.75000000  1
  Nb  Nb19  1  0.27422647  1.00000000  0.25000000  1
  Al  Al20  1  0.85037382  0.44574379  0.75000000  1
  Al  Al21  1  0.14962618  0.55425621  0.25000000  1
  Al  Al22  1  0.59536997  0.14962618  0.75000000  1
  Al  Al23  1  0.40463003  0.55425621  0.75000000  1
  Al  Al24  1  0.40463003  0.85037382  0.25000000  1
  Al  Al25  1  0.59536997  0.44574379  0.25000000  1
  Al  Al26  1  0.55425621  0.40463003  0.75000000  1
  Al  Al27  1  0.44574379  0.85037382  0.75000000  1
  Al  Al28  1  0.44574379  0.59536997  0.25000000  1
  Al  Al29  1  0.55425621  0.14962618  0.25000000  1
  Al  Al30  1  0.14962618  0.59536997  0.75000000  1
  Al  Al31  1  0.85037382  0.40463003  0.25000000  1
  Al  Al32  1  0.84093153  0.84093153  0.38471719  1
  Al  Al33  1  0.15906847  0.15906847  0.61528281  1
  Al  Al34  1  0.00000000  0.15906847  0.38471719  1
  Al  Al35  1  0.15906847  0.15906847  0.88471719  1
  Al  Al36  1  0.00000000  0.15906847  0.11528281  1
  Al  Al37  1  1.00000000  0.84093153  0.61528281  1
  Al  Al38  1  0.84093153  0.84093153  0.11528281  1
  Al  Al39  1  1.00000000  0.84093153  0.88471719  1
  Al  Al40  1  0.15906847  0.00000000  0.38471719  1
  Al  Al41  1  0.84093153  1.00000000  0.61528281  1
  Al  Al42  1  0.84093153  1.00000000  0.88471719  1
  Al  Al43  1  0.15906847  0.00000000  0.11528281  1
  Al  Al44  1  0.75278642  0.24721358  0.00000000  1
  Al  Al45  1  0.24721358  0.75278642  0.00000000  1
  Al  Al46  1  0.49442716  0.24721358  0.00000000  1
  Al  Al47  1  0.24721358  0.75278642  0.50000000  1
  Al  Al48  1  0.50557284  0.75278642  0.50000000  1
  Al  Al49  1  0.50557284  0.75278642  0.00000000  1
  Al  Al50  1  0.75278642  0.24721358  0.50000000  1
  Al  Al51  1  0.49442716  0.24721358  0.50000000  1
  Al  Al52  1  0.75278642  0.50557284  0.00000000  1
  Al  Al53  1  0.24721358  0.49442716  0.00000000  1
  Al  Al54  1  0.24721358  0.49442716  0.50000000  1
  Al  Al55  1  0.75278642  0.50557284  0.50000000  1
  Al  Al56  1  0.85305716  0.85305716  0.75000000  1
  Al  Al57  1  0.14694284  0.14694284  0.25000000  1
  Al  Al58  1  0.00000000  0.14694284  0.75000000  1
  Al  Al59  1  1.00000000  0.85305716  0.25000000  1
  Al  Al60  1  0.14694284  0.00000000  0.75000000  1
  Al  Al61  1  0.85305716  1.00000000  0.25000000  1
  Al  Al62  1  0.66666700  0.33333300  0.87360852  1
  Al  Al63  1  0.33333300  0.66666700  0.12639148  1
  Al  Al64  1  0.33333300  0.66666700  0.37360852  1
  Al  Al65  1  0.33333300  0.66666700  0.62639148  1
  Al  Al66  1  0.66666700  0.33333300  0.62639148  1
  Al  Al67  1  0.66666700  0.33333300  0.37360852  1
  Al  Al68  1  0.66666700  0.33333300  0.12639148  1
  Al  Al69  1  0.33333300  0.66666700  0.87360852  1
  Al  Al70  1  0.74330537  0.74330537  0.96974394  1
  Al  Al71  1  0.25669463  0.25669463  0.03025606  1
  Al  Al72  1  1.00000000  0.25669463  0.96974394  1
  Al  Al73  1  0.25669463  0.25669463  0.46974394  1
  Al  Al74  1  1.00000000  0.25669463  0.53025606  1
  Al  Al75  1  0.00000000  0.74330537  0.03025606  1
  Al  Al76  1  0.74330537  0.74330537  0.53025606  1
  Al  Al77  1  0.00000000  0.74330537  0.46974394  1
  Al  Al78  1  0.25669463  1.00000000  0.96974394  1
  Al  Al79  1  0.74330537  0.00000000  0.03025606  1
  Al  Al80  1  0.74330537  0.00000000  0.46974394  1
  Al  Al81  1  0.25669463  1.00000000  0.53025606  1
  Al  Al82  1  0.84315932  0.23760109  0.83638472  1
  Al  Al83  1  0.15684068  0.76239891  0.16361528  1
  Al  Al84  1  0.39444177  0.15684068  0.83638472  1
  Al  Al85  1  0.15684068  0.76239891  0.33638472  1
  Al  Al86  1  0.60555823  0.76239891  0.66361528  1
  Al  Al87  1  0.60555823  0.84315932  0.16361528  1
  Al  Al88  1  0.84315932  0.23760109  0.66361528  1
  Al  Al89  1  0.39444177  0.23760109  0.33638472  1
  Al  Al90  1  0.76239891  0.60555823  0.83638472  1
  Al  Al91  1  0.60555823  0.84315932  0.33638472  1
  Al  Al92  1  0.23760109  0.84315932  0.66361528  1
  Al  Al93  1  0.23760109  0.39444177  0.16361528  1
  Al  Al94  1  0.39444177  0.15684068  0.66361528  1
  Al  Al95  1  0.76239891  0.15684068  0.33638472  1
  Al  Al96  1  0.39444177  0.23760109  0.16361528  1
  Al  Al97  1  0.60555823  0.76239891  0.83638472  1
  Al  Al98  1  0.23760109  0.39444177  0.33638472  1
  Al  Al99  1  0.76239891  0.15684068  0.16361528  1
  Al  Al100  1  0.76239891  0.60555823  0.66361528  1
  Al  Al101  1  0.23760109  0.84315932  0.83638472  1
  Al  Al102  1  0.15684068  0.39444177  0.66361528  1
  Al  Al103  1  0.84315932  0.60555823  0.33638472  1
  Al  Al104  1  0.84315932  0.60555823  0.16361528  1
  Al  Al105  1  0.15684068  0.39444177  0.83638472  1
