# generated using pymatgen
data_LaGaGe2O7
_symmetry_space_group_name_H-M   'P 1'
_cell_length_a   6.71039976
_cell_length_b   7.43918799
_cell_length_c   11.72332761
_cell_angle_alpha   96.59336291
_cell_angle_beta   90.00000000
_cell_angle_gamma   90.00000000
_symmetry_Int_Tables_number   1
_chemical_formula_structural   LaGaGe2O7
_chemical_formula_sum   'La4 Ga4 Ge8 O28'
_cell_volume   581.35698548
_cell_formula_units_Z   4
loop_
 _symmetry_equiv_pos_site_id
 _symmetry_equiv_pos_as_xyz
  1  'x, y, z'
loop_
 _atom_site_type_symbol
 _atom_site_label
 _atom_site_symmetry_multiplicity
 _atom_site_fract_x
 _atom_site_fract_y
 _atom_site_fract_z
 _atom_site_occupancy
  La  La0  1  0.64682548  0.73398576  0.47495708  1
  La  La1  1  0.35317452  0.26601424  0.52504292  1
  La  La2  1  0.14682548  0.76601424  0.02504292  1
  La  La3  1  0.85317452  0.23398576  0.97495708  1
  Ga  Ga4  1  0.60057097  0.01648201  0.73142165  1
  Ga  Ga5  1  0.39942903  0.98351799  0.26857835  1
  Ga  Ga6  1  0.10057097  0.48351799  0.76857835  1
  Ga  Ga7  1  0.89942903  0.51648201  0.23142165  1
  Ge  Ge8  1  0.34166602  0.24153285  0.95270644  1
  Ge  Ge9  1  0.65833398  0.75846715  0.04729356  1
  Ge  Ge10  1  0.84166602  0.25846715  0.54729356  1
  Ge  Ge11  1  0.15833398  0.74153285  0.45270644  1
  Ge  Ge12  1  0.08929247  0.91675357  0.71750304  1
  Ge  Ge13  1  0.91070753  0.08324643  0.28249696  1
  Ge  Ge14  1  0.58929247  0.58324643  0.78249696  1
  Ge  Ge15  1  0.41070753  0.41675357  0.21750304  1
  O  O16  1  0.62632515  0.76348295  0.69717713  1
  O  O17  1  0.37367485  0.23651705  0.30282287  1
  O  O18  1  0.12632515  0.73651705  0.80282287  1
  O  O19  1  0.87367485  0.26348295  0.19717713  1
  O  O20  1  0.17785667  0.07017253  0.97745840  1
  O  O21  1  0.82214333  0.92982747  0.02254160  1
  O  O22  1  0.67785667  0.42982747  0.52254160  1
  O  O23  1  0.32214333  0.57017253  0.47745840  1
  O  O24  1  0.39119589  0.44677870  0.72198922  1
  O  O25  1  0.60880411  0.55322130  0.27801078  1
  O  O26  1  0.89119589  0.05322130  0.77801078  1
  O  O27  1  0.10880411  0.94677870  0.22198922  1
  O  O28  1  0.00534159  0.82512590  0.57363169  1
  O  O29  1  0.99465841  0.17487410  0.42636831  1
  O  O30  1  0.50534159  0.67487410  0.92636831  1
  O  O31  1  0.49465841  0.32512590  0.07363169  1
  O  O32  1  0.55008374  0.16564271  0.86874393  1
  O  O33  1  0.44991626  0.83435729  0.13125607  1
  O  O34  1  0.05008374  0.33435729  0.63125607  1
  O  O35  1  0.94991626  0.66564271  0.36874393  1
  O  O36  1  0.16342859  0.40806678  0.91749517  1
  O  O37  1  0.83657141  0.59193322  0.08250483  1
  O  O38  1  0.66342859  0.09193322  0.58250483  1
  O  O39  1  0.33657141  0.90806678  0.41749517  1
  O  O40  1  0.31257853  0.02774940  0.68576576  1
  O  O41  1  0.68742147  0.97225060  0.31423424  1
  O  O42  1  0.81257853  0.47225060  0.81423424  1
  O  O43  1  0.18742147  0.52774940  0.18576576  1
