# generated using pymatgen
data_GdHfF7
_symmetry_space_group_name_H-M   'P 1'
_cell_length_a   5.74956395
_cell_length_b   6.17495372
_cell_length_c   8.35005436
_cell_angle_alpha   101.92781629
_cell_angle_beta   90.00000000
_cell_angle_gamma   90.00000000
_symmetry_Int_Tables_number   1
_chemical_formula_structural   GdHfF7
_chemical_formula_sum   'Gd2 Hf2 F14'
_cell_volume   290.05359441
_cell_formula_units_Z   2
loop_
 _symmetry_equiv_pos_site_id
 _symmetry_equiv_pos_as_xyz
  1  'x, y, z'
loop_
 _atom_site_type_symbol
 _atom_site_label
 _atom_site_symmetry_multiplicity
 _atom_site_fract_x
 _atom_site_fract_y
 _atom_site_fract_z
 _atom_site_occupancy
  Gd  Gd0  1  0.69861850  0.65643079  0.68619281  1
  Gd  Gd1  1  0.19861850  0.34356921  0.31380719  1
  Hf  Hf2  1  0.70875719  0.81175710  0.22388634  1
  Hf  Hf3  1  0.20875719  0.18824290  0.77611366  1
  F  F4  1  0.88543633  0.44955224  0.47529436  1
  F  F5  1  0.38543633  0.55044776  0.52470564  1
  F  F6  1  0.42240410  0.92867271  0.76733923  1
  F  F7  1  0.92240410  0.07132729  0.23266077  1
  F  F8  1  0.94642271  0.96794979  0.76137046  1
  F  F9  1  0.44642271  0.03205021  0.23862954  1
  F  F10  1  0.99887892  0.45042823  0.78654811  1
  F  F11  1  0.49887892  0.54957177  0.21345189  1
  F  F12  1  0.70518762  0.75682591  0.97937514  1
  F  F13  1  0.20518762  0.24317409  0.02062486  1
  F  F14  1  0.71262073  0.85958413  0.46997405  1
  F  F15  1  0.21262073  0.14041587  0.53002595  1
  F  F16  1  0.49803389  0.37597538  0.78223308  1
  F  F17  1  0.99803389  0.62402462  0.21776692  1
