# generated using pymatgen
data_Ho2OsC2
_symmetry_space_group_name_H-M   'P 1'
_cell_length_a   5.10478871
_cell_length_b   6.42140671
_cell_length_c   9.78135928
_cell_angle_alpha   90.00000000
_cell_angle_beta   90.00000000
_cell_angle_gamma   90.00000000
_symmetry_Int_Tables_number   1
_chemical_formula_structural   Ho2OsC2
_chemical_formula_sum   'Ho8 Os4 C8'
_cell_volume   320.63221847
_cell_formula_units_Z   4
loop_
 _symmetry_equiv_pos_site_id
 _symmetry_equiv_pos_as_xyz
  1  'x, y, z'
loop_
 _atom_site_type_symbol
 _atom_site_label
 _atom_site_symmetry_multiplicity
 _atom_site_fract_x
 _atom_site_fract_y
 _atom_site_fract_z
 _atom_site_occupancy
  Ho  Ho0  1  0.75000000  0.81490069  0.94737825  1
  Ho  Ho1  1  0.25000000  0.18509931  0.05262175  1
  Ho  Ho2  1  0.25000000  0.68509931  0.44737825  1
  Ho  Ho3  1  0.75000000  0.31490069  0.55262175  1
  Ho  Ho4  1  0.75000000  0.97646441  0.27912145  1
  Ho  Ho5  1  0.25000000  0.02353559  0.72087855  1
  Ho  Ho6  1  0.25000000  0.52353559  0.77912145  1
  Ho  Ho7  1  0.75000000  0.47646441  0.22087855  1
  Os  Os8  1  0.75000000  0.77335995  0.63466407  1
  Os  Os9  1  0.25000000  0.22664005  0.36533593  1
  Os  Os10  1  0.25000000  0.72664005  0.13466407  1
  Os  Os11  1  0.75000000  0.27335995  0.86533593  1
  C  C12  1  0.75000000  0.03696524  0.74225290  1
  C  C13  1  0.25000000  0.96303476  0.25774710  1
  C  C14  1  0.25000000  0.46303476  0.24225290  1
  C  C15  1  0.75000000  0.53696524  0.75774710  1
  C  C16  1  0.75000000  0.67613402  0.44589766  1
  C  C17  1  0.25000000  0.32386598  0.55410234  1
  C  C18  1  0.25000000  0.82386598  0.94589766  1
  C  C19  1  0.75000000  0.17613402  0.05410234  1
