# generated using pymatgen
data_Ho4CdPd
_symmetry_space_group_name_H-M   'P 1'
_cell_length_a   9.66589678
_cell_length_b   9.66589678
_cell_length_c   9.66589678
_cell_angle_alpha   60.00000000
_cell_angle_beta   60.00000000
_cell_angle_gamma   60.00000000
_symmetry_Int_Tables_number   1
_chemical_formula_structural   Ho4CdPd
_chemical_formula_sum   'Ho16 Cd4 Pd4'
_cell_volume   638.57433761
_cell_formula_units_Z   4
loop_
 _symmetry_equiv_pos_site_id
 _symmetry_equiv_pos_as_xyz
  1  'x, y, z'
loop_
 _atom_site_type_symbol
 _atom_site_label
 _atom_site_symmetry_multiplicity
 _atom_site_fract_x
 _atom_site_fract_y
 _atom_site_fract_z
 _atom_site_occupancy
  Ho  Ho0  1  0.64712647  0.64712647  0.64712647  1
  Ho  Ho1  1  0.05862059  0.64712647  0.64712647  1
  Ho  Ho2  1  0.64712647  0.05862059  0.64712647  1
  Ho  Ho3  1  0.64712647  0.64712647  0.05862059  1
  Ho  Ho4  1  0.81072213  0.81072213  0.18927787  1
  Ho  Ho5  1  0.18927787  0.18927787  0.81072213  1
  Ho  Ho6  1  0.81072213  0.18927787  0.81072213  1
  Ho  Ho7  1  0.18927787  0.81072213  0.18927787  1
  Ho  Ho8  1  0.18927787  0.81072213  0.81072213  1
  Ho  Ho9  1  0.81072213  0.18927787  0.18927787  1
  Ho  Ho10  1  0.43391569  0.43391569  0.06608431  1
  Ho  Ho11  1  0.06608431  0.06608431  0.43391569  1
  Ho  Ho12  1  0.43391569  0.06608431  0.43391569  1
  Ho  Ho13  1  0.06608431  0.43391569  0.06608431  1
  Ho  Ho14  1  0.06608431  0.43391569  0.43391569  1
  Ho  Ho15  1  0.43391569  0.06608431  0.06608431  1
  Cd  Cd16  1  0.41790369  0.41790369  0.41790369  1
  Cd  Cd17  1  0.74628893  0.41790369  0.41790369  1
  Cd  Cd18  1  0.41790369  0.74628893  0.41790369  1
  Cd  Cd19  1  0.41790369  0.41790369  0.74628893  1
  Pd  Pd20  1  0.85634694  0.85634694  0.85634694  1
  Pd  Pd21  1  0.43095918  0.85634694  0.85634694  1
  Pd  Pd22  1  0.85634694  0.43095918  0.85634694  1
  Pd  Pd23  1  0.85634694  0.85634694  0.43095918  1
