# generated using pymatgen
data_DyF3
_symmetry_space_group_name_H-M   'P 1'
_cell_length_a   6.83719688
_cell_length_b   6.83719688
_cell_length_c   7.02250356
_cell_angle_alpha   90.00000000
_cell_angle_beta   90.00000000
_cell_angle_gamma   119.99999783
_symmetry_Int_Tables_number   1
_chemical_formula_structural   DyF3
_chemical_formula_sum   'Dy6 F18'
_cell_volume   284.30125722
_cell_formula_units_Z   6
loop_
 _symmetry_equiv_pos_site_id
 _symmetry_equiv_pos_as_xyz
  1  'x, y, z'
loop_
 _atom_site_type_symbol
 _atom_site_label
 _atom_site_symmetry_multiplicity
 _atom_site_fract_x
 _atom_site_fract_y
 _atom_site_fract_z
 _atom_site_occupancy
  Dy  Dy0  1  0.65463136  0.65463136  0.75000000  1
  Dy  Dy1  1  0.34536864  0.34536864  0.25000000  1
  Dy  Dy2  1  0.00000000  0.34536864  0.75000000  1
  Dy  Dy3  1  1.00000000  0.65463136  0.25000000  1
  Dy  Dy4  1  0.34536864  0.00000000  0.75000000  1
  Dy  Dy5  1  0.65463136  1.00000000  0.25000000  1
  F  F6  1  -0.00000000  -0.00000000  0.75000000  1
  F  F7  1  -0.00000000  -0.00000000  0.25000000  1
  F  F8  1  0.66666700  0.33333300  0.81554207  1
  F  F9  1  0.33333300  0.66666700  0.18445793  1
  F  F10  1  0.33333300  0.66666700  0.68445793  1
  F  F11  1  0.66666700  0.33333300  0.31554207  1
  F  F12  1  0.62619004  0.93330377  0.92141687  1
  F  F13  1  0.37380996  0.06669623  0.07858313  1
  F  F14  1  0.30711374  0.37380996  0.92141687  1
  F  F15  1  0.69288626  0.06669623  0.57858313  1
  F  F16  1  0.69288626  0.62619004  0.07858313  1
  F  F17  1  0.30711374  0.93330377  0.42141687  1
  F  F18  1  0.06669623  0.69288626  0.92141687  1
  F  F19  1  0.93330377  0.62619004  0.57858313  1
  F  F20  1  0.93330377  0.30711374  0.07858313  1
  F  F21  1  0.06669623  0.37380996  0.42141687  1
  F  F22  1  0.37380996  0.30711374  0.57858313  1
  F  F23  1  0.62619004  0.69288626  0.42141687  1
