# generated using pymatgen
data_DyPPd
_symmetry_space_group_name_H-M   'P 1'
_cell_length_a   4.03021931
_cell_length_b   6.88707082
_cell_length_c   7.75495367
_cell_angle_alpha   90.00000000
_cell_angle_beta   90.00000000
_cell_angle_gamma   90.00000000
_symmetry_Int_Tables_number   1
_chemical_formula_structural   DyPPd
_chemical_formula_sum   'Dy4 P4 Pd4'
_cell_volume   215.24964109
_cell_formula_units_Z   4
loop_
 _symmetry_equiv_pos_site_id
 _symmetry_equiv_pos_as_xyz
  1  'x, y, z'
loop_
 _atom_site_type_symbol
 _atom_site_label
 _atom_site_symmetry_multiplicity
 _atom_site_fract_x
 _atom_site_fract_y
 _atom_site_fract_z
 _atom_site_occupancy
  Dy  Dy0  1  0.75000000  0.97383991  0.31427362  1
  Dy  Dy1  1  0.25000000  0.02616009  0.68572638  1
  Dy  Dy2  1  0.25000000  0.52616009  0.81427362  1
  Dy  Dy3  1  0.75000000  0.47383991  0.18572638  1
  P  P4  1  0.75000000  0.74303263  0.62323226  1
  P  P5  1  0.25000000  0.25696737  0.37676774  1
  P  P6  1  0.25000000  0.75696737  0.12323226  1
  P  P7  1  0.75000000  0.24303263  0.87676774  1
  Pd  Pd8  1  0.75000000  0.85227637  0.93842867  1
  Pd  Pd9  1  0.25000000  0.14772363  0.06157133  1
  Pd  Pd10  1  0.25000000  0.64772363  0.43842867  1
  Pd  Pd11  1  0.75000000  0.35227637  0.56157133  1
