# generated using pymatgen
data_Fe3O5F
_symmetry_space_group_name_H-M   'P 1'
_cell_length_a   10.38721126
_cell_length_b   6.58134367
_cell_length_c   3.00234890
_cell_angle_alpha   90.00000000
_cell_angle_beta   90.00000000
_cell_angle_gamma   71.58126057
_symmetry_Int_Tables_number   1
_chemical_formula_structural   Fe3O5F
_chemical_formula_sum   'Fe6 O10 F2'
_cell_volume   194.73180273
_cell_formula_units_Z   2
loop_
 _symmetry_equiv_pos_site_id
 _symmetry_equiv_pos_as_xyz
  1  'x, y, z'
loop_
 _atom_site_type_symbol
 _atom_site_label
 _atom_site_symmetry_multiplicity
 _atom_site_fract_x
 _atom_site_fract_y
 _atom_site_fract_z
 _atom_site_occupancy
  Fe  Fe0  1  0.01725153  0.99218533  0.00000000  1
  Fe  Fe1  1  0.99816198  0.50174417  0.50000000  1
  Fe  Fe2  1  0.32710519  0.34786704  0.00000000  1
  Fe  Fe3  1  0.65318866  0.17349329  0.50000000  1
  Fe  Fe4  1  0.33847834  0.81320552  0.50000000  1
  Fe  Fe5  1  0.66632966  0.66741984  0.00000000  1
  O  O6  1  0.00077037  0.30673914  0.00000000  1
  O  O7  1  0.00052831  0.69374275  0.00000000  1
  O  O8  1  0.20346297  0.39713147  0.50000000  1
  O  O9  1  0.45206132  0.27020335  0.50000000  1
  O  O10  1  0.13897377  0.93437780  0.50000000  1
  O  O11  1  0.33760295  0.63757262  0.00000000  1
  O  O12  1  0.66272241  0.35561618  0.00000000  1
  O  O13  1  0.53935204  0.73171464  0.50000000  1
  O  O14  1  0.79155821  0.60410503  0.50000000  1
  O  O15  1  0.66295004  0.98148737  0.00000000  1
  F  F16  1  0.33659990  0.02738147  0.00000000  1
  F  F17  1  0.87290137  0.06401497  0.50000000  1
