# generated using pymatgen
data_Er2Si5Rh3
_symmetry_space_group_name_H-M   'P 1'
_cell_length_a   5.74514028
_cell_length_b   8.12852919
_cell_length_c   8.12852919
_cell_angle_alpha   75.13643673
_cell_angle_beta   69.30497649
_cell_angle_gamma   69.30497649
_symmetry_Int_Tables_number   1
_chemical_formula_structural   Er2Si5Rh3
_chemical_formula_sum   'Er4 Si10 Rh6'
_cell_volume   328.41221610
_cell_formula_units_Z   2
loop_
 _symmetry_equiv_pos_site_id
 _symmetry_equiv_pos_as_xyz
  1  'x, y, z'
loop_
 _atom_site_type_symbol
 _atom_site_label
 _atom_site_symmetry_multiplicity
 _atom_site_fract_x
 _atom_site_fract_y
 _atom_site_fract_z
 _atom_site_occupancy
  Er  Er0  1  0.63154950  0.10053326  0.63636774  1
  Er  Er1  1  0.36845050  0.89946674  0.36363226  1
  Er  Er2  1  0.13154950  0.63636774  0.10053326  1
  Er  Er3  1  0.86845050  0.36363226  0.89946674  1
  Si  Si4  1  0.47336712  0.27663288  0.27663288  1
  Si  Si5  1  0.52663288  0.72336712  0.72336712  1
  Si  Si6  1  0.02663288  0.72336712  0.72336712  1
  Si  Si7  1  0.97336712  0.27663288  0.27663288  1
  Si  Si8  1  0.89361339  0.76272891  0.45004430  1
  Si  Si9  1  0.10638661  0.23727109  0.54995570  1
  Si  Si10  1  0.39361339  0.45004430  0.76272891  1
  Si  Si11  1  0.60638661  0.54995570  0.23727109  1
  Si  Si12  1  0.75000000  -0.00000000  0.00000000  1
  Si  Si13  1  0.25000000  -0.00000000  0.00000000  1
  Rh  Rh14  1  0.86053596  0.02868697  0.25024111  1
  Rh  Rh15  1  0.13946404  0.97131303  0.74975889  1
  Rh  Rh16  1  0.36053596  0.25024111  0.02868697  1
  Rh  Rh17  1  0.63946404  0.74975889  0.97131303  1
  Rh  Rh18  1  0.75000000  0.50000000  0.50000000  1
  Rh  Rh19  1  0.25000000  0.50000000  0.50000000  1
