# generated using pymatgen
data_Dy4(Al8Pt3)3
_symmetry_space_group_name_H-M   'P 1'
_cell_length_a   7.49774549
_cell_length_b   7.52885149
_cell_length_c   13.19484044
_cell_angle_alpha   84.60931024
_cell_angle_beta   79.20581972
_cell_angle_gamma   59.94201643
_symmetry_Int_Tables_number   1
_chemical_formula_structural   Dy4(Al8Pt3)3
_chemical_formula_sum   'Dy4 Al24 Pt9'
_cell_volume   633.26730497
_cell_formula_units_Z   1
loop_
 _symmetry_equiv_pos_site_id
 _symmetry_equiv_pos_as_xyz
  1  'x, y, z'
loop_
 _atom_site_type_symbol
 _atom_site_label
 _atom_site_symmetry_multiplicity
 _atom_site_fract_x
 _atom_site_fract_y
 _atom_site_fract_z
 _atom_site_occupancy
  Dy  Dy0  1  0.39375097  0.16835014  0.80778655  1
  Dy  Dy1  1  0.60624903  0.83164986  0.19221345  1
  Dy  Dy2  1  0.73413913  0.49839788  0.80746099  1
  Dy  Dy3  1  0.26586087  0.50160212  0.19253901  1
  Al  Al4  1  0.68462164  0.83333830  0.94442340  1
  Al  Al5  1  0.31537836  0.16666170  0.05557660  1
  Al  Al6  1  0.14736883  0.83211683  0.56088480  1
  Al  Al7  1  0.85263117  0.16788317  0.43911520  1
  Al  Al8  1  0.47982946  0.16691963  0.55881602  1
  Al  Al9  1  0.52017054  0.83308037  0.44118398  1
  Al  Al10  1  0.21745460  0.16529877  0.32988948  1
  Al  Al11  1  0.78254540  0.83470123  0.67011052  1
  Al  Al12  1  0.43813912  0.50594896  0.67000817  1
  Al  Al13  1  0.56186088  0.49405104  0.32999183  1
  Al  Al14  1  0.11007239  0.15993814  0.66939318  1
  Al  Al15  1  0.88992761  0.84006186  0.33060682  1
  Al  Al16  1  0.35357748  0.49860958  0.94475506  1
  Al  Al17  1  0.64642252  0.50139042  0.05524494  1
  Al  Al18  1  0.01395602  0.16828785  0.95321858  1
  Al  Al19  1  0.98604398  0.83171215  0.04678142  1
  Al  Al20  1  0.18701707  0.49859014  0.44099212  1
  Al  Al21  1  0.81298293  0.50140986  0.55900788  1
  Al  Al22  1  0.73399874  0.16413599  0.18291616  1
  Al  Al23  1  0.26600126  0.83586401  0.81708384  1
  Al  Al24  1  0.06190485  0.63185442  0.81581105  1
  Al  Al25  1  0.93809515  0.36814558  0.18418895  1
  Al  Al26  1  0.85400100  0.04183752  0.81611341  1
  Al  Al27  1  0.14599900  0.95816248  0.18388659  1
  Pt  Pt28  1  0.12025989  0.49260277  0.63877731  1
  Pt  Pt29  1  0.87974011  0.50739723  0.36122269  1
  Pt  Pt30  1  0.65748098  0.17108948  0.99986491  1
  Pt  Pt31  1  0.34251902  0.82891052  0.00013509  1
  Pt  Pt32  1  0.53858910  0.16669095  0.36117312  1
  Pt  Pt33  1  0.46141090  0.83330905  0.63882688  1
  Pt  Pt34  1  0.77965295  0.17446810  0.63703465  1
  Pt  Pt35  1  0.22034705  0.82553190  0.36296535  1
  Pt  Pt36  1  -0.00000000  0.50000000  0.00000000  1
