# generated using pymatgen
data_Ga3Te3Br
_symmetry_space_group_name_H-M   'P 1'
_cell_length_a   4.16785019
_cell_length_b   11.22358293
_cell_length_c   20.02602441
_cell_angle_alpha   90.00000000
_cell_angle_beta   90.00000000
_cell_angle_gamma   90.00000000
_symmetry_Int_Tables_number   1
_chemical_formula_structural   Ga3Te3Br
_chemical_formula_sum   'Ga12 Te12 Br4'
_cell_volume   936.78162032
_cell_formula_units_Z   4
loop_
 _symmetry_equiv_pos_site_id
 _symmetry_equiv_pos_as_xyz
  1  'x, y, z'
loop_
 _atom_site_type_symbol
 _atom_site_label
 _atom_site_symmetry_multiplicity
 _atom_site_fract_x
 _atom_site_fract_y
 _atom_site_fract_z
 _atom_site_occupancy
  Ga  Ga0  1  0.75000000  0.83092570  0.50536104  1
  Ga  Ga1  1  0.25000000  0.16907430  0.49463896  1
  Ga  Ga2  1  0.25000000  0.66907430  0.00536104  1
  Ga  Ga3  1  0.75000000  0.33092570  0.99463896  1
  Ga  Ga4  1  0.75000000  0.94770967  0.40052401  1
  Ga  Ga5  1  0.25000000  0.05229033  0.59947599  1
  Ga  Ga6  1  0.25000000  0.55229033  0.90052401  1
  Ga  Ga7  1  0.75000000  0.44770967  0.09947599  1
  Ga  Ga8  1  0.75000000  0.83893817  0.86662358  1
  Ga  Ga9  1  0.25000000  0.16106183  0.13337642  1
  Ga  Ga10  1  0.25000000  0.66106183  0.36662358  1
  Ga  Ga11  1  0.75000000  0.33893817  0.63337642  1
  Te  Te12  1  0.75000000  0.77180784  0.30869260  1
  Te  Te13  1  0.25000000  0.22819216  0.69130740  1
  Te  Te14  1  0.25000000  0.72819216  0.80869260  1
  Te  Te15  1  0.75000000  0.27180784  0.19130740  1
  Te  Te16  1  0.75000000  0.82447769  0.99939152  1
  Te  Te17  1  0.25000000  0.17552231  0.00060848  1
  Te  Te18  1  0.25000000  0.67552231  0.49939152  1
  Te  Te19  1  0.75000000  0.32447769  0.50060848  1
  Te  Te20  1  0.75000000  0.90973741  0.63157642  1
  Te  Te21  1  0.25000000  0.09026259  0.36842358  1
  Te  Te22  1  0.25000000  0.59026259  0.13157642  1
  Te  Te23  1  0.75000000  0.40973741  0.86842358  1
  Br  Br24  1  0.75000000  0.53990075  0.66718374  1
  Br  Br25  1  0.25000000  0.46009925  0.33281626  1
  Br  Br26  1  0.25000000  0.96009925  0.16718374  1
  Br  Br27  1  0.75000000  0.03990075  0.83281626  1
