# generated using pymatgen
data_Er2Si3Pd
_symmetry_space_group_name_H-M   'P 1'
_cell_length_a   7.78528010
_cell_length_b   8.18804706
_cell_length_c   8.18804706
_cell_angle_alpha   119.99999761
_cell_angle_beta   90.00000000
_cell_angle_gamma   90.00000000
_symmetry_Int_Tables_number   1
_chemical_formula_structural   Er2Si3Pd
_chemical_formula_sum   'Er8 Si12 Pd4'
_cell_volume   452.02821636
_cell_formula_units_Z   4
loop_
 _symmetry_equiv_pos_site_id
 _symmetry_equiv_pos_as_xyz
  1  'x, y, z'
loop_
 _atom_site_type_symbol
 _atom_site_label
 _atom_site_symmetry_multiplicity
 _atom_site_fract_x
 _atom_site_fract_y
 _atom_site_fract_z
 _atom_site_occupancy
  Er  Er0  1  0.75000000  0.48811855  0.51188145  1
  Er  Er1  1  0.25000000  0.51188145  0.48811855  1
  Er  Er2  1  0.75000000  0.02376289  0.51188145  1
  Er  Er3  1  0.25000000  0.97623711  0.48811855  1
  Er  Er4  1  0.75000000  0.48811855  0.97623711  1
  Er  Er5  1  0.25000000  0.51188145  0.02376289  1
  Er  Er6  1  0.75000000  0.00000000  0.00000000  1
  Er  Er7  1  0.25000000  0.00000000  0.00000000  1
  Si  Si8  1  0.99818798  0.83445080  0.16554920  1
  Si  Si9  1  0.00181202  0.16554920  0.83445080  1
  Si  Si10  1  0.99818798  0.33109839  0.16554920  1
  Si  Si11  1  0.49818798  0.16554920  0.83445080  1
  Si  Si12  1  0.00181202  0.66890161  0.83445080  1
  Si  Si13  1  0.50181202  0.83445080  0.16554920  1
  Si  Si14  1  0.99818798  0.83445080  0.66890161  1
  Si  Si15  1  0.49818798  0.66890161  0.83445080  1
  Si  Si16  1  0.00181202  0.16554920  0.33109839  1
  Si  Si17  1  0.50181202  0.33109839  0.16554920  1
  Si  Si18  1  0.49818798  0.16554920  0.33109839  1
  Si  Si19  1  0.50181202  0.83445080  0.66890161  1
  Pd  Pd20  1  0.95662766  0.66666700  0.33333300  1
  Pd  Pd21  1  0.04337234  0.33333300  0.66666700  1
  Pd  Pd22  1  0.45662766  0.33333300  0.66666700  1
  Pd  Pd23  1  0.54337234  0.66666700  0.33333300  1
