# generated using pymatgen
data_DySbRh
_symmetry_space_group_name_H-M   'P 1'
_cell_length_a   4.61207195
_cell_length_b   7.18115859
_cell_length_c   7.76639575
_cell_angle_alpha   90.00000000
_cell_angle_beta   90.00000000
_cell_angle_gamma   90.00000000
_symmetry_Int_Tables_number   1
_chemical_formula_structural   DySbRh
_chemical_formula_sum   'Dy4 Sb4 Rh4'
_cell_volume   257.22318336
_cell_formula_units_Z   4
loop_
 _symmetry_equiv_pos_site_id
 _symmetry_equiv_pos_as_xyz
  1  'x, y, z'
loop_
 _atom_site_type_symbol
 _atom_site_label
 _atom_site_symmetry_multiplicity
 _atom_site_fract_x
 _atom_site_fract_y
 _atom_site_fract_z
 _atom_site_occupancy
  Dy  Dy0  1  0.75000000  0.98958545  0.29946726  1
  Dy  Dy1  1  0.25000000  0.01041455  0.70053274  1
  Dy  Dy2  1  0.25000000  0.51041455  0.79946726  1
  Dy  Dy3  1  0.75000000  0.48958545  0.20053274  1
  Sb  Sb4  1  0.75000000  0.80897126  0.90735610  1
  Sb  Sb5  1  0.25000000  0.19102874  0.09264390  1
  Sb  Sb6  1  0.25000000  0.69102874  0.40735610  1
  Sb  Sb7  1  0.75000000  0.30897126  0.59264390  1
  Rh  Rh8  1  0.75000000  0.69874379  0.57753444  1
  Rh  Rh9  1  0.25000000  0.30125621  0.42246556  1
  Rh  Rh10  1  0.25000000  0.80125621  0.07753444  1
  Rh  Rh11  1  0.75000000  0.19874379  0.92246556  1
