# generated using pymatgen
data_H8RuN3Cl5O
_symmetry_space_group_name_H-M   'P 1'
_cell_length_a   7.04392690
_cell_length_b   10.78663383
_cell_length_c   13.88635000
_cell_angle_alpha   90.00000000
_cell_angle_beta   90.00000000
_cell_angle_gamma   90.00000000
_symmetry_Int_Tables_number   1
_chemical_formula_structural   H8RuN3Cl5O
_chemical_formula_sum   'H32 Ru4 N12 Cl20 O4'
_cell_volume   1055.08848617
_cell_formula_units_Z   4
loop_
 _symmetry_equiv_pos_site_id
 _symmetry_equiv_pos_as_xyz
  1  'x, y, z'
loop_
 _atom_site_type_symbol
 _atom_site_label
 _atom_site_symmetry_multiplicity
 _atom_site_fract_x
 _atom_site_fract_y
 _atom_site_fract_z
 _atom_site_occupancy
  H  H0  1  0.51558375  0.23916166  0.10778679  1
  H  H1  1  0.98441625  0.76083834  0.60778679  1
  H  H2  1  0.48441625  0.73916166  0.39221321  1
  H  H3  1  0.01558375  0.26083834  0.89221321  1
  H  H4  1  0.18942089  0.24877671  0.37240504  1
  H  H5  1  0.31057911  0.75122329  0.87240504  1
  H  H6  1  0.81057911  0.74877671  0.12759496  1
  H  H7  1  0.68942089  0.25122329  0.62759496  1
  H  H8  1  0.72646784  0.18102150  0.06746037  1
  H  H9  1  0.77353216  0.81897850  0.56746037  1
  H  H10  1  0.27353216  0.68102150  0.43253963  1
  H  H11  1  0.22646784  0.31897850  0.93253963  1
  H  H12  1  0.40744719  0.19295552  0.34600599  1
  H  H13  1  0.09255281  0.80704448  0.84600599  1
  H  H14  1  0.59255281  0.69295552  0.15399401  1
  H  H15  1  0.90744719  0.30704448  0.65399401  1
  H  H16  1  0.38146509  0.33894638  0.39064283  1
  H  H17  1  0.11853491  0.66105362  0.89064283  1
  H  H18  1  0.61853491  0.83894638  0.10935717  1
  H  H19  1  0.88146509  0.16105362  0.60935717  1
  H  H20  1  0.70590989  0.23596723  0.18066523  1
  H  H21  1  0.79409011  0.76403277  0.68066523  1
  H  H22  1  0.29409011  0.73596723  0.31933477  1
  H  H23  1  0.20590989  0.26403277  0.81933477  1
  H  H24  1  0.34131306  0.21549598  0.46203919  1
  H  H25  1  0.15868694  0.78450402  0.96203919  1
  H  H26  1  0.65868694  0.71549598  0.03796081  1
  H  H27  1  0.84131306  0.28450402  0.53796081  1
  H  H28  1  0.70165228  0.33537058  0.08698307  1
  H  H29  1  0.79834772  0.66462942  0.58698307  1
  H  H30  1  0.29834772  0.83537058  0.41301693  1
  H  H31  1  0.20165228  0.16462942  0.91301693  1
  Ru  Ru32  1  0.17438310  0.00413816  0.14188561  1
  Ru  Ru33  1  0.32561690  0.99586184  0.64188561  1
  Ru  Ru34  1  0.82561690  0.50413816  0.35811439  1
  Ru  Ru35  1  0.67438310  0.49586184  0.85811439  1
  N  N36  1  0.01508856  0.00406979  0.23758193  1
  N  N37  1  0.48491144  0.99593021  0.73758193  1
  N  N38  1  0.98491144  0.50406979  0.26241807  1
  N  N39  1  0.51508856  0.49593021  0.76241807  1
  N  N40  1  0.66277856  0.24802322  0.11041919  1
  N  N41  1  0.83722144  0.75197678  0.61041919  1
  N  N42  1  0.33722144  0.74802322  0.38958081  1
  N  N43  1  0.16277856  0.25197678  0.88958081  1
  N  N44  1  0.33080595  0.24914343  0.39229112  1
  N  N45  1  0.16919405  0.75085657  0.89229112  1
  N  N46  1  0.66919405  0.74914343  0.10770888  1
  N  N47  1  0.83080595  0.25085657  0.60770888  1
  Cl  Cl48  1  0.11736699  0.00035176  0.50708675  1
  Cl  Cl49  1  0.38263301  0.99964824  0.00708675  1
  Cl  Cl50  1  0.88263301  0.50035176  0.99291325  1
  Cl  Cl51  1  0.61736699  0.49964824  0.49291325  1
  Cl  Cl52  1  0.05063298  0.99740621  0.74507113  1
  Cl  Cl53  1  0.44936702  0.00259379  0.24507113  1
  Cl  Cl54  1  0.94936702  0.49740621  0.75492887  1
  Cl  Cl55  1  0.55063298  0.50259379  0.25492887  1
  Cl  Cl56  1  0.08387788  0.50629942  0.47224031  1
  Cl  Cl57  1  0.41612212  0.49370058  0.97224031  1
  Cl  Cl58  1  0.91612212  0.00629942  0.02775969  1
  Cl  Cl59  1  0.58387788  0.99370058  0.52775969  1
  Cl  Cl60  1  0.32640496  0.22024301  0.63639538  1
  Cl  Cl61  1  0.17359504  0.77975699  0.13639538  1
  Cl  Cl62  1  0.67359504  0.72024301  0.86360462  1
  Cl  Cl63  1  0.82640496  0.27975699  0.36360462  1
  Cl  Cl64  1  0.19601481  0.22529877  0.13564100  1
  Cl  Cl65  1  0.30398519  0.77470123  0.63564100  1
  Cl  Cl66  1  0.80398519  0.72529877  0.36435900  1
  Cl  Cl67  1  0.69601481  0.27470123  0.86435900  1
  O  O68  1  0.09820275  0.50115321  0.20103309  1
  O  O69  1  0.40179725  0.49884679  0.70103309  1
  O  O70  1  0.90179725  0.00115321  0.29896691  1
  O  O71  1  0.59820275  0.99884679  0.79896691  1
