# generated using pymatgen
data_Er5(In2Pt)2
_symmetry_space_group_name_H-M   'P 1'
_cell_length_a   3.59898677
_cell_length_b   8.15507759
_cell_length_c   18.21551572
_cell_angle_alpha   90.00000000
_cell_angle_beta   90.00000000
_cell_angle_gamma   90.00000000
_symmetry_Int_Tables_number   1
_chemical_formula_structural   Er5(In2Pt)2
_chemical_formula_sum   'Er10 In8 Pt4'
_cell_volume   534.62568429
_cell_formula_units_Z   2
loop_
 _symmetry_equiv_pos_site_id
 _symmetry_equiv_pos_as_xyz
  1  'x, y, z'
loop_
 _atom_site_type_symbol
 _atom_site_label
 _atom_site_symmetry_multiplicity
 _atom_site_fract_x
 _atom_site_fract_y
 _atom_site_fract_z
 _atom_site_occupancy
  Er  Er0  1  0.00000000  0.11673171  0.41406212  1
  Er  Er1  1  0.00000000  0.88326829  0.58593788  1
  Er  Er2  1  0.00000000  0.38326829  0.91406212  1
  Er  Er3  1  0.00000000  0.61673171  0.08593788  1
  Er  Er4  1  0.00000000  0.24388394  0.22008656  1
  Er  Er5  1  0.00000000  0.75611606  0.77991344  1
  Er  Er6  1  0.00000000  0.25611606  0.72008656  1
  Er  Er7  1  0.00000000  0.74388394  0.27991344  1
  Er  Er8  1  0.00000000  0.00000000  -0.00000000  1
  Er  Er9  1  0.00000000  0.50000000  0.50000000  1
  In  In10  1  0.50000000  0.42394769  0.35042060  1
  In  In11  1  0.50000000  0.57605231  0.64957940  1
  In  In12  1  0.50000000  0.07605231  0.85042060  1
  In  In13  1  0.50000000  0.92394769  0.14957940  1
  In  In14  1  0.50000000  0.29225331  0.06660441  1
  In  In15  1  0.50000000  0.70774669  0.93339559  1
  In  In16  1  0.50000000  0.20774669  0.56660441  1
  In  In17  1  0.50000000  0.79225331  0.43339559  1
  Pt  Pt18  1  0.50000000  0.02424506  0.30301556  1
  Pt  Pt19  1  0.50000000  0.97575494  0.69698444  1
  Pt  Pt20  1  0.50000000  0.47575494  0.80301556  1
  Pt  Pt21  1  0.50000000  0.52424506  0.19698444  1
