# generated using pymatgen
data_ErAlB4
_symmetry_space_group_name_H-M   'P 1'
_cell_length_a   3.53375632
_cell_length_b   5.93316695
_cell_length_c   11.50421121
_cell_angle_alpha   90.00000000
_cell_angle_beta   90.00000000
_cell_angle_gamma   90.00000000
_symmetry_Int_Tables_number   1
_chemical_formula_structural   ErAlB4
_chemical_formula_sum   'Er4 Al4 B16'
_cell_volume   241.20150515
_cell_formula_units_Z   4
loop_
 _symmetry_equiv_pos_site_id
 _symmetry_equiv_pos_as_xyz
  1  'x, y, z'
loop_
 _atom_site_type_symbol
 _atom_site_label
 _atom_site_symmetry_multiplicity
 _atom_site_fract_x
 _atom_site_fract_y
 _atom_site_fract_z
 _atom_site_occupancy
  Er  Er0  1  0.50000000  0.37262469  0.15029097  1
  Er  Er1  1  0.50000000  0.62737531  0.84970903  1
  Er  Er2  1  0.50000000  0.12737531  0.65029097  1
  Er  Er3  1  0.50000000  0.87262469  0.34970903  1
  Al  Al4  1  0.50000000  0.36316013  0.41018612  1
  Al  Al5  1  0.50000000  0.63683987  0.58981388  1
  Al  Al6  1  0.50000000  0.13683987  0.91018612  1
  Al  Al7  1  0.50000000  0.86316013  0.08981388  1
  B  B8  1  -0.00000000  0.11450183  0.04687764  1
  B  B9  1  0.00000000  0.88549817  0.95312236  1
  B  B10  1  -0.00000000  0.38549817  0.54687764  1
  B  B11  1  -0.00000000  0.61450183  0.45312236  1
  B  B12  1  -0.00000000  0.13367172  0.46929406  1
  B  B13  1  0.00000000  0.86632828  0.53070594  1
  B  B14  1  0.00000000  0.36632828  0.96929406  1
  B  B15  1  -0.00000000  0.63367172  0.03070594  1
  B  B16  1  -0.00000000  0.02826108  0.19270499  1
  B  B17  1  0.00000000  0.97173892  0.80729501  1
  B  B18  1  0.00000000  0.47173892  0.69270499  1
  B  B19  1  -0.00000000  0.52826108  0.30729501  1
  B  B20  1  -0.00000000  0.21208167  0.31231132  1
  B  B21  1  0.00000000  0.78791833  0.68768868  1
  B  B22  1  0.00000000  0.28791833  0.81231132  1
  B  B23  1  -0.00000000  0.71208167  0.18768868  1
