# generated using pymatgen
data_Er5(GeSb)2
_symmetry_space_group_name_H-M   'P 1'
_cell_length_a   7.84607379
_cell_length_b   7.87708805
_cell_length_c   8.47153632
_cell_angle_alpha   90.00000000
_cell_angle_beta   117.58631857
_cell_angle_gamma   90.00000000
_symmetry_Int_Tables_number   1
_chemical_formula_structural   Er5(GeSb)2
_chemical_formula_sum   'Er10 Ge4 Sb4'
_cell_volume   464.05340568
_cell_formula_units_Z   2
loop_
 _symmetry_equiv_pos_site_id
 _symmetry_equiv_pos_as_xyz
  1  'x, y, z'
loop_
 _atom_site_type_symbol
 _atom_site_label
 _atom_site_symmetry_multiplicity
 _atom_site_fract_x
 _atom_site_fract_y
 _atom_site_fract_z
 _atom_site_occupancy
  Er  Er0  1  0.29265328  0.33600296  0.25603874  1
  Er  Er1  1  0.70734672  0.66399704  0.74396126  1
  Er  Er2  1  0.20734672  0.83600296  0.74396126  1
  Er  Er3  1  0.53661453  0.16399704  0.74396126  1
  Er  Er4  1  0.79265328  0.16399704  0.25603874  1
  Er  Er5  1  0.46338547  0.83600296  0.25603874  1
  Er  Er6  1  0.96338547  0.66399704  0.25603874  1
  Er  Er7  1  0.03661453  0.33600296  0.74396126  1
  Er  Er8  1  -0.00000000  -0.00000000  -0.00000000  1
  Er  Er9  1  0.50000000  0.50000000  -0.00000000  1
  Ge  Ge10  1  0.36122323  0.13766715  0.00000000  1
  Ge  Ge11  1  0.63877677  0.86233285  -0.00000000  1
  Ge  Ge12  1  0.13877677  0.63766715  -0.00000000  1
  Ge  Ge13  1  0.86122323  0.36233285  0.00000000  1
  Sb  Sb14  1  0.20494718  -0.00000000  0.40989437  1
  Sb  Sb15  1  0.79505282  -0.00000000  0.59010563  1
  Sb  Sb16  1  0.29505282  0.50000000  0.59010563  1
  Sb  Sb17  1  0.70494718  0.50000000  0.40989437  1
