# generated using pymatgen
data_Cu2SiHgSe4
_symmetry_space_group_name_H-M   'P 1'
_cell_length_a   6.65034976
_cell_length_b   6.86060198
_cell_length_c   8.12441111
_cell_angle_alpha   90.00000000
_cell_angle_beta   90.00000000
_cell_angle_gamma   90.00000000
_symmetry_Int_Tables_number   1
_chemical_formula_structural   Cu2SiHgSe4
_chemical_formula_sum   'Cu4 Si2 Hg2 Se8'
_cell_volume   370.67952885
_cell_formula_units_Z   2
loop_
 _symmetry_equiv_pos_site_id
 _symmetry_equiv_pos_as_xyz
  1  'x, y, z'
loop_
 _atom_site_type_symbol
 _atom_site_label
 _atom_site_symmetry_multiplicity
 _atom_site_fract_x
 _atom_site_fract_y
 _atom_site_fract_z
 _atom_site_occupancy
  Cu  Cu0  1  0.51139126  0.82380829  0.75254580  1
  Cu  Cu1  1  0.01139126  0.17619171  0.74745420  1
  Cu  Cu2  1  0.01139126  0.17619171  0.25254580  1
  Cu  Cu3  1  0.51139126  0.82380829  0.24745420  1
  Si  Si4  1  0.00031123  0.67889482  0.00000000  1
  Si  Si5  1  0.50031123  0.32110518  0.50000000  1
  Hg  Hg6  1  0.51383290  0.34904841  0.00000000  1
  Hg  Hg7  1  0.01383290  0.65095159  0.50000000  1
  Se  Se8  1  0.91784905  0.34898564  -0.00000000  1
  Se  Se9  1  0.41784905  0.65101436  0.50000000  1
  Se  Se10  1  0.87380183  0.84473778  0.77301134  1
  Se  Se11  1  0.37380183  0.15526222  0.72698866  1
  Se  Se12  1  0.37380183  0.15526222  0.27301134  1
  Se  Se13  1  0.87380183  0.84473778  0.22698866  1
  Se  Se14  1  0.35012062  0.70852662  0.00000000  1
  Se  Se15  1  0.85012062  0.29147338  0.50000000  1
