# generated using pymatgen
data_Er3NiGe2
_symmetry_space_group_name_H-M   'P 1'
_cell_length_a   4.12773578
_cell_length_b   11.26580933
_cell_length_c   11.20801889
_cell_angle_alpha   90.00000000
_cell_angle_beta   90.00000000
_cell_angle_gamma   90.00000000
_symmetry_Int_Tables_number   1
_chemical_formula_structural   Er3NiGe2
_chemical_formula_sum   'Er12 Ni4 Ge8'
_cell_volume   521.19848044
_cell_formula_units_Z   4
loop_
 _symmetry_equiv_pos_site_id
 _symmetry_equiv_pos_as_xyz
  1  'x, y, z'
loop_
 _atom_site_type_symbol
 _atom_site_label
 _atom_site_symmetry_multiplicity
 _atom_site_fract_x
 _atom_site_fract_y
 _atom_site_fract_z
 _atom_site_occupancy
  Er  Er0  1  0.75000000  0.94197925  0.62676075  1
  Er  Er1  1  0.25000000  0.05802075  0.37323925  1
  Er  Er2  1  0.25000000  0.55802075  0.12676075  1
  Er  Er3  1  0.75000000  0.44197925  0.87323925  1
  Er  Er4  1  0.75000000  0.78239398  0.30332863  1
  Er  Er5  1  0.25000000  0.21760602  0.69667137  1
  Er  Er6  1  0.25000000  0.71760602  0.80332863  1
  Er  Er7  1  0.75000000  0.28239398  0.19667137  1
  Er  Er8  1  0.75000000  0.61790686  0.55864576  1
  Er  Er9  1  0.25000000  0.38209314  0.44135424  1
  Er  Er10  1  0.25000000  0.88209314  0.05864576  1
  Er  Er11  1  0.75000000  0.11790686  0.94135424  1
  Ni  Ni12  1  0.75000000  0.86949311  0.86649623  1
  Ni  Ni13  1  0.25000000  0.13050689  0.13350377  1
  Ni  Ni14  1  0.25000000  0.63050689  0.36649623  1
  Ni  Ni15  1  0.75000000  0.36949311  0.63350377  1
  Ge  Ge16  1  0.75000000  0.51946273  0.31217485  1
  Ge  Ge17  1  0.25000000  0.48053727  0.68782515  1
  Ge  Ge18  1  0.25000000  0.98053727  0.81217485  1
  Ge  Ge19  1  0.75000000  0.01946273  0.18782515  1
  Ge  Ge20  1  0.75000000  0.69278120  0.99721254  1
  Ge  Ge21  1  0.25000000  0.30721880  0.00278746  1
  Ge  Ge22  1  0.25000000  0.80721880  0.49721254  1
  Ge  Ge23  1  0.75000000  0.19278120  0.50278746  1
