# generated using pymatgen
data_Dy2Sc3Si4
_symmetry_space_group_name_H-M   'P 1'
_cell_length_a   7.10279243
_cell_length_b   7.39115138
_cell_length_c   14.01848222
_cell_angle_alpha   90.00000000
_cell_angle_beta   90.00000000
_cell_angle_gamma   90.00000000
_symmetry_Int_Tables_number   1
_chemical_formula_structural   Dy2Sc3Si4
_chemical_formula_sum   'Dy8 Sc12 Si16'
_cell_volume   735.93967314
_cell_formula_units_Z   4
loop_
 _symmetry_equiv_pos_site_id
 _symmetry_equiv_pos_as_xyz
  1  'x, y, z'
loop_
 _atom_site_type_symbol
 _atom_site_label
 _atom_site_symmetry_multiplicity
 _atom_site_fract_x
 _atom_site_fract_y
 _atom_site_fract_z
 _atom_site_occupancy
  Dy  Dy0  1  0.98799059  0.82545634  0.40281719  1
  Dy  Dy1  1  0.01200941  0.17454366  0.59718281  1
  Dy  Dy2  1  0.51200941  0.32545634  0.59718281  1
  Dy  Dy3  1  0.01200941  0.17454366  0.90281719  1
  Dy  Dy4  1  0.48799059  0.67454366  0.40281719  1
  Dy  Dy5  1  0.98799059  0.82545634  0.09718281  1
  Dy  Dy6  1  0.48799059  0.67454366  0.09718281  1
  Dy  Dy7  1  0.51200941  0.32545634  0.90281719  1
  Sc  Sc8  1  0.83926744  0.49721659  0.75000000  1
  Sc  Sc9  1  0.16073256  0.50278341  0.25000000  1
  Sc  Sc10  1  0.66073256  0.99721659  0.25000000  1
  Sc  Sc11  1  0.33926744  0.00278341  0.75000000  1
  Sc  Sc12  1  0.66994088  0.82344110  0.87518430  1
  Sc  Sc13  1  0.33005912  0.17655890  0.12481570  1
  Sc  Sc14  1  0.83005912  0.32344110  0.12481570  1
  Sc  Sc15  1  0.33005912  0.17655890  0.37518430  1
  Sc  Sc16  1  0.16994088  0.67655890  0.87518430  1
  Sc  Sc17  1  0.66994088  0.82344110  0.62481570  1
  Sc  Sc18  1  0.16994088  0.67655890  0.62481570  1
  Sc  Sc19  1  0.83005912  0.32344110  0.37518430  1
  Si  Si20  1  0.96672595  0.88116827  0.75000000  1
  Si  Si21  1  0.03327405  0.11883173  0.25000000  1
  Si  Si22  1  0.53327405  0.38116827  0.25000000  1
  Si  Si23  1  0.46672595  0.61883173  0.75000000  1
  Si  Si24  1  0.71433930  0.12546476  0.75000000  1
  Si  Si25  1  0.28566070  0.87453524  0.25000000  1
  Si  Si26  1  0.78566070  0.62546476  0.25000000  1
  Si  Si27  1  0.21433930  0.37453524  0.75000000  1
  Si  Si28  1  0.84270842  0.53543552  0.96056211  1
  Si  Si29  1  0.15729158  0.46456448  0.03943789  1
  Si  Si30  1  0.65729158  0.03543552  0.03943789  1
  Si  Si31  1  0.15729158  0.46456448  0.46056211  1
  Si  Si32  1  0.34270842  0.96456448  0.96056211  1
  Si  Si33  1  0.84270842  0.53543552  0.53943789  1
  Si  Si34  1  0.34270842  0.96456448  0.53943789  1
  Si  Si35  1  0.65729158  0.03543552  0.46056211  1
