# generated using pymatgen
data_NaH6C4SN3O5
_symmetry_space_group_name_H-M   'P 1'
_cell_length_a   8.85128390
_cell_length_b   8.85128390
_cell_length_c   14.28964689
_cell_angle_alpha   98.80093963
_cell_angle_beta   104.10075621
_cell_angle_gamma   111.08022266
_symmetry_Int_Tables_number   1
_chemical_formula_structural   NaH6C4SN3O5
_chemical_formula_sum   'Na4 H24 C16 S4 N12 O20'
_cell_volume   976.65749004
_cell_formula_units_Z   4
loop_
 _symmetry_equiv_pos_site_id
 _symmetry_equiv_pos_as_xyz
  1  'x, y, z'
loop_
 _atom_site_type_symbol
 _atom_site_label
 _atom_site_symmetry_multiplicity
 _atom_site_fract_x
 _atom_site_fract_y
 _atom_site_fract_z
 _atom_site_occupancy
  Na  Na0  1  -0.00000000  0.50000000  -0.00000000  1
  Na  Na1  1  0.50000000  0.50000000  0.50000000  1
  Na  Na2  1  0.30931331  0.55931331  0.25000000  1
  Na  Na3  1  0.69068669  0.44068669  0.75000000  1
  H  H4  1  0.93270952  0.83715455  0.05856048  1
  H  H5  1  0.77859407  0.37414904  0.44143952  1
  H  H6  1  0.06729048  0.16284545  0.94143952  1
  H  H7  1  0.22140593  0.62585096  0.55856048  1
  H  H8  1  0.84798082  0.17253354  0.16064543  1
  H  H9  1  0.01188810  0.18733539  0.33935457  1
  H  H10  1  0.15201918  0.82746646  0.83935457  1
  H  H11  1  0.98811190  0.81266461  0.66064543  1
  H  H12  1  0.62920632  0.09500179  0.09056860  1
  H  H13  1  0.00443319  0.03863772  0.40943140  1
  H  H14  1  0.37079368  0.90499821  0.90943140  1
  H  H15  1  0.99556681  0.96136228  0.59056860  1
  H  H16  1  0.41821829  0.02205006  0.28028105  1
  H  H17  1  0.74176901  0.63793724  0.21971895  1
  H  H18  1  0.58178171  0.97794994  0.71971895  1
  H  H19  1  0.25823099  0.36206276  0.78028105  1
  H  H20  1  0.36872875  0.62335219  0.06675227  1
  H  H21  1  0.55659993  0.80197648  0.43324773  1
  H  H22  1  0.63127125  0.37664781  0.93324773  1
  H  H23  1  0.44340007  0.19802352  0.56675227  1
  H  H24  1  0.32821582  0.43327664  0.05598165  1
  H  H25  1  0.37729499  0.77223417  0.44401835  1
  H  H26  1  0.67178418  0.56672336  0.94401835  1
  H  H27  1  0.62270501  0.22776583  0.55598165  1
  C  C28  1  0.74810628  0.94169817  0.06301709  1
  C  C29  1  0.87868108  0.18508918  0.43698291  1
  C  C30  1  0.25189372  0.05830183  0.93698291  1
  C  C31  1  0.12131892  0.81491082  0.56301709  1
  C  C32  1  0.17728710  0.03853566  0.19558366  1
  C  C33  1  0.84295200  0.48170344  0.30441634  1
  C  C34  1  0.82271290  0.96146434  0.80441634  1
  C  C35  1  0.15704800  0.51829656  0.69558366  1
  C  C36  1  0.20664520  0.88796474  0.15294392  1
  C  C37  1  0.73502082  0.55370128  0.34705608  1
  C  C38  1  0.79335480  0.11203526  0.84705608  1
  C  C39  1  0.26497918  0.44629872  0.65294392  1
  C  C40  1  0.31332949  0.17743102  0.28303721  1
  C  C41  1  0.89439380  0.53029228  0.21696279  1
  C  C42  1  0.68667051  0.82256898  0.71696279  1
  C  C43  1  0.10560620  0.46970772  0.78303721  1
  S  S44  1  0.58273857  0.78183759  0.97176265  1
  S  S45  1  0.81007493  0.11097591  0.52823735  1
  S  S46  1  0.41726143  0.21816241  0.02823735  1
  S  S47  1  0.18992507  0.88902409  0.47176265  1
  N  N48  1  0.90528026  0.93465476  0.09061606  1
  N  N49  1  0.84403870  0.31466420  0.40938394  1
  N  N50  1  0.09471974  0.06534524  0.90938394  1
  N  N51  1  0.15596130  0.68533580  0.59061606  1
  N  N52  1  0.03314676  0.05439757  0.16623557  1
  N  N53  1  0.88816200  0.36691119  0.33376443  1
  N  N54  1  0.96685324  0.94560243  0.83376443  1
  N  N55  1  0.11183800  0.63308881  0.66623557  1
  N  N56  1  0.73855293  0.07657244  0.11177875  1
  N  N57  1  0.96479369  0.12677418  0.38822125  1
  N  N58  1  0.26144707  0.92342756  0.88822125  1
  N  N59  1  0.03520631  0.87322582  0.61177875  1
  O  O60  1  0.10031048  0.78588691  0.07115928  1
  O  O61  1  0.71472763  0.52915120  0.42884072  1
  O  O62  1  0.89968952  0.21411309  0.92884072  1
  O  O63  1  0.28527237  0.47084880  0.57115928  1
  O  O64  1  0.33813590  0.87240946  0.20496907  1
  O  O65  1  0.66744039  0.63316683  0.29503093  1
  O  O66  1  0.66186410  0.12759054  0.79503093  1
  O  O67  1  0.33255961  0.36683317  0.70496907  1
  O  O68  1  0.44534549  0.14589388  0.32451301  1
  O  O69  1  0.82138087  0.62083248  0.17548699  1
  O  O70  1  0.55465451  0.85410612  0.67548699  1
  O  O71  1  0.17861913  0.37916752  0.82451301  1
  O  O72  1  0.30166199  0.30999166  0.31475654  1
  O  O73  1  0.99523511  0.48690545  0.18524346  1
  O  O74  1  0.69833801  0.69000834  0.68524346  1
  O  O75  1  0.00476489  0.51309455  0.81475654  1
  O  O76  1  0.29489688  0.52302540  0.08099393  1
  O  O77  1  0.44203148  0.71390296  0.41900607  1
  O  O78  1  0.70510312  0.47697460  0.91900607  1
  O  O79  1  0.55796852  0.28609704  0.58099393  1
