# generated using pymatgen
data_CsGd2Cl7
_symmetry_space_group_name_H-M   'P 1'
_cell_length_a   7.12550984
_cell_length_b   13.80583999
_cell_length_c   12.88544868
_cell_angle_alpha   90.00000000
_cell_angle_beta   90.00000000
_cell_angle_gamma   90.00000000
_symmetry_Int_Tables_number   1
_chemical_formula_structural   CsGd2Cl7
_chemical_formula_sum   'Cs4 Gd8 Cl28'
_cell_volume   1267.58860177
_cell_formula_units_Z   4
loop_
 _symmetry_equiv_pos_site_id
 _symmetry_equiv_pos_as_xyz
  1  'x, y, z'
loop_
 _atom_site_type_symbol
 _atom_site_label
 _atom_site_symmetry_multiplicity
 _atom_site_fract_x
 _atom_site_fract_y
 _atom_site_fract_z
 _atom_site_occupancy
  Cs  Cs0  1  0.75000000  0.95793870  0.19599029  1
  Cs  Cs1  1  0.25000000  0.04206130  0.80400971  1
  Cs  Cs2  1  0.25000000  0.54206130  0.69599029  1
  Cs  Cs3  1  0.75000000  0.45793870  0.30400971  1
  Gd  Gd4  1  0.75000000  0.76290648  0.54030607  1
  Gd  Gd5  1  0.25000000  0.23709352  0.45969393  1
  Gd  Gd6  1  0.25000000  0.73709352  0.04030607  1
  Gd  Gd7  1  0.75000000  0.26290648  0.95969393  1
  Gd  Gd8  1  0.75000000  0.74969469  0.84375058  1
  Gd  Gd9  1  0.25000000  0.25030531  0.15624942  1
  Gd  Gd10  1  0.25000000  0.75030531  0.34375058  1
  Gd  Gd11  1  0.75000000  0.24969469  0.65624942  1
  Cl  Cl12  1  0.98640952  0.82326395  0.69374319  1
  Cl  Cl13  1  0.01359048  0.17673605  0.30625681  1
  Cl  Cl14  1  0.01359048  0.67673605  0.19374319  1
  Cl  Cl15  1  0.48640952  0.17673605  0.30625681  1
  Cl  Cl16  1  0.98640952  0.32326395  0.80625681  1
  Cl  Cl17  1  0.51359048  0.82326395  0.69374319  1
  Cl  Cl18  1  0.51359048  0.32326395  0.80625681  1
  Cl  Cl19  1  0.48640952  0.67673605  0.19374319  1
  Cl  Cl20  1  0.99095174  0.87561547  0.42425473  1
  Cl  Cl21  1  0.00904826  0.12438453  0.57574527  1
  Cl  Cl22  1  0.00904826  0.62438453  0.92425473  1
  Cl  Cl23  1  0.49095174  0.12438453  0.57574527  1
  Cl  Cl24  1  0.99095174  0.37561547  0.07574527  1
  Cl  Cl25  1  0.50904826  0.87561547  0.42425473  1
  Cl  Cl26  1  0.50904826  0.37561547  0.07574527  1
  Cl  Cl27  1  0.49095174  0.62438453  0.92425473  1
  Cl  Cl28  1  0.99066800  0.86405095  0.95982783  1
  Cl  Cl29  1  0.00933200  0.13594905  0.04017217  1
  Cl  Cl30  1  0.00933200  0.63594905  0.45982783  1
  Cl  Cl31  1  0.49066800  0.13594905  0.04017217  1
  Cl  Cl32  1  0.99066800  0.36405095  0.54017217  1
  Cl  Cl33  1  0.50933200  0.86405095  0.95982783  1
  Cl  Cl34  1  0.50933200  0.36405095  0.54017217  1
  Cl  Cl35  1  0.49066800  0.63594905  0.45982783  1
  Cl  Cl36  1  0.75000000  0.61226794  0.68894447  1
  Cl  Cl37  1  0.25000000  0.38773206  0.31105553  1
  Cl  Cl38  1  0.25000000  0.88773206  0.18894447  1
  Cl  Cl39  1  0.75000000  0.11226794  0.81105553  1
