# generated using pymatgen
data_ErIn2Pd
_symmetry_space_group_name_H-M   'P 1'
_cell_length_a   9.17569190
_cell_length_b   10.82340072
_cell_length_c   10.82340072
_cell_angle_alpha   79.64911130
_cell_angle_beta   64.92007755
_cell_angle_gamma   64.92007755
_symmetry_Int_Tables_number   1
_chemical_formula_structural   ErIn2Pd
_chemical_formula_sum   'Er10 In20 Pd10'
_cell_volume   881.76267599
_cell_formula_units_Z   10
loop_
 _symmetry_equiv_pos_site_id
 _symmetry_equiv_pos_as_xyz
  1  'x, y, z'
loop_
 _atom_site_type_symbol
 _atom_site_label
 _atom_site_symmetry_multiplicity
 _atom_site_fract_x
 _atom_site_fract_y
 _atom_site_fract_z
 _atom_site_occupancy
  Er  Er0  1  0.66956239  0.71925142  0.71925142  1
  Er  Er1  1  0.10806524  0.28074858  0.28074858  1
  Er  Er2  1  0.38881382  0.28074858  0.71925142  1
  Er  Er3  1  0.38881382  0.71925142  0.28074858  1
  Er  Er4  1  0.67611306  0.00000000  0.40260496  1
  Er  Er5  1  0.07871802  0.00000000  0.59739504  1
  Er  Er6  1  0.07871802  0.59739504  0.00000000  1
  Er  Er7  1  0.67611306  0.40260496  0.00000000  1
  Er  Er8  1  0.45812679  0.00000000  0.00000000  1
  Er  Er9  1  0.99481182  1.00000000  1.00000000  1
  In  In10  1  0.26813588  0.20837109  0.50728537  1
  In  In11  1  0.98379234  0.79162891  0.49271463  1
  In  In12  1  0.77542125  0.49271463  0.20837109  1
  In  In13  1  0.26813588  0.50728537  0.20837109  1
  In  In14  1  0.47650697  0.50728537  0.79162891  1
  In  In15  1  0.98379234  0.49271463  0.79162891  1
  In  In16  1  0.77542125  0.20837109  0.49271463  1
  In  In17  1  0.47650697  0.79162891  0.50728537  1
  In  In18  1  0.24813454  0.61728419  0.61728419  1
  In  In19  1  0.48270292  0.38271581  0.38271581  1
  In  In20  1  0.86541873  0.38271581  0.61728419  1
  In  In21  1  0.86541873  0.61728419  0.38271581  1
  In  In22  1  0.35773257  0.00000000  0.73594114  1
  In  In23  1  0.09367371  0.00000000  0.26405886  1
  In  In24  1  0.09367371  0.26405886  0.00000000  1
  In  In25  1  0.35773257  0.73594114  0.00000000  1
  In  In26  1  0.88066456  0.83884565  0.83884565  1
  In  In27  1  0.55835586  0.16115435  0.16115435  1
  In  In28  1  0.71951021  0.16115435  0.83884565  1
  In  In29  1  0.71951021  0.83884565  0.16115435  1
  Pd  Pd30  1  0.11525253  0.50000000  0.50000000  1
  Pd  Pd31  1  0.61525253  0.50000000  0.50000000  1
  Pd  Pd32  1  0.37187607  1.00000000  0.32163380  1
  Pd  Pd33  1  0.69350987  1.00000000  0.67836620  1
  Pd  Pd34  1  0.69350987  0.67836620  1.00000000  1
  Pd  Pd35  1  0.37187607  0.32163380  1.00000000  1
  Pd  Pd36  1  0.23815003  0.78778142  0.78778142  1
  Pd  Pd37  1  0.81371287  0.21221858  0.21221858  1
  Pd  Pd38  1  0.02593145  0.21221858  0.78778142  1
  Pd  Pd39  1  0.02593145  0.78778142  0.21221858  1
