# generated using pymatgen
data_Dy3C4
_symmetry_space_group_name_H-M   'P 1'
_cell_length_a   8.12182253
_cell_length_b   8.12182253
_cell_length_c   15.98566727
_cell_angle_alpha   90.00000000
_cell_angle_beta   90.00000000
_cell_angle_gamma   90.00000000
_symmetry_Int_Tables_number   1
_chemical_formula_structural   Dy3C4
_chemical_formula_sum   'Dy30 C40'
_cell_volume   1054.47857512
_cell_formula_units_Z   10
loop_
 _symmetry_equiv_pos_site_id
 _symmetry_equiv_pos_as_xyz
  1  'x, y, z'
loop_
 _atom_site_type_symbol
 _atom_site_label
 _atom_site_symmetry_multiplicity
 _atom_site_fract_x
 _atom_site_fract_y
 _atom_site_fract_z
 _atom_site_occupancy
  Dy  Dy0  1  0.10060177  0.28836916  0.14677964  1
  Dy  Dy1  1  0.89939823  0.71163084  0.85322036  1
  Dy  Dy2  1  0.89939823  0.71163084  0.14677964  1
  Dy  Dy3  1  0.71163084  0.10060177  0.14677964  1
  Dy  Dy4  1  0.39939823  0.78836916  0.35322036  1
  Dy  Dy5  1  0.10060177  0.28836916  0.85322036  1
  Dy  Dy6  1  0.28836916  0.89939823  0.85322036  1
  Dy  Dy7  1  0.60060177  0.21163084  0.64677964  1
  Dy  Dy8  1  0.28836916  0.89939823  0.14677964  1
  Dy  Dy9  1  0.60060177  0.21163084  0.35322036  1
  Dy  Dy10  1  0.71163084  0.10060177  0.85322036  1
  Dy  Dy11  1  0.39939823  0.78836916  0.64677964  1
  Dy  Dy12  1  0.78836916  0.60060177  0.35322036  1
  Dy  Dy13  1  0.21163084  0.39939823  0.64677964  1
  Dy  Dy14  1  0.21163084  0.39939823  0.35322036  1
  Dy  Dy15  1  0.78836916  0.60060177  0.64677964  1
  Dy  Dy16  1  0.40471149  0.20288621  -0.00000000  1
  Dy  Dy17  1  0.59528851  0.79711379  0.00000000  1
  Dy  Dy18  1  0.79711379  0.40471149  0.00000000  1
  Dy  Dy19  1  0.09528851  0.70288621  0.50000000  1
  Dy  Dy20  1  0.20288621  0.59528851  -0.00000000  1
  Dy  Dy21  1  0.90471149  0.29711379  0.50000000  1
  Dy  Dy22  1  0.70288621  0.90471149  0.50000000  1
  Dy  Dy23  1  0.29711379  0.09528851  0.50000000  1
  Dy  Dy24  1  -0.00000000  -0.00000000  -0.00000000  1
  Dy  Dy25  1  0.50000000  0.50000000  0.50000000  1
  Dy  Dy26  1  -0.00000000  -0.00000000  0.31245181  1
  Dy  Dy27  1  -0.00000000  -0.00000000  0.68754819  1
  Dy  Dy28  1  0.50000000  0.50000000  0.18754819  1
  Dy  Dy29  1  0.50000000  0.50000000  0.81245181  1
  C  C30  1  0.30779363  0.09939879  0.32761781  1
  C  C31  1  0.69220637  0.90060121  0.67238219  1
  C  C32  1  0.69220637  0.90060121  0.32761781  1
  C  C33  1  0.90060121  0.30779363  0.32761781  1
  C  C34  1  0.19220637  0.59939879  0.17238219  1
  C  C35  1  0.30779363  0.09939879  0.67238219  1
  C  C36  1  0.09939879  0.69220637  0.67238219  1
  C  C37  1  0.80779363  0.40060121  0.82761781  1
  C  C38  1  0.09939879  0.69220637  0.32761781  1
  C  C39  1  0.80779363  0.40060121  0.17238219  1
  C  C40  1  0.90060121  0.30779363  0.67238219  1
  C  C41  1  0.19220637  0.59939879  0.82761781  1
  C  C42  1  0.59939879  0.80779363  0.17238219  1
  C  C43  1  0.40060121  0.19220637  0.82761781  1
  C  C44  1  0.40060121  0.19220637  0.17238219  1
  C  C45  1  0.59939879  0.80779363  0.82761781  1
  C  C46  1  0.10640857  0.30357446  0.00000000  1
  C  C47  1  0.89359143  0.69642554  -0.00000000  1
  C  C48  1  0.69642554  0.10640857  0.00000000  1
  C  C49  1  0.39359143  0.80357446  0.50000000  1
  C  C50  1  0.30357446  0.89359143  0.00000000  1
  C  C51  1  0.60640857  0.19642554  0.50000000  1
  C  C52  1  0.80357446  0.60640857  0.50000000  1
  C  C53  1  0.19642554  0.39359143  0.50000000  1
  C  C54  1  -0.00000000  -0.00000000  0.45912815  1
  C  C55  1  -0.00000000  -0.00000000  0.54087185  1
  C  C56  1  0.50000000  0.50000000  0.04087185  1
  C  C57  1  0.50000000  0.50000000  0.95912815  1
  C  C58  1  0.14973460  0.64973460  0.25000000  1
  C  C59  1  0.85026540  0.35026540  0.75000000  1
  C  C60  1  0.85026540  0.35026540  0.25000000  1
  C  C61  1  0.35026540  0.14973460  0.25000000  1
  C  C62  1  0.14973460  0.64973460  0.75000000  1
  C  C63  1  0.64973460  0.85026540  0.75000000  1
  C  C64  1  0.64973460  0.85026540  0.25000000  1
  C  C65  1  0.35026540  0.14973460  0.75000000  1
  C  C66  1  -0.00000000  -0.00000000  0.15617119  1
  C  C67  1  -0.00000000  -0.00000000  0.84382881  1
  C  C68  1  0.50000000  0.50000000  0.34382881  1
  C  C69  1  0.50000000  0.50000000  0.65617119  1
