# generated using pymatgen
data_Er5(ReO6)2
_symmetry_space_group_name_H-M   'P 1'
_cell_length_a   5.64548871
_cell_length_b   6.78888263
_cell_length_c   7.49284381
_cell_angle_alpha   106.23166346
_cell_angle_beta   90.00000000
_cell_angle_gamma   114.56902853
_symmetry_Int_Tables_number   1
_chemical_formula_structural   Er5(ReO6)2
_chemical_formula_sum   'Er5 Re2 O12'
_cell_volume   248.53275488
_cell_formula_units_Z   1
loop_
 _symmetry_equiv_pos_site_id
 _symmetry_equiv_pos_as_xyz
  1  'x, y, z'
loop_
 _atom_site_type_symbol
 _atom_site_label
 _atom_site_symmetry_multiplicity
 _atom_site_fract_x
 _atom_site_fract_y
 _atom_site_fract_z
 _atom_site_occupancy
  Er  Er0  1  0.69710049  0.39420098  0.36051179  1
  Er  Er1  1  0.30289951  0.60579902  0.63948821  1
  Er  Er2  1  0.68608088  0.37216176  0.82454107  1
  Er  Er3  1  0.31391912  0.62783824  0.17545893  1
  Er  Er4  1  -0.00000000  -0.00000000  0.50000000  1
  Re  Re5  1  0.78546879  -0.00000000  0.00000000  1
  Re  Re6  1  0.21453121  -0.00000000  0.00000000  1
  O  O7  1  0.00056092  0.00112184  0.79207181  1
  O  O8  1  0.99943908  0.99887816  0.20792819  1
  O  O9  1  0.57914576  0.66727712  0.91333825  1
  O  O10  1  0.42085424  0.33272288  0.08666175  1
  O  O11  1  0.91186865  0.33272288  0.08666175  1
  O  O12  1  0.08813135  0.66727712  0.91333825  1
  O  O13  1  0.49933345  0.99866689  0.82033574  1
  O  O14  1  0.50066655  0.00133311  0.17966426  1
  O  O15  1  0.40596398  0.30767135  0.57416203  1
  O  O16  1  0.59403602  0.69232865  0.42583797  1
  O  O17  1  0.09829263  0.69232865  0.42583797  1
  O  O18  1  0.90170737  0.30767135  0.57416203  1
