# generated using pymatgen
data_CsTbP2O7
_symmetry_space_group_name_H-M   'P 1'
_cell_length_a   8.00658395
_cell_length_b   8.92485507
_cell_length_c   11.11731303
_cell_angle_alpha   90.00000000
_cell_angle_beta   90.00000000
_cell_angle_gamma   104.99283421
_symmetry_Int_Tables_number   1
_chemical_formula_structural   CsTbP2O7
_chemical_formula_sum   'Cs4 Tb4 P8 O28'
_cell_volume   767.37314555
_cell_formula_units_Z   4
loop_
 _symmetry_equiv_pos_site_id
 _symmetry_equiv_pos_as_xyz
  1  'x, y, z'
loop_
 _atom_site_type_symbol
 _atom_site_label
 _atom_site_symmetry_multiplicity
 _atom_site_fract_x
 _atom_site_fract_y
 _atom_site_fract_z
 _atom_site_occupancy
  Cs  Cs0  1  0.81193622  0.94440740  0.31479559  1
  Cs  Cs1  1  0.18806378  0.05559260  0.68520441  1
  Cs  Cs2  1  0.18806378  0.55559260  0.81479559  1
  Cs  Cs3  1  0.81193622  0.44440740  0.18520441  1
  Tb  Tb4  1  0.76201644  0.74273879  0.90084436  1
  Tb  Tb5  1  0.23798356  0.25726121  0.09915564  1
  Tb  Tb6  1  0.23798356  0.75726121  0.40084436  1
  Tb  Tb7  1  0.76201644  0.24273879  0.59915564  1
  P  P8  1  0.57026430  0.81052441  0.63185200  1
  P  P9  1  0.42973570  0.18947559  0.36814800  1
  P  P10  1  0.42973570  0.68947559  0.13185200  1
  P  P11  1  0.57026430  0.31052441  0.86814800  1
  P  P12  1  0.86574034  0.67466384  0.59792923  1
  P  P13  1  0.13425966  0.32533616  0.40207077  1
  P  P14  1  0.13425966  0.82533616  0.09792923  1
  P  P15  1  0.86574034  0.17466384  0.90207077  1
  O  O16  1  0.39157855  0.76774725  0.57285650  1
  O  O17  1  0.60842145  0.23225275  0.42714350  1
  O  O18  1  0.60842145  0.73225275  0.07285650  1
  O  O19  1  0.39157855  0.26774725  0.92714350  1
  O  O20  1  0.91326348  0.73826976  0.72526467  1
  O  O21  1  0.08673652  0.26173024  0.27473533  1
  O  O22  1  0.08673652  0.76173024  0.22526467  1
  O  O23  1  0.91326348  0.23826976  0.77473533  1
  O  O24  1  0.55756974  0.76523069  0.76507561  1
  O  O25  1  0.44243026  0.23476931  0.23492439  1
  O  O26  1  0.44243026  0.73476931  0.26507561  1
  O  O27  1  0.55756974  0.26523069  0.73492439  1
  O  O28  1  0.67057591  0.97842675  0.60739100  1
  O  O29  1  0.32942409  0.02157325  0.39260900  1
  O  O30  1  0.32942409  0.52157325  0.10739100  1
  O  O31  1  0.67057591  0.47842675  0.89260900  1
  O  O32  1  0.84722971  0.00132953  0.91057733  1
  O  O33  1  0.15277029  0.99867047  0.08942267  1
  O  O34  1  0.15277029  0.49867047  0.41057733  1
  O  O35  1  0.84722971  0.50132953  0.58942267  1
  O  O36  1  0.67683805  0.70068042  0.56355410  1
  O  O37  1  0.32316195  0.29931958  0.43644590  1
  O  O38  1  0.32316195  0.79931958  0.06355410  1
  O  O39  1  0.67683805  0.20068042  0.93644590  1
  O  O40  1  0.00705818  0.73179768  0.00431953  1
  O  O41  1  0.99294182  0.26820232  0.99568047  1
  O  O42  1  0.99294182  0.76820232  0.50431953  1
  O  O43  1  0.00705818  0.23179768  0.49568047  1
