# generated using pymatgen
data_CsLu3F10
_symmetry_space_group_name_H-M   'P 1'
_cell_length_a   7.95523206
_cell_length_b   7.95523206
_cell_length_c   16.14585941
_cell_angle_alpha   90.00000000
_cell_angle_beta   90.00000000
_cell_angle_gamma   115.12272703
_symmetry_Int_Tables_number   1
_chemical_formula_structural   CsLu3F10
_chemical_formula_sum   'Cs4 Lu12 F40'
_cell_volume   925.14026854
_cell_formula_units_Z   4
loop_
 _symmetry_equiv_pos_site_id
 _symmetry_equiv_pos_as_xyz
  1  'x, y, z'
loop_
 _atom_site_type_symbol
 _atom_site_label
 _atom_site_symmetry_multiplicity
 _atom_site_fract_x
 _atom_site_fract_y
 _atom_site_fract_z
 _atom_site_occupancy
  Cs  Cs0  1  0.50000000  0.50000000  -0.00000000  1
  Cs  Cs1  1  0.00000000  0.00000000  0.50000000  1
  Cs  Cs2  1  0.00000000  0.00000000  -0.00000000  1
  Cs  Cs3  1  0.50000000  0.50000000  0.50000000  1
  Lu  Lu4  1  0.25267370  0.24732630  0.75000000  1
  Lu  Lu5  1  0.74732630  0.75267370  0.25000000  1
  Lu  Lu6  1  0.24732630  0.25267370  0.25000000  1
  Lu  Lu7  1  0.75267370  0.74732630  0.75000000  1
  Lu  Lu8  1  0.52377122  0.98023618  0.88638349  1
  Lu  Lu9  1  0.47622878  0.01976382  0.11361651  1
  Lu  Lu10  1  0.97622878  0.51976382  0.38638349  1
  Lu  Lu11  1  0.51976382  0.97622878  0.61361651  1
  Lu  Lu12  1  0.02377122  0.48023618  0.61361651  1
  Lu  Lu13  1  0.48023618  0.02377122  0.38638349  1
  Lu  Lu14  1  0.98023618  0.52377122  0.11361651  1
  Lu  Lu15  1  0.01976382  0.47622878  0.88638349  1
  F  F16  1  0.99666288  0.00333712  0.76992660  1
  F  F17  1  0.00333712  0.99666288  0.23007340  1
  F  F18  1  0.50333712  0.49666288  0.26992660  1
  F  F19  1  0.49666288  0.50333712  0.73007340  1
  F  F20  1  0.56759495  0.93240505  0.75000000  1
  F  F21  1  0.43240505  0.06759495  0.25000000  1
  F  F22  1  0.93240505  0.56759495  0.25000000  1
  F  F23  1  0.06759495  0.43240505  0.75000000  1
  F  F24  1  0.41775084  0.15523686  0.82744100  1
  F  F25  1  0.58224916  0.84476314  0.17255900  1
  F  F26  1  0.08224916  0.34476314  0.32744100  1
  F  F27  1  0.34476314  0.08224916  0.67255900  1
  F  F28  1  0.91775084  0.65523686  0.67255900  1
  F  F29  1  0.65523686  0.91775084  0.32744100  1
  F  F30  1  0.15523686  0.41775084  0.17255900  1
  F  F31  1  0.84476314  0.58224916  0.82744100  1
  F  F32  1  0.77432021  0.22567979  0.61290162  1
  F  F33  1  0.22567979  0.77432021  0.38709838  1
  F  F34  1  0.72567979  0.27432021  0.11290162  1
  F  F35  1  0.27432021  0.72567979  0.88709838  1
  F  F36  1  0.78784507  0.21215493  0.89367246  1
  F  F37  1  0.21215493  0.78784507  0.10632754  1
  F  F38  1  0.71215493  0.28784507  0.39367246  1
  F  F39  1  0.28784507  0.71215493  0.60632754  1
  F  F40  1  0.41137897  0.08810691  0.98744511  1
  F  F41  1  0.58862103  0.91189309  0.01255489  1
  F  F42  1  0.08862103  0.41189309  0.48744511  1
  F  F43  1  0.41189309  0.08862103  0.51255489  1
  F  F44  1  0.91137897  0.58810691  0.51255489  1
  F  F45  1  0.58810691  0.91137897  0.48744511  1
  F  F46  1  0.08810691  0.41137897  0.01255489  1
  F  F47  1  0.91189309  0.58862103  0.98744511  1
  F  F48  1  0.67497941  0.80563564  0.87086598  1
  F  F49  1  0.32502059  0.19436436  0.12913402  1
  F  F50  1  0.82502059  0.69436436  0.37086598  1
  F  F51  1  0.69436436  0.82502059  0.62913402  1
  F  F52  1  0.17497941  0.30563564  0.62913402  1
  F  F53  1  0.30563564  0.17497941  0.37086598  1
  F  F54  1  0.80563564  0.67497941  0.12913402  1
  F  F55  1  0.19436436  0.32502059  0.87086598  1
