# generated using pymatgen
data_CsTm2Cl7
_symmetry_space_group_name_H-M   'P 1'
_cell_length_a   6.97317664
_cell_length_b   13.87123204
_cell_length_c   12.57390063
_cell_angle_alpha   90.00000000
_cell_angle_beta   90.00000000
_cell_angle_gamma   90.00000000
_symmetry_Int_Tables_number   1
_chemical_formula_structural   CsTm2Cl7
_chemical_formula_sum   'Cs4 Tm8 Cl28'
_cell_volume   1216.23004344
_cell_formula_units_Z   4
loop_
 _symmetry_equiv_pos_site_id
 _symmetry_equiv_pos_as_xyz
  1  'x, y, z'
loop_
 _atom_site_type_symbol
 _atom_site_label
 _atom_site_symmetry_multiplicity
 _atom_site_fract_x
 _atom_site_fract_y
 _atom_site_fract_z
 _atom_site_occupancy
  Cs  Cs0  1  0.75000000  0.95794147  0.19604266  1
  Cs  Cs1  1  0.25000000  0.04205853  0.80395734  1
  Cs  Cs2  1  0.25000000  0.54205853  0.69604266  1
  Cs  Cs3  1  0.75000000  0.45794147  0.30395734  1
  Tm  Tm4  1  0.75000000  0.76117713  0.54055755  1
  Tm  Tm5  1  0.25000000  0.23882287  0.45944245  1
  Tm  Tm6  1  0.25000000  0.73882287  0.04055755  1
  Tm  Tm7  1  0.75000000  0.26117713  0.95944245  1
  Tm  Tm8  1  0.75000000  0.74927638  0.84337021  1
  Tm  Tm9  1  0.25000000  0.25072362  0.15662979  1
  Tm  Tm10  1  0.25000000  0.75072362  0.34337021  1
  Tm  Tm11  1  0.75000000  0.24927638  0.65662979  1
  Cl  Cl12  1  0.98567656  0.82115355  0.69372120  1
  Cl  Cl13  1  0.01432344  0.17884645  0.30627880  1
  Cl  Cl14  1  0.01432344  0.67884645  0.19372120  1
  Cl  Cl15  1  0.48567656  0.17884645  0.30627880  1
  Cl  Cl16  1  0.98567656  0.32115355  0.80627880  1
  Cl  Cl17  1  0.51432344  0.82115355  0.69372120  1
  Cl  Cl18  1  0.51432344  0.32115355  0.80627880  1
  Cl  Cl19  1  0.48567656  0.67884645  0.19372120  1
  Cl  Cl20  1  0.99143620  0.87186397  0.42585008  1
  Cl  Cl21  1  0.00856380  0.12813603  0.57414992  1
  Cl  Cl22  1  0.00856380  0.62813603  0.92585008  1
  Cl  Cl23  1  0.49143620  0.12813603  0.57414992  1
  Cl  Cl24  1  0.99143620  0.37186397  0.07414992  1
  Cl  Cl25  1  0.50856380  0.87186397  0.42585008  1
  Cl  Cl26  1  0.50856380  0.37186397  0.07414992  1
  Cl  Cl27  1  0.49143620  0.62813603  0.92585008  1
  Cl  Cl28  1  0.99036642  0.86142669  0.95961677  1
  Cl  Cl29  1  0.00963358  0.13857331  0.04038323  1
  Cl  Cl30  1  0.00963358  0.63857331  0.45961677  1
  Cl  Cl31  1  0.49036642  0.13857331  0.04038323  1
  Cl  Cl32  1  0.99036642  0.36142669  0.54038323  1
  Cl  Cl33  1  0.50963358  0.86142669  0.95961677  1
  Cl  Cl34  1  0.50963358  0.36142669  0.54038323  1
  Cl  Cl35  1  0.49036642  0.63857331  0.45961677  1
  Cl  Cl36  1  0.75000000  0.61412540  0.68920518  1
  Cl  Cl37  1  0.25000000  0.38587460  0.31079482  1
  Cl  Cl38  1  0.25000000  0.88587460  0.18920518  1
  Cl  Cl39  1  0.75000000  0.11412540  0.81079482  1
