# generated using pymatgen
data_CaGeO3
_symmetry_space_group_name_H-M   'P 1'
_cell_length_a   5.33180960
_cell_length_b   5.37445282
_cell_length_c   7.55271182
_cell_angle_alpha   90.00000000
_cell_angle_beta   90.00000000
_cell_angle_gamma   90.00000000
_symmetry_Int_Tables_number   1
_chemical_formula_structural   CaGeO3
_chemical_formula_sum   'Ca4 Ge4 O12'
_cell_volume   216.42718023
_cell_formula_units_Z   4
loop_
 _symmetry_equiv_pos_site_id
 _symmetry_equiv_pos_as_xyz
  1  'x, y, z'
loop_
 _atom_site_type_symbol
 _atom_site_label
 _atom_site_symmetry_multiplicity
 _atom_site_fract_x
 _atom_site_fract_y
 _atom_site_fract_z
 _atom_site_occupancy
  O  O0  1  0.71043859  0.28787046  0.46159228  1
  O  O1  1  0.21043859  0.21212954  0.53840772  1
  O  O2  1  0.78956141  0.78787046  0.03840772  1
  O  O3  1  0.28956141  0.71212954  0.96159228  1
  O  O4  1  0.28956141  0.71212954  0.53840772  1
  O  O5  1  0.78956141  0.78787046  0.46159228  1
  O  O6  1  0.21043859  0.21212954  0.96159228  1
  O  O7  1  0.71043859  0.28787046  0.03840772  1
  O  O8  1  0.07374050  0.48398748  0.25000000  1
  O  O9  1  0.57374050  0.01601252  0.75000000  1
  O  O10  1  0.42625950  0.98398748  0.25000000  1
  O  O11  1  0.92625950  0.51601252  0.75000000  1
  Ca  Ca12  1  0.99165141  0.03987754  0.25000000  1
  Ca  Ca13  1  0.49165141  0.46012246  0.75000000  1
  Ca  Ca14  1  0.50834859  0.53987754  0.25000000  1
  Ca  Ca15  1  0.00834859  0.96012246  0.75000000  1
  Ge  Ge16  1  0.00000000  0.50000000  0.00000000  1
  Ge  Ge17  1  0.50000000  0.00000000  0.00000000  1
  Ge  Ge18  1  0.50000000  0.00000000  0.50000000  1
  Ge  Ge19  1  0.00000000  0.50000000  0.50000000  1
