# generated using pymatgen
data_Dy11(Mn2C3)6
_symmetry_space_group_name_H-M   'P 1'
_cell_length_a   8.79402183
_cell_length_b   8.79402183
_cell_length_c   8.79402183
_cell_angle_alpha   109.47122063
_cell_angle_beta   109.47122063
_cell_angle_gamma   109.47122063
_symmetry_Int_Tables_number   1
_chemical_formula_structural   Dy11(Mn2C3)6
_chemical_formula_sum   'Dy11 Mn12 C18'
_cell_volume   523.52898004
_cell_formula_units_Z   1
loop_
 _symmetry_equiv_pos_site_id
 _symmetry_equiv_pos_as_xyz
  1  'x, y, z'
loop_
 _atom_site_type_symbol
 _atom_site_label
 _atom_site_symmetry_multiplicity
 _atom_site_fract_x
 _atom_site_fract_y
 _atom_site_fract_z
 _atom_site_occupancy
  Dy  Dy0  1  0.41078491  0.41078491  0.41078491  1
  Dy  Dy1  1  0.58921509  -0.00000000  -0.00000000  1
  Dy  Dy2  1  -0.00000000  0.58921509  -0.00000000  1
  Dy  Dy3  1  -0.00000000  -0.00000000  0.58921509  1
  Dy  Dy4  1  -0.00000000  -0.00000000  -0.00000000  1
  Dy  Dy5  1  0.25000000  0.75000000  0.50000000  1
  Dy  Dy6  1  0.75000000  0.25000000  0.50000000  1
  Dy  Dy7  1  0.75000000  0.50000000  0.25000000  1
  Dy  Dy8  1  0.25000000  0.50000000  0.75000000  1
  Dy  Dy9  1  0.50000000  0.25000000  0.75000000  1
  Dy  Dy10  1  0.50000000  0.75000000  0.25000000  1
  Mn  Mn11  1  0.84442469  0.66053585  0.66053585  1
  Mn  Mn12  1  0.15557531  0.81611116  0.81611116  1
  Mn  Mn13  1  0.00000000  0.33946415  0.18388884  1
  Mn  Mn14  1  0.66053585  0.66053585  0.84442469  1
  Mn  Mn15  1  -0.00000000  0.18388884  0.33946415  1
  Mn  Mn16  1  0.81611116  0.81611116  0.15557531  1
  Mn  Mn17  1  0.33946415  0.18388884  0.00000000  1
  Mn  Mn18  1  0.18388884  0.33946415  0.00000000  1
  Mn  Mn19  1  0.66053585  0.84442469  0.66053585  1
  Mn  Mn20  1  0.18388884  0.00000000  0.33946415  1
  Mn  Mn21  1  0.33946415  0.00000000  0.18388884  1
  Mn  Mn22  1  0.81611116  0.15557531  0.81611116  1
  C  C23  1  0.56813415  0.56813415  -0.00000000  1
  C  C24  1  0.43186585  0.43186585  0.00000000  1
  C  C25  1  0.56813415  -0.00000000  0.56813415  1
  C  C26  1  0.43186585  0.00000000  0.43186585  1
  C  C27  1  -0.00000000  0.56813415  0.56813415  1
  C  C28  1  0.00000000  0.43186585  0.43186585  1
  C  C29  1  0.48517861  0.70410171  0.70410171  1
  C  C30  1  0.51482139  0.21892310  0.21892310  1
  C  C31  1  0.00000000  0.29589829  0.78107690  1
  C  C32  1  0.70410171  0.70410171  0.48517861  1
  C  C33  1  -0.00000000  0.78107690  0.29589829  1
  C  C34  1  0.21892310  0.21892310  0.51482139  1
  C  C35  1  0.29589829  0.78107690  0.00000000  1
  C  C36  1  0.78107690  0.29589829  -0.00000000  1
  C  C37  1  0.70410171  0.48517861  0.70410171  1
  C  C38  1  0.78107690  0.00000000  0.29589829  1
  C  C39  1  0.29589829  -0.00000000  0.78107690  1
  C  C40  1  0.21892310  0.51482139  0.21892310  1
