# generated using pymatgen
data_Dy5CoBi2
_symmetry_space_group_name_H-M   'P 1'
_cell_length_a   7.97228564
_cell_length_b   8.96316107
_cell_length_c   12.40149475
_cell_angle_alpha   90.00000000
_cell_angle_beta   90.00000000
_cell_angle_gamma   90.00000000
_symmetry_Int_Tables_number   1
_chemical_formula_structural   Dy5CoBi2
_chemical_formula_sum   'Dy20 Co4 Bi8'
_cell_volume   886.17212574
_cell_formula_units_Z   4
loop_
 _symmetry_equiv_pos_site_id
 _symmetry_equiv_pos_as_xyz
  1  'x, y, z'
loop_
 _atom_site_type_symbol
 _atom_site_label
 _atom_site_symmetry_multiplicity
 _atom_site_fract_x
 _atom_site_fract_y
 _atom_site_fract_z
 _atom_site_occupancy
  Dy  Dy0  1  0.65333061  0.75000000  0.70225329  1
  Dy  Dy1  1  0.34666939  0.25000000  0.29774671  1
  Dy  Dy2  1  0.15333061  0.25000000  0.79774671  1
  Dy  Dy3  1  0.84666939  0.75000000  0.20225329  1
  Dy  Dy4  1  0.12659661  0.75000000  0.81155360  1
  Dy  Dy5  1  0.87340339  0.25000000  0.18844640  1
  Dy  Dy6  1  0.62659661  0.25000000  0.68844640  1
  Dy  Dy7  1  0.37340339  0.75000000  0.31155360  1
  Dy  Dy8  1  0.55198937  0.75000000  0.99687289  1
  Dy  Dy9  1  0.44801063  0.25000000  0.00312711  1
  Dy  Dy10  1  0.05198937  0.25000000  0.50312711  1
  Dy  Dy11  1  0.94801063  0.75000000  0.49687289  1
  Dy  Dy12  1  0.82574819  0.46388605  0.93505597  1
  Dy  Dy13  1  0.17425181  0.53611395  0.06494403  1
  Dy  Dy14  1  0.32574819  0.53611395  0.56494403  1
  Dy  Dy15  1  0.17425181  0.96388605  0.06494403  1
  Dy  Dy16  1  0.67425181  0.46388605  0.43505597  1
  Dy  Dy17  1  0.82574819  0.03611395  0.93505597  1
  Dy  Dy18  1  0.67425181  0.03611395  0.43505597  1
  Dy  Dy19  1  0.32574819  0.96388605  0.56494403  1
  Co  Co20  1  0.93395126  0.75000000  0.99072927  1
  Co  Co21  1  0.06604874  0.25000000  0.00927073  1
  Co  Co22  1  0.43395126  0.25000000  0.50927073  1
  Co  Co23  1  0.56604874  0.75000000  0.49072927  1
  Bi  Bi24  1  0.93152705  0.00494299  0.67290341  1
  Bi  Bi25  1  0.06847295  0.99505701  0.32709659  1
  Bi  Bi26  1  0.43152705  0.99505701  0.82709659  1
  Bi  Bi27  1  0.06847295  0.50494299  0.32709659  1
  Bi  Bi28  1  0.56847295  0.00494299  0.17290341  1
  Bi  Bi29  1  0.93152705  0.49505701  0.67290341  1
  Bi  Bi30  1  0.56847295  0.49505701  0.17290341  1
  Bi  Bi31  1  0.43152705  0.50494299  0.82709659  1
