# generated using pymatgen
data_H9C6N11
_symmetry_space_group_name_H-M   'P 1'
_cell_length_a   10.68725370
_cell_length_b   10.68725370
_cell_length_c   16.20988262
_cell_angle_alpha   86.61480534
_cell_angle_beta   86.61480534
_cell_angle_gamma   61.67342974
_symmetry_Int_Tables_number   1
_chemical_formula_structural   H9C6N11
_chemical_formula_sum   'H54 C36 N66'
_cell_volume   1625.89460777
_cell_formula_units_Z   6
loop_
 _symmetry_equiv_pos_site_id
 _symmetry_equiv_pos_as_xyz
  1  'x, y, z'
loop_
 _atom_site_type_symbol
 _atom_site_label
 _atom_site_symmetry_multiplicity
 _atom_site_fract_x
 _atom_site_fract_y
 _atom_site_fract_z
 _atom_site_occupancy
  H  H0  1  0.42347845  0.97930707  0.58836727  1
  H  H1  1  0.57652155  0.02069293  0.41163273  1
  H  H2  1  0.02069293  0.57652155  0.91163273  1
  H  H3  1  0.97930707  0.42347845  0.08836727  1
  H  H4  1  0.77888825  0.78889567  0.83418355  1
  H  H5  1  0.22111175  0.21110433  0.16581645  1
  H  H6  1  0.21110433  0.22111175  0.66581645  1
  H  H7  1  0.78889567  0.77888825  0.33418355  1
  H  H8  1  0.60055877  0.39815582  0.00071728  1
  H  H9  1  0.39944123  0.60184418  0.99928272  1
  H  H10  1  0.60184418  0.39944123  0.49928272  1
  H  H11  1  0.39815582  0.60055877  0.50071728  1
  H  H12  1  0.73543870  0.04052309  0.87342032  1
  H  H13  1  0.26456130  0.95947691  0.12657968  1
  H  H14  1  0.95947691  0.26456130  0.62657968  1
  H  H15  1  0.04052309  0.73543870  0.37342032  1
  H  H16  1  0.80932694  0.99587836  0.65543051  1
  H  H17  1  0.19067306  0.00412164  0.34456949  1
  H  H18  1  0.00412164  0.19067306  0.84456949  1
  H  H19  1  0.99587836  0.80932694  0.15543051  1
  H  H20  1  0.68279669  0.94448354  0.62648040  1
  H  H21  1  0.31720331  0.05551646  0.37351960  1
  H  H22  1  0.05551646  0.31720331  0.87351960  1
  H  H23  1  0.94448354  0.68279669  0.12648040  1
  H  H24  1  0.28771927  0.98060929  0.81261297  1
  H  H25  1  0.71228073  0.01939071  0.18738703  1
  H  H26  1  0.01939071  0.71228073  0.68738703  1
  H  H27  1  0.98060929  0.28771927  0.31261297  1
  H  H28  1  0.79931135  0.15816356  0.84146248  1
  H  H29  1  0.20068865  0.84183644  0.15853752  1
  H  H30  1  0.84183644  0.20068865  0.65853752  1
  H  H31  1  0.15816356  0.79931135  0.34146248  1
  H  H32  1  0.39962196  0.79517780  0.81848975  1
  H  H33  1  0.60037804  0.20482220  0.18151025  1
  H  H34  1  0.20482220  0.60037804  0.68151025  1
  H  H35  1  0.79517780  0.39962196  0.31848975  1
  H  H36  1  0.61241594  0.85671769  0.78962106  1
  H  H37  1  0.38758406  0.14328231  0.21037894  1
  H  H38  1  0.14328231  0.38758406  0.71037894  1
  H  H39  1  0.85671769  0.61241594  0.28962106  1
  H  H40  1  0.20695191  0.11654051  0.96689420  1
  H  H41  1  0.79304809  0.88345949  0.03310580  1
  H  H42  1  0.88345949  0.79304809  0.53310580  1
  H  H43  1  0.11654051  0.20695191  0.46689420  1
  H  H44  1  0.66726114  0.21596620  0.99607849  1
  H  H45  1  0.33273886  0.78403380  0.00392151  1
  H  H46  1  0.78403380  0.33273886  0.50392151  1
  H  H47  1  0.21596620  0.66726114  0.49607849  1
  H  H48  1  0.43263863  0.56736137  0.75000000  1
  H  H49  1  0.56736137  0.43263863  0.25000000  1
  H  H50  1  0.38786982  0.00728775  0.97786441  1
  H  H51  1  0.61213018  0.99271225  0.02213559  1
  H  H52  1  0.99271225  0.61213018  0.52213559  1
  H  H53  1  0.00728775  0.38786982  0.47786441  1
  C  C54  1  0.95042299  0.95199637  0.87047692  1
  C  C55  1  0.04957701  0.04800363  0.12952308  1
  C  C56  1  0.04800363  0.04957701  0.62952308  1
  C  C57  1  0.95199637  0.95042299  0.37047692  1
  C  C58  1  0.32499655  0.21837865  0.95153799  1
  C  C59  1  0.67500345  0.78162135  0.04846201  1
  C  C60  1  0.78162135  0.67500345  0.54846201  1
  C  C61  1  0.21837865  0.32499655  0.45153799  1
  C  C62  1  0.59676198  0.13958230  0.67592353  1
  C  C63  1  0.40323802  0.86041770  0.32407647  1
  C  C64  1  0.86041770  0.40323802  0.82407647  1
  C  C65  1  0.13958230  0.59676198  0.17592353  1
  C  C66  1  0.35909904  0.28286449  0.68950100  1
  C  C67  1  0.64090096  0.71713551  0.31049900  1
  C  C68  1  0.71713551  0.64090096  0.81049900  1
  C  C69  1  0.28286449  0.35909904  0.18950100  1
  C  C70  1  0.18867559  0.86423642  0.85197219  1
  C  C71  1  0.81132441  0.13576358  0.14802781  1
  C  C72  1  0.13576358  0.81132441  0.64802781  1
  C  C73  1  0.86423642  0.18867559  0.35197219  1
  C  C74  1  0.54215389  0.76918873  0.56514592  1
  C  C75  1  0.45784611  0.23081127  0.43485408  1
  C  C76  1  0.23081127  0.45784611  0.93485408  1
  C  C77  1  0.76918873  0.54215389  0.06514592  1
  C  C78  1  0.28348653  0.90135432  0.60818883  1
  C  C79  1  0.71651347  0.09864568  0.39181117  1
  C  C80  1  0.09864568  0.71651347  0.89181117  1
  C  C81  1  0.90135432  0.28348653  0.10818883  1
  C  C82  1  0.46141670  0.32447412  0.96715659  1
  C  C83  1  0.53858330  0.67552588  0.03284341  1
  C  C84  1  0.67552588  0.53858330  0.53284341  1
  C  C85  1  0.32447412  0.46141670  0.46715659  1
  C  C86  1  0.51231672  0.36146950  0.72269948  1
  C  C87  1  0.48768328  0.63853050  0.27730052  1
  C  C88  1  0.63853050  0.48768328  0.77730052  1
  C  C89  1  0.36146950  0.51231672  0.22269948  1
  N  N90  1  0.30768135  0.10039037  0.95479801  1
  N  N91  1  0.69231865  0.89960963  0.04520199  1
  N  N92  1  0.89960963  0.69231865  0.54520199  1
  N  N93  1  0.10039037  0.30768135  0.45479801  1
  N  N94  1  0.70597930  0.01443424  0.65426124  1
  N  N95  1  0.29402070  0.98556576  0.34573876  1
  N  N96  1  0.98556576  0.29402070  0.84573876  1
  N  N97  1  0.01443424  0.70597930  0.15426124  1
  N  N98  1  0.05952670  0.98107443  0.85441094  1
  N  N99  1  0.94047330  0.01892557  0.14558906  1
  N  N100  1  0.01892557  0.94047330  0.64558906  1
  N  N101  1  0.98107443  0.05952670  0.35441094  1
  N  N102  1  0.62749906  0.23920768  0.70422316  1
  N  N103  1  0.37250094  0.76079232  0.29577684  1
  N  N104  1  0.76079232  0.37250094  0.79577684  1
  N  N105  1  0.23920768  0.62749906  0.20422316  1
  N  N106  1  0.34357593  0.20909334  0.43357511  1
  N  N107  1  0.65642407  0.79090666  0.56642489  1
  N  N108  1  0.79090666  0.65642407  0.06642489  1
  N  N109  1  0.20909334  0.34357593  0.93357511  1
  N  N110  1  0.46490620  0.15455079  0.66878654  1
  N  N111  1  0.53509380  0.84544921  0.33121346  1
  N  N112  1  0.84544921  0.53509380  0.83121346  1
  N  N113  1  0.15455079  0.46490620  0.16878654  1
  N  N114  1  0.30244901  0.88182234  0.82893015  1
  N  N115  1  0.69755099  0.11817766  0.17106985  1
  N  N116  1  0.11817766  0.69755099  0.67106985  1
  N  N117  1  0.88182234  0.30244901  0.32893015  1
  N  N118  1  0.41554509  0.88818710  0.58486218  1
  N  N119  1  0.58445491  0.11181290  0.41513782  1
  N  N120  1  0.11181290  0.58445491  0.91513782  1
  N  N121  1  0.88818710  0.41554509  0.08486218  1
  N  N122  1  0.17861445  0.03752558  0.61085579  1
  N  N123  1  0.82138555  0.96247442  0.38914421  1
  N  N124  1  0.96247442  0.82138555  0.88914421  1
  N  N125  1  0.03752558  0.17861445  0.11085579  1
  N  N126  1  0.58736784  0.31441378  0.98324709  1
  N  N127  1  0.41263216  0.68558622  0.01675291  1
  N  N128  1  0.68558622  0.41263216  0.51675291  1
  N  N129  1  0.31441378  0.58736784  0.48324709  1
  N  N130  1  0.52557274  0.47442726  0.75000000  1
  N  N131  1  0.47442726  0.52557274  0.25000000  1
  N  N132  1  0.45582021  0.20070872  0.96396852  1
  N  N133  1  0.54417979  0.79929128  0.03603148  1
  N  N134  1  0.79929128  0.54417979  0.53603148  1
  N  N135  1  0.20070872  0.45582021  0.46396852  1
  N  N136  1  0.54310426  0.64963870  0.54443190  1
  N  N137  1  0.45689574  0.35036130  0.45556810  1
  N  N138  1  0.35036130  0.45689574  0.95556810  1
  N  N139  1  0.64963870  0.54310426  0.04443190  1
  N  N140  1  0.81755874  0.06303095  0.86988476  1
  N  N141  1  0.18244126  0.93696905  0.13011524  1
  N  N142  1  0.93696905  0.18244126  0.63011524  1
  N  N143  1  0.06303095  0.81755874  0.36988476  1
  N  N144  1  0.60754405  0.62496809  0.78462655  1
  N  N145  1  0.39245595  0.37503191  0.21537345  1
  N  N146  1  0.37503191  0.39245595  0.71537345  1
  N  N147  1  0.62496809  0.60754405  0.28462655  1
  N  N148  1  0.27073187  0.78514298  0.62822682  1
  N  N149  1  0.72926813  0.21485702  0.37177318  1
  N  N150  1  0.21485702  0.72926813  0.87177318  1
  N  N151  1  0.78514298  0.27073187  0.12822682  1
  N  N152  1  0.69637053  0.77502670  0.81692407  1
  N  N153  1  0.30362947  0.22497330  0.18307593  1
  N  N154  1  0.22497330  0.30362947  0.68307593  1
  N  N155  1  0.77502670  0.69637053  0.31692407  1
