# generated using pymatgen
data_CsYMnSe3
_symmetry_space_group_name_H-M   'P 1'
_cell_length_a   4.25578542
_cell_length_b   8.35055345
_cell_length_c   11.09883928
_cell_angle_alpha   90.00000000
_cell_angle_beta   90.00000000
_cell_angle_gamma   104.76294875
_symmetry_Int_Tables_number   1
_chemical_formula_structural   CsYMnSe3
_chemical_formula_sum   'Cs2 Y2 Mn2 Se6'
_cell_volume   381.41151269
_cell_formula_units_Z   2
loop_
 _symmetry_equiv_pos_site_id
 _symmetry_equiv_pos_as_xyz
  1  'x, y, z'
loop_
 _atom_site_type_symbol
 _atom_site_label
 _atom_site_symmetry_multiplicity
 _atom_site_fract_x
 _atom_site_fract_y
 _atom_site_fract_z
 _atom_site_occupancy
  Cs  Cs0  1  0.74275364  0.48550728  0.25000000  1
  Cs  Cs1  1  0.25724636  0.51449272  0.75000000  1
  Y  Y2  1  -0.00000000  -0.00000000  -0.00000000  1
  Y  Y3  1  -0.00000000  -0.00000000  0.50000000  1
  Mn  Mn4  1  0.46280816  0.92561632  0.25000000  1
  Mn  Mn5  1  0.53719184  0.07438368  0.75000000  1
  Se  Se6  1  0.38399546  0.76799091  0.05759545  1
  Se  Se7  1  0.61600454  0.23200909  0.94240455  1
  Se  Se8  1  0.61600454  0.23200909  0.55759545  1
  Se  Se9  1  0.38399546  0.76799091  0.44240455  1
  Se  Se10  1  0.05451851  0.10903701  0.25000000  1
  Se  Se11  1  0.94548149  0.89096299  0.75000000  1
