# generated using pymatgen
data_Dy3Ga15Ru4
_symmetry_space_group_name_H-M   'P 1'
_cell_length_a   8.81182208
_cell_length_b   9.66806872
_cell_length_c   17.83600989
_cell_angle_alpha   90.00000000
_cell_angle_beta   90.00000000
_cell_angle_gamma   90.00000000
_symmetry_Int_Tables_number   1
_chemical_formula_structural   Dy3Ga15Ru4
_chemical_formula_sum   'Dy12 Ga60 Ru16'
_cell_volume   1519.50856665
_cell_formula_units_Z   4
loop_
 _symmetry_equiv_pos_site_id
 _symmetry_equiv_pos_as_xyz
  1  'x, y, z'
loop_
 _atom_site_type_symbol
 _atom_site_label
 _atom_site_symmetry_multiplicity
 _atom_site_fract_x
 _atom_site_fract_y
 _atom_site_fract_z
 _atom_site_occupancy
  Dy  Dy0  1  0.37567601  0.25000000  0.16802927  1
  Dy  Dy1  1  0.62432399  0.75000000  0.83197073  1
  Dy  Dy2  1  0.12432399  0.75000000  0.66802927  1
  Dy  Dy3  1  0.87567601  0.25000000  0.33197073  1
  Dy  Dy4  1  0.37531360  0.25000000  0.74827923  1
  Dy  Dy5  1  0.62468640  0.75000000  0.25172077  1
  Dy  Dy6  1  0.12468640  0.75000000  0.24827923  1
  Dy  Dy7  1  0.87531360  0.25000000  0.75172077  1
  Dy  Dy8  1  0.12590604  0.25000000  0.52445123  1
  Dy  Dy9  1  0.87409396  0.75000000  0.47554877  1
  Dy  Dy10  1  0.37409396  0.75000000  0.02445123  1
  Dy  Dy11  1  0.62590604  0.25000000  0.97554877  1
  Ga  Ga12  1  0.12672775  0.06061766  0.25280774  1
  Ga  Ga13  1  0.87327225  0.93938234  0.74719226  1
  Ga  Ga14  1  0.37327225  0.93938234  0.75280774  1
  Ga  Ga15  1  0.87327225  0.56061766  0.74719226  1
  Ga  Ga16  1  0.62672775  0.06061766  0.24719226  1
  Ga  Ga17  1  0.12672775  0.43938234  0.25280774  1
  Ga  Ga18  1  0.62672775  0.43938234  0.24719226  1
  Ga  Ga19  1  0.37327225  0.56061766  0.75280774  1
  Ga  Ga20  1  0.00728460  0.25000000  0.16849693  1
  Ga  Ga21  1  0.99271540  0.75000000  0.83150307  1
  Ga  Ga22  1  0.49271540  0.75000000  0.66849693  1
  Ga  Ga23  1  0.50728460  0.25000000  0.33150307  1
  Ga  Ga24  1  0.13333706  0.25000000  0.04177372  1
  Ga  Ga25  1  0.86666294  0.75000000  0.95822628  1
  Ga  Ga26  1  0.36666294  0.75000000  0.54177372  1
  Ga  Ga27  1  0.63333706  0.25000000  0.45822628  1
  Ga  Ga28  1  0.37446843  0.57747405  0.33163690  1
  Ga  Ga29  1  0.62553157  0.42252595  0.66836310  1
  Ga  Ga30  1  0.12553157  0.42252595  0.83163690  1
  Ga  Ga31  1  0.62553157  0.07747405  0.66836310  1
  Ga  Ga32  1  0.87446843  0.57747405  0.16836310  1
  Ga  Ga33  1  0.37446843  0.92252595  0.33163690  1
  Ga  Ga34  1  0.87446843  0.92252595  0.16836310  1
  Ga  Ga35  1  0.12553157  0.07747405  0.83163690  1
  Ga  Ga36  1  0.22081402  0.25000000  0.35940114  1
  Ga  Ga37  1  0.77918598  0.75000000  0.64059886  1
  Ga  Ga38  1  0.27918598  0.75000000  0.85940114  1
  Ga  Ga39  1  0.72081402  0.25000000  0.14059886  1
  Ga  Ga40  1  0.12404923  0.08714979  0.67184918  1
  Ga  Ga41  1  0.87595077  0.91285021  0.32815082  1
  Ga  Ga42  1  0.37595077  0.91285021  0.17184918  1
  Ga  Ga43  1  0.87595077  0.58714979  0.32815082  1
  Ga  Ga44  1  0.62404923  0.08714979  0.82815082  1
  Ga  Ga45  1  0.12404923  0.41285021  0.67184918  1
  Ga  Ga46  1  0.62404923  0.41285021  0.82815082  1
  Ga  Ga47  1  0.37595077  0.58714979  0.17184918  1
  Ga  Ga48  1  0.37763516  0.06112795  0.46533721  1
  Ga  Ga49  1  0.62236484  0.93887205  0.53466279  1
  Ga  Ga50  1  0.12236484  0.93887205  0.96533721  1
  Ga  Ga51  1  0.62236484  0.56112795  0.53466279  1
  Ga  Ga52  1  0.87763516  0.06112795  0.03466279  1
  Ga  Ga53  1  0.37763516  0.43887205  0.46533721  1
  Ga  Ga54  1  0.87763516  0.43887205  0.03466279  1
  Ga  Ga55  1  0.12236484  0.56112795  0.96533721  1
  Ga  Ga56  1  0.45088491  0.25000000  0.57769791  1
  Ga  Ga57  1  0.54911509  0.75000000  0.42230209  1
  Ga  Ga58  1  0.04911509  0.75000000  0.07769791  1
  Ga  Ga59  1  0.95088491  0.25000000  0.92230209  1
  Ga  Ga60  1  0.30457003  0.25000000  0.91795471  1
  Ga  Ga61  1  0.69542997  0.75000000  0.08204529  1
  Ga  Ga62  1  0.19542997  0.75000000  0.41795471  1
  Ga  Ga63  1  0.80457003  0.25000000  0.58204529  1
  Ga  Ga64  1  0.37365498  0.06903054  0.03278671  1
  Ga  Ga65  1  0.62634502  0.93096946  0.96721329  1
  Ga  Ga66  1  0.12634502  0.93096946  0.53278671  1
  Ga  Ga67  1  0.62634502  0.56903054  0.96721329  1
  Ga  Ga68  1  0.87365498  0.06903054  0.46721329  1
  Ga  Ga69  1  0.37365498  0.43096946  0.03278671  1
  Ga  Ga70  1  0.87365498  0.43096946  0.46721329  1
  Ga  Ga71  1  0.12634502  0.56903054  0.53278671  1
  Ru  Ru72  1  0.11732613  0.00366110  0.39027806  1
  Ru  Ru73  1  0.88267387  0.99633890  0.60972194  1
  Ru  Ru74  1  0.38267387  0.99633890  0.89027806  1
  Ru  Ru75  1  0.88267387  0.50366110  0.60972194  1
  Ru  Ru76  1  0.61732613  0.00366110  0.10972194  1
  Ru  Ru77  1  0.11732613  0.49633890  0.39027806  1
  Ru  Ru78  1  0.61732613  0.49633890  0.10972194  1
  Ru  Ru79  1  0.38267387  0.50366110  0.89027806  1
  Ru  Ru80  1  0.13041684  0.00461472  0.11345569  1
  Ru  Ru81  1  0.86958316  0.99538528  0.88654431  1
  Ru  Ru82  1  0.36958316  0.99538528  0.61345569  1
  Ru  Ru83  1  0.86958316  0.50461472  0.88654431  1
  Ru  Ru84  1  0.63041684  0.00461472  0.38654431  1
  Ru  Ru85  1  0.13041684  0.49538528  0.11345569  1
  Ru  Ru86  1  0.63041684  0.49538528  0.38654431  1
  Ru  Ru87  1  0.36958316  0.50461472  0.61345569  1
