# generated using pymatgen
data_CsRbMo3P3O17
_symmetry_space_group_name_H-M   'P 1'
_cell_length_a   9.71158452
_cell_length_b   10.99892796
_cell_length_c   15.77501531
_cell_angle_alpha   109.02923967
_cell_angle_beta   90.00000000
_cell_angle_gamma   90.00000000
_symmetry_Int_Tables_number   1
_chemical_formula_structural   CsRbMo3P3O17
_chemical_formula_sum   'Cs4 Rb4 Mo12 P12 O68'
_cell_volume   1592.95654534
_cell_formula_units_Z   4
loop_
 _symmetry_equiv_pos_site_id
 _symmetry_equiv_pos_as_xyz
  1  'x, y, z'
loop_
 _atom_site_type_symbol
 _atom_site_label
 _atom_site_symmetry_multiplicity
 _atom_site_fract_x
 _atom_site_fract_y
 _atom_site_fract_z
 _atom_site_occupancy
  Cs  Cs0  1  0.61734565  0.66955029  0.48954486  1
  Cs  Cs1  1  0.38265435  0.33044971  0.51045514  1
  Cs  Cs2  1  0.11734565  0.83044971  0.01045514  1
  Cs  Cs3  1  0.88265435  0.16955029  0.98954486  1
  Rb  Rb4  1  0.12937521  0.40114929  0.78950781  1
  Rb  Rb5  1  0.87062479  0.59885071  0.21049219  1
  Rb  Rb6  1  0.62937521  0.09885071  0.71049219  1
  Rb  Rb7  1  0.37062479  0.90114929  0.28950781  1
  Mo  Mo8  1  0.87876672  0.80175441  0.75486048  1
  Mo  Mo9  1  0.12123328  0.19824559  0.24513952  1
  Mo  Mo10  1  0.37876672  0.69824559  0.74513952  1
  Mo  Mo11  1  0.62123328  0.30175441  0.25486048  1
  Mo  Mo12  1  0.37651616  0.18573341  0.93935279  1
  Mo  Mo13  1  0.62348384  0.81426659  0.06064721  1
  Mo  Mo14  1  0.87651616  0.31426659  0.56064721  1
  Mo  Mo15  1  0.12348384  0.68573341  0.43935279  1
  Mo  Mo16  1  0.24133140  0.02307730  0.59980233  1
  Mo  Mo17  1  0.75866860  0.97692270  0.40019767  1
  Mo  Mo18  1  0.74133140  0.47692270  0.90019767  1
  Mo  Mo19  1  0.25866860  0.52307730  0.09980233  1
  P  P20  1  0.59683679  0.92184131  0.87775733  1
  P  P21  1  0.40316321  0.07815869  0.12224267  1
  P  P22  1  0.09683679  0.57815869  0.62224267  1
  P  P23  1  0.90316321  0.42184131  0.37775733  1
  P  P24  1  0.17346046  0.96105823  0.79948742  1
  P  P25  1  0.82653954  0.03894177  0.20051258  1
  P  P26  1  0.67346046  0.53894177  0.70051258  1
  P  P27  1  0.32653954  0.46105823  0.29948742  1
  P  P28  1  0.40425193  0.60004952  0.93181668  1
  P  P29  1  0.59574807  0.39995048  0.06818332  1
  P  P30  1  0.90425193  0.89995048  0.56818332  1
  P  P31  1  0.09574807  0.10004952  0.43181668  1
  O  O32  1  0.55566686  0.26668845  0.99892201  1
  O  O33  1  0.44433314  0.73331155  0.00107799  1
  O  O34  1  0.05566686  0.23331155  0.50107799  1
  O  O35  1  0.94433314  0.76668845  0.49892201  1
  O  O36  1  0.42313579  0.75807025  0.66122537  1
  O  O37  1  0.57686421  0.24192975  0.33877463  1
  O  O38  1  0.92313579  0.74192975  0.83877463  1
  O  O39  1  0.07686421  0.25807025  0.16122537  1
  O  O40  1  0.02446067  0.70864635  0.66540030  1
  O  O41  1  0.97553933  0.29135365  0.33459970  1
  O  O42  1  0.52446067  0.79135365  0.83459970  1
  O  O43  1  0.47553933  0.20864635  0.16540030  1
  O  O44  1  0.29301839  0.53668350  0.97626945  1
  O  O45  1  0.70698161  0.46331650  0.02373055  1
  O  O46  1  0.79301839  0.96331650  0.52373055  1
  O  O47  1  0.20698161  0.03668350  0.47626945  1
  O  O48  1  0.41467422  0.98523339  0.58001641  1
  O  O49  1  0.58532578  0.01476661  0.41998359  1
  O  O50  1  0.91467422  0.51476661  0.91998359  1
  O  O51  1  0.08532578  0.48523339  0.08001641  1
  O  O52  1  0.72888941  0.92911093  0.82232359  1
  O  O53  1  0.27111059  0.07088907  0.17767641  1
  O  O54  1  0.22888941  0.57088907  0.67767641  1
  O  O55  1  0.77111059  0.42911093  0.32232359  1
  O  O56  1  0.50582896  0.03403360  0.87027626  1
  O  O57  1  0.49417104  0.96596640  0.12972374  1
  O  O58  1  0.00582896  0.46596640  0.62972374  1
  O  O59  1  0.99417104  0.53403360  0.37027626  1
  O  O60  1  0.38307778  0.24621887  0.85110482  1
  O  O61  1  0.61692222  0.75378113  0.14889518  1
  O  O62  1  0.88307778  0.25378113  0.64889518  1
  O  O63  1  0.11692222  0.74621887  0.35110482  1
  O  O64  1  0.02813401  0.98969095  0.59778653  1
  O  O65  1  0.97186599  0.01030905  0.40221347  1
  O  O66  1  0.52813401  0.51030905  0.90221347  1
  O  O67  1  0.47186599  0.48969095  0.09778653  1
  O  O68  1  0.01416244  0.95686720  0.79864136  1
  O  O69  1  0.98583756  0.04313280  0.20135864  1
  O  O70  1  0.51416244  0.54313280  0.70135864  1
  O  O71  1  0.48583756  0.45686720  0.29864136  1
  O  O72  1  0.23416995  0.83612526  0.80825236  1
  O  O73  1  0.76583005  0.16387474  0.19174764  1
  O  O74  1  0.73416995  0.66387474  0.69174764  1
  O  O75  1  0.26583005  0.33612526  0.30825236  1
  O  O76  1  0.23388172  0.98514974  0.71600304  1
  O  O77  1  0.76611828  0.01485026  0.28399696  1
  O  O78  1  0.73388172  0.51485026  0.78399696  1
  O  O79  1  0.26611828  0.48514974  0.21600304  1
  O  O80  1  0.20857248  0.07542920  0.88541797  1
  O  O81  1  0.79142752  0.92457080  0.11458203  1
  O  O82  1  0.70857248  0.42457080  0.61458203  1
  O  O83  1  0.29142752  0.57542920  0.38541797  1
  O  O84  1  0.32820628  0.62039319  0.85205235  1
  O  O85  1  0.67179372  0.37960681  0.14794765  1
  O  O86  1  0.82820628  0.87960681  0.64794765  1
  O  O87  1  0.17179372  0.12039319  0.35205235  1
  O  O88  1  0.13742172  0.56394704  0.52599624  1
  O  O89  1  0.86257828  0.43605296  0.47400376  1
  O  O90  1  0.63742172  0.93605296  0.97400376  1
  O  O91  1  0.36257828  0.06394704  0.02599624  1
  O  O92  1  0.21607171  0.80733953  0.52125690  1
  O  O93  1  0.78392829  0.19266047  0.47874310  1
  O  O94  1  0.71607171  0.69266047  0.97874310  1
  O  O95  1  0.28392829  0.30733953  0.02125690  1
  O  O96  1  0.24318876  0.18940239  0.64948759  1
  O  O97  1  0.75681124  0.81059761  0.35051241  1
  O  O98  1  0.74318876  0.31059761  0.85051241  1
  O  O99  1  0.25681124  0.68940239  0.14948759  1
