# generated using pymatgen
data_CsCr(MoO4)2
_symmetry_space_group_name_H-M   'P 1'
_cell_length_a   5.77015278
_cell_length_b   5.77015278
_cell_length_c   8.15768332
_cell_angle_alpha   90.00000000
_cell_angle_beta   90.00000000
_cell_angle_gamma   119.99999954
_symmetry_Int_Tables_number   1
_chemical_formula_structural   CsCr(MoO4)2
_chemical_formula_sum   'Cs1 Cr1 Mo2 O8'
_cell_volume   235.21883822
_cell_formula_units_Z   1
loop_
 _symmetry_equiv_pos_site_id
 _symmetry_equiv_pos_as_xyz
  1  'x, y, z'
loop_
 _atom_site_type_symbol
 _atom_site_label
 _atom_site_symmetry_multiplicity
 _atom_site_fract_x
 _atom_site_fract_y
 _atom_site_fract_z
 _atom_site_occupancy
  Cs  Cs0  1  -0.00000000  -0.00000000  0.00000000  1
  Cr  Cr1  1  -0.00000000  -0.00000000  0.50000000  1
  Mo  Mo2  1  0.66666700  0.33333300  0.71165260  1
  Mo  Mo3  1  0.33333300  0.66666700  0.28834740  1
  O  O4  1  0.83899863  0.67799726  0.64513809  1
  O  O5  1  0.16100137  0.32200274  0.35486191  1
  O  O6  1  0.83899863  0.16100137  0.64513809  1
  O  O7  1  0.16100137  0.83899863  0.35486191  1
  O  O8  1  0.32200274  0.16100137  0.64513809  1
  O  O9  1  0.67799726  0.83899863  0.35486191  1
  O  O10  1  0.66666700  0.33333300  0.92690163  1
  O  O11  1  0.33333300  0.66666700  0.07309837  1
