# generated using pymatgen
data_CsCuTeS3
_symmetry_space_group_name_H-M   'P 1'
_cell_length_a   9.19353077
_cell_length_b   9.19353077
_cell_length_c   9.19353077
_cell_angle_alpha   90.00000000
_cell_angle_beta   90.00000000
_cell_angle_gamma   90.00000000
_symmetry_Int_Tables_number   1
_chemical_formula_structural   CsCuTeS3
_chemical_formula_sum   'Cs4 Cu4 Te4 S12'
_cell_volume   777.04648793
_cell_formula_units_Z   4
loop_
 _symmetry_equiv_pos_site_id
 _symmetry_equiv_pos_as_xyz
  1  'x, y, z'
loop_
 _atom_site_type_symbol
 _atom_site_label
 _atom_site_symmetry_multiplicity
 _atom_site_fract_x
 _atom_site_fract_y
 _atom_site_fract_z
 _atom_site_occupancy
  Cs  Cs0  1  0.41761101  0.41761101  0.41761101  1
  Cs  Cs1  1  0.08238899  0.58238899  0.91761101  1
  Cs  Cs2  1  0.58238899  0.91761101  0.08238899  1
  Cs  Cs3  1  0.91761101  0.08238899  0.58238899  1
  Cu  Cu4  1  0.64656892  0.64656892  0.64656892  1
  Cu  Cu5  1  0.85343108  0.35343108  0.14656892  1
  Cu  Cu6  1  0.35343108  0.14656892  0.85343108  1
  Cu  Cu7  1  0.14656892  0.85343108  0.35343108  1
  Te  Te8  1  0.07094249  0.07094249  0.07094249  1
  Te  Te9  1  0.42905751  0.92905751  0.57094249  1
  Te  Te10  1  0.92905751  0.57094249  0.42905751  1
  Te  Te11  1  0.57094249  0.42905751  0.92905751  1
  S  S12  1  0.03217877  0.36287499  0.31136592  1
  S  S13  1  0.46782123  0.63712501  0.81136592  1
  S  S14  1  0.96782123  0.86287499  0.18863408  1
  S  S15  1  0.31136592  0.03217877  0.36287499  1
  S  S16  1  0.53217877  0.13712501  0.68863408  1
  S  S17  1  0.81136592  0.46782123  0.63712501  1
  S  S18  1  0.18863408  0.96782123  0.86287499  1
  S  S19  1  0.68863408  0.53217877  0.13712501  1
  S  S20  1  0.36287499  0.31136592  0.03217877  1
  S  S21  1  0.86287499  0.18863408  0.96782123  1
  S  S22  1  0.13712501  0.68863408  0.53217877  1
  S  S23  1  0.63712501  0.81136592  0.46782123  1
