# generated using pymatgen
data_CsHo(NbBr3)6
_symmetry_space_group_name_H-M   'P 1'
_cell_length_a   9.93267966
_cell_length_b   9.93267966
_cell_length_c   18.54489520
_cell_angle_alpha   90.00000000
_cell_angle_beta   90.00000000
_cell_angle_gamma   120.00000133
_symmetry_Int_Tables_number   1
_chemical_formula_structural   CsHo(NbBr3)6
_chemical_formula_sum   'Cs2 Ho2 Nb12 Br36'
_cell_volume   1584.48403496
_cell_formula_units_Z   2
loop_
 _symmetry_equiv_pos_site_id
 _symmetry_equiv_pos_as_xyz
  1  'x, y, z'
loop_
 _atom_site_type_symbol
 _atom_site_label
 _atom_site_symmetry_multiplicity
 _atom_site_fract_x
 _atom_site_fract_y
 _atom_site_fract_z
 _atom_site_occupancy
  Cs  Cs0  1  0.33333300  0.66666700  0.75000000  1
  Cs  Cs1  1  0.66666700  0.33333300  0.25000000  1
  Ho  Ho2  1  0.66666700  0.33333300  0.75000000  1
  Ho  Ho3  1  0.33333300  0.66666700  0.25000000  1
  Nb  Nb4  1  0.96117543  0.14957530  0.93495728  1
  Nb  Nb5  1  0.03882457  0.85042470  0.06504272  1
  Nb  Nb6  1  0.18839988  0.03882457  0.93495728  1
  Nb  Nb7  1  0.18839988  0.14957530  0.56504272  1
  Nb  Nb8  1  0.81160012  0.96117543  0.06504272  1
  Nb  Nb9  1  0.81160012  0.85042470  0.43495728  1
  Nb  Nb10  1  0.85042470  0.81160012  0.93495728  1
  Nb  Nb11  1  0.85042470  0.03882457  0.56504272  1
  Nb  Nb12  1  0.14957530  0.18839988  0.06504272  1
  Nb  Nb13  1  0.14957530  0.96117543  0.43495728  1
  Nb  Nb14  1  0.96117543  0.81160012  0.56504272  1
  Nb  Nb15  1  0.03882457  0.18839988  0.43495728  1
  Br  Br16  1  0.91377387  0.36331410  0.83823962  1
  Br  Br17  1  0.08622613  0.63668590  0.16176038  1
  Br  Br18  1  0.44954023  0.08622613  0.83823962  1
  Br  Br19  1  0.44954023  0.36331410  0.66176038  1
  Br  Br20  1  0.55045977  0.91377387  0.16176038  1
  Br  Br21  1  0.55045977  0.63668590  0.33823962  1
  Br  Br22  1  0.63668590  0.55045977  0.83823962  1
  Br  Br23  1  0.63668590  0.08622613  0.66176038  1
  Br  Br24  1  0.36331410  0.44954023  0.16176038  1
  Br  Br25  1  0.36331410  0.91377387  0.33823962  1
  Br  Br26  1  0.91377387  0.55045977  0.66176038  1
  Br  Br27  1  0.08622613  0.44954023  0.33823962  1
  Br  Br28  1  0.76768596  0.95331683  0.84052910  1
  Br  Br29  1  0.23231404  0.04668317  0.15947090  1
  Br  Br30  1  0.18563087  0.23231404  0.84052910  1
  Br  Br31  1  0.18563087  0.95331683  0.65947090  1
  Br  Br32  1  0.81436913  0.76768596  0.15947090  1
  Br  Br33  1  0.81436913  0.04668317  0.34052910  1
  Br  Br34  1  0.04668317  0.81436913  0.84052910  1
  Br  Br35  1  0.04668317  0.23231404  0.65947090  1
  Br  Br36  1  0.95331683  0.18563087  0.15947090  1
  Br  Br37  1  0.95331683  0.76768596  0.34052910  1
  Br  Br38  1  0.76768596  0.81436913  0.65947090  1
  Br  Br39  1  0.23231404  0.18563087  0.34052910  1
  Br  Br40  1  0.58398310  0.72335904  0.99888945  1
  Br  Br41  1  0.41601690  0.27664096  0.00111055  1
  Br  Br42  1  0.13937594  0.41601690  0.99888945  1
  Br  Br43  1  0.13937594  0.72335904  0.50111055  1
  Br  Br44  1  0.86062406  0.58398310  0.00111055  1
  Br  Br45  1  0.86062406  0.27664096  0.49888945  1
  Br  Br46  1  0.27664096  0.86062406  0.99888945  1
  Br  Br47  1  0.27664096  0.41601690  0.50111055  1
  Br  Br48  1  0.72335904  0.13937594  0.00111055  1
  Br  Br49  1  0.72335904  0.58398310  0.49888945  1
  Br  Br50  1  0.58398310  0.86062406  0.50111055  1
  Br  Br51  1  0.41601690  0.13937594  0.49888945  1
