# generated using pymatgen
data_Cs2PrCl5
_symmetry_space_group_name_H-M   'P 1'
_cell_length_a   8.69728036
_cell_length_b   9.20323142
_cell_length_c   14.16569962
_cell_angle_alpha   90.00000000
_cell_angle_beta   90.00000000
_cell_angle_gamma   90.00000000
_symmetry_Int_Tables_number   1
_chemical_formula_structural   Cs2PrCl5
_chemical_formula_sum   'Cs8 Pr4 Cl20'
_cell_volume   1133.86628287
_cell_formula_units_Z   4
loop_
 _symmetry_equiv_pos_site_id
 _symmetry_equiv_pos_as_xyz
  1  'x, y, z'
loop_
 _atom_site_type_symbol
 _atom_site_label
 _atom_site_symmetry_multiplicity
 _atom_site_fract_x
 _atom_site_fract_y
 _atom_site_fract_z
 _atom_site_occupancy
  Cs  Cs0  1  0.55264789  0.49378179  0.67192855  1
  Cs  Cs1  1  0.44735211  0.50621821  0.32807145  1
  Cs  Cs2  1  0.05264789  0.50621821  0.82807145  1
  Cs  Cs3  1  0.44735211  0.99378179  0.32807145  1
  Cs  Cs4  1  0.94735211  0.49378179  0.17192855  1
  Cs  Cs5  1  0.55264789  0.00621821  0.67192855  1
  Cs  Cs6  1  0.94735211  0.00621821  0.17192855  1
  Cs  Cs7  1  0.05264789  0.99378179  0.82807145  1
  Pr  Pr8  1  0.56726988  0.75000000  0.99720915  1
  Pr  Pr9  1  0.43273012  0.25000000  0.00279085  1
  Pr  Pr10  1  0.06726988  0.25000000  0.50279085  1
  Pr  Pr11  1  0.93273012  0.75000000  0.49720915  1
  Cl  Cl12  1  0.38889803  0.75000000  0.83369609  1
  Cl  Cl13  1  0.61110197  0.25000000  0.16630391  1
  Cl  Cl14  1  0.88889803  0.25000000  0.66630391  1
  Cl  Cl15  1  0.11110197  0.75000000  0.33369609  1
  Cl  Cl16  1  0.65346034  0.46020711  0.93097586  1
  Cl  Cl17  1  0.34653966  0.53979289  0.06902414  1
  Cl  Cl18  1  0.15346034  0.53979289  0.56902414  1
  Cl  Cl19  1  0.34653966  0.96020711  0.06902414  1
  Cl  Cl20  1  0.84653966  0.46020711  0.43097586  1
  Cl  Cl21  1  0.65346034  0.03979289  0.93097586  1
  Cl  Cl22  1  0.84653966  0.03979289  0.43097586  1
  Cl  Cl23  1  0.15346034  0.96020711  0.56902414  1
  Cl  Cl24  1  0.89122666  0.75000000  0.98802611  1
  Cl  Cl25  1  0.10877334  0.25000000  0.01197389  1
  Cl  Cl26  1  0.39122666  0.25000000  0.51197389  1
  Cl  Cl27  1  0.60877334  0.75000000  0.48802611  1
  Cl  Cl28  1  0.84924022  0.75000000  0.68846542  1
  Cl  Cl29  1  0.15075978  0.25000000  0.31153458  1
  Cl  Cl30  1  0.34924022  0.25000000  0.81153458  1
  Cl  Cl31  1  0.65075978  0.75000000  0.18846542  1
