# generated using pymatgen
data_CoAg(PO3)3
_symmetry_space_group_name_H-M   'P 1'
_cell_length_a   10.11226999
_cell_length_b   10.91008788
_cell_length_c   14.14223676
_cell_angle_alpha   90.00000000
_cell_angle_beta   90.00000000
_cell_angle_gamma   90.00000000
_symmetry_Int_Tables_number   1
_chemical_formula_structural   CoAg(PO3)3
_chemical_formula_sum   'Co8 Ag8 P24 O72'
_cell_volume   1560.25293743
_cell_formula_units_Z   8
loop_
 _symmetry_equiv_pos_site_id
 _symmetry_equiv_pos_as_xyz
  1  'x, y, z'
loop_
 _atom_site_type_symbol
 _atom_site_label
 _atom_site_symmetry_multiplicity
 _atom_site_fract_x
 _atom_site_fract_y
 _atom_site_fract_z
 _atom_site_occupancy
  Co  Co0  1  0.53212504  0.50000000  0.75000000  1
  Co  Co1  1  0.46787496  0.50000000  0.25000000  1
  Co  Co2  1  0.96787496  0.50000000  0.25000000  1
  Co  Co3  1  0.03212504  0.50000000  0.75000000  1
  Co  Co4  1  -0.00000000  -0.00000000  0.00000000  1
  Co  Co5  1  -0.00000000  -0.00000000  0.50000000  1
  Co  Co6  1  0.50000000  -0.00000000  0.00000000  1
  Co  Co7  1  0.50000000  -0.00000000  0.50000000  1
  Ag  Ag8  1  0.97584938  0.75150056  0.62313645  1
  Ag  Ag9  1  0.02415062  0.24849944  0.37686355  1
  Ag  Ag10  1  0.97584938  0.24849944  0.87686355  1
  Ag  Ag11  1  0.52415062  0.75150056  0.37686355  1
  Ag  Ag12  1  0.02415062  0.75150056  0.12313645  1
  Ag  Ag13  1  0.47584938  0.24849944  0.62313645  1
  Ag  Ag14  1  0.52415062  0.24849944  0.12313645  1
  Ag  Ag15  1  0.47584938  0.75150056  0.87686355  1
  P  P16  1  0.78586084  0.53052267  0.89894280  1
  P  P17  1  0.21413916  0.46947733  0.10105720  1
  P  P18  1  0.78586084  0.46947733  0.60105720  1
  P  P19  1  0.71413916  0.53052267  0.10105720  1
  P  P20  1  0.21413916  0.53052267  0.39894280  1
  P  P21  1  0.28586084  0.46947733  0.89894280  1
  P  P22  1  0.71413916  0.46947733  0.39894280  1
  P  P23  1  0.28586084  0.53052267  0.60105720  1
  P  P24  1  0.76201362  0.95395588  0.85125481  1
  P  P25  1  0.23798638  0.04604412  0.14874519  1
  P  P26  1  0.76201362  0.04604412  0.64874519  1
  P  P27  1  0.73798638  0.95395588  0.14874519  1
  P  P28  1  0.23798638  0.95395588  0.35125481  1
  P  P29  1  0.26201362  0.04604412  0.85125481  1
  P  P30  1  0.73798638  0.04604412  0.35125481  1
  P  P31  1  0.26201362  0.95395588  0.64874519  1
  P  P32  1  0.95075427  0.74920504  0.87341923  1
  P  P33  1  0.04924573  0.25079496  0.12658077  1
  P  P34  1  0.95075427  0.25079496  0.62658077  1
  P  P35  1  0.54924573  0.74920504  0.12658077  1
  P  P36  1  0.04924573  0.74920504  0.37341923  1
  P  P37  1  0.45075427  0.25079496  0.87341923  1
  P  P38  1  0.54924573  0.25079496  0.37341923  1
  P  P39  1  0.45075427  0.74920504  0.62658077  1
  O  O40  1  0.66156944  0.56803983  0.84952925  1
  O  O41  1  0.33843056  0.43196017  0.15047075  1
  O  O42  1  0.66156944  0.43196017  0.65047075  1
  O  O43  1  0.83843056  0.56803983  0.15047075  1
  O  O44  1  0.33843056  0.56803983  0.34952925  1
  O  O45  1  0.16156944  0.43196017  0.84952925  1
  O  O46  1  0.83843056  0.43196017  0.34952925  1
  O  O47  1  0.16156944  0.56803983  0.65047075  1
  O  O48  1  0.97519287  0.82522959  0.44445418  1
  O  O49  1  0.02480713  0.17477041  0.55554582  1
  O  O50  1  0.97519287  0.17477041  0.05554582  1
  O  O51  1  0.52480713  0.82522959  0.55554582  1
  O  O52  1  0.02480713  0.82522959  0.94445418  1
  O  O53  1  0.47519287  0.17477041  0.44445418  1
  O  O54  1  0.52480713  0.17477041  0.94445418  1
  O  O55  1  0.47519287  0.82522959  0.05554582  1
  O  O56  1  0.75000000  0.47068572  0.00000000  1
  O  O57  1  0.25000000  0.52931428  0.00000000  1
  O  O58  1  0.75000000  0.52931428  0.50000000  1
  O  O59  1  0.25000000  0.47068572  0.50000000  1
  O  O60  1  0.85884564  0.95608187  0.60681475  1
  O  O61  1  0.14115436  0.04391813  0.39318525  1
  O  O62  1  0.85884564  0.04391813  0.89318525  1
  O  O63  1  0.64115436  0.95608187  0.39318525  1
  O  O64  1  0.14115436  0.95608187  0.10681475  1
  O  O65  1  0.35884564  0.04391813  0.60681475  1
  O  O66  1  0.64115436  0.04391813  0.10681475  1
  O  O67  1  0.35884564  0.95608187  0.89318525  1
  O  O68  1  0.86387648  0.65240272  0.93370191  1
  O  O69  1  0.13612352  0.34759728  0.06629809  1
  O  O70  1  0.86387648  0.34759728  0.56629809  1
  O  O71  1  0.63612352  0.65240272  0.06629809  1
  O  O72  1  0.13612352  0.65240272  0.43370191  1
  O  O73  1  0.36387648  0.34759728  0.93370191  1
  O  O74  1  0.63612352  0.34759728  0.43370191  1
  O  O75  1  0.36387648  0.65240272  0.56629809  1
  O  O76  1  0.64175868  0.91715312  0.90712838  1
  O  O77  1  0.35824132  0.08284688  0.09287162  1
  O  O78  1  0.64175868  0.08284688  0.59287162  1
  O  O79  1  0.85824132  0.91715312  0.09287162  1
  O  O80  1  0.35824132  0.91715312  0.40712838  1
  O  O81  1  0.14175868  0.08284688  0.90712838  1
  O  O82  1  0.85824132  0.08284688  0.40712838  1
  O  O83  1  0.14175868  0.91715312  0.59287162  1
  O  O84  1  0.88091134  0.55518867  0.65037572  1
  O  O85  1  0.11908866  0.44481133  0.34962428  1
  O  O86  1  0.88091134  0.44481133  0.84962428  1
  O  O87  1  0.61908866  0.55518867  0.34962428  1
  O  O88  1  0.11908866  0.55518867  0.15037572  1
  O  O89  1  0.38091134  0.44481133  0.65037572  1
  O  O90  1  0.61908866  0.44481133  0.15037572  1
  O  O91  1  0.38091134  0.55518867  0.84962428  1
  O  O92  1  0.84035604  0.83085132  0.81938659  1
  O  O93  1  0.15964396  0.16914868  0.18061341  1
  O  O94  1  0.84035604  0.16914868  0.68061341  1
  O  O95  1  0.65964396  0.83085132  0.18061341  1
  O  O96  1  0.15964396  0.83085132  0.31938659  1
  O  O97  1  0.34035604  0.16914868  0.81938659  1
  O  O98  1  0.65964396  0.16914868  0.31938659  1
  O  O99  1  0.34035604  0.83085132  0.68061341  1
  O  O100  1  0.70901367  -0.00000000  0.75000000  1
  O  O101  1  0.29098633  -0.00000000  0.25000000  1
  O  O102  1  0.79098633  -0.00000000  0.25000000  1
  O  O103  1  0.20901367  -0.00000000  0.75000000  1
  O  O104  1  0.52612377  0.68289033  0.70213423  1
  O  O105  1  0.47387623  0.31710967  0.29786577  1
  O  O106  1  0.52612377  0.31710967  0.79786577  1
  O  O107  1  0.97387623  0.68289033  0.29786577  1
  O  O108  1  0.47387623  0.68289033  0.20213423  1
  O  O109  1  0.02612377  0.31710967  0.70213423  1
  O  O110  1  0.97387623  0.31710967  0.20213423  1
  O  O111  1  0.02612377  0.68289033  0.79786577  1
