# generated using pymatgen
data_Li2Cu(Si2O5)2
_symmetry_space_group_name_H-M   'P 1'
_cell_length_a   10.93994876
_cell_length_b   7.77876406
_cell_length_c   10.78186130
_cell_angle_alpha   90.00000000
_cell_angle_beta   111.56516655
_cell_angle_gamma   90.00000000
_symmetry_Int_Tables_number   1
_chemical_formula_structural   Li2Cu(Si2O5)2
_chemical_formula_sum   'Li8 Cu4 Si16 O40'
_cell_volume   853.30174010
_cell_formula_units_Z   4
loop_
 _symmetry_equiv_pos_site_id
 _symmetry_equiv_pos_as_xyz
  1  'x, y, z'
loop_
 _atom_site_type_symbol
 _atom_site_label
 _atom_site_symmetry_multiplicity
 _atom_site_fract_x
 _atom_site_fract_y
 _atom_site_fract_z
 _atom_site_occupancy
  Li  Li0  1  0.09759690  0.25000000  0.38170100  1
  Li  Li1  1  0.99250803  0.25000000  0.08011667  1
  Li  Li2  1  0.37160160  0.25000000  0.87442288  1
  Li  Li3  1  0.43310222  0.25000000  0.52368355  1
  Li  Li4  1  0.56689678  0.75000000  0.47631645  1
  Li  Li5  1  0.62839840  0.75000000  0.12557712  1
  Li  Li6  1  0.00749197  0.75000000  0.91988333  1
  Li  Li7  1  0.90240310  0.75000000  0.61829900  1
  Cu  Cu8  1  0.21694753  -0.00009586  0.27665671  1
  Cu  Cu9  1  0.21694753  0.50009586  0.27665671  1
  Cu  Cu10  1  0.78305247  0.49990414  0.72334329  1
  Cu  Cu11  1  0.78305247  0.00009586  0.72334329  1
  Si  Si12  1  0.07663157  0.05413234  0.73684538  1
  Si  Si13  1  0.07663157  0.44586766  0.73684538  1
  Si  Si14  1  0.24995506  0.95118497  0.58253041  1
  Si  Si15  1  0.24995506  0.54881503  0.58253041  1
  Si  Si16  1  0.25378212  0.56243256  0.99608341  1
  Si  Si17  1  0.25378212  0.93756744  0.99608341  1
  Si  Si18  1  0.52737500  0.95681368  0.77296351  1
  Si  Si19  1  0.52737500  0.54318632  0.77296351  1
  Si  Si20  1  0.47262500  0.04318632  0.22703649  1
  Si  Si21  1  0.47262500  0.45681368  0.22703649  1
  Si  Si22  1  0.74621788  0.06243256  0.00391659  1
  Si  Si23  1  0.74621788  0.43756744  0.00391659  1
  Si  Si24  1  0.75004494  0.04881503  0.41746959  1
  Si  Si25  1  0.75004494  0.45118497  0.41746959  1
  Si  Si26  1  0.92336843  0.55413234  0.26315462  1
  Si  Si27  1  0.92336843  0.94586766  0.26315462  1
  O  O28  1  0.02526748  0.25000000  0.68662370  1
  O  O29  1  0.21326315  0.07739571  0.87149210  1
  O  O30  1  0.21326315  0.42260429  0.87149210  1
  O  O31  1  0.22527756  0.75000000  0.91942125  1
  O  O32  1  0.11803121  0.53750892  0.62032138  1
  O  O33  1  0.11803121  0.96249108  0.62032138  1
  O  O34  1  0.03001118  0.06420261  0.23380160  1
  O  O35  1  0.03001118  0.43579739  0.23380160  1
  O  O36  1  0.27721060  0.75000000  0.55518611  1
  O  O37  1  0.24460374  0.07229125  0.46039063  1
  O  O38  1  0.24460374  0.42770875  0.46039063  1
  O  O39  1  0.16861101  0.53972742  0.08784250  1
  O  O40  1  0.16861101  0.96027258  0.08784250  1
  O  O41  1  0.37211283  0.48108555  0.71840361  1
  O  O42  1  0.37211283  0.01891445  0.71840361  1
  O  O43  1  0.54024352  0.75000000  0.80406421  1
  O  O44  1  0.58620547  0.04647406  0.92274245  1
  O  O45  1  0.58620547  0.45352594  0.92274245  1
  O  O46  1  0.40726211  0.97902510  0.32993959  1
  O  O47  1  0.40726211  0.52097490  0.32993959  1
  O  O48  1  0.59273789  0.47902510  0.67006041  1
  O  O49  1  0.59273789  0.02097490  0.67006041  1
  O  O50  1  0.41379453  0.54647406  0.07725755  1
  O  O51  1  0.41379453  0.95352594  0.07725755  1
  O  O52  1  0.45975648  0.25000000  0.19593579  1
  O  O53  1  0.62788717  0.51891445  0.28159639  1
  O  O54  1  0.62788717  0.98108555  0.28159639  1
  O  O55  1  0.83138899  0.03972742  0.91215750  1
  O  O56  1  0.83138899  0.46027258  0.91215750  1
  O  O57  1  0.75539626  0.57229125  0.53960937  1
  O  O58  1  0.75539626  0.92770875  0.53960937  1
  O  O59  1  0.72278940  0.25000000  0.44481389  1
  O  O60  1  0.96998882  0.56420261  0.76619840  1
  O  O61  1  0.96998882  0.93579739  0.76619840  1
  O  O62  1  0.88196879  0.03750892  0.37967862  1
  O  O63  1  0.88196879  0.46249108  0.37967862  1
  O  O64  1  0.77472244  0.25000000  0.08057875  1
  O  O65  1  0.78673685  0.57739571  0.12850790  1
  O  O66  1  0.78673685  0.92260429  0.12850790  1
  O  O67  1  0.97473252  0.75000000  0.31337630  1
