# generated using pymatgen
data_CaZnPd
_symmetry_space_group_name_H-M   'P 1'
_cell_length_a   4.49067511
_cell_length_b   7.16368801
_cell_length_c   7.69619771
_cell_angle_alpha   90.00000000
_cell_angle_beta   90.00000000
_cell_angle_gamma   90.00000000
_symmetry_Int_Tables_number   1
_chemical_formula_structural   CaZnPd
_chemical_formula_sum   'Ca4 Zn4 Pd4'
_cell_volume   247.58510601
_cell_formula_units_Z   4
loop_
 _symmetry_equiv_pos_site_id
 _symmetry_equiv_pos_as_xyz
  1  'x, y, z'
loop_
 _atom_site_type_symbol
 _atom_site_label
 _atom_site_symmetry_multiplicity
 _atom_site_fract_x
 _atom_site_fract_y
 _atom_site_fract_z
 _atom_site_occupancy
  Ca  Ca0  1  0.75000000  0.98850720  0.30735197  1
  Ca  Ca1  1  0.25000000  0.01149280  0.69264803  1
  Ca  Ca2  1  0.25000000  0.51149280  0.80735197  1
  Ca  Ca3  1  0.75000000  0.48850720  0.19264803  1
  Zn  Zn4  1  0.75000000  0.83418804  0.92397932  1
  Zn  Zn5  1  0.25000000  0.16581196  0.07602068  1
  Zn  Zn6  1  0.25000000  0.66581196  0.42397932  1
  Zn  Zn7  1  0.75000000  0.33418804  0.57602068  1
  Pd  Pd8  1  0.75000000  0.70740515  0.60214505  1
  Pd  Pd9  1  0.25000000  0.29259485  0.39785495  1
  Pd  Pd10  1  0.25000000  0.79259485  0.10214505  1
  Pd  Pd11  1  0.75000000  0.20740515  0.89785495  1
