# generated using pymatgen
data_CeZr2F11
_symmetry_space_group_name_H-M   'P 1'
_cell_length_a   7.90919979
_cell_length_b   8.54293042
_cell_length_c   8.54293042
_cell_angle_alpha   73.46464468
_cell_angle_beta   62.42501620
_cell_angle_gamma   62.42501620
_symmetry_Int_Tables_number   1
_chemical_formula_structural   CeZr2F11
_chemical_formula_sum   'Ce2 Zr4 F22'
_cell_volume   451.71550784
_cell_formula_units_Z   2
loop_
 _symmetry_equiv_pos_site_id
 _symmetry_equiv_pos_as_xyz
  1  'x, y, z'
loop_
 _atom_site_type_symbol
 _atom_site_label
 _atom_site_symmetry_multiplicity
 _atom_site_fract_x
 _atom_site_fract_y
 _atom_site_fract_z
 _atom_site_occupancy
  Ce  Ce0  1  0.25000000  0.25000000  0.25000000  1
  Ce  Ce1  1  0.75000000  0.75000000  0.75000000  1
  Zr  Zr2  1  0.86644500  0.81940497  0.18059503  1
  Zr  Zr3  1  0.13355500  0.18059503  0.81940497  1
  Zr  Zr4  1  0.63355500  0.31940497  0.68059503  1
  Zr  Zr5  1  0.36644500  0.68059503  0.31940497  1
  F  F6  1  0.60601643  0.05328228  0.20593085  1
  F  F7  1  0.39398357  0.94671772  0.79406915  1
  F  F8  1  0.13477044  0.20593085  0.05328228  1
  F  F9  1  0.89398357  0.29406915  0.44671772  1
  F  F10  1  0.86522956  0.79406915  0.94671772  1
  F  F11  1  0.10601643  0.70593085  0.55328228  1
  F  F12  1  0.36522956  0.44671772  0.29406915  1
  F  F13  1  0.63477044  0.55328228  0.70593085  1
  F  F14  1  0.00000000  -0.00000000  -0.00000000  1
  F  F15  1  0.50000000  0.50000000  0.50000000  1
  F  F16  1  0.62916980  0.72075419  0.27924581  1
  F  F17  1  0.37083020  0.27924581  0.72075419  1
  F  F18  1  0.87083020  0.22075419  0.77924581  1
  F  F19  1  0.12916980  0.77924581  0.22075419  1
  F  F20  1  0.76221961  0.82120902  0.45134944  1
  F  F21  1  0.23778039  0.17879098  0.54865056  1
  F  F22  1  0.96522193  0.45134944  0.82120902  1
  F  F23  1  0.73778039  0.04865056  0.67879098  1
  F  F24  1  0.03477807  0.54865056  0.17879098  1
  F  F25  1  0.26221961  0.95134944  0.32120902  1
  F  F26  1  0.53477807  0.67879098  0.04865056  1
  F  F27  1  0.46522193  0.32120902  0.95134944  1
