# generated using pymatgen
data_Cs2Pr10Ru2I17
_symmetry_space_group_name_H-M   'P 1'
_cell_length_a   10.19011671
_cell_length_b   11.79736188
_cell_length_c   11.79736188
_cell_angle_alpha   107.41000632
_cell_angle_beta   93.69260474
_cell_angle_gamma   93.69260474
_symmetry_Int_Tables_number   1
_chemical_formula_structural   Cs2Pr10Ru2I17
_chemical_formula_sum   'Cs2 Pr10 Ru2 I17'
_cell_volume   1345.23184384
_cell_formula_units_Z   1
loop_
 _symmetry_equiv_pos_site_id
 _symmetry_equiv_pos_as_xyz
  1  'x, y, z'
loop_
 _atom_site_type_symbol
 _atom_site_label
 _atom_site_symmetry_multiplicity
 _atom_site_fract_x
 _atom_site_fract_y
 _atom_site_fract_z
 _atom_site_occupancy
  Cs  Cs0  1  0.00000000  0.67428339  0.32571661  1
  Cs  Cs1  1  0.00000000  0.32571661  0.67428339  1
  Pr  Pr2  1  0.57225244  0.71000347  0.00548504  1
  Pr  Pr3  1  0.42774756  0.28999653  0.99451496  1
  Pr  Pr4  1  0.42774756  0.99451496  0.28999653  1
  Pr  Pr5  1  0.57225244  0.00548504  0.71000347  1
  Pr  Pr6  1  0.44449639  0.67133938  0.67133938  1
  Pr  Pr7  1  0.55550361  0.32866062  0.32866062  1
  Pr  Pr8  1  0.31203790  0.93494076  0.93494076  1
  Pr  Pr9  1  0.68796210  0.06505924  0.06505924  1
  Pr  Pr10  1  0.81900105  0.79266602  0.79266602  1
  Pr  Pr11  1  0.18099895  0.20733398  0.20733398  1
  Ru  Ru12  1  0.56901659  0.85999814  0.85999814  1
  Ru  Ru13  1  0.43098341  0.14000186  0.14000186  1
  I  I14  1  0.85930753  0.61672137  0.94981876  1
  I  I15  1  0.14069247  0.38327863  0.05018124  1
  I  I16  1  0.14069247  0.05018124  0.38327863  1
  I  I17  1  0.85930753  0.94981876  0.61672137  1
  I  I18  1  0.57852411  0.52623640  0.18892552  1
  I  I19  1  0.42147589  0.47376360  0.81107448  1
  I  I20  1  0.42147589  0.81107448  0.47376360  1
  I  I21  1  0.57852411  0.18892552  0.52623640  1
  I  I22  1  0.71644636  0.56352117  0.56352117  1
  I  I23  1  0.28355364  0.43647883  0.43647883  1
  I  I24  1  0.72327310  0.24598829  0.89981076  1
  I  I25  1  0.27672690  0.75401171  0.10018924  1
  I  I26  1  0.27672690  0.10018924  0.75401171  1
  I  I27  1  0.72327310  0.89981076  0.24598829  1
  I  I28  1  0.86679491  0.28835648  0.28835648  1
  I  I29  1  0.13320509  0.71164352  0.71164352  1
  I  I30  1  0.00000000  0.00000000  -0.00000000  1
