# generated using pymatgen
data_Ce2CN3Cl
_symmetry_space_group_name_H-M   'P 1'
_cell_length_a   3.90498154
_cell_length_b   8.13882264
_cell_length_c   8.13882264
_cell_angle_alpha   109.09550702
_cell_angle_beta   90.00000000
_cell_angle_gamma   90.00000000
_symmetry_Int_Tables_number   1
_chemical_formula_structural   Ce2CN3Cl
_chemical_formula_sum   'Ce4 C2 N6 Cl2'
_cell_volume   244.43437150
_cell_formula_units_Z   2
loop_
 _symmetry_equiv_pos_site_id
 _symmetry_equiv_pos_as_xyz
  1  'x, y, z'
loop_
 _atom_site_type_symbol
 _atom_site_label
 _atom_site_symmetry_multiplicity
 _atom_site_fract_x
 _atom_site_fract_y
 _atom_site_fract_z
 _atom_site_occupancy
  Ce  Ce0  1  0.50000000  0.71266419  0.71266419  1
  Ce  Ce1  1  0.50000000  0.28733581  0.28733581  1
  Ce  Ce2  1  0.00000000  0.86519836  0.13480164  1
  Ce  Ce3  1  0.00000000  0.13480164  0.86519836  1
  C  C4  1  0.50000000  0.50000000  0.00000000  1
  C  C5  1  0.50000000  -0.00000000  0.50000000  1
  N  N6  1  0.50000000  0.65319889  0.00516812  1
  N  N7  1  0.50000000  0.34680111  0.99483188  1
  N  N8  1  0.50000000  0.99483188  0.34680111  1
  N  N9  1  0.50000000  0.00516812  0.65319889  1
  N  N10  1  -0.00000000  0.84353440  0.84353440  1
  N  N11  1  0.00000000  0.15646560  0.15646560  1
  Cl  Cl12  1  -0.00000000  0.62250788  0.37749212  1
  Cl  Cl13  1  0.00000000  0.37749212  0.62250788  1
