# generated using pymatgen
data_CeTlF5
_symmetry_space_group_name_H-M   'P 1'
_cell_length_a   8.42093381
_cell_length_b   8.25641131
_cell_length_c   13.93867733
_cell_angle_alpha   90.00000000
_cell_angle_beta   90.00000000
_cell_angle_gamma   102.98871982
_symmetry_Int_Tables_number   1
_chemical_formula_structural   CeTlF5
_chemical_formula_sum   'Ce8 Tl8 F40'
_cell_volume   944.31481249
_cell_formula_units_Z   8
loop_
 _symmetry_equiv_pos_site_id
 _symmetry_equiv_pos_as_xyz
  1  'x, y, z'
loop_
 _atom_site_type_symbol
 _atom_site_label
 _atom_site_symmetry_multiplicity
 _atom_site_fract_x
 _atom_site_fract_y
 _atom_site_fract_z
 _atom_site_occupancy
  Ce  Ce0  1  0.03862296  0.05527991  0.74631928  1
  Ce  Ce1  1  0.96137704  0.94472009  0.25368072  1
  Ce  Ce2  1  0.46137704  0.94472009  0.24631928  1
  Ce  Ce3  1  0.53862296  0.05527991  0.75368072  1
  Ce  Ce4  1  0.09651988  0.51713110  0.25538149  1
  Ce  Ce5  1  0.90348012  0.48286890  0.74461851  1
  Ce  Ce6  1  0.40348012  0.48286890  0.75538149  1
  Ce  Ce7  1  0.59651988  0.51713110  0.24461851  1
  Tl  Tl8  1  0.29745288  0.22413406  0.48269928  1
  Tl  Tl9  1  0.70254712  0.77586594  0.51730072  1
  Tl  Tl10  1  0.20254712  0.77586594  0.98269928  1
  Tl  Tl11  1  0.79745288  0.22413406  0.01730072  1
  Tl  Tl12  1  0.27997856  0.26965167  0.02294600  1
  Tl  Tl13  1  0.72002144  0.73034833  0.97705400  1
  Tl  Tl14  1  0.22002144  0.73034833  0.52294600  1
  Tl  Tl15  1  0.77997856  0.26965167  0.47705400  1
  F  F16  1  0.06534617  0.47908656  0.10114384  1
  F  F17  1  0.93465383  0.52091344  0.89885616  1
  F  F18  1  0.43465383  0.52091344  0.60114384  1
  F  F19  1  0.56534617  0.47908656  0.39885616  1
  F  F20  1  0.01870283  0.72660847  0.34876611  1
  F  F21  1  0.98129717  0.27339153  0.65123389  1
  F  F22  1  0.48129717  0.27339153  0.84876611  1
  F  F23  1  0.51870283  0.72660847  0.15123389  1
  F  F24  1  0.11141163  0.43350423  0.40411038  1
  F  F25  1  0.88858837  0.56649577  0.59588962  1
  F  F26  1  0.38858837  0.56649577  0.90411038  1
  F  F27  1  0.61141163  0.43350423  0.09588962  1
  F  F28  1  0.30913496  0.22035688  0.68649681  1
  F  F29  1  0.69086504  0.77964312  0.31350319  1
  F  F30  1  0.19086504  0.77964312  0.18649681  1
  F  F31  1  0.80913496  0.22035688  0.81350319  1
  F  F32  1  0.02830637  0.23084178  0.23923417  1
  F  F33  1  0.97169363  0.76915822  0.76076583  1
  F  F34  1  0.47169363  0.76915822  0.73923417  1
  F  F35  1  0.52830637  0.23084178  0.26076583  1
  F  F36  1  0.35505638  0.68079594  0.31954451  1
  F  F37  1  0.64494362  0.31920406  0.68045549  1
  F  F38  1  0.14494362  0.31920406  0.81954451  1
  F  F39  1  0.85505638  0.68079594  0.18045549  1
  F  F40  1  0.48577435  0.01329533  0.60280987  1
  F  F41  1  0.51422565  0.98670467  0.39719013  1
  F  F42  1  0.01422565  0.98670467  0.10280987  1
  F  F43  1  0.98577435  0.01329533  0.89719013  1
  F  F44  1  0.42209510  0.02924078  0.10248786  1
  F  F45  1  0.57790490  0.97075922  0.89751214  1
  F  F46  1  0.07790490  0.97075922  0.60248786  1
  F  F47  1  0.92209510  0.02924078  0.39751214  1
  F  F48  1  0.32394258  0.42125824  0.21017595  1
  F  F49  1  0.67605742  0.57874176  0.78982405  1
  F  F50  1  0.17605742  0.57874176  0.71017595  1
  F  F51  1  0.82394258  0.42125824  0.28982405  1
  F  F52  1  0.23102217  0.03056716  0.30170631  1
  F  F53  1  0.76897783  0.96943284  0.69829369  1
  F  F54  1  0.26897783  0.96943284  0.80170631  1
  F  F55  1  0.73102217  0.03056716  0.19829369  1
