# generated using pymatgen
data_Ca4YB3O10
_symmetry_space_group_name_H-M   'P 1'
_cell_length_a   3.56470301
_cell_length_b   8.13858965
_cell_length_c   9.02682859
_cell_angle_alpha   63.20497742
_cell_angle_beta   84.96786622
_cell_angle_gamma   78.78010079
_symmetry_Int_Tables_number   1
_chemical_formula_structural   Ca4YB3O10
_chemical_formula_sum   'Ca4 Y1 B3 O10'
_cell_volume   229.29574716
_cell_formula_units_Z   1
loop_
 _symmetry_equiv_pos_site_id
 _symmetry_equiv_pos_as_xyz
  1  'x, y, z'
loop_
 _atom_site_type_symbol
 _atom_site_label
 _atom_site_symmetry_multiplicity
 _atom_site_fract_x
 _atom_site_fract_y
 _atom_site_fract_z
 _atom_site_occupancy
  Ca  Ca0  1  0.72252836  0.67350689  0.77467444  1
  Ca  Ca1  1  0.72252836  0.44818133  0.22532556  1
  Ca  Ca2  1  0.05112757  0.12097104  0.63611285  1
  Ca  Ca3  1  0.05112757  0.75708389  0.36388715  1
  Y  Y4  1  0.39456139  0.20110898  0.00000000  1
  B  B5  1  0.09529015  0.82852435  1.00000000  1
  B  B6  1  0.47656396  0.05837233  0.38843026  1
  B  B7  1  0.47656396  0.44680259  0.61156974  1
  O  O8  1  0.47395595  0.97376082  0.28427350  1
  O  O9  1  0.47395595  0.25803432  0.71572650  1
  O  O10  1  0.81557130  0.37196252  0.00000000  1
  O  O11  1  0.14312095  0.81632372  0.85094506  1
  O  O12  1  0.14312095  0.66726878  0.14905494  1
  O  O13  1  0.00038009  0.00256915  1.00000000  1
  O  O14  1  0.67100013  0.96532540  0.53793835  1
  O  O15  1  0.67100013  0.50326376  0.46206165  1
  O  O16  1  0.27925162  0.23846004  0.34352005  1
  O  O17  1  0.27925162  0.58198009  0.65647995  1
