# generated using pymatgen
data_BaSi12Pt5
_symmetry_space_group_name_H-M   'P 1'
_cell_length_a   6.16574605
_cell_length_b   6.19029807
_cell_length_c   16.67783779
_cell_angle_alpha   79.30478680
_cell_angle_beta   90.01661609
_cell_angle_gamma   90.08953382
_symmetry_Int_Tables_number   1
_chemical_formula_structural   BaSi12Pt5
_chemical_formula_sum   'Ba2 Si24 Pt10'
_cell_volume   625.49764670
_cell_formula_units_Z   2
loop_
 _symmetry_equiv_pos_site_id
 _symmetry_equiv_pos_as_xyz
  1  'x, y, z'
loop_
 _atom_site_type_symbol
 _atom_site_label
 _atom_site_symmetry_multiplicity
 _atom_site_fract_x
 _atom_site_fract_y
 _atom_site_fract_z
 _atom_site_occupancy
  Ba  Ba0  1  0.00000000  0.87551061  0.24897878  1
  Ba  Ba1  1  -0.00000000  0.12448939  0.75102122  1
  Si  Si2  1  0.74924717  0.70878337  0.07993941  1
  Si  Si3  1  0.25075283  0.29121663  0.92006059  1
  Si  Si4  1  0.25075283  0.21127722  0.07993941  1
  Si  Si5  1  0.74924717  0.78872278  0.92006059  1
  Si  Si6  1  0.49937777  0.64294596  0.27594359  1
  Si  Si7  1  0.50062223  0.35705404  0.72405641  1
  Si  Si8  1  0.50062223  0.08111045  0.27594359  1
  Si  Si9  1  0.49937777  0.91888955  0.72405641  1
  Si  Si10  1  0.78127762  0.63637179  0.72304674  1
  Si  Si11  1  0.21872238  0.36362821  0.27695326  1
  Si  Si12  1  0.21872238  0.64058147  0.72304674  1
  Si  Si13  1  0.78127762  0.35941853  0.27695326  1
  Si  Si14  1  0.86574174  0.35774395  0.55877267  1
  Si  Si15  1  0.13425826  0.64225605  0.44122733  1
  Si  Si16  1  0.13425826  0.08348338  0.55877267  1
  Si  Si17  1  0.86574174  0.91651662  0.44122733  1
  Si  Si18  1  0.63089765  0.42104838  0.43443866  1
  Si  Si19  1  0.36910235  0.57895162  0.56556134  1
  Si  Si20  1  0.36910235  0.14451296  0.43443866  1
  Si  Si21  1  0.63089765  0.85548704  0.56556134  1
  Si  Si22  1  0.74891793  0.29162859  0.91997576  1
  Si  Si23  1  0.25108207  0.70837141  0.08002424  1
  Si  Si24  1  0.25108207  0.78839565  0.91997576  1
  Si  Si25  1  0.74891793  0.21160435  0.08002424  1
  Pt  Pt26  1  0.00000000  0.57566657  0.84866687  1
  Pt  Pt27  1  1.00000000  0.42433343  0.15133313  1
  Pt  Pt28  1  0.00000000  0.00000000  0.00000000  1
  Pt  Pt29  1  0.50000000  0.92466835  0.15066329  1
  Pt  Pt30  1  0.50000000  0.07533165  0.84933671  1
  Pt  Pt31  1  0.00000000  0.70368274  0.59263453  1
  Pt  Pt32  1  -0.00000000  0.29631726  0.40736547  1
  Pt  Pt33  1  0.50000000  0.79769831  0.40460338  1
  Pt  Pt34  1  0.50000000  0.20230169  0.59539662  1
  Pt  Pt35  1  0.50000000  0.50000000  0.00000000  1
