# generated using pymatgen
data_Co3(OF2)2
_symmetry_space_group_name_H-M   'P 1'
_cell_length_a   4.65210523
_cell_length_b   7.81991547
_cell_length_c   5.60830914
_cell_angle_alpha   92.53352646
_cell_angle_beta   90.15121904
_cell_angle_gamma   90.00180634
_symmetry_Int_Tables_number   1
_chemical_formula_structural   Co3(OF2)2
_chemical_formula_sum   'Co6 O4 F8'
_cell_volume   203.82492752
_cell_formula_units_Z   2
loop_
 _symmetry_equiv_pos_site_id
 _symmetry_equiv_pos_as_xyz
  1  'x, y, z'
loop_
 _atom_site_type_symbol
 _atom_site_label
 _atom_site_symmetry_multiplicity
 _atom_site_fract_x
 _atom_site_fract_y
 _atom_site_fract_z
 _atom_site_occupancy
  Co  Co0  1  0.45348989  0.00978973  0.50909319  1
  Co  Co1  1  0.50000000  0.33333300  0.83333300  1
  Co  Co2  1  0.54651011  0.65687727  0.15757281  1
  Co  Co3  1  0.00372383  0.68221259  0.67341191  1
  Co  Co4  1  0.00000000  0.33333300  0.33333300  1
  Co  Co5  1  0.99627617  0.98445441  0.99325409  1
  O  O6  1  0.79911793  0.76070105  0.97036082  1
  O  O7  1  0.71072790  0.42514407  0.13752944  1
  O  O8  1  0.28927210  0.24152293  0.52913656  1
  O  O9  1  0.20088207  0.90596495  0.69630518  1
  F  F10  1  0.80349242  0.44389337  0.63200736  1
  F  F11  1  0.78672111  0.09224236  0.30538847  1
  F  F12  1  0.69092090  0.77107276  0.46425490  1
  F  F13  1  0.69580137  0.10271707  0.79074773  1
  F  F14  1  0.30419863  0.56394893  0.87591827  1
  F  F15  1  0.30907910  0.89559424  0.20241210  1
  F  F16  1  0.19650758  0.22277263  0.03465964  1
  F  F17  1  0.21327889  0.57442364  0.36127853  1
