# generated using pymatgen
data_BaNpO4
_symmetry_space_group_name_H-M   'P 1'
_cell_length_a   5.84065034
_cell_length_b   8.16371292
_cell_length_c   8.26315126
_cell_angle_alpha   90.00000000
_cell_angle_beta   90.00000000
_cell_angle_gamma   90.00000000
_symmetry_Int_Tables_number   1
_chemical_formula_structural   BaNpO4
_chemical_formula_sum   'Ba4 Np4 O16'
_cell_volume   393.99855969
_cell_formula_units_Z   4
loop_
 _symmetry_equiv_pos_site_id
 _symmetry_equiv_pos_as_xyz
  1  'x, y, z'
loop_
 _atom_site_type_symbol
 _atom_site_label
 _atom_site_symmetry_multiplicity
 _atom_site_fract_x
 _atom_site_fract_y
 _atom_site_fract_z
 _atom_site_occupancy
  Ba  Ba0  1  0.47781314  0.19756927  0.25000000  1
  Ba  Ba1  1  0.52218686  0.80243073  0.75000000  1
  Ba  Ba2  1  0.52218686  0.69756927  0.25000000  1
  Ba  Ba3  1  0.47781314  0.30243073  0.75000000  1
  Np  Np4  1  0.00000000  -0.00000000  -0.00000000  1
  Np  Np5  1  0.00000000  -0.00000000  0.50000000  1
  Np  Np6  1  0.00000000  0.50000000  0.50000000  1
  Np  Np7  1  0.00000000  0.50000000  -0.00000000  1
  O  O8  1  0.11867754  0.52498124  0.25000000  1
  O  O9  1  0.88132246  0.47501876  0.75000000  1
  O  O10  1  0.88132246  0.02498124  0.25000000  1
  O  O11  1  0.11867754  0.97501876  0.75000000  1
  O  O12  1  0.70635011  0.42553423  0.06916610  1
  O  O13  1  0.29364989  0.57446577  0.93083390  1
  O  O14  1  0.29364989  0.57446577  0.56916610  1
  O  O15  1  0.29364989  0.92553423  0.43083390  1
  O  O16  1  0.70635011  0.42553423  0.43083390  1
  O  O17  1  0.70635011  0.07446577  0.56916610  1
  O  O18  1  0.70635011  0.07446577  0.93083390  1
  O  O19  1  0.29364989  0.92553423  0.06916610  1
  O  O20  1  0.14426104  0.25000000  -0.00000000  1
  O  O21  1  0.85573896  0.75000000  -0.00000000  1
  O  O22  1  0.85573896  0.75000000  0.50000000  1
  O  O23  1  0.14426104  0.25000000  0.50000000  1
