# generated using pymatgen
data_Ba6Nd2Ga4O15
_symmetry_space_group_name_H-M   'P 1'
_cell_length_a   6.11287565
_cell_length_b   8.15525498
_cell_length_c   18.85184563
_cell_angle_alpha   91.05405228
_cell_angle_beta   90.00000000
_cell_angle_gamma   90.00000000
_symmetry_Int_Tables_number   1
_chemical_formula_structural   Ba6Nd2Ga4O15
_chemical_formula_sum   'Ba12 Nd4 Ga8 O30'
_cell_volume   939.64430343
_cell_formula_units_Z   2
loop_
 _symmetry_equiv_pos_site_id
 _symmetry_equiv_pos_as_xyz
  1  'x, y, z'
loop_
 _atom_site_type_symbol
 _atom_site_label
 _atom_site_symmetry_multiplicity
 _atom_site_fract_x
 _atom_site_fract_y
 _atom_site_fract_z
 _atom_site_occupancy
  Ba  Ba0  1  0.75558680  0.49928986  0.41993908  1
  Ba  Ba1  1  0.24441320  0.50071014  0.58006092  1
  Ba  Ba2  1  0.75558680  0.50071014  0.08006092  1
  Ba  Ba3  1  0.24441320  0.49928986  0.91993908  1
  Ba  Ba4  1  0.74099369  0.96768217  0.40868967  1
  Ba  Ba5  1  0.25900631  0.03231783  0.59131033  1
  Ba  Ba6  1  0.74099369  0.03231783  0.09131033  1
  Ba  Ba7  1  0.25900631  0.96768217  0.90868967  1
  Ba  Ba8  1  0.72519592  0.00000000  0.75000000  1
  Ba  Ba9  1  0.27480408  0.00000000  0.25000000  1
  Ba  Ba10  1  0.66537103  0.50000000  0.75000000  1
  Ba  Ba11  1  0.33462897  0.50000000  0.25000000  1
  Nd  Nd12  1  0.74497606  0.75236102  0.59039076  1
  Nd  Nd13  1  0.25502394  0.24763898  0.40960924  1
  Nd  Nd14  1  0.74497606  0.24763898  0.90960924  1
  Nd  Nd15  1  0.25502394  0.75236102  0.09039076  1
  Ga  Ga16  1  0.75444202  0.75328666  0.93940817  1
  Ga  Ga17  1  0.24555798  0.24671334  0.06059183  1
  Ga  Ga18  1  0.75444202  0.24671334  0.56059183  1
  Ga  Ga19  1  0.24555798  0.75328666  0.43940817  1
  Ga  Ga20  1  0.77755860  0.77147017  0.23638100  1
  Ga  Ga21  1  0.22244140  0.22852983  0.76361900  1
  Ga  Ga22  1  0.77755860  0.22852983  0.26361900  1
  Ga  Ga23  1  0.22244140  0.77147017  0.73638100  1
  O  O24  1  0.21098481  0.00000000  0.75000000  1
  O  O25  1  0.78901519  0.00000000  0.25000000  1
  O  O26  1  0.49313115  0.76535982  0.49874174  1
  O  O27  1  0.50686885  0.23464018  0.50125826  1
  O  O28  1  0.49313115  0.23464018  0.00125826  1
  O  O29  1  0.50686885  0.76535982  0.99874174  1
  O  O30  1  0.76007168  0.94947045  0.88854981  1
  O  O31  1  0.23992832  0.05052955  0.11145019  1
  O  O32  1  0.76007168  0.05052955  0.61145019  1
  O  O33  1  0.23992832  0.94947045  0.38854981  1
  O  O34  1  0.99808223  0.76291126  0.49986875  1
  O  O35  1  0.00191777  0.23708874  0.50013125  1
  O  O36  1  0.99808223  0.23708874  0.00013125  1
  O  O37  1  0.00191777  0.76291126  0.99986875  1
  O  O38  1  0.32331406  0.69158075  0.82007797  1
  O  O39  1  0.67668594  0.30841925  0.17992203  1
  O  O40  1  0.32331406  0.30841925  0.67992203  1
  O  O41  1  0.67668594  0.69158075  0.32007797  1
  O  O42  1  0.43978934  0.74581187  0.66601270  1
  O  O43  1  0.56021066  0.25418813  0.33398730  1
  O  O44  1  0.43978934  0.25418813  0.83398730  1
  O  O45  1  0.56021066  0.74581187  0.16601270  1
  O  O46  1  0.95221927  0.72695220  0.69610729  1
  O  O47  1  0.04778073  0.27304780  0.30389271  1
  O  O48  1  0.95221927  0.27304780  0.80389271  1
  O  O49  1  0.04778073  0.72695220  0.19610729  1
  O  O50  1  0.75754345  0.53727693  0.90484468  1
  O  O51  1  0.24245655  0.46272307  0.09515532  1
  O  O52  1  0.75754345  0.46272307  0.59515532  1
  O  O53  1  0.24245655  0.53727693  0.40484468  1
