# generated using pymatgen
data_Ba6Dy2Ga4O15
_symmetry_space_group_name_H-M   'P 1'
_cell_length_a   6.03635878
_cell_length_b   8.04726187
_cell_length_c   18.64033574
_cell_angle_alpha   91.30758995
_cell_angle_beta   90.00000000
_cell_angle_gamma   90.00000000
_symmetry_Int_Tables_number   1
_chemical_formula_structural   Ba6Dy2Ga4O15
_chemical_formula_sum   'Ba12 Dy4 Ga8 O30'
_cell_volume   905.24013823
_cell_formula_units_Z   2
loop_
 _symmetry_equiv_pos_site_id
 _symmetry_equiv_pos_as_xyz
  1  'x, y, z'
loop_
 _atom_site_type_symbol
 _atom_site_label
 _atom_site_symmetry_multiplicity
 _atom_site_fract_x
 _atom_site_fract_y
 _atom_site_fract_z
 _atom_site_occupancy
  Ba  Ba0  1  0.75606341  0.49884252  0.42138332  1
  Ba  Ba1  1  0.24393659  0.50115748  0.57861668  1
  Ba  Ba2  1  0.75606341  0.50115748  0.07861668  1
  Ba  Ba3  1  0.24393659  0.49884252  0.92138332  1
  Ba  Ba4  1  0.74608559  0.97248464  0.40993225  1
  Ba  Ba5  1  0.25391441  0.02751536  0.59006775  1
  Ba  Ba6  1  0.74608559  0.02751536  0.09006775  1
  Ba  Ba7  1  0.25391441  0.97248464  0.90993225  1
  Ba  Ba8  1  0.72443785  -0.00000000  0.75000000  1
  Ba  Ba9  1  0.27556215  -0.00000000  0.25000000  1
  Ba  Ba10  1  0.66687559  0.50000000  0.75000000  1
  Ba  Ba11  1  0.33312441  0.50000000  0.25000000  1
  Dy  Dy12  1  0.74705564  0.75254937  0.58988255  1
  Dy  Dy13  1  0.25294436  0.24745063  0.41011745  1
  Dy  Dy14  1  0.74705564  0.24745063  0.91011745  1
  Dy  Dy15  1  0.25294436  0.75254937  0.08988255  1
  Ga  Ga16  1  0.74823970  0.75452180  0.94143863  1
  Ga  Ga17  1  0.25176030  0.24547820  0.05856137  1
  Ga  Ga18  1  0.74823970  0.24547820  0.55856137  1
  Ga  Ga19  1  0.25176030  0.75452180  0.44143863  1
  Ga  Ga20  1  0.77406716  0.77002429  0.23373041  1
  Ga  Ga21  1  0.22593284  0.22997571  0.76626959  1
  Ga  Ga22  1  0.77406716  0.22997571  0.26626959  1
  Ga  Ga23  1  0.22593284  0.77002429  0.73373041  1
  O  O24  1  0.20235557  -0.00000000  0.75000000  1
  O  O25  1  0.79764443  -0.00000000  0.25000000  1
  O  O26  1  0.50836927  0.76654906  0.49873397  1
  O  O27  1  0.49163073  0.23345094  0.50126603  1
  O  O28  1  0.50836927  0.23345094  0.00126603  1
  O  O29  1  0.49163073  0.76654906  0.99873397  1
  O  O30  1  0.76362292  0.95360224  0.89141740  1
  O  O31  1  0.23637708  0.04639776  0.10858260  1
  O  O32  1  0.76362292  0.04639776  0.60858260  1
  O  O33  1  0.23637708  0.95360224  0.39141740  1
  O  O34  1  0.00984094  0.76550994  0.50655015  1
  O  O35  1  0.99015906  0.23449006  0.49344985  1
  O  O36  1  0.00984094  0.23449006  0.99344985  1
  O  O37  1  0.99015906  0.76550994  0.00655015  1
  O  O38  1  0.32900658  0.68889321  0.81787534  1
  O  O39  1  0.67099342  0.31110679  0.18212466  1
  O  O40  1  0.32900658  0.31110679  0.68212466  1
  O  O41  1  0.67099342  0.68889321  0.31787534  1
  O  O42  1  0.45058473  0.74954123  0.66360447  1
  O  O43  1  0.54941527  0.25045877  0.33639553  1
  O  O44  1  0.45058473  0.25045877  0.83639553  1
  O  O45  1  0.54941527  0.74954123  0.16360447  1
  O  O46  1  0.95623890  0.72378433  0.69033289  1
  O  O47  1  0.04376110  0.27621567  0.30966711  1
  O  O48  1  0.95623890  0.27621567  0.80966711  1
  O  O49  1  0.04376110  0.72378433  0.19033289  1
  O  O50  1  0.75606593  0.53257098  0.90891154  1
  O  O51  1  0.24393407  0.46742902  0.09108846  1
  O  O52  1  0.75606593  0.46742902  0.59108846  1
  O  O53  1  0.24393407  0.53257098  0.40891154  1
