# generated using pymatgen
data_Ba6Tm2Al4O15
_symmetry_space_group_name_H-M   'P 1'
_cell_length_a   5.92925139
_cell_length_b   7.91434905
_cell_length_c   18.43934694
_cell_angle_alpha   91.55534851
_cell_angle_beta   90.00000000
_cell_angle_gamma   90.00000000
_symmetry_Int_Tables_number   1
_chemical_formula_structural   Ba6Tm2Al4O15
_chemical_formula_sum   'Ba12 Tm4 Al8 O30'
_cell_volume   864.96904240
_cell_formula_units_Z   2
loop_
 _symmetry_equiv_pos_site_id
 _symmetry_equiv_pos_as_xyz
  1  'x, y, z'
loop_
 _atom_site_type_symbol
 _atom_site_label
 _atom_site_symmetry_multiplicity
 _atom_site_fract_x
 _atom_site_fract_y
 _atom_site_fract_z
 _atom_site_occupancy
  Ba  Ba0  1  0.75685977  0.50135573  0.41913752  1
  Ba  Ba1  1  0.24314023  0.49864427  0.58086248  1
  Ba  Ba2  1  0.75685977  0.49864427  0.08086248  1
  Ba  Ba3  1  0.24314023  0.50135573  0.91913752  1
  Ba  Ba4  1  0.74639338  0.97095664  0.41093140  1
  Ba  Ba5  1  0.25360662  0.02904336  0.58906860  1
  Ba  Ba6  1  0.74639338  0.02904336  0.08906860  1
  Ba  Ba7  1  0.25360662  0.97095664  0.91093140  1
  Ba  Ba8  1  0.72121548  -0.00000000  0.75000000  1
  Ba  Ba9  1  0.27878452  -0.00000000  0.25000000  1
  Ba  Ba10  1  0.67243695  0.50000000  0.75000000  1
  Ba  Ba11  1  0.32756305  0.50000000  0.25000000  1
  Tm  Tm12  1  0.74375049  0.75119805  0.58981657  1
  Tm  Tm13  1  0.25624951  0.24880195  0.41018343  1
  Tm  Tm14  1  0.74375049  0.24880195  0.91018343  1
  Tm  Tm15  1  0.25624951  0.75119805  0.08981657  1
  Al  Al16  1  0.75274221  0.75283659  0.94469250  1
  Al  Al17  1  0.24725779  0.24716341  0.05530750  1
  Al  Al18  1  0.75274221  0.24716341  0.55530750  1
  Al  Al19  1  0.24725779  0.75283659  0.44469250  1
  Al  Al20  1  0.77270352  0.77912102  0.23166288  1
  Al  Al21  1  0.22729648  0.22087898  0.76833712  1
  Al  Al22  1  0.77270352  0.22087898  0.26833712  1
  Al  Al23  1  0.22729648  0.77912102  0.73166288  1
  O  O24  1  0.21086039  -0.00000000  0.75000000  1
  O  O25  1  0.78913961  -0.00000000  0.25000000  1
  O  O26  1  0.49232459  0.76294396  0.50184446  1
  O  O27  1  0.50767541  0.23705604  0.49815554  1
  O  O28  1  0.49232459  0.23705604  0.99815554  1
  O  O29  1  0.50767541  0.76294396  0.00184446  1
  O  O30  1  0.75719581  0.94709008  0.89567169  1
  O  O31  1  0.24280419  0.05290992  0.10432831  1
  O  O32  1  0.75719581  0.05290992  0.60432831  1
  O  O33  1  0.24280419  0.94709008  0.39567169  1
  O  O34  1  0.00310159  0.76177504  0.50373556  1
  O  O35  1  0.99689841  0.23822496  0.49626444  1
  O  O36  1  0.00310159  0.23822496  0.99626444  1
  O  O37  1  0.99689841  0.76177504  0.00373556  1
  O  O38  1  0.31317219  0.69143726  0.81332821  1
  O  O39  1  0.68682781  0.30856274  0.18667179  1
  O  O40  1  0.31317219  0.30856274  0.68667179  1
  O  O41  1  0.68682781  0.69143726  0.31332821  1
  O  O42  1  0.45142438  0.75271562  0.66655260  1
  O  O43  1  0.54857562  0.24728438  0.33344740  1
  O  O44  1  0.45142438  0.24728438  0.83344740  1
  O  O45  1  0.54857562  0.75271562  0.16655260  1
  O  O46  1  0.96772151  0.73258555  0.68751748  1
  O  O47  1  0.03227849  0.26741445  0.31248252  1
  O  O48  1  0.96772151  0.26741445  0.81248252  1
  O  O49  1  0.03227849  0.73258555  0.18751748  1
  O  O50  1  0.75379608  0.53888943  0.90841243  1
  O  O51  1  0.24620392  0.46111057  0.09158757  1
  O  O52  1  0.75379608  0.46111057  0.59158757  1
  O  O53  1  0.24620392  0.53888943  0.40841243  1
