# generated using pymatgen
data_Li7(CoO3)2
_symmetry_space_group_name_H-M   'P 1'
_cell_length_a   3.74096914
_cell_length_b   8.74802711
_cell_length_c   8.74802737
_cell_angle_alpha   89.98149615
_cell_angle_beta   90.00000000
_cell_angle_gamma   90.00000000
_symmetry_Int_Tables_number   1
_chemical_formula_structural   Li7(CoO3)2
_chemical_formula_sum   'Li14 Co4 O12'
_cell_volume   286.28879891
_cell_formula_units_Z   2
loop_
 _symmetry_equiv_pos_site_id
 _symmetry_equiv_pos_as_xyz
  1  'x, y, z'
loop_
 _atom_site_type_symbol
 _atom_site_label
 _atom_site_symmetry_multiplicity
 _atom_site_fract_x
 _atom_site_fract_y
 _atom_site_fract_z
 _atom_site_occupancy
  Li  Li0  1  0.75493479  0.50000300  0.99999800  1
  Li  Li1  1  0.46202258  0.67480683  0.11151121  1
  Li  Li2  1  0.00000000  0.84371721  0.15628279  1
  Li  Li3  1  0.04215037  0.38783585  0.17541529  1
  Li  Li4  1  0.49999800  0.34431872  0.34431672  1
  Li  Li5  1  0.53797742  0.88848879  0.32519317  1
  Li  Li6  1  0.95784963  0.17541529  0.38783585  1
  Li  Li7  1  0.24506221  0.00000100  0.49999600  1
  Li  Li8  1  0.95784963  0.82458471  0.61216415  1
  Li  Li9  1  0.53797742  0.11151121  0.67480683  1
  Li  Li10  1  0.49999800  0.65568328  0.65568128  1
  Li  Li11  1  0.04215037  0.61216415  0.82458471  1
  Li  Li12  1  0.00000000  0.15628279  0.84371721  1
  Li  Li13  1  0.46202258  0.32519317  0.88848879  1
  Co  Co14  1  0.00000000  0.61580475  0.38419525  1
  Co  Co15  1  0.00000000  0.38419525  0.61580475  1
  Co  Co16  1  0.50000000  0.11577786  0.11577786  1
  Co  Co17  1  0.50000000  0.88422214  0.88422214  1
  O  O18  1  0.50000000  0.89889284  0.10110716  1
  O  O19  1  0.52996622  0.33014190  0.11517120  1
  O  O20  1  0.97513791  0.61490888  0.16981618  1
  O  O21  1  0.47003378  0.11517120  0.33014190  1
  O  O22  1  0.02486209  0.83018382  0.38509112  1
  O  O23  1  0.00000000  0.39904487  0.39904487  1
  O  O24  1  0.00000000  0.60095513  0.60095513  1
  O  O25  1  0.02486209  0.16981618  0.61490888  1
  O  O26  1  0.47003378  0.88482880  0.66985810  1
  O  O27  1  0.97513791  0.38509112  0.83018382  1
  O  O28  1  0.52996622  0.66985810  0.88482880  1
  O  O29  1  0.50000000  0.10110716  0.89889284  1
