# generated using pymatgen
data_BaIBr
_symmetry_space_group_name_H-M   'P 1'
_cell_length_a   5.15096581
_cell_length_b   8.85333012
_cell_length_c   10.25150233
_cell_angle_alpha   90.00000000
_cell_angle_beta   90.00000000
_cell_angle_gamma   90.00000000
_symmetry_Int_Tables_number   1
_chemical_formula_structural   BaIBr
_chemical_formula_sum   'Ba4 I4 Br4'
_cell_volume   467.50131877
_cell_formula_units_Z   4
loop_
 _symmetry_equiv_pos_site_id
 _symmetry_equiv_pos_as_xyz
  1  'x, y, z'
loop_
 _atom_site_type_symbol
 _atom_site_label
 _atom_site_symmetry_multiplicity
 _atom_site_fract_x
 _atom_site_fract_y
 _atom_site_fract_z
 _atom_site_occupancy
  Ba  Ba0  1  0.75000000  0.77140203  0.87520213  1
  Ba  Ba1  1  0.25000000  0.22859797  0.12479787  1
  Ba  Ba2  1  0.25000000  0.72859797  0.37520213  1
  Ba  Ba3  1  0.75000000  0.27140203  0.62479787  1
  I  I4  1  0.75000000  0.02839161  0.33209489  1
  I  I5  1  0.25000000  0.97160839  0.66790511  1
  I  I6  1  0.25000000  0.47160839  0.83209489  1
  I  I7  1  0.75000000  0.52839161  0.16790511  1
  Br  Br8  1  0.75000000  0.64349884  0.56677828  1
  Br  Br9  1  0.25000000  0.35650116  0.43322172  1
  Br  Br10  1  0.25000000  0.85650116  0.06677828  1
  Br  Br11  1  0.75000000  0.14349884  0.93322172  1
