# generated using pymatgen
data_CaP2H5NO7
_symmetry_space_group_name_H-M   'P 1'
_cell_length_a   7.36006425
_cell_length_b   10.69147356
_cell_length_c   17.87997284
_cell_angle_alpha   90.00000000
_cell_angle_beta   90.00000000
_cell_angle_gamma   89.03404309
_symmetry_Int_Tables_number   1
_chemical_formula_structural   CaP2H5NO7
_chemical_formula_sum   'Ca8 P16 H40 N8 O56'
_cell_volume   1406.77390463
_cell_formula_units_Z   8
loop_
 _symmetry_equiv_pos_site_id
 _symmetry_equiv_pos_as_xyz
  1  'x, y, z'
loop_
 _atom_site_type_symbol
 _atom_site_label
 _atom_site_symmetry_multiplicity
 _atom_site_fract_x
 _atom_site_fract_y
 _atom_site_fract_z
 _atom_site_occupancy
  Ca  Ca0  1  0.02093269  0.84429266  0.72122054  1
  Ca  Ca1  1  0.97906731  0.15570734  0.27877946  1
  Ca  Ca2  1  0.47906731  0.65570734  0.22122054  1
  Ca  Ca3  1  0.52093269  0.34429266  0.77877946  1
  Ca  Ca4  1  0.51915097  0.76571854  0.75416815  1
  Ca  Ca5  1  0.48084903  0.23428146  0.24583185  1
  Ca  Ca6  1  0.98084903  0.73428146  0.25416815  1
  Ca  Ca7  1  0.01915097  0.26571854  0.74583185  1
  P  P8  1  0.78911813  0.91528858  0.89234587  1
  P  P9  1  0.21088187  0.08471142  0.10765413  1
  P  P10  1  0.71088187  0.58471142  0.39234587  1
  P  P11  1  0.28911813  0.41528858  0.60765413  1
  P  P12  1  0.28612765  0.69781647  0.58319327  1
  P  P13  1  0.71387235  0.30218353  0.41680673  1
  P  P14  1  0.21387235  0.80218353  0.08319327  1
  P  P15  1  0.78612765  0.19781647  0.91680673  1
  P  P16  1  0.70333950  0.93944436  0.28736356  1
  P  P17  1  0.29666050  0.06055564  0.71263644  1
  P  P18  1  0.79666050  0.56055564  0.78736356  1
  P  P19  1  0.20333950  0.43944436  0.21263644  1
  P  P20  1  0.17384625  0.56689575  0.83629751  1
  P  P21  1  0.82615375  0.43310425  0.16370249  1
  P  P22  1  0.32615375  0.93310425  0.33629751  1
  P  P23  1  0.67384625  0.06689575  0.66370249  1
  H  H24  1  0.39961852  0.95187020  0.89954787  1
  H  H25  1  0.60038148  0.04812980  0.10045213  1
  H  H26  1  0.10038148  0.54812980  0.39954787  1
  H  H27  1  0.89961852  0.45187020  0.60045213  1
  H  H28  1  0.88821404  0.89169508  0.43366757  1
  H  H29  1  0.11178596  0.10830492  0.56633243  1
  H  H30  1  0.61178596  0.60830492  0.93366757  1
  H  H31  1  0.38821404  0.39169508  0.06633243  1
  H  H32  1  0.20157448  0.66205500  0.94631257  1
  H  H33  1  0.79842552  0.33794500  0.05368743  1
  H  H34  1  0.29842552  0.83794500  0.44631257  1
  H  H35  1  0.70157448  0.16205500  0.55368743  1
  H  H36  1  0.72670254  0.71590550  0.98314374  1
  H  H37  1  0.27329746  0.28409450  0.01685626  1
  H  H38  1  0.77329746  0.78409450  0.48314374  1
  H  H39  1  0.22670254  0.21590550  0.51685626  1
  H  H40  1  0.02022732  0.82266988  0.98500155  1
  H  H41  1  0.97977268  0.17733012  0.01499845  1
  H  H42  1  0.47977268  0.67733012  0.48500155  1
  H  H43  1  0.52022732  0.32266988  0.51499845  1
  H  H44  1  0.97299667  0.83404287  0.51810881  1
  H  H45  1  0.02700333  0.16595713  0.48189119  1
  H  H46  1  0.52700333  0.66595713  0.01810881  1
  H  H47  1  0.47299667  0.33404287  0.98189119  1
  H  H48  1  0.32488958  0.52623434  0.37936088  1
  H  H49  1  0.67511042  0.47376566  0.62063912  1
  H  H50  1  0.17511042  0.97376566  0.87936088  1
  H  H51  1  0.82488958  0.02623434  0.12063912  1
  H  H52  1  0.23794888  0.45061400  0.45416072  1
  H  H53  1  0.76205112  0.54938600  0.54583928  1
  H  H54  1  0.26205112  0.04938600  0.95416072  1
  H  H55  1  0.73794888  0.95061400  0.04583928  1
  H  H56  1  0.79395028  0.93347159  0.51730397  1
  H  H57  1  0.20604972  0.06652841  0.48269603  1
  H  H58  1  0.70604972  0.56652841  0.01730397  1
  H  H59  1  0.29395028  0.43347159  0.98269603  1
  H  H60  1  0.82196739  0.58853319  0.63441205  1
  H  H61  1  0.17803261  0.41146681  0.36558795  1
  H  H62  1  0.67803261  0.91146681  0.13441205  1
  H  H63  1  0.32196739  0.08853319  0.86558795  1
  N  N64  1  0.85790635  0.86202897  0.48776766  1
  N  N65  1  0.14209365  0.13797103  0.51223234  1
  N  N66  1  0.64209365  0.63797103  0.98776766  1
  N  N67  1  0.35790635  0.36202897  0.01223234  1
  N  N68  1  0.20875038  0.48490523  0.40099588  1
  N  N69  1  0.79124962  0.51509477  0.59900412  1
  N  N70  1  0.29124962  0.01509477  0.90099588  1
  N  N71  1  0.70875038  0.98490523  0.09900412  1
  O  O72  1  0.15549416  0.78524036  0.99791068  1
  O  O73  1  0.84450584  0.21475964  0.00208932  1
  O  O74  1  0.34450584  0.71475964  0.49791068  1
  O  O75  1  0.65549416  0.28524036  0.50208932  1
  O  O76  1  0.05293393  0.78799335  0.13409744  1
  O  O77  1  0.94706607  0.21200665  0.86590256  1
  O  O78  1  0.44706607  0.71200665  0.63409744  1
  O  O79  1  0.55293393  0.28799335  0.36590256  1
  O  O80  1  0.24088978  0.58128287  0.92079412  1
  O  O81  1  0.75911022  0.41871713  0.07920588  1
  O  O82  1  0.25911022  0.91871713  0.42079412  1
  O  O83  1  0.74088978  0.08128287  0.57920588  1
  O  O84  1  0.88566046  0.92872095  0.32839722  1
  O  O85  1  0.11433954  0.07127905  0.67160278  1
  O  O86  1  0.61433954  0.57127905  0.82839722  1
  O  O87  1  0.38566046  0.42872095  0.17160278  1
  O  O88  1  0.11785498  0.77872106  0.59766262  1
  O  O89  1  0.88214502  0.22127894  0.40233738  1
  O  O90  1  0.38214502  0.72127894  0.09766262  1
  O  O91  1  0.61785498  0.27872106  0.90233738  1
  O  O92  1  0.95129051  0.92155897  0.83987234  1
  O  O93  1  0.04870949  0.07844103  0.16012766  1
  O  O94  1  0.54870949  0.57844103  0.33987234  1
  O  O95  1  0.45129051  0.42155897  0.66012766  1
  O  O96  1  0.21510486  0.55579518  0.58612951  1
  O  O97  1  0.78489514  0.44420482  0.41387049  1
  O  O98  1  0.28489514  0.94420482  0.08612951  1
  O  O99  1  0.71510486  0.05579518  0.91387049  1
  O  O100  1  0.31585936  0.93187340  0.74895166  1
  O  O101  1  0.68414064  0.06812660  0.25104834  1
  O  O102  1  0.18414064  0.56812660  0.24895166  1
  O  O103  1  0.81585936  0.43187340  0.75104834  1
  O  O104  1  0.73061767  0.93787284  0.69022430  1
  O  O105  1  0.26938233  0.06212716  0.30977570  1
  O  O106  1  0.76938233  0.56212716  0.19022430  1
  O  O107  1  0.23061767  0.43787284  0.80977570  1
  O  O108  1  0.84372116  0.85777618  0.96941291  1
  O  O109  1  0.15627884  0.14222382  0.03058709  1
  O  O110  1  0.65627884  0.64222382  0.46941291  1
  O  O111  1  0.34372116  0.35777618  0.53058709  1
  O  O112  1  0.95494161  0.57186255  0.85040046  1
  O  O113  1  0.04505839  0.42813745  0.14959954  1
  O  O114  1  0.54505839  0.92813745  0.35040046  1
  O  O115  1  0.45494161  0.07186255  0.64959954  1
  O  O116  1  0.22313303  0.67891105  0.78879258  1
  O  O117  1  0.77686697  0.32108895  0.21120742  1
  O  O118  1  0.27686697  0.82108895  0.28879258  1
  O  O119  1  0.72313303  0.17891105  0.71120742  1
  O  O120  1  0.61833728  0.85463891  0.86310304  1
  O  O121  1  0.38166272  0.14536109  0.13689696  1
  O  O122  1  0.88166272  0.64536109  0.36310304  1
  O  O123  1  0.11833728  0.35463891  0.63689696  1
  O  O124  1  0.82020664  0.67015745  0.73241234  1
  O  O125  1  0.17979336  0.32984255  0.26758766  1
  O  O126  1  0.67979336  0.82984255  0.23241234  1
  O  O127  1  0.32020664  0.17015745  0.76758766  1
