# generated using pymatgen
data_Ba6Tb2Al4O15
_symmetry_space_group_name_H-M   'P 1'
_cell_length_a   5.97328468
_cell_length_b   7.95259233
_cell_length_c   18.55297161
_cell_angle_alpha   91.52942385
_cell_angle_beta   90.00000000
_cell_angle_gamma   90.00000000
_symmetry_Int_Tables_number   1
_chemical_formula_structural   Ba6Tb2Al4O15
_chemical_formula_sum   'Ba12 Tb4 Al8 O30'
_cell_volume   881.00965626
_cell_formula_units_Z   2
loop_
 _symmetry_equiv_pos_site_id
 _symmetry_equiv_pos_as_xyz
  1  'x, y, z'
loop_
 _atom_site_type_symbol
 _atom_site_label
 _atom_site_symmetry_multiplicity
 _atom_site_fract_x
 _atom_site_fract_y
 _atom_site_fract_z
 _atom_site_occupancy
  Ba  Ba0  1  0.75800315  0.50203178  0.41773886  1
  Ba  Ba1  1  0.24199685  0.49796822  0.58226114  1
  Ba  Ba2  1  0.75800315  0.49796822  0.08226114  1
  Ba  Ba3  1  0.24199685  0.50203178  0.91773886  1
  Ba  Ba4  1  0.74461842  0.96909351  0.41035139  1
  Ba  Ba5  1  0.25538158  0.03090649  0.58964861  1
  Ba  Ba6  1  0.74461842  0.03090649  0.08964861  1
  Ba  Ba7  1  0.25538158  0.96909351  0.91035139  1
  Ba  Ba8  1  0.72505437  -0.00000000  0.75000000  1
  Ba  Ba9  1  0.27494563  -0.00000000  0.25000000  1
  Ba  Ba10  1  0.66995543  0.50000000  0.75000000  1
  Ba  Ba11  1  0.33004457  0.50000000  0.25000000  1
  Tb  Tb12  1  0.74602154  0.75138103  0.58985131  1
  Tb  Tb13  1  0.25397846  0.24861897  0.41014869  1
  Tb  Tb14  1  0.74602154  0.24861897  0.91014869  1
  Tb  Tb15  1  0.25397846  0.75138103  0.08985131  1
  Al  Al16  1  0.75088929  0.75248643  0.94384645  1
  Al  Al17  1  0.24911071  0.24751357  0.05615355  1
  Al  Al18  1  0.75088929  0.24751357  0.55615355  1
  Al  Al19  1  0.24911071  0.75248643  0.44384645  1
  Al  Al20  1  0.77198916  0.77941355  0.23265055  1
  Al  Al21  1  0.22801084  0.22058645  0.76734945  1
  Al  Al22  1  0.77198916  0.22058645  0.26734945  1
  Al  Al23  1  0.22801084  0.77941355  0.73265055  1
  O  O24  1  0.21000023  -0.00000000  0.75000000  1
  O  O25  1  0.78999977  -0.00000000  0.25000000  1
  O  O26  1  0.49520065  0.76390224  0.49939401  1
  O  O27  1  0.50479935  0.23609776  0.50060599  1
  O  O28  1  0.49520065  0.23609776  0.00060599  1
  O  O29  1  0.50479935  0.76390224  0.99939401  1
  O  O30  1  0.75956047  0.94310803  0.89368571  1
  O  O31  1  0.24043953  0.05689197  0.10631429  1
  O  O32  1  0.75956047  0.05689197  0.60631429  1
  O  O33  1  0.24043953  0.94310803  0.39368571  1
  O  O34  1  0.01029057  0.76201244  0.50327995  1
  O  O35  1  0.98970943  0.23798756  0.49672005  1
  O  O36  1  0.01029057  0.23798756  0.99672005  1
  O  O37  1  0.98970943  0.76201244  0.00327995  1
  O  O38  1  0.31391374  0.69340616  0.81335700  1
  O  O39  1  0.68608626  0.30659384  0.18664300  1
  O  O40  1  0.31391374  0.30659384  0.68664300  1
  O  O41  1  0.68608626  0.69340616  0.31335700  1
  O  O42  1  0.44875437  0.75292511  0.66715942  1
  O  O43  1  0.55124563  0.24707489  0.33284058  1
  O  O44  1  0.44875437  0.24707489  0.83284058  1
  O  O45  1  0.55124563  0.75292511  0.16715942  1
  O  O46  1  0.96972635  0.73019489  0.68932168  1
  O  O47  1  0.03027365  0.26980511  0.31067832  1
  O  O48  1  0.96972635  0.26980511  0.81067832  1
  O  O49  1  0.03027365  0.73019489  0.18932168  1
  O  O50  1  0.75384829  0.54037119  0.90762404  1
  O  O51  1  0.24615171  0.45962881  0.09237596  1
  O  O52  1  0.75384829  0.45962881  0.59237596  1
  O  O53  1  0.24615171  0.54037119  0.40762404  1
