# generated using pymatgen
data_Ba6Lu2Al4O15
_symmetry_space_group_name_H-M   'P 1'
_cell_length_a   5.90697765
_cell_length_b   7.89467199
_cell_length_c   18.37481962
_cell_angle_alpha   91.59896225
_cell_angle_beta   90.00000000
_cell_angle_gamma   90.00000000
_symmetry_Int_Tables_number   1
_chemical_formula_structural   Ba6Lu2Al4O15
_chemical_formula_sum   'Ba12 Lu4 Al8 O30'
_cell_volume   856.55127262
_cell_formula_units_Z   2
loop_
 _symmetry_equiv_pos_site_id
 _symmetry_equiv_pos_as_xyz
  1  'x, y, z'
loop_
 _atom_site_type_symbol
 _atom_site_label
 _atom_site_symmetry_multiplicity
 _atom_site_fract_x
 _atom_site_fract_y
 _atom_site_fract_z
 _atom_site_occupancy
  Ba  Ba0  1  0.75617647  0.50117023  0.41964362  1
  Ba  Ba1  1  0.24382353  0.49882977  0.58035638  1
  Ba  Ba2  1  0.75617647  0.49882977  0.08035638  1
  Ba  Ba3  1  0.24382353  0.50117023  0.91964362  1
  Ba  Ba4  1  0.74714420  0.97110995  0.41104115  1
  Ba  Ba5  1  0.25285580  0.02889005  0.58895885  1
  Ba  Ba6  1  0.74714420  0.02889005  0.08895885  1
  Ba  Ba7  1  0.25285580  0.97110995  0.91104115  1
  Ba  Ba8  1  0.72090160  -0.00000000  0.75000000  1
  Ba  Ba9  1  0.27909840  -0.00000000  0.25000000  1
  Ba  Ba10  1  0.67345503  0.50000000  0.75000000  1
  Ba  Ba11  1  0.32654497  0.50000000  0.25000000  1
  Lu  Lu12  1  0.74393731  0.75136266  0.58964138  1
  Lu  Lu13  1  0.25606269  0.24863734  0.41035862  1
  Lu  Lu14  1  0.74393731  0.24863734  0.91035862  1
  Lu  Lu15  1  0.25606269  0.75136266  0.08964138  1
  Al  Al16  1  0.75229740  0.75264319  0.94495191  1
  Al  Al17  1  0.24770260  0.24735681  0.05504809  1
  Al  Al18  1  0.75229740  0.24735681  0.55504809  1
  Al  Al19  1  0.24770260  0.75264319  0.44495191  1
  Al  Al20  1  0.77195443  0.77852972  0.23152298  1
  Al  Al21  1  0.22804557  0.22147028  0.76847702  1
  Al  Al22  1  0.77195443  0.22147028  0.26847702  1
  Al  Al23  1  0.22804557  0.77852972  0.73152298  1
  O  O24  1  0.21026942  -0.00000000  0.75000000  1
  O  O25  1  0.78973058  -0.00000000  0.25000000  1
  O  O26  1  0.49341612  0.76277755  0.50242640  1
  O  O27  1  0.50658388  0.23722245  0.49757360  1
  O  O28  1  0.49341612  0.23722245  0.99757360  1
  O  O29  1  0.50658388  0.76277755  0.00242640  1
  O  O30  1  0.75730020  0.94795329  0.89627246  1
  O  O31  1  0.24269980  0.05204671  0.10372754  1
  O  O32  1  0.75730020  0.05204671  0.60372754  1
  O  O33  1  0.24269980  0.94795329  0.39627246  1
  O  O34  1  0.00245022  0.76184640  0.50422277  1
  O  O35  1  0.99754978  0.23815360  0.49577723  1
  O  O36  1  0.00245022  0.23815360  0.99577723  1
  O  O37  1  0.99754978  0.76184640  0.00422277  1
  O  O38  1  0.31261056  0.69112508  0.81295390  1
  O  O39  1  0.68738944  0.30887492  0.18704610  1
  O  O40  1  0.31261056  0.30887492  0.68704610  1
  O  O41  1  0.68738944  0.69112508  0.31295390  1
  O  O42  1  0.45365248  0.75296048  0.66619364  1
  O  O43  1  0.54634752  0.24703952  0.33380636  1
  O  O44  1  0.45365248  0.24703952  0.83380636  1
  O  O45  1  0.54634752  0.75296048  0.16619364  1
  O  O46  1  0.96737309  0.73298349  0.68647643  1
  O  O47  1  0.03262691  0.26701651  0.31352357  1
  O  O48  1  0.96737309  0.26701651  0.81352357  1
  O  O49  1  0.03262691  0.73298349  0.18647643  1
  O  O50  1  0.75365848  0.53773792  0.90875873  1
  O  O51  1  0.24634152  0.46226208  0.09124127  1
  O  O52  1  0.75365848  0.46226208  0.59124127  1
  O  O53  1  0.24634152  0.53773792  0.40875873  1
