# generated using pymatgen
data_Li4Fe3OF8
_symmetry_space_group_name_H-M   'P 1'
_cell_length_a   5.76209174
_cell_length_b   24.30000961
_cell_length_c   5.31607766
_cell_angle_alpha   90.00000000
_cell_angle_beta   90.00000000
_cell_angle_gamma   90.00000000
_symmetry_Int_Tables_number   1
_chemical_formula_structural   Li4Fe3OF8
_chemical_formula_sum   'Li16 Fe12 O4 F32'
_cell_volume   744.35126470
_cell_formula_units_Z   4
loop_
 _symmetry_equiv_pos_site_id
 _symmetry_equiv_pos_as_xyz
  1  'x, y, z'
loop_
 _atom_site_type_symbol
 _atom_site_label
 _atom_site_symmetry_multiplicity
 _atom_site_fract_x
 _atom_site_fract_y
 _atom_site_fract_z
 _atom_site_occupancy
  Li  Li0  1  0.23846592  0.17611406  0.99665646  1
  Li  Li1  1  0.23846592  0.32388594  0.99665646  1
  Li  Li2  1  0.24869458  0.96782615  0.55126996  1
  Li  Li3  1  0.24869458  0.53217385  0.55126996  1
  Li  Li4  1  0.25130542  0.03217385  0.05126996  1
  Li  Li5  1  0.25130542  0.46782615  0.05126996  1
  Li  Li6  1  0.26153408  0.67611406  0.49665646  1
  Li  Li7  1  0.26153408  0.82388594  0.49665646  1
  Li  Li8  1  0.62969706  0.31433914  0.48328776  1
  Li  Li9  1  0.62969706  0.18566086  0.48328776  1
  Li  Li10  1  0.75402794  0.53289802  0.93690002  1
  Li  Li11  1  0.75402794  0.96710198  0.93690002  1
  Li  Li12  1  0.74597206  0.03289802  0.43690002  1
  Li  Li13  1  0.74597206  0.46710198  0.43690002  1
  Li  Li14  1  0.87030294  0.68566086  0.98328776  1
  Li  Li15  1  0.87030294  0.81433914  0.98328776  1
  Fe  Fe16  1  0.16875830  0.25000000  0.46704356  1
  Fe  Fe17  1  0.24387115  0.61167273  0.00005321  1
  Fe  Fe18  1  0.24387115  0.88832727  0.00005321  1
  Fe  Fe19  1  0.25612885  0.11167273  0.50005321  1
  Fe  Fe20  1  0.25612885  0.38832727  0.50005321  1
  Fe  Fe21  1  0.33124170  0.75000000  0.96704356  1
  Fe  Fe22  1  0.63533566  0.25000000  0.99077268  1
  Fe  Fe23  1  0.73524696  0.60784382  0.49472973  1
  Fe  Fe24  1  0.73524696  0.89215618  0.49472973  1
  Fe  Fe25  1  0.76475304  0.10784382  0.99472973  1
  Fe  Fe26  1  0.76475304  0.39215618  0.99472973  1
  Fe  Fe27  1  0.86466434  0.75000000  0.49077268  1
  O  O28  1  0.31204545  0.31694989  0.34461537  1
  O  O29  1  0.31204545  0.18305011  0.34461537  1
  O  O30  1  0.18795455  0.81694989  0.84461537  1
  O  O31  1  0.18795455  0.68305011  0.84461537  1
  F  F32  1  0.98272175  0.64895268  0.29052834  1
  F  F33  1  0.98272175  0.85104732  0.29052834  1
  F  F34  1  0.99336598  0.57280654  0.73355386  1
  F  F35  1  0.99336598  0.92719346  0.73355386  1
  F  F36  1  0.19470311  0.75000000  0.36424320  1
  F  F37  1  0.22369235  0.53953730  0.19068516  1
  F  F38  1  0.22369235  0.96046270  0.19068516  1
  F  F39  1  0.27630765  0.03953730  0.69068516  1
  F  F40  1  0.27630765  0.46046270  0.69068516  1
  F  F41  1  0.30529689  0.25000000  0.86424320  1
  F  F42  1  0.50663402  0.07280654  0.23355386  1
  F  F43  1  0.50663402  0.42719346  0.23355386  1
  F  F44  1  0.51727825  0.14895268  0.79052834  1
  F  F45  1  0.51727825  0.35104732  0.79052834  1
  F  F46  1  0.47042426  0.85936082  0.28295398  1
  F  F47  1  0.47042426  0.64063918  0.28295398  1
  F  F48  1  0.49496404  0.57267808  0.74812609  1
  F  F49  1  0.49496404  0.92732192  0.74812609  1
  F  F50  1  0.71043100  0.75000000  0.12526065  1
  F  F51  1  0.72732136  0.53592707  0.28882845  1
  F  F52  1  0.72732136  0.96407293  0.28882845  1
  F  F53  1  0.80329110  0.18973062  0.18415108  1
  F  F54  1  0.80329110  0.31026938  0.18415108  1
  F  F55  1  0.69670890  0.68973062  0.68415108  1
  F  F56  1  0.69670890  0.81026938  0.68415108  1
  F  F57  1  0.77267864  0.03592707  0.78882845  1
  F  F58  1  0.77267864  0.46407293  0.78882845  1
  F  F59  1  0.78956900  0.25000000  0.62526065  1
  F  F60  1  0.00503596  0.07267808  0.24812609  1
  F  F61  1  0.00503596  0.42732192  0.24812609  1
  F  F62  1  0.02957574  0.14063918  0.78295398  1
  F  F63  1  0.02957574  0.35936082  0.78295398  1
