# generated using pymatgen
data_Ba3FeRu2O9
_symmetry_space_group_name_H-M   'P 1'
_cell_length_a   5.81253491
_cell_length_b   5.81253491
_cell_length_c   14.13902301
_cell_angle_alpha   90.00000000
_cell_angle_beta   90.00000000
_cell_angle_gamma   119.99999644
_symmetry_Int_Tables_number   1
_chemical_formula_structural   Ba3FeRu2O9
_chemical_formula_sum   'Ba6 Fe2 Ru4 O18'
_cell_volume   413.69588086
_cell_formula_units_Z   2
loop_
 _symmetry_equiv_pos_site_id
 _symmetry_equiv_pos_as_xyz
  1  'x, y, z'
loop_
 _atom_site_type_symbol
 _atom_site_label
 _atom_site_symmetry_multiplicity
 _atom_site_fract_x
 _atom_site_fract_y
 _atom_site_fract_z
 _atom_site_occupancy
  Ba  Ba0  1  0.66666700  0.33333300  0.91098868  1
  Ba  Ba1  1  0.33333300  0.66666700  0.08901132  1
  Ba  Ba2  1  0.33333300  0.66666700  0.41098868  1
  Ba  Ba3  1  0.66666700  0.33333300  0.58901132  1
  Ba  Ba4  1  -0.00000000  -0.00000000  0.75000000  1
  Ba  Ba5  1  -0.00000000  -0.00000000  0.25000000  1
  Fe  Fe6  1  -0.00000000  -0.00000000  -0.00000000  1
  Fe  Fe7  1  -0.00000000  -0.00000000  0.50000000  1
  Ru  Ru8  1  0.66666700  0.33333300  0.33970455  1
  Ru  Ru9  1  0.33333300  0.66666700  0.66029545  1
  Ru  Ru10  1  0.33333300  0.66666700  0.83970455  1
  Ru  Ru11  1  0.66666700  0.33333300  0.16029545  1
  O  O12  1  0.83143201  0.16856799  0.41775820  1
  O  O13  1  0.16856799  0.83143201  0.58224180  1
  O  O14  1  0.33713597  0.16856799  0.41775820  1
  O  O15  1  0.16856799  0.83143201  0.91775820  1
  O  O16  1  0.66286403  0.83143201  0.58224180  1
  O  O17  1  0.83143201  0.16856799  0.08224180  1
  O  O18  1  0.83143201  0.66286403  0.41775820  1
  O  O19  1  0.66286403  0.83143201  0.91775820  1
  O  O20  1  0.16856799  0.33713597  0.58224180  1
  O  O21  1  0.33713597  0.16856799  0.08224180  1
  O  O22  1  0.16856799  0.33713597  0.91775820  1
  O  O23  1  0.83143201  0.66286403  0.08224180  1
  O  O24  1  0.49104929  0.50895071  0.75000000  1
  O  O25  1  0.50895071  0.49104929  0.25000000  1
  O  O26  1  0.01790142  0.50895071  0.75000000  1
  O  O27  1  0.98209858  0.49104929  0.25000000  1
  O  O28  1  0.49104929  0.98209858  0.75000000  1
  O  O29  1  0.50895071  0.01790142  0.25000000  1
