# generated using pymatgen
data_Be2Co(NF7)2
_symmetry_space_group_name_H-M   'P 1'
_cell_length_a   5.70923602
_cell_length_b   10.02388482
_cell_length_c   10.58182774
_cell_angle_alpha   90.00000000
_cell_angle_beta   90.00000000
_cell_angle_gamma   102.57189230
_symmetry_Int_Tables_number   1
_chemical_formula_structural   Be2Co(NF7)2
_chemical_formula_sum   'Be4 Co2 N4 F28'
_cell_volume   591.06480191
_cell_formula_units_Z   2
loop_
 _symmetry_equiv_pos_site_id
 _symmetry_equiv_pos_as_xyz
  1  'x, y, z'
loop_
 _atom_site_type_symbol
 _atom_site_label
 _atom_site_symmetry_multiplicity
 _atom_site_fract_x
 _atom_site_fract_y
 _atom_site_fract_z
 _atom_site_occupancy
  Be  Be0  1  0.65993500  0.58911261  0.72115200  1
  Be  Be1  1  0.34006500  0.41088739  0.27884800  1
  Be  Be2  1  0.34006500  0.91088739  0.22115200  1
  Be  Be3  1  0.65993500  0.08911261  0.77884800  1
  Co  Co4  1  0.50000000  0.00000000  0.00000000  1
  Co  Co5  1  0.50000000  0.50000000  0.50000000  1
  N  N6  1  0.94360195  0.66814936  0.14380510  1
  N  N7  1  0.05639805  0.33185064  0.85619490  1
  N  N8  1  0.05639805  0.83185064  0.64380510  1
  N  N9  1  0.94360195  0.16814936  0.35619490  1
  F  F10  1  0.56660675  0.54610094  0.84382022  1
  F  F11  1  0.43339325  0.45389906  0.15617978  1
  F  F12  1  0.43339325  0.95389906  0.34382022  1
  F  F13  1  0.56660675  0.04610094  0.65617978  1
  F  F14  1  0.87018542  0.88789969  0.60828488  1
  F  F15  1  0.12981458  0.11210031  0.39171512  1
  F  F16  1  0.12981458  0.61210031  0.10828488  1
  F  F17  1  0.87018542  0.38789969  0.89171512  1
  F  F18  1  0.29370049  0.88193091  0.90623763  1
  F  F19  1  0.70629951  0.11806909  0.09376237  1
  F  F20  1  0.70629951  0.61806909  0.40623763  1
  F  F21  1  0.29370049  0.38193091  0.59376237  1
  F  F22  1  0.90665365  0.74098957  0.04113334  1
  F  F23  1  0.09334635  0.25901043  0.95886666  1
  F  F24  1  0.09334635  0.75901043  0.54113334  1
  F  F25  1  0.90665365  0.24098957  0.45886666  1
  F  F26  1  0.48811696  0.64348586  0.62301886  1
  F  F27  1  0.51188304  0.35651414  0.37698114  1
  F  F28  1  0.51188304  0.85651414  0.12301886  1
  F  F29  1  0.48811696  0.14348586  0.87698114  1
  F  F30  1  0.74550373  0.98382060  0.87685245  1
  F  F31  1  0.25449627  0.01617940  0.12314755  1
  F  F32  1  0.25449627  0.51617940  0.37685245  1
  F  F33  1  0.74550373  0.48382060  0.62314755  1
  F  F34  1  0.91799879  0.71096582  0.74069369  1
  F  F35  1  0.08200121  0.28903418  0.25930631  1
  F  F36  1  0.08200121  0.78903418  0.24069369  1
  F  F37  1  0.91799879  0.21096582  0.75930631  1
