# generated using pymatgen
data_Ba6Na2Ta2Mn2O17
_symmetry_space_group_name_H-M   'P 1'
_cell_length_a   5.98094720
_cell_length_b   5.98102314
_cell_length_c   30.38119465
_cell_angle_alpha   89.99910177
_cell_angle_beta   89.99950181
_cell_angle_gamma   120.00001968
_symmetry_Int_Tables_number   1
_chemical_formula_structural   Ba6Na2Ta2Mn2O17
_chemical_formula_sum   'Ba12 Na4 Ta4 Mn4 O34'
_cell_volume   941.19767073
_cell_formula_units_Z   2
loop_
 _symmetry_equiv_pos_site_id
 _symmetry_equiv_pos_as_xyz
  1  'x, y, z'
loop_
 _atom_site_type_symbol
 _atom_site_label
 _atom_site_symmetry_multiplicity
 _atom_site_fract_x
 _atom_site_fract_y
 _atom_site_fract_z
 _atom_site_occupancy
  Ba  Ba0  1  0.66667537  0.33333072  0.81973947  1
  Ba  Ba1  1  0.33334023  0.66667415  0.18026268  1
  Ba  Ba2  1  0.33333306  0.66666666  0.31973898  1
  Ba  Ba3  1  0.66667689  0.33338029  0.68026187  1
  Ba  Ba4  1  0.99997510  0.99998999  0.99994399  1
  Ba  Ba5  1  0.99999236  0.99998552  0.50005124  1
  Ba  Ba6  1  0.66666148  0.33333345  0.40985055  1
  Ba  Ba7  1  0.33332113  0.66663265  0.59017566  1
  Ba  Ba8  1  0.33329884  0.66665923  0.90982095  1
  Ba  Ba9  1  0.66666287  0.33332931  0.09014974  1
  Ba  Ba10  1  0.00000340  0.99999438  0.75000179  1
  Ba  Ba11  1  -0.00000149  0.99999879  0.25000014  1
  Na  Na12  1  0.99998846  0.99999661  0.87509274  1
  Na  Na13  1  0.00000406  0.00000221  0.12496770  1
  Na  Na14  1  0.99999817  0.99999766  0.37503651  1
  Na  Na15  1  0.00000178  0.99997548  0.62491068  1
  Ta  Ta16  1  0.66666913  0.33333481  0.29832336  1
  Ta  Ta17  1  0.33333825  0.66663049  0.70167501  1
  Ta  Ta18  1  0.33334021  0.66666688  0.79832445  1
  Ta  Ta19  1  0.66666776  0.33333248  0.20168032  1
  Mn  Mn20  1  0.66659733  0.33327109  0.94797070  1
  Mn  Mn21  1  0.33332993  0.66666948  0.05188325  1
  Mn  Mn22  1  0.33333905  0.66666849  0.44810811  1
  Mn  Mn23  1  0.66662863  0.33332016  0.55203292  1
  O  O24  1  0.66663663  0.33329825  0.49615700  1
  O  O25  1  0.33334522  0.66667233  0.50390600  1
  O  O26  1  0.33335498  0.66668145  0.99608894  1
  O  O27  1  0.66662755  0.33333319  0.00384188  1
  O  O28  1  0.82530879  0.17513177  0.33020011  1
  O  O29  1  0.17481053  0.82492563  0.66978679  1
  O  O30  1  0.34982415  0.17469554  0.33020029  1
  O  O31  1  0.17469998  0.82487939  0.83020483  1
  O  O32  1  0.65018865  0.82504473  0.66979244  1
  O  O33  1  0.82530993  0.17513099  0.16980582  1
  O  O34  1  0.82487234  0.65017473  0.33019998  1
  O  O35  1  0.65018674  0.82531063  0.83020471  1
  O  O36  1  0.17502115  0.34976198  0.66979798  1
  O  O37  1  0.34982560  0.17469704  0.16980664  1
  O  O38  1  0.17513422  0.34982788  0.83020760  1
  O  O39  1  0.82487592  0.65017820  0.16980533  1
  O  O40  1  0.48451177  0.51554113  0.75000502  1
  O  O41  1  0.51547728  0.48443284  0.25000269  1
  O  O42  1  0.03105195  0.51547349  0.75000081  1
  O  O43  1  0.96895904  0.48452384  0.25000145  1
  O  O44  1  0.48444886  0.96893485  0.74999309  1
  O  O45  1  0.51556984  0.03104543  0.25000333  1
  O  O46  1  0.82240222  0.17762157  0.92749413  1
  O  O47  1  0.17765009  0.82238248  0.07248269  1
  O  O48  1  0.35516675  0.17752094  0.92749795  1
  O  O49  1  0.17764159  0.82237571  0.42751281  1
  O  O50  1  0.64472784  0.82237697  0.07248380  1
  O  O51  1  0.82245300  0.17767216  0.57249474  1
  O  O52  1  0.82243809  0.64476026  0.92750691  1
  O  O53  1  0.64473789  0.82236335  0.42751185  1
  O  O54  1  0.17765753  0.35527240  0.07248351  1
  O  O55  1  0.35519102  0.17766106  0.57249855  1
  O  O56  1  0.17766583  0.35526991  0.42751398  1
  O  O57  1  0.82238503  0.64478688  0.57250354  1
