# generated using pymatgen
data_AgRhF6
_symmetry_space_group_name_H-M   'P 1'
_cell_length_a   5.25949502
_cell_length_b   5.23686806
_cell_length_c   10.40963139
_cell_angle_alpha   75.78429038
_cell_angle_beta   75.70655839
_cell_angle_gamma   60.19828178
_symmetry_Int_Tables_number   1
_chemical_formula_structural   AgRhF6
_chemical_formula_sum   'Ag2 Rh2 F12'
_cell_volume   238.50800197
_cell_formula_units_Z   2
loop_
 _symmetry_equiv_pos_site_id
 _symmetry_equiv_pos_as_xyz
  1  'x, y, z'
loop_
 _atom_site_type_symbol
 _atom_site_label
 _atom_site_symmetry_multiplicity
 _atom_site_fract_x
 _atom_site_fract_y
 _atom_site_fract_z
 _atom_site_occupancy
  Ag  Ag0  1  0.50000000  0.50000000  0.50000000  1
  Ag  Ag1  1  -0.00000000  0.00000000  0.00000000  1
  Rh  Rh2  1  0.23412257  0.27324622  0.25025631  1
  Rh  Rh3  1  0.76587743  0.72675378  0.74974369  1
  F  F4  1  0.19722048  0.53665409  0.36362696  1
  F  F5  1  0.80277952  0.46334591  0.63637304  1
  F  F6  1  0.89764828  0.23322011  0.36070584  1
  F  F7  1  0.10235172  0.76677989  0.63929416  1
  F  F8  1  0.57103073  0.30763439  0.13673191  1
  F  F9  1  0.42896927  0.69236561  0.86326809  1
  F  F10  1  0.27157780  0.00922270  0.13720516  1
  F  F11  1  0.72842220  0.99077730  0.86279484  1
  F  F12  1  0.03049425  0.39024665  0.86156584  1
  F  F13  1  0.96950575  0.60975335  0.13843416  1
  F  F14  1  0.50863641  0.06368085  0.63625519  1
  F  F15  1  0.49136359  0.93631915  0.36374481  1
