# generated using pymatgen
data_BaMn5(SO4)6
_symmetry_space_group_name_H-M   'P 1'
_cell_length_a   7.71577746
_cell_length_b   14.88334048
_cell_length_c   14.88334048
_cell_angle_alpha   119.99999966
_cell_angle_beta   90.00000000
_cell_angle_gamma   90.00000000
_symmetry_Int_Tables_number   1
_chemical_formula_structural   BaMn5(SO4)6
_chemical_formula_sum   'Ba3 Mn15 S18 O72'
_cell_volume   1480.16851034
_cell_formula_units_Z   3
loop_
 _symmetry_equiv_pos_site_id
 _symmetry_equiv_pos_as_xyz
  1  'x, y, z'
loop_
 _atom_site_type_symbol
 _atom_site_label
 _atom_site_symmetry_multiplicity
 _atom_site_fract_x
 _atom_site_fract_y
 _atom_site_fract_z
 _atom_site_occupancy
  Ba  Ba0  1  0.99780429  0.66666700  0.33333300  1
  Ba  Ba1  1  0.00219571  0.33333300  0.66666700  1
  Ba  Ba2  1  0.50000000  0.00000000  0.00000000  1
  Mn  Mn3  1  0.96326403  0.99658220  0.34501040  1
  Mn  Mn4  1  0.03673597  0.00341780  0.65498960  1
  Mn  Mn5  1  0.96326403  0.34842821  0.00341780  1
  Mn  Mn6  1  0.03673597  0.65157179  0.99658220  1
  Mn  Mn7  1  0.96326403  0.65498960  0.65157179  1
  Mn  Mn8  1  0.03673597  0.34501040  0.34842821  1
  Mn  Mn9  1  0.54699524  0.67839584  0.68138224  1
  Mn  Mn10  1  0.45300476  0.32160416  0.31861776  1
  Mn  Mn11  1  0.54699524  0.00298640  0.32160416  1
  Mn  Mn12  1  0.45300476  0.99701360  0.67839584  1
  Mn  Mn13  1  0.54699524  0.31861776  0.99701360  1
  Mn  Mn14  1  0.45300476  0.68138224  0.00298640  1
  Mn  Mn15  1  0.49714864  0.66666700  0.33333300  1
  Mn  Mn16  1  0.50285136  0.33333300  0.66666700  1
  Mn  Mn17  1  0.00000000  0.00000000  0.00000000  1
  S  S18  1  0.76011085  0.86916508  0.09712268  1
  S  S19  1  0.23988915  0.13083492  0.90287732  1
  S  S20  1  0.76011085  0.22795760  0.13083492  1
  S  S21  1  0.23988915  0.77204240  0.86916508  1
  S  S22  1  0.76011085  0.90287732  0.77204240  1
  S  S23  1  0.23988915  0.09712268  0.22795760  1
  S  S24  1  0.74172511  0.56016157  0.79425143  1
  S  S25  1  0.25827489  0.43983843  0.20574857  1
  S  S26  1  0.74172511  0.23408986  0.43983843  1
  S  S27  1  0.25827489  0.76591014  0.56016157  1
  S  S28  1  0.74172511  0.20574857  0.76591014  1
  S  S29  1  0.25827489  0.79425143  0.23408986  1
  S  S30  1  0.73775346  0.89355961  0.46238743  1
  S  S31  1  0.26224654  0.10644039  0.53761257  1
  S  S32  1  0.73775346  0.56882782  0.10644039  1
  S  S33  1  0.26224654  0.43117218  0.89355961  1
  S  S34  1  0.73775346  0.53761257  0.43117218  1
  S  S35  1  0.26224654  0.46238743  0.56882782  1
  O  O36  1  0.70683295  0.45472207  0.70431588  1
  O  O37  1  0.29316705  0.54527793  0.29568412  1
  O  O38  1  0.70683295  0.24959381  0.54527793  1
  O  O39  1  0.29316705  0.75040619  0.45472207  1
  O  O40  1  0.70683295  0.29568412  0.75040619  1
  O  O41  1  0.29316705  0.70431588  0.24959381  1
  O  O42  1  0.91274242  0.89217752  0.50508714  1
  O  O43  1  0.08725758  0.10782248  0.49491286  1
  O  O44  1  0.91274242  0.61290963  0.10782248  1
  O  O45  1  0.08725758  0.38709037  0.89217752  1
  O  O46  1  0.91274242  0.49491286  0.38709037  1
  O  O47  1  0.08725758  0.50508714  0.61290963  1
  O  O48  1  0.58067855  0.83325648  0.05666733  1
  O  O49  1  0.41932145  0.16674352  0.94333267  1
  O  O50  1  0.58067855  0.22341086  0.16674352  1
  O  O51  1  0.41932145  0.77658914  0.83325648  1
  O  O52  1  0.58067855  0.94333267  0.77658914  1
  O  O53  1  0.41932145  0.05666733  0.22341086  1
  O  O54  1  0.60208656  0.61923500  0.07830592  1
  O  O55  1  0.39791344  0.38076500  0.92169408  1
  O  O56  1  0.60208656  0.45907092  0.38076500  1
  O  O57  1  0.39791344  0.54092908  0.61923500  1
  O  O58  1  0.60208656  0.92169408  0.54092908  1
  O  O59  1  0.39791344  0.07830592  0.45907092  1
  O  O60  1  0.80260468  0.95735492  0.08027855  1
  O  O61  1  0.19739532  0.04264508  0.91972145  1
  O  O62  1  0.80260468  0.12292363  0.04264508  1
  O  O63  1  0.19739532  0.87707637  0.95735492  1
  O  O64  1  0.80260468  0.91972145  0.87707637  1
  O  O65  1  0.19739532  0.08027855  0.12292363  1
  O  O66  1  0.74375169  0.96955806  0.42369395  1
  O  O67  1  0.25624831  0.03044194  0.57630605  1
  O  O68  1  0.74375169  0.45413589  0.03044194  1
  O  O69  1  0.25624831  0.54586411  0.96955806  1
  O  O70  1  0.74375169  0.57630605  0.54586411  1
  O  O71  1  0.25624831  0.42369395  0.45413589  1
  O  O72  1  0.76146651  0.90851536  0.21187275  1
  O  O73  1  0.23853349  0.09148464  0.78812725  1
  O  O74  1  0.76146651  0.30335739  0.09148464  1
  O  O75  1  0.23853349  0.69664261  0.90851536  1
  O  O76  1  0.76146651  0.78812725  0.69664261  1
  O  O77  1  0.23853349  0.21187275  0.30335739  1
  O  O78  1  0.90800212  0.55621663  0.84340205  1
  O  O79  1  0.09199788  0.44378337  0.15659795  1
  O  O80  1  0.90800212  0.28718542  0.44378337  1
  O  O81  1  0.09199788  0.71281458  0.55621663  1
  O  O82  1  0.90800212  0.15659795  0.71281458  1
  O  O83  1  0.09199788  0.84340205  0.28718542  1
  O  O84  1  0.59574528  0.59200347  0.86689480  1
  O  O85  1  0.40425472  0.40799653  0.13310520  1
  O  O86  1  0.59574528  0.27489133  0.40799653  1
  O  O87  1  0.40425472  0.72510867  0.59200347  1
  O  O88  1  0.59574528  0.13310520  0.72510867  1
  O  O89  1  0.40425472  0.86689480  0.27489133  1
  O  O90  1  0.70180079  0.78832347  0.37255033  1
  O  O91  1  0.29819921  0.21167653  0.62744967  1
  O  O92  1  0.70180079  0.58422686  0.21167653  1
  O  O93  1  0.29819921  0.41577314  0.78832347  1
  O  O94  1  0.70180079  0.62744967  0.41577314  1
  O  O95  1  0.29819921  0.37255033  0.58422686  1
  O  O96  1  0.76013446  0.63491985  0.75443111  1
  O  O97  1  0.23986554  0.36508015  0.24556889  1
  O  O98  1  0.76013446  0.11951125  0.36508015  1
  O  O99  1  0.23986554  0.88048875  0.63491985  1
  O  O100  1  0.76013446  0.24556889  0.88048875  1
  O  O101  1  0.23986554  0.75443111  0.11951125  1
  O  O102  1  0.88565674  0.78490401  0.04316654  1
  O  O103  1  0.11434326  0.21509599  0.95683346  1
  O  O104  1  0.88565674  0.25826253  0.21509599  1
  O  O105  1  0.11434326  0.74173747  0.78490401  1
  O  O106  1  0.88565674  0.95683346  0.74173747  1
  O  O107  1  0.11434326  0.04316654  0.25826253  1
