# generated using pymatgen
data_Al7Cu2Ru
_symmetry_space_group_name_H-M   'P 1'
_cell_length_a   6.44701519
_cell_length_b   6.44701519
_cell_length_c   14.83117425
_cell_angle_alpha   90.00000000
_cell_angle_beta   90.00000000
_cell_angle_gamma   90.00000000
_symmetry_Int_Tables_number   1
_chemical_formula_structural   Al7Cu2Ru
_chemical_formula_sum   'Al28 Cu8 Ru4'
_cell_volume   616.44299861
_cell_formula_units_Z   4
loop_
 _symmetry_equiv_pos_site_id
 _symmetry_equiv_pos_as_xyz
  1  'x, y, z'
loop_
 _atom_site_type_symbol
 _atom_site_label
 _atom_site_symmetry_multiplicity
 _atom_site_fract_x
 _atom_site_fract_y
 _atom_site_fract_z
 _atom_site_occupancy
  Al  Al0  1  0.16024983  0.66024983  0.25000000  1
  Al  Al1  1  0.83975017  0.33975017  0.75000000  1
  Al  Al2  1  0.83975017  0.33975017  0.25000000  1
  Al  Al3  1  0.33975017  0.16024983  0.25000000  1
  Al  Al4  1  0.16024983  0.66024983  0.75000000  1
  Al  Al5  1  0.66024983  0.83975017  0.75000000  1
  Al  Al6  1  0.66024983  0.83975017  0.25000000  1
  Al  Al7  1  0.33975017  0.16024983  0.75000000  1
  Al  Al8  1  -0.00000000  0.00000000  0.12914543  1
  Al  Al9  1  -0.00000000  0.00000000  0.87085457  1
  Al  Al10  1  0.50000000  0.50000000  0.37085457  1
  Al  Al11  1  0.50000000  0.50000000  0.62914543  1
  Al  Al12  1  0.20013846  0.41534380  0.09803359  1
  Al  Al13  1  0.79986154  0.58465620  0.90196641  1
  Al  Al14  1  0.79986154  0.58465620  0.09803359  1
  Al  Al15  1  0.58465620  0.20013846  0.09803359  1
  Al  Al16  1  0.29986154  0.91534380  0.40196641  1
  Al  Al17  1  0.20013846  0.41534380  0.90196641  1
  Al  Al18  1  0.41534380  0.79986154  0.90196641  1
  Al  Al19  1  0.70013846  0.08465620  0.59803359  1
  Al  Al20  1  0.41534380  0.79986154  0.09803359  1
  Al  Al21  1  0.70013846  0.08465620  0.40196641  1
  Al  Al22  1  0.58465620  0.20013846  0.90196641  1
  Al  Al23  1  0.29986154  0.91534380  0.59803359  1
  Al  Al24  1  0.91534380  0.70013846  0.40196641  1
  Al  Al25  1  0.08465620  0.29986154  0.59803359  1
  Al  Al26  1  0.08465620  0.29986154  0.40196641  1
  Al  Al27  1  0.91534380  0.70013846  0.59803359  1
  Cu  Cu28  1  0.26819829  0.08597162  -0.00000000  1
  Cu  Cu29  1  0.73180171  0.91402838  -0.00000000  1
  Cu  Cu30  1  0.91402838  0.26819829  -0.00000000  1
  Cu  Cu31  1  0.23180171  0.58597162  0.50000000  1
  Cu  Cu32  1  0.08597162  0.73180171  -0.00000000  1
  Cu  Cu33  1  0.76819829  0.41402838  0.50000000  1
  Cu  Cu34  1  0.58597162  0.76819829  0.50000000  1
  Cu  Cu35  1  0.41402838  0.23180171  0.50000000  1
  Ru  Ru36  1  -0.00000000  0.00000000  0.30037920  1
  Ru  Ru37  1  -0.00000000  0.00000000  0.69962080  1
  Ru  Ru38  1  0.50000000  0.50000000  0.19962080  1
  Ru  Ru39  1  0.50000000  0.50000000  0.80037920  1
