# generated using pymatgen
data_Ba2CdGe2O7
_symmetry_space_group_name_H-M   'P 1'
_cell_length_a   5.66664552
_cell_length_b   8.73717740
_cell_length_c   8.73717740
_cell_angle_alpha   90.00000000
_cell_angle_beta   90.00000000
_cell_angle_gamma   90.00000000
_symmetry_Int_Tables_number   1
_chemical_formula_structural   Ba2CdGe2O7
_chemical_formula_sum   'Ba4 Cd2 Ge4 O14'
_cell_volume   432.58190957
_cell_formula_units_Z   2
loop_
 _symmetry_equiv_pos_site_id
 _symmetry_equiv_pos_as_xyz
  1  'x, y, z'
loop_
 _atom_site_type_symbol
 _atom_site_label
 _atom_site_symmetry_multiplicity
 _atom_site_fract_x
 _atom_site_fract_y
 _atom_site_fract_z
 _atom_site_occupancy
  Ba  Ba0  1  0.50518324  0.16609975  0.66609975  1
  Ba  Ba1  1  0.50518324  0.83390025  0.33390025  1
  Ba  Ba2  1  0.49481676  0.66609975  0.83390025  1
  Ba  Ba3  1  0.49481676  0.33390025  0.16609975  1
  Cd  Cd4  1  -0.00000000  -0.00000000  -0.00000000  1
  Cd  Cd5  1  -0.00000000  0.50000000  0.50000000  1
  Ge  Ge6  1  0.94515425  0.63748249  0.13748249  1
  Ge  Ge7  1  0.94515425  0.36251751  0.86251751  1
  Ge  Ge8  1  0.05484575  0.13748249  0.36251751  1
  Ge  Ge9  1  0.05484575  0.86251751  0.63748249  1
  O  O10  1  0.17178059  0.00000000  0.50000000  1
  O  O11  1  0.82821941  0.50000000  -0.00000000  1
  O  O12  1  0.25171076  0.63983434  0.13983434  1
  O  O13  1  0.25171076  0.36016566  0.86016566  1
  O  O14  1  0.74828924  0.13983434  0.36016566  1
  O  O15  1  0.74828924  0.86016566  0.63983434  1
  O  O16  1  0.21120776  0.07803274  0.19578233  1
  O  O17  1  0.21120776  0.92196726  0.80421767  1
  O  O18  1  0.78879224  0.19578233  0.92196726  1
  O  O19  1  0.78879224  0.42196726  0.69578233  1
  O  O20  1  0.78879224  0.80421767  0.07803274  1
  O  O21  1  0.78879224  0.57803274  0.30421767  1
  O  O22  1  0.21120776  0.30421767  0.42196726  1
  O  O23  1  0.21120776  0.69578233  0.57803274  1
