# generated using pymatgen
data_Y(AlFe)6
_symmetry_space_group_name_H-M   'P 1'
_cell_length_a   5.01117782
_cell_length_b   6.55859930
_cell_length_c   6.55859930
_cell_angle_alpha   99.22519455
_cell_angle_beta   112.45955058
_cell_angle_gamma   67.54044942
_symmetry_Int_Tables_number   1
_chemical_formula_structural   Y(AlFe)6
_chemical_formula_sum   'Y1 Al6 Fe6'
_cell_volume   184.07083553
_cell_formula_units_Z   1
loop_
 _symmetry_equiv_pos_site_id
 _symmetry_equiv_pos_as_xyz
  1  'x, y, z'
loop_
 _atom_site_type_symbol
 _atom_site_label
 _atom_site_symmetry_multiplicity
 _atom_site_fract_x
 _atom_site_fract_y
 _atom_site_fract_z
 _atom_site_occupancy
  Y  Y0  1  0.00000000  0.00000000  0.00000000  1
  Al  Al1  1  0.65365125  0.34634875  0.65365125  1
  Al  Al2  1  0.34634875  0.65365125  0.34634875  1
  Al  Al3  1  0.00000000  0.33729315  0.33729315  1
  Al  Al4  1  0.00000000  0.66270685  0.66270685  1
  Al  Al5  1  0.69214281  0.80785719  0.19214281  1
  Al  Al6  1  0.30785719  0.19214281  0.80785719  1
  Fe  Fe7  1  0.50000000  0.00000000  0.50000000  1
  Fe  Fe8  1  0.00000000  0.00000000  0.50000000  1
  Fe  Fe9  1  0.50000000  0.50000000  0.00000000  1
  Fe  Fe10  1  0.00000000  0.50000000  0.00000000  1
  Fe  Fe11  1  0.50000000  0.75979709  0.75979709  1
  Fe  Fe12  1  0.50000000  0.24020291  0.24020291  1
