# generated using pymatgen
data_Y3Ga7Cu4
_symmetry_space_group_name_H-M   'P 1'
_cell_length_a   4.19244246
_cell_length_b   8.03137665
_cell_length_c   8.06351088
_cell_angle_alpha   79.66763649
_cell_angle_beta   105.06791286
_cell_angle_gamma   74.87036067
_symmetry_Int_Tables_number   1
_chemical_formula_structural   Y3Ga7Cu4
_chemical_formula_sum   'Y3 Ga7 Cu4'
_cell_volume   244.02242256
_cell_formula_units_Z   1
loop_
 _symmetry_equiv_pos_site_id
 _symmetry_equiv_pos_as_xyz
  1  'x, y, z'
loop_
 _atom_site_type_symbol
 _atom_site_label
 _atom_site_symmetry_multiplicity
 _atom_site_fract_x
 _atom_site_fract_y
 _atom_site_fract_z
 _atom_site_occupancy
  Y  Y0  1  0.99435546  0.30979523  0.29850616  1
  Y  Y1  1  0.00564454  0.69020477  0.70149384  1
  Y  Y2  1  -0.00000000  0.00000000  -0.00000000  1
  Ga  Ga3  1  0.72006162  0.14141626  0.58153950  1
  Ga  Ga4  1  0.27993838  0.85858374  0.41846050  1
  Ga  Ga5  1  0.72781225  0.41300349  0.86862798  1
  Ga  Ga6  1  0.27218775  0.58699651  0.13137202  1
  Ga  Ga7  1  0.50000000  0.50000000  0.50000000  1
  Ga  Ga8  1  0.37765817  0.96756030  0.72287664  1
  Ga  Ga9  1  0.62234183  0.03243970  0.27712336  1
  Cu  Cu10  1  0.19584298  0.30280159  0.69448755  1
  Cu  Cu11  1  0.80415702  0.69719841  0.30551245  1
  Cu  Cu12  1  0.36081650  0.29642486  0.01805786  1
  Cu  Cu13  1  0.63918350  0.70357514  0.98194214  1
