# generated using pymatgen
data_ZrTaB4
_symmetry_space_group_name_H-M   'P 1'
_cell_length_a   3.14037362
_cell_length_b   3.14032233
_cell_length_c   6.85749290
_cell_angle_alpha   90.00000000
_cell_angle_beta   90.00000000
_cell_angle_gamma   120.00051623
_symmetry_Int_Tables_number   1
_chemical_formula_structural   ZrTaB4
_chemical_formula_sum   'Zr1 Ta1 B4'
_cell_volume   58.56650211
_cell_formula_units_Z   1
loop_
 _symmetry_equiv_pos_site_id
 _symmetry_equiv_pos_as_xyz
  1  'x, y, z'
loop_
 _atom_site_type_symbol
 _atom_site_label
 _atom_site_symmetry_multiplicity
 _atom_site_fract_x
 _atom_site_fract_y
 _atom_site_fract_z
 _atom_site_occupancy
  Zr  Zr0  1  0.99996344  1.00000000  0.50000000  1
  Ta  Ta1  1  0.99996524  1.00000000  0.00000000  1
  B  B2  1  0.33331717  0.66669867  0.24064011  1
  B  B3  1  0.33331717  0.66669867  0.75935989  1
  B  B4  1  0.66661849  0.33330133  0.24064011  1
  B  B5  1  0.66661849  0.33330133  0.75935989  1
