# generated using pymatgen
data_YVFe11
_symmetry_space_group_name_H-M   'P 1'
_cell_length_a   4.68596541
_cell_length_b   6.42629934
_cell_length_c   6.42629934
_cell_angle_alpha   97.88474688
_cell_angle_beta   111.38252738
_cell_angle_gamma   68.61747262
_symmetry_Int_Tables_number   1
_chemical_formula_structural   YVFe11
_chemical_formula_sum   'Y1 V1 Fe11'
_cell_volume   167.79188386
_cell_formula_units_Z   1
loop_
 _symmetry_equiv_pos_site_id
 _symmetry_equiv_pos_as_xyz
  1  'x, y, z'
loop_
 _atom_site_type_symbol
 _atom_site_label
 _atom_site_symmetry_multiplicity
 _atom_site_fract_x
 _atom_site_fract_y
 _atom_site_fract_z
 _atom_site_occupancy
  Y  Y0  1  0.00512105  0.99487895  0.00512105  1
  V  V1  1  0.63054578  0.36945422  0.63054578  1
  Fe  Fe2  1  0.50089264  0.99955743  0.50142187  1
  Fe  Fe3  1  0.00097180  0.99955743  0.50142187  1
  Fe  Fe4  1  0.50089264  0.49857813  0.00044257  1
  Fe  Fe5  1  0.00097180  0.49857813  0.00044257  1
  Fe  Fe6  1  0.72888073  0.77111927  0.22888073  1
  Fe  Fe7  1  0.27113937  0.22886063  0.77113937  1
  Fe  Fe8  1  0.49957494  0.77631359  0.77546346  1
  Fe  Fe9  1  0.49957494  0.22453654  0.22368641  1
  Fe  Fe10  1  0.36280058  0.63719942  0.36280058  1
  Fe  Fe11  1  0.99931687  0.35947887  0.35811262  1
  Fe  Fe12  1  0.99931687  0.64188738  0.64052113  1
