# generated using pymatgen
data_Zr3(Sn2Sb)2
_symmetry_space_group_name_H-M   'P 1'
_cell_length_a   5.58374890
_cell_length_b   5.58769851
_cell_length_c   7.69503803
_cell_angle_alpha   89.50557031
_cell_angle_beta   90.24738741
_cell_angle_gamma   120.02340149
_symmetry_Int_Tables_number   1
_chemical_formula_structural   Zr3(Sn2Sb)2
_chemical_formula_sum   'Zr3 Sn4 Sb2'
_cell_volume   207.86511864
_cell_formula_units_Z   1
loop_
 _symmetry_equiv_pos_site_id
 _symmetry_equiv_pos_as_xyz
  1  'x, y, z'
loop_
 _atom_site_type_symbol
 _atom_site_label
 _atom_site_symmetry_multiplicity
 _atom_site_fract_x
 _atom_site_fract_y
 _atom_site_fract_z
 _atom_site_occupancy
  Zr  Zr0  1  0.50195159  0.00421567  0.33007462  1
  Zr  Zr1  1  0.50195159  0.49773592  0.00325838  1
  Zr  Zr2  1  0.99592500  0.49796250  0.66666700  1
  Sn  Sn3  1  0.33410816  0.16705408  0.66666700  1
  Sn  Sn4  1  0.16883440  0.33620397  0.33561595  1
  Sn  Sn5  1  0.16883440  0.83263044  0.99771705  1
  Sn  Sn6  1  0.65993468  0.82996734  0.66666700  1
  Sb  Sb7  1  0.83423009  0.66709954  0.33410365  1
  Sb  Sb8  1  0.83423009  0.16713055  0.99922935  1
