# generated using pymatgen
data_Zr2P2SO12
_symmetry_space_group_name_H-M   'P 1'
_cell_length_a   9.02754732
_cell_length_b   9.11330543
_cell_length_c   12.61097341
_cell_angle_alpha   90.00000000
_cell_angle_beta   89.93657598
_cell_angle_gamma   90.00000000
_symmetry_Int_Tables_number   1
_chemical_formula_structural   Zr2P2SO12
_chemical_formula_sum   'Zr8 P8 S4 O48'
_cell_volume   1037.51418570
_cell_formula_units_Z   4
loop_
 _symmetry_equiv_pos_site_id
 _symmetry_equiv_pos_as_xyz
  1  'x, y, z'
loop_
 _atom_site_type_symbol
 _atom_site_label
 _atom_site_symmetry_multiplicity
 _atom_site_fract_x
 _atom_site_fract_y
 _atom_site_fract_z
 _atom_site_occupancy
  Zr  Zr0  1  0.75241874  0.96340594  0.38260778  1
  Zr  Zr1  1  0.75796752  0.46745278  0.11353045  1
  Zr  Zr2  1  0.74965773  0.03536698  0.88392281  1
  Zr  Zr3  1  0.74989185  0.54076743  0.62406163  1
  Zr  Zr4  1  0.25796752  0.03254722  0.61353045  1
  Zr  Zr5  1  0.25241874  0.53659406  0.88260778  1
  Zr  Zr6  1  0.24989185  0.95923257  0.12406163  1
  Zr  Zr7  1  0.24965773  0.46463302  0.38392281  1
  P  P8  1  0.89277686  0.11050080  0.14517486  1
  P  P9  1  0.89435949  0.38811767  0.85459116  1
  P  P10  1  0.60874903  0.89110479  0.64535232  1
  P  P11  1  0.39277686  0.38949920  0.64517486  1
  P  P12  1  0.10874903  0.60889521  0.14535232  1
  P  P13  1  0.39435949  0.11188233  0.35459116  1
  P  P14  1  0.53370895  0.75001113  0.00020994  1
  P  P15  1  0.03370895  0.74998887  0.50020994  1
  S  S16  1  0.60791160  0.60933088  0.35461313  1
  S  S17  1  0.10791160  0.89066912  0.85461313  1
  S  S18  1  0.96526217  0.25031002  0.50085371  1
  S  S19  1  0.46526217  0.24968998  0.00085371  1
  O  O20  1  0.63244363  0.64343285  0.06334554  1
  O  O21  1  0.86989038  0.14992358  0.43877983  1
  O  O22  1  0.86885031  0.35137640  0.56030852  1
  O  O23  1  0.63364565  0.85603139  0.93712228  1
  O  O24  1  0.36989038  0.35007642  0.93877983  1
  O  O25  1  0.13244363  0.85656715  0.56334554  1
  O  O26  1  0.13364565  0.64396861  0.43712228  1
  O  O27  1  0.36885031  0.14862360  0.06030852  1
  O  O28  1  0.67363464  0.51187437  0.27387962  1
  O  O29  1  0.82390413  0.01057244  0.23147590  1
  O  O30  1  0.82452408  0.48957739  0.76984753  1
  O  O31  1  0.67739335  0.98986392  0.73118906  1
  O  O32  1  0.32390413  0.48942756  0.73147590  1
  O  O33  1  0.17363464  0.98812563  0.77387962  1
  O  O34  1  0.17739335  0.51013608  0.23118906  1
  O  O35  1  0.32452408  0.01042261  0.26984753  1
  O  O36  1  0.93540492  0.83685002  0.42155725  1
  O  O37  1  0.55772941  0.33207264  0.07633460  1
  O  O38  1  0.55771367  0.16815711  0.92337694  1
  O  O39  1  0.93495416  0.66207879  0.57762891  1
  O  O40  1  0.05772941  0.16792736  0.57633460  1
  O  O41  1  0.43540492  0.66314998  0.92155725  1
  O  O42  1  0.43495416  0.83792121  0.07762891  1
  O  O43  1  0.05771367  0.33184289  0.42337694  1
  O  O44  1  0.64251477  0.76518889  0.33003342  1
  O  O45  1  0.85249034  0.27241215  0.16824292  1
  O  O46  1  0.85347663  0.22723933  0.83160631  1
  O  O47  1  0.64452764  0.72801934  0.66814207  1
  O  O48  1  0.35249034  0.22758785  0.66824292  1
  O  O49  1  0.14251477  0.73481111  0.83003342  1
  O  O50  1  0.14452764  0.77198066  0.16814207  1
  O  O51  1  0.35347663  0.27276067  0.33160631  1
  O  O52  1  0.93858896  0.59081382  0.14787500  1
  O  O53  1  0.56280132  0.08871504  0.35309852  1
  O  O54  1  0.56247471  0.41079126  0.64559381  1
  O  O55  1  0.94437514  0.90594848  0.85211622  1
  O  O56  1  0.06280132  0.41128496  0.85309852  1
  O  O57  1  0.43858896  0.90918618  0.64787500  1
  O  O58  1  0.44437514  0.59405152  0.35211622  1
  O  O59  1  0.06247471  0.08920874  0.14559381  1
  O  O60  1  0.66622183  0.56948734  0.45958532  1
  O  O61  1  0.83080189  0.06853344  0.03518815  1
  O  O62  1  0.83014017  0.43107145  0.96364834  1
  O  O63  1  0.66879430  0.93136525  0.53510614  1
  O  O64  1  0.33080189  0.43146656  0.53518815  1
  O  O65  1  0.16622183  0.93051266  0.95958532  1
  O  O66  1  0.16879430  0.56863475  0.03510614  1
  O  O67  1  0.33014017  0.06892855  0.46364834  1
