# generated using pymatgen
data_Li4Cr3(FeO4)3
_symmetry_space_group_name_H-M   'P 1'
_cell_length_a   5.31445650
_cell_length_b   5.31482933
_cell_length_c   8.98144118
_cell_angle_alpha   99.77287530
_cell_angle_beta   80.22862179
_cell_angle_gamma   64.75327416
_symmetry_Int_Tables_number   1
_chemical_formula_structural   Li4Cr3(FeO4)3
_chemical_formula_sum   'Li4 Cr3 Fe3 O12'
_cell_volume   217.62124262
_cell_formula_units_Z   1
loop_
 _symmetry_equiv_pos_site_id
 _symmetry_equiv_pos_as_xyz
  1  'x, y, z'
loop_
 _atom_site_type_symbol
 _atom_site_label
 _atom_site_symmetry_multiplicity
 _atom_site_fract_x
 _atom_site_fract_y
 _atom_site_fract_z
 _atom_site_occupancy
  Li  Li0  1  0.17013793  0.82994159  0.65978679  1
  Li  Li1  1  0.82988515  0.17016224  0.34027157  1
  Li  Li2  1  0.91966537  0.58033466  0.16067837  1
  Li  Li3  1  0.58034746  0.91964703  0.83924641  1
  Cr  Cr4  1  0.41439244  0.08556027  0.17120977  1
  Cr  Cr5  1  0.08558880  0.41438355  0.82876460  1
  Cr  Cr6  1  0.74999564  0.74991676  0.49999256  1
  Fe  Fe7  1  0.00004570  0.00002334  0.00005084  1
  Fe  Fe8  1  0.33551955  0.66449264  0.32895665  1
  Fe  Fe9  1  0.66444101  0.33552860  0.67108522  1
  O  O10  1  0.21930831  0.21927855  0.99998083  1
  O  O11  1  0.10424833  0.45113572  0.32647334  1
  O  O12  1  0.17999708  0.87279349  0.17338076  1
  O  O13  1  0.45111863  0.10426465  0.67347627  1
  O  O14  1  0.64663083  0.30062396  0.17335268  1
  O  O15  1  0.30067470  0.64660274  0.82666553  1
  O  O16  1  0.52892072  0.52890910  0.50002090  1
  O  O17  1  0.56932456  0.87525140  0.32644621  1
  O  O18  1  0.78067635  0.78068578  0.99997157  1
  O  O19  1  0.87270082  0.18007933  0.82665197  1
  O  O20  1  0.87531793  0.56925790  0.67351533  1
  O  O21  1  0.97106170  0.97112469  0.50002384  1
