# generated using pymatgen
data_YbGd(PO4)2
_symmetry_space_group_name_H-M   'P 1'
_cell_length_a   5.81681694
_cell_length_b   5.81681694
_cell_length_c   5.81681694
_cell_angle_alpha   63.67111737
_cell_angle_beta   73.84490053
_cell_angle_gamma   106.15509947
_symmetry_Int_Tables_number   1
_chemical_formula_structural   YbGd(PO4)2
_chemical_formula_sum   'Yb1 Gd1 P2 O8'
_cell_volume   149.86095813
_cell_formula_units_Z   1
loop_
 _symmetry_equiv_pos_site_id
 _symmetry_equiv_pos_as_xyz
  1  'x, y, z'
loop_
 _atom_site_type_symbol
 _atom_site_label
 _atom_site_symmetry_multiplicity
 _atom_site_fract_x
 _atom_site_fract_y
 _atom_site_fract_z
 _atom_site_occupancy
  Yb  Yb0  1  0.75000000  0.62500000  0.12500000  1
  Gd  Gd1  1  0.25000000  0.37500000  0.87500000  1
  P  P2  1  0.75000000  0.12500000  0.62500000  1
  P  P3  1  0.25000000  0.87500000  0.37500000  1
  O  O4  1  0.92450702  0.27984718  0.29564580  1
  O  O5  1  0.07532712  0.85546701  0.21986011  1
  O  O6  1  0.42467288  0.20481277  0.21986011  1
  O  O7  1  0.57549298  0.27984718  0.64465984  1
  O  O8  1  0.07532712  0.71986011  0.70481277  1
  O  O9  1  0.92450702  0.14465984  0.77984718  1
  O  O10  1  0.57549298  0.79564580  0.77984718  1
  O  O11  1  0.42467288  0.71986011  0.35546701  1
