# generated using pymatgen
data_Zn6B5Ir11
_symmetry_space_group_name_H-M   'P 1'
_cell_length_a   2.89481606
_cell_length_b   8.50171685
_cell_length_c   11.40728215
_cell_angle_alpha   90.00000000
_cell_angle_beta   90.00000000
_cell_angle_gamma   90.00000000
_symmetry_Int_Tables_number   1
_chemical_formula_structural   Zn6B5Ir11
_chemical_formula_sum   'Zn6 B5 Ir11'
_cell_volume   280.74355413
_cell_formula_units_Z   1
loop_
 _symmetry_equiv_pos_site_id
 _symmetry_equiv_pos_as_xyz
  1  'x, y, z'
loop_
 _atom_site_type_symbol
 _atom_site_label
 _atom_site_symmetry_multiplicity
 _atom_site_fract_x
 _atom_site_fract_y
 _atom_site_fract_z
 _atom_site_occupancy
  Zn  Zn0  1  0.50000000  0.65040505  0.50000000  1
  Zn  Zn1  1  0.50000000  0.35027871  0.50000000  1
  Zn  Zn2  1  0.50000000  0.00169092  0.50000000  1
  Zn  Zn3  1  0.50000000  0.48884298  0.00000000  1
  Zn  Zn4  1  0.50000000  0.00854052  0.19930701  1
  Zn  Zn5  1  0.50000000  0.00854052  0.80069299  1
  B  B6  1  0.50000000  0.68130131  0.26709997  1
  B  B7  1  0.50000000  0.31522185  0.25476505  1
  B  B8  1  0.50000000  0.31522185  0.74523495  1
  B  B9  1  0.50000000  0.68130131  0.73290003  1
  B  B10  1  0.50000000  0.82358062  0.00000000  1
  Ir  Ir11  1  -0.00000000  0.49917830  0.32038227  1
  Ir  Ir12  1  -0.00000000  0.49917830  0.67961773  1
  Ir  Ir13  1  -0.00000000  0.82986629  0.35234285  1
  Ir  Ir14  1  -0.00000000  0.17472900  0.35478225  1
  Ir  Ir15  1  -0.00000000  0.17472900  0.64521775  1
  Ir  Ir16  1  -0.00000000  0.82986629  0.64765715  1
  Ir  Ir17  1  0.00000000  0.70759900  0.12137755  1
  Ir  Ir18  1  0.00000000  0.27829700  0.11924149  1
  Ir  Ir19  1  0.00000000  0.27829700  0.88075851  1
  Ir  Ir20  1  0.00000000  0.70759900  0.87862245  1
  Ir  Ir21  1  -0.00000000  0.00373520  0.00000000  1
