# generated using pymatgen
data_Zn2Pd
_symmetry_space_group_name_H-M   'P 1'
_cell_length_a   5.32793653
_cell_length_b   5.32793653
_cell_length_c   12.32529312
_cell_angle_alpha   90.00000000
_cell_angle_beta   90.00000000
_cell_angle_gamma   90.86625624
_symmetry_Int_Tables_number   1
_chemical_formula_structural   Zn2Pd
_chemical_formula_sum   'Zn16 Pd8'
_cell_volume   349.83697049
_cell_formula_units_Z   8
loop_
 _symmetry_equiv_pos_site_id
 _symmetry_equiv_pos_as_xyz
  1  'x, y, z'
loop_
 _atom_site_type_symbol
 _atom_site_label
 _atom_site_symmetry_multiplicity
 _atom_site_fract_x
 _atom_site_fract_y
 _atom_site_fract_z
 _atom_site_occupancy
  Zn  Zn0  1  0.27827253  0.72172747  0.00776563  1
  Zn  Zn1  1  0.72172747  0.27827253  0.00776563  1
  Zn  Zn2  1  -0.00000000  0.50000000  0.16674129  1
  Zn  Zn3  1  0.50000000  0.00000000  0.83320280  1
  Zn  Zn4  1  -0.00000000  0.50000000  0.83320280  1
  Zn  Zn5  1  0.50000000  0.00000000  0.16674129  1
  Zn  Zn6  1  -0.00000000  0.00000000  0.16662944  1
  Zn  Zn7  1  -0.00000000  0.00000000  0.82898737  1
  Zn  Zn8  1  0.72195263  0.72195263  0.66484585  1
  Zn  Zn9  1  0.27804737  0.27804737  0.66484585  1
  Zn  Zn10  1  0.28191040  0.28191040  0.32982662  1
  Zn  Zn11  1  0.71808960  0.71808960  0.32982662  1
  Zn  Zn12  1  -0.00000000  0.00000000  0.50273478  1
  Zn  Zn13  1  -0.00000000  0.50000000  0.49989803  1
  Zn  Zn14  1  0.50000000  0.00000000  0.49989803  1
  Zn  Zn15  1  0.50000000  0.50000000  0.83673035  1
  Pd  Pd16  1  0.21334490  0.78665510  0.33835157  1
  Pd  Pd17  1  0.78665510  0.21334490  0.33835157  1
  Pd  Pd18  1  0.22367988  0.77632012  0.66627758  1
  Pd  Pd19  1  0.77632012  0.22367988  0.66627758  1
  Pd  Pd20  1  0.50000000  0.50000000  0.49717692  1
  Pd  Pd21  1  0.50000000  0.50000000  0.16892633  1
  Pd  Pd22  1  0.78051819  0.78051819  0.99249805  1
  Pd  Pd23  1  0.21948181  0.21948181  0.99249805  1
