# generated using pymatgen
data_Y9Al5S21
_symmetry_space_group_name_H-M   'P 1'
_cell_length_a   11.44239523
_cell_length_b   11.44108565
_cell_length_c   11.44155658
_cell_angle_alpha   94.21344626
_cell_angle_beta   85.77408145
_cell_angle_gamma   85.77985122
_symmetry_Int_Tables_number   1
_chemical_formula_structural   Y9Al5S21
_chemical_formula_sum   'Y18 Al10 S42'
_cell_volume   1485.03645800
_cell_formula_units_Z   2
loop_
 _symmetry_equiv_pos_site_id
 _symmetry_equiv_pos_as_xyz
  1  'x, y, z'
loop_
 _atom_site_type_symbol
 _atom_site_label
 _atom_site_symmetry_multiplicity
 _atom_site_fract_x
 _atom_site_fract_y
 _atom_site_fract_z
 _atom_site_occupancy
  Y  Y0  1  0.26185941  0.11525640  0.87833915  1
  Y  Y1  1  0.92763159  0.45590832  0.22334633  1
  Y  Y2  1  0.60166849  0.76730849  0.54879832  1
  Y  Y3  1  0.45120851  0.39833716  0.76731871  1
  Y  Y4  1  0.12168081  0.73813704  0.11527247  1
  Y  Y5  1  0.77666626  0.07236261  0.45591180  1
  Y  Y6  1  0.54407374  0.22333134  0.07237719  1
  Y  Y7  1  0.23267756  0.54877949  0.39834164  1
  Y  Y8  1  0.88472679  0.87831491  0.73814674  1
  Y  Y9  1  0.41652094  0.20619327  0.43537228  1
  Y  Y10  1  0.07064338  0.54633248  0.77847801  1
  Y  Y11  1  0.75649668  0.87421302  0.10055997  1
  Y  Y12  1  0.22150427  0.92934999  0.54631318  1
  Y  Y13  1  0.89942371  0.24348857  0.87420765  1
  Y  Y14  1  0.56462048  0.58348029  0.20618046  1
  Y  Y15  1  0.12579870  0.10057710  0.24349096  1
  Y  Y16  1  0.79382354  0.43540385  0.58348408  1
  Y  Y17  1  0.45369306  0.77849825  0.92935572  1
  Al  Al18  1  0.95237145  0.72117814  0.38799428  1
  Al  Al19  1  0.61204233  0.04759078  0.72124726  1
  Al  Al20  1  0.27879216  0.38793349  0.04767683  1
  Al  Al21  1  0.45219439  0.88311548  0.22522141  1
  Al  Al22  1  0.11692464  0.22530343  0.54777141  1
  Al  Al23  1  0.77471108  0.54786645  0.88305023  1
  Al  Al24  1  0.14011308  0.85988868  0.85989199  1
  Al  Al25  1  0.82281123  0.17718274  0.17718449  1
  Al  Al26  1  0.32295942  0.67704421  0.67703499  1
  Al  Al27  1  0.64060093  0.35939532  0.35938960  1
  S  S28  1  0.82718615  0.84051646  0.50925695  1
  S  S29  1  0.49073243  0.17282603  0.84051310  1
  S  S30  1  0.15948880  0.50927107  0.17281607  1
  S  S31  1  0.65942637  0.67398651  0.00799499  1
  S  S32  1  0.32599829  0.00799858  0.34059256  1
  S  S33  1  0.99199487  0.34058328  0.67399819  1
  S  S34  1  0.99092052  0.53859619  0.44611987  1
  S  S35  1  0.64502250  0.86667867  0.78130997  1
  S  S36  1  0.30674752  0.20411637  0.10335731  1
  S  S37  1  0.89661299  0.69323552  0.20406751  1
  S  S38  1  0.55385681  0.00907532  0.53856265  1
  S  S39  1  0.21865693  0.35498335  0.86661219  1
  S  S40  1  0.13337233  0.78132626  0.35498096  1
  S  S41  1  0.79592597  0.10337487  0.69324736  1
  S  S42  1  0.46143363  0.44614464  0.00907773  1
  S  S43  1  0.52567924  0.96369135  0.06462443  1
  S  S44  1  0.19057384  0.29691567  0.38399545  1
  S  S45  1  0.84380935  0.62860283  0.71960836  1
  S  S46  1  0.61606496  0.80940405  0.29695623  1
  S  S47  1  0.28043303  0.15617822  0.62863910  1
  S  S48  1  0.93543519  0.47430092  0.96372966  1
  S  S49  1  0.37137050  0.71957155  0.15617228  1
  S  S50  1  0.03628563  0.06459049  0.47430453  1
  S  S51  1  0.70304741  0.38394889  0.80940958  1
  S  S52  1  0.68807723  0.55627462  0.41157474  1
  S  S53  1  0.33237484  0.89457710  0.76141105  1
  S  S54  1  0.99870793  0.23925893  0.10266209  1
  S  S55  1  0.89733949  0.00130235  0.23925416  1
  S  S56  1  0.58841916  0.31191341  0.55627470  1
  S  S57  1  0.23858941  0.66762002  0.89457868  1
  S  S58  1  0.10543195  0.76141771  0.66761923  1
  S  S59  1  0.76074572  0.10266554  0.00128046  1
  S  S60  1  0.44373274  0.41157886  0.31191288  1
  S  S61  1  0.61950334  0.15403333  0.28717930  1
  S  S62  1  0.27121940  0.49028724  0.62415342  1
  S  S63  1  0.95897703  0.79667885  0.94440488  1
  S  S64  1  0.37584448  0.72877761  0.49029053  1
  S  S65  1  0.05558951  0.04103154  0.79668426  1
  S  S66  1  0.71282196  0.38051022  0.15404098  1
  S  S67  1  0.20331348  0.94440551  0.04102583  1
  S  S68  1  0.84595356  0.28717358  0.38050961  1
  S  S69  1  0.50971089  0.62413915  0.72877301  1
