# generated using pymatgen
data_Zr14Cu51
_symmetry_space_group_name_H-M   'P 1'
_cell_length_a   8.33736489
_cell_length_b   11.26582085
_cell_length_c   11.26658687
_cell_angle_alpha   60.01185256
_cell_angle_beta   90.00000000
_cell_angle_gamma   90.00000000
_symmetry_Int_Tables_number   1
_chemical_formula_structural   Zr14Cu51
_chemical_formula_sum   'Zr14 Cu51'
_cell_volume   916.57183619
_cell_formula_units_Z   1
loop_
 _symmetry_equiv_pos_site_id
 _symmetry_equiv_pos_as_xyz
  1  'x, y, z'
loop_
 _atom_site_type_symbol
 _atom_site_label
 _atom_site_symmetry_multiplicity
 _atom_site_fract_x
 _atom_site_fract_y
 _atom_site_fract_z
 _atom_site_occupancy
  Zr  Zr0  1  0.31135097  0.99994492  0.99996572  1
  Zr  Zr1  1  0.68864903  0.99994492  0.99996572  1
  Zr  Zr2  1  0.00000000  0.27026031  0.61550288  1
  Zr  Zr3  1  0.00000000  0.11432682  0.27033059  1
  Zr  Zr4  1  0.00000000  0.61526710  0.11452367  1
  Zr  Zr5  1  0.00000000  0.72247887  0.39229381  1
  Zr  Zr6  1  0.00000000  0.88517522  0.72254876  1
  Zr  Zr7  1  0.00000000  0.39245836  0.88496158  1
  Zr  Zr8  1  0.50000000  0.67325015  0.85708143  1
  Zr  Zr9  1  0.50000000  0.46974541  0.67324301  1
  Zr  Zr10  1  0.50000000  0.85708889  0.46971205  1
  Zr  Zr11  1  0.50000000  0.32881462  0.14401132  1
  Zr  Zr12  1  0.50000000  0.52706266  0.32874434  1
  Zr  Zr13  1  0.50000000  0.14405148  0.52719681  1
  Cu  Cu14  1  0.50000000  0.18156947  0.76071573  1
  Cu  Cu15  1  0.50000000  0.05776552  0.18156736  1
  Cu  Cu16  1  0.50000000  0.76070058  0.05771550  1
  Cu  Cu17  1  0.50000000  0.81891714  0.24075569  1
  Cu  Cu18  1  0.50000000  0.94031353  0.81886447  1
  Cu  Cu19  1  0.50000000  0.24074218  0.94035922  1
  Cu  Cu20  1  0.24604891  0.07552884  0.72889615  1
  Cu  Cu21  1  0.24600433  0.19560520  0.07543653  1
  Cu  Cu22  1  0.24598640  0.72894123  0.19567028  1
  Cu  Cu23  1  0.23197144  0.92769006  0.26075918  1
  Cu  Cu24  1  0.23201600  0.81141892  0.92771293  1
  Cu  Cu25  1  0.23204158  0.26075209  0.81145934  1
  Cu  Cu26  1  0.76802856  0.92769006  0.26075918  1
  Cu  Cu27  1  0.76798400  0.81141892  0.92771293  1
  Cu  Cu28  1  0.76795842  0.26075209  0.81145934  1
  Cu  Cu29  1  0.75395109  0.07552884  0.72889615  1
  Cu  Cu30  1  0.75399567  0.19560520  0.07543653  1
  Cu  Cu31  1  0.75401360  0.72894123  0.19567028  1
  Cu  Cu32  1  0.00000000  0.66672936  0.66657655  1
  Cu  Cu33  1  0.00000000  0.33327986  0.33346046  1
  Cu  Cu34  1  0.32895837  0.33285709  0.56357644  1
  Cu  Cu35  1  0.32891752  0.10356988  0.33276834  1
  Cu  Cu36  1  0.32887146  0.56359470  0.10358421  1
  Cu  Cu37  1  0.32944235  0.66566754  0.43894356  1
  Cu  Cu38  1  0.32934742  0.89541604  0.66571372  1
  Cu  Cu39  1  0.32936629  0.43891028  0.89538085  1
  Cu  Cu40  1  0.67055765  0.66566754  0.43894356  1
  Cu  Cu41  1  0.67065258  0.89541604  0.66571372  1
  Cu  Cu42  1  0.67063371  0.43891028  0.89538085  1
  Cu  Cu43  1  0.67104163  0.33285709  0.56357644  1
  Cu  Cu44  1  0.67108248  0.10356988  0.33276834  1
  Cu  Cu45  1  0.67112854  0.56359470  0.10358421  1
  Cu  Cu46  1  0.29280727  0.66670647  0.66667338  1
  Cu  Cu47  1  0.29240025  0.33324955  0.33334704  1
  Cu  Cu48  1  0.70759975  0.33324955  0.33334704  1
  Cu  Cu49  1  0.70719273  0.66670647  0.66667338  1
  Cu  Cu50  1  0.15289870  0.62204734  0.88479512  1
  Cu  Cu51  1  0.15295894  0.49312448  0.62207206  1
  Cu  Cu52  1  0.15292213  0.88484979  0.49311996  1
  Cu  Cu53  1  0.15221398  0.38135889  0.11575610  1
  Cu  Cu54  1  0.15226542  0.50287299  0.38139308  1
  Cu  Cu55  1  0.15223393  0.11562719  0.50289474  1
  Cu  Cu56  1  0.84778602  0.38135889  0.11575610  1
  Cu  Cu57  1  0.84773458  0.50287299  0.38139308  1
  Cu  Cu58  1  0.84776607  0.11562719  0.50289474  1
  Cu  Cu59  1  0.84710130  0.62204734  0.88479512  1
  Cu  Cu60  1  0.84704106  0.49312448  0.62207206  1
  Cu  Cu61  1  0.84707787  0.88484979  0.49311996  1
  Cu  Cu62  1  0.00000000  0.01755982  0.86658740  1
  Cu  Cu63  1  0.00000000  0.11615327  0.01734256  1
  Cu  Cu64  1  0.00000000  0.86682233  0.11606736  1
