# generated using pymatgen
data_TiNbTlO5
_symmetry_space_group_name_H-M   'P 1'
_cell_length_a   3.83978828
_cell_length_b   6.52782838
_cell_length_c   19.19722018
_cell_angle_alpha   90.00000000
_cell_angle_beta   90.00000000
_cell_angle_gamma   90.00000000
_symmetry_Int_Tables_number   1
_chemical_formula_structural   TiNbTlO5
_chemical_formula_sum   'Ti4 Nb4 Tl4 O20'
_cell_volume   481.18751750
_cell_formula_units_Z   4
loop_
 _symmetry_equiv_pos_site_id
 _symmetry_equiv_pos_as_xyz
  1  'x, y, z'
loop_
 _atom_site_type_symbol
 _atom_site_label
 _atom_site_symmetry_multiplicity
 _atom_site_fract_x
 _atom_site_fract_y
 _atom_site_fract_z
 _atom_site_occupancy
  Ti  Ti0  1  0.75000000  0.18288024  0.53310839  1
  Ti  Ti1  1  0.75000000  0.68288024  0.96689161  1
  Ti  Ti2  1  0.25000000  0.81711976  0.46689161  1
  Ti  Ti3  1  0.25000000  0.31711976  0.03310839  1
  Nb  Nb4  1  0.75000000  0.72808467  0.60733578  1
  Nb  Nb5  1  0.75000000  0.22808467  0.89266422  1
  Nb  Nb6  1  0.25000000  0.27191533  0.39266422  1
  Nb  Nb7  1  0.25000000  0.77191533  0.10733578  1
  Tl  Tl8  1  0.75000000  0.72930851  0.30418966  1
  Tl  Tl9  1  0.75000000  0.22930851  0.19581034  1
  Tl  Tl10  1  0.25000000  0.27069149  0.69581034  1
  Tl  Tl11  1  0.25000000  0.77069149  0.80418966  1
  O  O12  1  0.75000000  0.25941634  0.42237431  1
  O  O13  1  0.75000000  0.75941634  0.07762569  1
  O  O14  1  0.25000000  0.74058366  0.57762569  1
  O  O15  1  0.25000000  0.24058366  0.92237431  1
  O  O16  1  0.75000000  0.03592900  0.61683234  1
  O  O17  1  0.75000000  0.53592900  0.88316766  1
  O  O18  1  0.25000000  0.96407100  0.38316766  1
  O  O19  1  0.25000000  0.46407100  0.11683234  1
  O  O20  1  0.75000000  0.43552142  0.57062752  1
  O  O21  1  0.75000000  0.93552142  0.92937248  1
  O  O22  1  0.25000000  0.56447858  0.42937248  1
  O  O23  1  0.25000000  0.06447858  0.07062752  1
  O  O24  1  0.75000000  0.85541901  0.49023901  1
  O  O25  1  0.75000000  0.35541901  0.00976099  1
  O  O26  1  0.25000000  0.14458099  0.50976099  1
  O  O27  1  0.25000000  0.64458099  0.99023901  1
  O  O28  1  0.75000000  0.66807289  0.69944118  1
  O  O29  1  0.75000000  0.16807289  0.80055882  1
  O  O30  1  0.25000000  0.33192711  0.30055882  1
  O  O31  1  0.25000000  0.83192711  0.19944118  1
