# generated using pymatgen
data_Tm5Co19P12
_symmetry_space_group_name_H-M   'P 1'
_cell_length_a   3.64627779
_cell_length_b   11.93929655
_cell_length_c   11.93929588
_cell_angle_alpha   60.00171160
_cell_angle_beta   90.00030396
_cell_angle_gamma   89.99969599
_symmetry_Int_Tables_number   1
_chemical_formula_structural   Tm5Co19P12
_chemical_formula_sum   'Tm5 Co19 P12'
_cell_volume   450.13763863
_cell_formula_units_Z   1
loop_
 _symmetry_equiv_pos_site_id
 _symmetry_equiv_pos_as_xyz
  1  'x, y, z'
loop_
 _atom_site_type_symbol
 _atom_site_label
 _atom_site_symmetry_multiplicity
 _atom_site_fract_x
 _atom_site_fract_y
 _atom_site_fract_z
 _atom_site_occupancy
  Tm  Tm0  1  0.00003198  0.33337547  0.33337051  1
  Tm  Tm1  1  0.00003198  0.66662949  0.66662453  1
  Tm  Tm2  1  0.50327429  0.81310016  0.18689984  1
  Tm  Tm3  1  0.50327697  0.18682578  -0.00000122  1
  Tm  Tm4  1  0.50327697  0.00000122  0.81317422  1
  Co  Co5  1  0.00092272  0.17801582  0.19913782  1
  Co  Co6  1  0.00093556  0.19904191  0.62283936  1
  Co  Co7  1  0.00092948  0.62285533  0.17800951  1
  Co  Co8  1  0.00092272  0.80086218  0.82198418  1
  Co  Co9  1  0.00093556  0.37716064  0.80095809  1
  Co  Co10  1  0.00092948  0.82199049  0.37714467  1
  Co  Co11  1  0.00057025  0.44761626  0.55238374  1
  Co  Co12  1  0.00057413  0.55232435  0.00003448  1
  Co  Co13  1  0.00057413  0.99996552  0.44767565  1
  Co  Co14  1  0.50028287  0.35759152  0.12591727  1
  Co  Co15  1  0.50028888  0.12598219  0.51642934  1
  Co  Co16  1  0.50028542  0.51650303  0.35752031  1
  Co  Co17  1  0.50028287  0.87408273  0.64240848  1
  Co  Co18  1  0.50028888  0.48357066  0.87401781  1
  Co  Co19  1  0.50028542  0.64247969  0.48349697  1
  Co  Co20  1  0.50267857  0.28469294  0.71530706  1
  Co  Co21  1  0.50267245  0.71520889  0.00009034  1
  Co  Co22  1  0.50267245  -0.00009034  0.28479111  1
  Co  Co23  1  0.00668285  0.00001203  -0.00001203  1
  P  P24  1  0.00091139  0.63342718  0.36657282  1
  P  P25  1  0.00092263  0.36666311  0.99997897  1
  P  P26  1  0.00092263  0.00002103  0.63333689  1
  P  P27  1  0.50039879  0.16623533  0.31452450  1
  P  P28  1  0.50040329  0.31449976  0.51923245  1
  P  P29  1  0.50040380  0.51937932  0.16624138  1
  P  P30  1  0.50039879  0.68547550  0.83376467  1
  P  P31  1  0.50040329  0.48076755  0.68550024  1
  P  P32  1  0.50040380  0.83375862  0.48062068  1
  P  P33  1  0.00273346  0.18026573  0.81973427  1
  P  P34  1  0.00274563  0.81962744  0.00001852  1
  P  P35  1  0.00274563  0.99998148  0.18037256  1
