# generated using pymatgen
data_Li5Ti3V2(PO4)6
_symmetry_space_group_name_H-M   'P 1'
_cell_length_a   8.50057341
_cell_length_b   8.94753550
_cell_length_c   8.95735421
_cell_angle_alpha   59.79207741
_cell_angle_beta   58.71883334
_cell_angle_gamma   58.55384271
_symmetry_Int_Tables_number   1
_chemical_formula_structural   Li5Ti3V2(PO4)6
_chemical_formula_sum   'Li5 Ti3 V2 P6 O24'
_cell_volume   470.85917832
_cell_formula_units_Z   1
loop_
 _symmetry_equiv_pos_site_id
 _symmetry_equiv_pos_as_xyz
  1  'x, y, z'
loop_
 _atom_site_type_symbol
 _atom_site_label
 _atom_site_symmetry_multiplicity
 _atom_site_fract_x
 _atom_site_fract_y
 _atom_site_fract_z
 _atom_site_occupancy
  Li  Li0  1  0.52381690  0.16122978  0.15727877  1
  Li  Li1  1  0.25362319  0.85753749  0.64298934  1
  Li  Li2  1  0.71522372  0.14666059  0.33305087  1
  Li  Li3  1  0.71576164  0.80522798  0.14501054  1
  Li  Li4  1  0.71432599  0.33576899  0.80557070  1
  Ti  Ti5  1  0.06887198  0.64153512  0.64438262  1
  Ti  Ti6  1  0.43898233  0.85209108  0.85752413  1
  Ti  Ti7  1  0.95230229  0.34999080  0.34726364  1
  V  V8  1  0.99783340  0.00105241  0.00481809  1
  V  V9  1  0.49327665  0.49846413  0.50104292  1
  P  P10  1  0.25638320  0.24763697  0.55107293  1
  P  P11  1  0.25851365  0.94589785  0.24363997  1
  P  P12  1  0.25707475  0.55152894  0.94524452  1
  P  P13  1  0.75551140  0.45251843  0.04564609  1
  P  P14  1  0.76287015  0.04467007  0.74534641  1
  P  P15  1  0.74509587  0.74816462  0.45442308  1
  O  O16  1  0.07302886  0.10690586  0.30836344  1
  O  O17  1  0.07051983  0.51403807  0.10326932  1
  O  O18  1  0.07073713  0.31338450  0.50860100  1
  O  O19  1  0.22849515  0.08669962  0.74160533  1
  O  O20  1  0.44639615  0.18484143  0.40003107  1
  O  O21  1  0.26394767  0.40221555  0.57947033  1
  O  O22  1  0.23039394  0.92867763  0.09429495  1
  O  O23  1  0.26741038  0.75830197  0.40915636  1
  O  O24  1  0.56750272  0.60960274  0.00639822  1
  O  O25  1  0.27169694  0.58153199  0.74866494  1
  O  O26  1  0.78144736  0.26347097  0.05453391  1
  O  O27  1  0.58568892  0.99756307  0.80470684  1
  O  O28  1  0.44915422  0.97187869  0.18006287  1
  O  O29  1  0.22619401  0.75039882  0.92412745  1
  O  O30  1  0.72953818  0.42700429  0.24392056  1
  O  O31  1  0.44754109  0.40015847  0.97058033  1
  O  O32  1  0.73438263  0.24256258  0.59485312  1
  O  O33  1  0.77932529  0.05995959  0.90201668  1
  O  O34  1  0.73160923  0.59752141  0.42172371  1
  O  O35  1  0.54791795  0.80927097  0.60699220  1
  O  O36  1  0.77684798  0.90347781  0.26550140  1
  O  O37  1  0.91797662  0.67517495  0.51463721  1
  O  O38  1  0.93555883  0.50348326  0.89551391  1
  O  O39  1  0.95722079  0.89490153  0.67366722  1
