# generated using pymatgen
data_TiNbBiO6
_symmetry_space_group_name_H-M   'P 1'
_cell_length_a   5.37333920
_cell_length_b   6.99613087
_cell_length_c   7.65928747
_cell_angle_alpha   67.80772463
_cell_angle_beta   69.69457957
_cell_angle_gamma   81.72205632
_symmetry_Int_Tables_number   1
_chemical_formula_structural   TiNbBiO6
_chemical_formula_sum   'Ti2 Nb2 Bi2 O12'
_cell_volume   250.00749280
_cell_formula_units_Z   2
loop_
 _symmetry_equiv_pos_site_id
 _symmetry_equiv_pos_as_xyz
  1  'x, y, z'
loop_
 _atom_site_type_symbol
 _atom_site_label
 _atom_site_symmetry_multiplicity
 _atom_site_fract_x
 _atom_site_fract_y
 _atom_site_fract_z
 _atom_site_occupancy
  Ti  Ti0  1  0.28654265  0.87523245  0.48036358  1
  Ti  Ti1  1  0.80142956  0.88526251  0.96324696  1
  Nb  Nb2  1  0.71008644  0.12188268  0.52374428  1
  Nb  Nb3  1  0.20626860  0.11011637  0.03860067  1
  Bi  Bi4  1  0.74019891  0.50802714  0.74794757  1
  Bi  Bi5  1  0.27625350  0.52404667  0.24300382  1
  O  O6  1  0.15632007  0.61688680  0.55723812  1
  O  O7  1  0.84524011  0.38754542  0.43311825  1
  O  O8  1  0.01473541  0.03888022  0.32641817  1
  O  O9  1  0.98576334  0.94558467  0.68216504  1
  O  O10  1  0.29397024  0.37162450  0.01945025  1
  O  O11  1  0.69509711  0.63078103  0.98537047  1
  O  O12  1  0.55760503  0.81430432  0.59174888  1
  O  O13  1  0.43635585  0.18446857  0.40687206  1
  O  O14  1  0.47347733  0.89458258  0.19006998  1
  O  O15  1  0.52505930  0.09962844  0.80854361  1
  O  O16  1  0.92524575  0.18308379  0.93054629  1
  O  O17  1  0.07035084  0.80806182  0.07155202  1
