# generated using pymatgen
data_Tm3Ga2Ge3
_symmetry_space_group_name_H-M   'P 1'
_cell_length_a   7.73845977
_cell_length_b   7.73845977
_cell_length_c   7.73845977
_cell_angle_alpha   60.32897110
_cell_angle_beta   60.32897110
_cell_angle_gamma   90.57074539
_symmetry_Int_Tables_number   1
_chemical_formula_structural   Tm3Ga2Ge3
_chemical_formula_sum   'Tm6 Ga4 Ge6'
_cell_volume   329.29064410
_cell_formula_units_Z   2
loop_
 _symmetry_equiv_pos_site_id
 _symmetry_equiv_pos_as_xyz
  1  'x, y, z'
loop_
 _atom_site_type_symbol
 _atom_site_label
 _atom_site_symmetry_multiplicity
 _atom_site_fract_x
 _atom_site_fract_y
 _atom_site_fract_z
 _atom_site_occupancy
  Tm  Tm0  1  0.84147252  0.34147252  0.82133919  1
  Tm  Tm1  1  0.16281172  0.66281172  0.17866081  1
  Tm  Tm2  1  0.34147252  0.16281172  0.50000000  1
  Tm  Tm3  1  0.66281172  0.84147252  0.50000000  1
  Tm  Tm4  1  0.74529980  0.74529980  -0.00000000  1
  Tm  Tm5  1  0.24529980  0.24529980  -0.00000000  1
  Ga  Ga6  1  0.17688264  0.67688264  0.77931610  1
  Ga  Ga7  1  0.45619875  0.95619875  0.22068390  1
  Ga  Ga8  1  0.67688264  0.45619875  0.50000000  1
  Ga  Ga9  1  0.95619875  0.17688264  0.50000000  1
  Ge  Ge10  1  0.49428946  0.49428946  0.00000000  1
  Ge  Ge11  1  0.99428946  0.99428946  0.00000000  1
  Ge  Ge12  1  0.83257374  0.33257374  0.20789762  1
  Ge  Ge13  1  0.54047136  0.04047136  0.79210238  1
  Ge  Ge14  1  0.33257374  0.54047136  0.50000000  1
  Ge  Ge15  1  0.04047136  0.83257374  0.50000000  1
