# generated using pymatgen
data_Tm(AlFe)6
_symmetry_space_group_name_H-M   'P 1'
_cell_length_a   4.99468981
_cell_length_b   6.55406711
_cell_length_c   6.55406711
_cell_angle_alpha   99.21054949
_cell_angle_beta   112.39795350
_cell_angle_gamma   67.60204650
_symmetry_Int_Tables_number   1
_chemical_formula_structural   Tm(AlFe)6
_chemical_formula_sum   'Tm1 Al6 Fe6'
_cell_volume   183.37258370
_cell_formula_units_Z   1
loop_
 _symmetry_equiv_pos_site_id
 _symmetry_equiv_pos_as_xyz
  1  'x, y, z'
loop_
 _atom_site_type_symbol
 _atom_site_label
 _atom_site_symmetry_multiplicity
 _atom_site_fract_x
 _atom_site_fract_y
 _atom_site_fract_z
 _atom_site_occupancy
  Tm  Tm0  1  -0.00000000  -0.00000000  -0.00000000  1
  Al  Al1  1  0.65406541  0.34593459  0.65406541  1
  Al  Al2  1  0.34593459  0.65406541  0.34593459  1
  Al  Al3  1  0.00000000  0.33597904  0.33597904  1
  Al  Al4  1  -0.00000000  0.66402096  0.66402096  1
  Al  Al5  1  0.68912676  0.81087324  0.18912676  1
  Al  Al6  1  0.31087324  0.18912676  0.81087324  1
  Fe  Fe7  1  0.50000000  -0.00000000  0.50000000  1
  Fe  Fe8  1  -0.00000000  -0.00000000  0.50000000  1
  Fe  Fe9  1  0.50000000  0.50000000  -0.00000000  1
  Fe  Fe10  1  -0.00000000  0.50000000  -0.00000000  1
  Fe  Fe11  1  0.50000000  0.75931400  0.75931400  1
  Fe  Fe12  1  0.50000000  0.24068600  0.24068600  1
