# generated using pymatgen
data_Tm4Co3
_symmetry_space_group_name_H-M   'P 1'
_cell_length_a   4.01849830
_cell_length_b   11.05841463
_cell_length_c   11.04770718
_cell_angle_alpha   60.00124907
_cell_angle_beta   90.00345668
_cell_angle_gamma   90.03070555
_symmetry_Int_Tables_number   1
_chemical_formula_structural   Tm4Co3
_chemical_formula_sum   'Tm12 Co9'
_cell_volume   425.17217625
_cell_formula_units_Z   3
loop_
 _symmetry_equiv_pos_site_id
 _symmetry_equiv_pos_as_xyz
  1  'x, y, z'
loop_
 _atom_site_type_symbol
 _atom_site_label
 _atom_site_symmetry_multiplicity
 _atom_site_fract_x
 _atom_site_fract_y
 _atom_site_fract_z
 _atom_site_occupancy
  Tm  Tm0  1  0.74963330  0.62016965  0.86608943  1
  Tm  Tm1  1  0.74969761  0.51413529  0.61988821  1
  Tm  Tm2  1  0.74958672  0.86614549  0.51379457  1
  Tm  Tm3  1  0.25036670  0.37983035  0.13391057  1
  Tm  Tm4  1  0.25030239  0.48586471  0.38011179  1
  Tm  Tm5  1  0.25041328  0.13385451  0.48620543  1
  Tm  Tm6  1  0.74954874  0.77670792  0.24641392  1
  Tm  Tm7  1  0.74939467  0.97687888  0.77675872  1
  Tm  Tm8  1  0.74932458  0.24637598  0.97702674  1
  Tm  Tm9  1  0.25045126  0.22329208  0.75358608  1
  Tm  Tm10  1  0.25060533  0.02312112  0.22324128  1
  Tm  Tm11  1  0.25067542  0.75362402  0.02297326  1
  Co  Co12  1  0.74972224  0.33323821  0.33344409  1
  Co  Co13  1  0.25027776  0.66676179  0.66655591  1
  Co  Co14  1  0.74881556  0.28241335  0.56335932  1
  Co  Co15  1  0.74842935  0.15442744  0.28237228  1
  Co  Co16  1  0.74859609  0.56309132  0.15436573  1
  Co  Co17  1  0.25118444  0.71758665  0.43664068  1
  Co  Co18  1  0.25157065  0.84557256  0.71762772  1
  Co  Co19  1  0.25140391  0.43690868  0.84563427  1
  Co  Co20  1  0.50000000  0.00000000  0.00000000  1
