# generated using pymatgen
data_Ti2FeNiSb2
_symmetry_space_group_name_H-M   'P 1'
_cell_length_a   4.20907184
_cell_length_b   4.20907184
_cell_length_c   7.22202729
_cell_angle_alpha   73.05790117
_cell_angle_beta   90.00000000
_cell_angle_gamma   120.00000000
_symmetry_Int_Tables_number   1
_chemical_formula_structural   Ti2FeNiSb2
_chemical_formula_sum   'Ti2 Fe1 Ni1 Sb2'
_cell_volume   104.34454226
_cell_formula_units_Z   1
loop_
 _symmetry_equiv_pos_site_id
 _symmetry_equiv_pos_as_xyz
  1  'x, y, z'
loop_
 _atom_site_type_symbol
 _atom_site_label
 _atom_site_symmetry_multiplicity
 _atom_site_fract_x
 _atom_site_fract_y
 _atom_site_fract_z
 _atom_site_occupancy
  Ti  Ti0  1  0.62800228  0.25600457  0.11599315  1
  Ti  Ti1  1  0.12112318  0.24224635  0.63663047  1
  Fe  Fe2  1  0.00268603  0.00537206  0.99194192  1
  Ni  Ni3  1  0.49893000  0.99786001  0.50320999  1
  Sb  Sb4  1  0.87664783  0.75329566  0.37005650  1
  Sb  Sb5  1  0.37261068  0.74522136  0.88216797  1
