# generated using pymatgen
data_Tl6V7P5O31
_symmetry_space_group_name_H-M   'P 1'
_cell_length_a   7.27913797
_cell_length_b   13.58478540
_cell_length_c   14.72061273
_cell_angle_alpha   90.00000000
_cell_angle_beta   90.00000000
_cell_angle_gamma   90.00000000
_symmetry_Int_Tables_number   1
_chemical_formula_structural   Tl6V7P5O31
_chemical_formula_sum   'Tl12 V14 P10 O62'
_cell_volume   1455.65555080
_cell_formula_units_Z   2
loop_
 _symmetry_equiv_pos_site_id
 _symmetry_equiv_pos_as_xyz
  1  'x, y, z'
loop_
 _atom_site_type_symbol
 _atom_site_label
 _atom_site_symmetry_multiplicity
 _atom_site_fract_x
 _atom_site_fract_y
 _atom_site_fract_z
 _atom_site_occupancy
  Tl  Tl0  1  0.12379497  0.50000000  0.92360275  1
  Tl  Tl1  1  0.87620503  -0.00000000  0.42360275  1
  Tl  Tl2  1  0.85392758  0.24314439  0.59577477  1
  Tl  Tl3  1  0.85392758  0.75685561  0.59577477  1
  Tl  Tl4  1  0.14607242  0.25685561  0.09577477  1
  Tl  Tl5  1  0.14607242  0.74314439  0.09577477  1
  Tl  Tl6  1  0.61551987  0.50000000  0.44800482  1
  Tl  Tl7  1  0.38448013  -0.00000000  0.94800482  1
  Tl  Tl8  1  0.64432258  0.26388217  0.27824119  1
  Tl  Tl9  1  0.64432258  0.73611783  0.27824119  1
  Tl  Tl10  1  0.35567742  0.23611783  0.77824119  1
  Tl  Tl11  1  0.35567742  0.76388217  0.77824119  1
  V  V12  1  0.09058009  0.37285692  0.36423675  1
  V  V13  1  0.09058009  0.62714308  0.36423675  1
  V  V14  1  0.90941991  0.12714308  0.86423675  1
  V  V15  1  0.90941991  0.87285692  0.86423675  1
  V  V16  1  0.50655196  0.50000000  0.69750816  1
  V  V17  1  0.49344804  -0.00000000  0.19750816  1
  V  V18  1  0.00643569  0.50000000  0.68086997  1
  V  V19  1  0.99356431  -0.00000000  0.18086997  1
  V  V20  1  0.40870083  0.12446848  0.51509612  1
  V  V21  1  0.40870083  0.87553152  0.51509612  1
  V  V22  1  0.59129917  0.37553152  0.01509612  1
  V  V23  1  0.59129917  0.62446848  0.01509612  1
  V  V24  1  0.97858313  0.50000000  0.17795702  1
  V  V25  1  0.02141687  -0.00000000  0.67795702  1
  P  P26  1  0.28569868  0.34971674  0.55889457  1
  P  P27  1  0.28569868  0.65028326  0.55889457  1
  P  P28  1  0.71430132  0.15028326  0.05889457  1
  P  P29  1  0.71430132  0.84971674  0.05889457  1
  P  P30  1  0.21642541  0.14999979  0.31967055  1
  P  P31  1  0.21642541  0.85000021  0.31967055  1
  P  P32  1  0.78357459  0.35000021  0.81967055  1
  P  P33  1  0.78357459  0.64999979  0.81967055  1
  P  P34  1  0.60846075  -0.00000000  0.67213886  1
  P  P35  1  0.39153925  0.50000000  0.17213886  1
  O  O36  1  0.95978293  0.60582035  0.77635529  1
  O  O37  1  0.95978293  0.39417965  0.77635529  1
  O  O38  1  0.04021707  0.89417965  0.27635529  1
  O  O39  1  0.04021707  0.10582035  0.27635529  1
  O  O40  1  0.57680269  0.18752445  0.46841364  1
  O  O41  1  0.57680269  0.81247555  0.46841364  1
  O  O42  1  0.42319731  0.31247555  0.96841364  1
  O  O43  1  0.42319731  0.68752445  0.96841364  1
  O  O44  1  0.82669464  0.50000000  0.09265600  1
  O  O45  1  0.17330536  -0.00000000  0.59265600  1
  O  O46  1  0.78670098  0.50000000  0.64164795  1
  O  O47  1  0.21329902  -0.00000000  0.14164795  1
  O  O48  1  0.47212762  -0.00000000  0.48180853  1
  O  O49  1  0.52787238  0.50000000  0.98180853  1
  O  O50  1  0.34844958  0.50000000  0.27288207  1
  O  O51  1  0.65155042  -0.00000000  0.77288207  1
  O  O52  1  0.10996047  0.39409749  0.60151679  1
  O  O53  1  0.10996047  0.60590251  0.60151679  1
  O  O54  1  0.89003953  0.10590251  0.10151679  1
  O  O55  1  0.89003953  0.89409749  0.10151679  1
  O  O56  1  0.29346617  0.36935219  0.45489439  1
  O  O57  1  0.29346617  0.63064781  0.45489439  1
  O  O58  1  0.70653383  0.13064781  0.95489439  1
  O  O59  1  0.70653383  0.86935219  0.95489439  1
  O  O60  1  0.96804083  0.39295133  0.24304036  1
  O  O61  1  0.96804083  0.60704867  0.24304036  1
  O  O62  1  0.03195917  0.10704867  0.74304036  1
  O  O63  1  0.03195917  0.89295133  0.74304036  1
  O  O64  1  0.46241828  0.39510815  0.60093633  1
  O  O65  1  0.46241828  0.60489185  0.60093633  1
  O  O66  1  0.53758172  0.10489185  0.10093633  1
  O  O67  1  0.53758172  0.89510815  0.10093633  1
  O  O68  1  0.22468655  0.26301059  0.30065832  1
  O  O69  1  0.22468655  0.73698941  0.30065832  1
  O  O70  1  0.77531345  0.23698941  0.80065832  1
  O  O71  1  0.77531345  0.76301059  0.80065832  1
  O  O72  1  0.60784541  0.60574833  0.77704012  1
  O  O73  1  0.60784541  0.39425167  0.77704012  1
  O  O74  1  0.39215459  0.89425167  0.27704012  1
  O  O75  1  0.39215459  0.10574833  0.27704012  1
  O  O76  1  0.27807686  0.23700557  0.57892933  1
  O  O77  1  0.27807686  0.76299443  0.57892933  1
  O  O78  1  0.72192314  0.26299443  0.07892933  1
  O  O79  1  0.72192314  0.73700557  0.07892933  1
  O  O80  1  0.50797716  0.09556410  0.64099688  1
  O  O81  1  0.50797716  0.90443590  0.64099688  1
  O  O82  1  0.49202284  0.40443590  0.14099688  1
  O  O83  1  0.49202284  0.59556410  0.14099688  1
  O  O84  1  0.92424546  0.31240265  0.41547042  1
  O  O85  1  0.92424546  0.68759735  0.41547042  1
  O  O86  1  0.07575454  0.18759735  0.91547042  1
  O  O87  1  0.07575454  0.81240265  0.91547042  1
  O  O88  1  0.28605344  0.50000000  0.73599322  1
  O  O89  1  0.71394656  -0.00000000  0.23599322  1
  O  O90  1  0.03826892  0.50000000  0.39222579  1
  O  O91  1  0.96173108  -0.00000000  0.89222579  1
  O  O92  1  0.20826268  0.13040506  0.42362166  1
  O  O93  1  0.20826268  0.86959494  0.42362166  1
  O  O94  1  0.79173732  0.36959494  0.92362166  1
  O  O95  1  0.79173732  0.63040506  0.92362166  1
  O  O96  1  0.79937684  -0.00000000  0.61596990  1
  O  O97  1  0.20062316  0.50000000  0.11596990  1
