# generated using pymatgen
data_Th4P6PbO24
_symmetry_space_group_name_H-M   'P 1'
_cell_length_a   6.91175425
_cell_length_b   8.22878251
_cell_length_c   9.45045486
_cell_angle_alpha   100.83001989
_cell_angle_beta   68.85727907
_cell_angle_gamma   89.97308372
_symmetry_Int_Tables_number   1
_chemical_formula_structural   Th4P6PbO24
_chemical_formula_sum   'Th4 P6 Pb1 O24'
_cell_volume   491.01882963
_cell_formula_units_Z   1
loop_
 _symmetry_equiv_pos_site_id
 _symmetry_equiv_pos_as_xyz
  1  'x, y, z'
loop_
 _atom_site_type_symbol
 _atom_site_label
 _atom_site_symmetry_multiplicity
 _atom_site_fract_x
 _atom_site_fract_y
 _atom_site_fract_z
 _atom_site_occupancy
  Th  Th0  1  0.75482872  0.53380622  0.30631682  1
  Th  Th1  1  0.06712133  0.96495901  0.68919505  1
  Th  Th2  1  0.24890100  0.46101407  0.69791020  1
  Th  Th3  1  0.94048718  0.04216484  0.31279803  1
  P  P4  1  0.09436442  0.75140412  0.00045303  1
  P  P5  1  0.90216067  0.24951436  0.00275055  1
  P  P6  1  0.59836689  0.81438863  0.62444879  1
  P  P7  1  0.22292300  0.68471482  0.37572412  1
  P  P8  1  0.40096435  0.18548490  0.37466129  1
  P  P9  1  0.77679018  0.31638023  0.62555656  1
  Pb  Pb10  1  0.57177737  0.86863557  0.04747638  1
  O  O11  1  0.72815838  0.84385322  0.72906503  1
  O  O12  1  0.45671106  0.66328744  0.27598919  1
  O  O13  1  0.27030237  0.15033973  0.27233465  1
  O  O14  1  0.54332609  0.34271412  0.71754702  1
  O  O15  1  0.72783122  0.83228315  0.45506689  1
  O  O16  1  0.18017261  0.67004765  0.54650556  1
  O  O17  1  0.27724392  0.16832459  0.54494426  1
  O  O18  1  0.82258768  0.32914655  0.45219182  1
  O  O19  1  0.54943950  0.62703289  0.59669976  1
  O  O20  1  0.14841095  0.87303137  0.39982054  1
  O  O21  1  0.45266651  0.37079934  0.40017735  1
  O  O22  1  0.85410598  0.12822583  0.59867507  1
  O  O23  1  0.23885042  0.59247465  0.95060409  1
  O  O24  1  0.19786958  0.90724657  0.05292670  1
  O  O25  1  0.76393443  0.41207406  0.05265874  1
  O  O26  1  0.80659681  0.08600639  0.95345392  1
  O  O27  1  0.39566605  0.92582755  0.69436477  1
  O  O28  1  0.08981487  0.57334492  0.30506060  1
  O  O29  1  0.60004810  0.06609796  0.29735754  1
  O  O30  1  0.91084227  0.42790550  0.69450639  1
  O  O31  1  0.88951128  0.75493245  0.14442920  1
  O  O32  1  0.03412016  0.76005061  0.85813739  1
  O  O33  1  0.09627769  0.24755423  0.85288564  1
  O  O34  1  0.95412697  0.24203246  0.14870706  1
