# generated using pymatgen
data_LiFe2(SiO4)2
_symmetry_space_group_name_H-M   'P 1'
_cell_length_a   10.90735890
_cell_length_b   10.90735890
_cell_length_c   11.84825802
_cell_angle_alpha   90.00000000
_cell_angle_beta   90.00000000
_cell_angle_gamma   60.00000342
_symmetry_Int_Tables_number   1
_chemical_formula_structural   LiFe2(SiO4)2
_chemical_formula_sum   'Li6 Fe12 Si12 O48'
_cell_volume   1220.74332086
_cell_formula_units_Z   6
loop_
 _symmetry_equiv_pos_site_id
 _symmetry_equiv_pos_as_xyz
  1  'x, y, z'
loop_
 _atom_site_type_symbol
 _atom_site_label
 _atom_site_symmetry_multiplicity
 _atom_site_fract_x
 _atom_site_fract_y
 _atom_site_fract_z
 _atom_site_occupancy
  Li  Li0  1  0.00000000  0.50000000  0.33333300  1
  Li  Li1  1  0.00000000  0.00000000  0.16666700  1
  Li  Li2  1  0.00000000  0.00000000  0.50000000  1
  Li  Li3  1  0.00000000  0.00000000  0.83333300  1
  Li  Li4  1  0.50000000  0.50000000  0.00000000  1
  Li  Li5  1  0.50000000  0.00000000  0.66666700  1
  Fe  Fe6  1  1.00000000  0.74667672  0.83333300  1
  Fe  Fe7  1  0.25332328  0.74667672  0.50000000  1
  Fe  Fe8  1  0.00000000  0.25332328  0.83333300  1
  Fe  Fe9  1  0.25099990  0.49799920  0.16666700  1
  Fe  Fe10  1  0.50200080  0.74900010  0.83333300  1
  Fe  Fe11  1  0.25099990  0.25099990  0.50000000  1
  Fe  Fe12  1  0.74900010  0.74900010  0.50000000  1
  Fe  Fe13  1  0.49799920  0.25099990  0.83333300  1
  Fe  Fe14  1  0.74900010  0.50200080  0.16666700  1
  Fe  Fe15  1  0.25332328  0.00000000  0.16666700  1
  Fe  Fe16  1  0.74667672  0.25332328  0.50000000  1
  Fe  Fe17  1  0.74667672  1.00000000  0.16666700  1
  Si  Si18  1  0.00000000  0.75387724  0.33333300  1
  Si  Si19  1  0.24612276  0.75387724  0.00000000  1
  Si  Si20  1  0.24798891  0.50402218  0.66666700  1
  Si  Si21  1  0.49597782  0.75201109  0.33333300  1
  Si  Si22  1  1.00000000  0.24612276  0.33333300  1
  Si  Si23  1  0.24798891  0.24798891  0.00000000  1
  Si  Si24  1  0.75201109  0.75201109  0.00000000  1
  Si  Si25  1  0.24612276  1.00000000  0.66666700  1
  Si  Si26  1  0.50402218  0.24798891  0.33333300  1
  Si  Si27  1  0.75201109  0.49597782  0.66666700  1
  Si  Si28  1  0.75387724  0.24612276  0.00000000  1
  Si  Si29  1  0.75387724  0.00000000  0.66666700  1
  O  O30  1  0.07873391  0.80640910  0.42403188  1
  O  O31  1  0.19359090  0.92126609  0.57596812  1
  O  O32  1  0.11485699  0.80640910  0.90930212  1
  O  O33  1  0.19359090  0.88514301  0.09069788  1
  O  O34  1  0.10135687  0.60096033  0.73488256  1
  O  O35  1  0.39903967  0.89864313  0.26511744  1
  O  O36  1  0.10612289  0.60296619  0.27033364  1
  O  O37  1  0.39703381  0.89387711  0.72966636  1
  O  O38  1  0.29091092  0.60296619  0.06300036  1
  O  O39  1  0.39703381  0.70908908  0.93699964  1
  O  O40  1  0.29768280  0.60096033  0.59845044  1
  O  O41  1  0.39903967  0.70231720  0.40154956  1
  O  O42  1  0.20743773  0.41104740  0.58275703  1
  O  O43  1  0.58895260  0.79256227  0.41724297  1
  O  O44  1  0.10135687  0.29768280  0.93178444  1
  O  O45  1  0.70231720  0.89864313  0.06821556  1
  O  O46  1  0.10612289  0.29091092  0.39633336  1
  O  O47  1  0.70908908  0.89387711  0.60366664  1
  O  O48  1  0.20743773  0.38151586  0.08390897  1
  O  O49  1  0.61848414  0.79256227  0.91609103  1
  O  O50  1  0.07873391  0.11485699  0.24263512  1
  O  O51  1  0.88514301  0.92126609  0.75736488  1
  O  O52  1  0.38151586  0.41104740  0.75057597  1
  O  O53  1  0.58895260  0.61848414  0.24942403  1
  O  O54  1  0.41104740  0.38151586  0.24942403  1
  O  O55  1  0.61848414  0.58895260  0.75057597  1
  O  O56  1  0.11485699  0.07873391  0.75736488  1
  O  O57  1  0.92126609  0.88514301  0.24263512  1
  O  O58  1  0.38151586  0.20743773  0.91609103  1
  O  O59  1  0.79256227  0.61848414  0.08390897  1
  O  O60  1  0.29091092  0.10612289  0.60366664  1
  O  O61  1  0.89387711  0.70908908  0.39633336  1
  O  O62  1  0.29768280  0.10135687  0.06821556  1
  O  O63  1  0.89864313  0.70231720  0.93178444  1
  O  O64  1  0.41104740  0.20743773  0.41724297  1
  O  O65  1  0.79256227  0.58895260  0.58275703  1
  O  O66  1  0.60096033  0.29768280  0.40154956  1
  O  O67  1  0.70231720  0.39903967  0.59845044  1
  O  O68  1  0.60296619  0.29091092  0.93699964  1
  O  O69  1  0.70908908  0.39703381  0.06300036  1
  O  O70  1  0.60296619  0.10612289  0.72966636  1
  O  O71  1  0.89387711  0.39703381  0.27033364  1
  O  O72  1  0.60096033  0.10135687  0.26511744  1
  O  O73  1  0.89864313  0.39903967  0.73488256  1
  O  O74  1  0.80640910  0.11485699  0.09069788  1
  O  O75  1  0.88514301  0.19359090  0.90930212  1
  O  O76  1  0.80640910  0.07873391  0.57596812  1
  O  O77  1  0.92126609  0.19359090  0.42403188  1
