# generated using pymatgen
data_Tb3Sc2S7
_symmetry_space_group_name_H-M   'P 1'
_cell_length_a   3.76017191
_cell_length_b   6.50977667
_cell_length_c   11.42064019
_cell_angle_alpha   104.27801746
_cell_angle_beta   90.00000000
_cell_angle_gamma   73.21329840
_symmetry_Int_Tables_number   1
_chemical_formula_structural   Tb3Sc2S7
_chemical_formula_sum   'Tb3 Sc2 S7'
_cell_volume   258.60758284
_cell_formula_units_Z   1
loop_
 _symmetry_equiv_pos_site_id
 _symmetry_equiv_pos_as_xyz
  1  'x, y, z'
loop_
 _atom_site_type_symbol
 _atom_site_label
 _atom_site_symmetry_multiplicity
 _atom_site_fract_x
 _atom_site_fract_y
 _atom_site_fract_z
 _atom_site_occupancy
  Tb  Tb0  1  0.69566987  0.60866025  0.20106933  1
  Tb  Tb1  1  0.30433013  0.39133975  0.79893067  1
  Tb  Tb2  1  -0.00000000  0.00000000  -0.00000000  1
  Sc  Sc3  1  0.88852150  0.22295700  0.42924179  1
  Sc  Sc4  1  0.11147850  0.77704300  0.57075821  1
  S  S5  1  0.73687175  0.52625651  0.63793341  1
  S  S6  1  0.26312825  0.47374349  0.36206659  1
  S  S7  1  0.33739406  0.32521187  0.05309141  1
  S  S8  1  0.66260594  0.67478813  0.94690859  1
  S  S9  1  0.03138651  0.93722698  0.22434166  1
  S  S10  1  0.96861349  0.06277302  0.77565834  1
  S  S11  1  0.50000000  -0.00000000  0.50000000  1
