# generated using pymatgen
data_Te4Mo2Ru
_symmetry_space_group_name_H-M   'P 1'
_cell_length_a   7.16008188
_cell_length_b   7.17216228
_cell_length_c   7.11944105
_cell_angle_alpha   92.90361173
_cell_angle_beta   93.86092007
_cell_angle_gamma   92.61502297
_symmetry_Int_Tables_number   1
_chemical_formula_structural   Te4Mo2Ru
_chemical_formula_sum   'Te8 Mo4 Ru2'
_cell_volume   363.86710658
_cell_formula_units_Z   2
loop_
 _symmetry_equiv_pos_site_id
 _symmetry_equiv_pos_as_xyz
  1  'x, y, z'
loop_
 _atom_site_type_symbol
 _atom_site_label
 _atom_site_symmetry_multiplicity
 _atom_site_fract_x
 _atom_site_fract_y
 _atom_site_fract_z
 _atom_site_occupancy
  Te  Te0  1  0.26426480  0.62460032  0.87633855  1
  Te  Te1  1  0.61549704  0.87722126  0.27707545  1
  Te  Te2  1  0.88473814  0.27721763  0.62079201  1
  Te  Te3  1  0.73844553  0.37581644  0.12406165  1
  Te  Te4  1  0.37984905  0.11345224  0.74172108  1
  Te  Te5  1  0.11678093  0.73773744  0.37500375  1
  Te  Te6  1  0.78164237  0.78720091  0.77940649  1
  Te  Te7  1  0.21127118  0.20994218  0.20580462  1
  Mo  Mo8  1  0.58519231  0.45161975  0.75488808  1
  Mo  Mo9  1  0.54902325  0.24725617  0.41664401  1
  Mo  Mo10  1  0.25061319  0.41083596  0.54411774  1
  Mo  Mo11  1  0.41439210  0.54314179  0.24698321  1
  Ru  Ru12  1  0.44930073  0.75515317  0.58417793  1
  Ru  Ru13  1  0.75898938  0.58880473  0.45298544  1
