# generated using pymatgen
data_Ti2AlSi3
_symmetry_space_group_name_H-M   'P 1'
_cell_length_a   3.63888051
_cell_length_b   3.60109404
_cell_length_c   7.00359082
_cell_angle_alpha   90.00000000
_cell_angle_beta   74.94258969
_cell_angle_gamma   90.00000000
_symmetry_Int_Tables_number   1
_chemical_formula_structural   Ti2AlSi3
_chemical_formula_sum   'Ti2 Al1 Si3'
_cell_volume   88.62371793
_cell_formula_units_Z   1
loop_
 _symmetry_equiv_pos_site_id
 _symmetry_equiv_pos_as_xyz
  1  'x, y, z'
loop_
 _atom_site_type_symbol
 _atom_site_label
 _atom_site_symmetry_multiplicity
 _atom_site_fract_x
 _atom_site_fract_y
 _atom_site_fract_z
 _atom_site_occupancy
  Ti  Ti0  1  0.09688938  0.75000000  0.80622124  1
  Ti  Ti1  1  0.90354850  0.25000000  0.19290300  1
  Al  Al2  1  0.75060210  0.75000000  0.49879580  1
  Si  Si3  1  0.24942930  0.25000000  0.50114139  1
  Si  Si4  1  0.43783478  0.75000000  0.12433044  1
  Si  Si5  1  0.56169593  0.25000000  0.87660813  1
