# generated using pymatgen
data_TiTeO3F2
_symmetry_space_group_name_H-M   'P 1'
_cell_length_a   6.62840327
_cell_length_b   7.52266639
_cell_length_c   16.81416406
_cell_angle_alpha   90.00000000
_cell_angle_beta   89.99516094
_cell_angle_gamma   90.00000000
_symmetry_Int_Tables_number   1
_chemical_formula_structural   TiTeO3F2
_chemical_formula_sum   'Ti8 Te8 O24 F16'
_cell_volume   838.40913972
_cell_formula_units_Z   8
loop_
 _symmetry_equiv_pos_site_id
 _symmetry_equiv_pos_as_xyz
  1  'x, y, z'
loop_
 _atom_site_type_symbol
 _atom_site_label
 _atom_site_symmetry_multiplicity
 _atom_site_fract_x
 _atom_site_fract_y
 _atom_site_fract_z
 _atom_site_occupancy
  Ti  Ti0  1  0.74823062  0.09823136  0.13099304  1
  Ti  Ti1  1  0.75176938  0.59823136  0.36900696  1
  Ti  Ti2  1  0.24316631  0.87365242  0.63094847  1
  Ti  Ti3  1  0.25683369  0.37365242  0.86905153  1
  Ti  Ti4  1  0.25176938  0.90176864  0.86900696  1
  Ti  Ti5  1  0.24823062  0.40176864  0.63099304  1
  Ti  Ti6  1  0.75683369  0.12634758  0.36905153  1
  Ti  Ti7  1  0.74316631  0.62634758  0.13094847  1
  Te  Te8  1  0.22606384  0.86039725  0.13630629  1
  Te  Te9  1  0.27393616  0.36039725  0.36369371  1
  Te  Te10  1  0.77429888  0.13951271  0.63624494  1
  Te  Te11  1  0.72570112  0.63951271  0.86375506  1
  Te  Te12  1  0.77393616  0.13960275  0.86369371  1
  Te  Te13  1  0.72606384  0.63960275  0.63630629  1
  Te  Te14  1  0.22570112  0.86048729  0.36375506  1
  Te  Te15  1  0.27429888  0.36048729  0.13624494  1
  O  O16  1  0.27616889  0.85217930  0.25002702  1
  O  O17  1  0.22383111  0.35217930  0.24997298  1
  O  O18  1  0.72383111  0.14782070  0.74997298  1
  O  O19  1  0.77616889  0.64782070  0.75002702  1
  O  O20  1  0.03888777  0.05279666  0.13937946  1
  O  O21  1  0.46111223  0.55279666  0.36062054  1
  O  O22  1  0.96192818  0.94791612  0.63941566  1
  O  O23  1  0.53807182  0.44791612  0.86058434  1
  O  O24  1  0.96111223  0.94720334  0.86062054  1
  O  O25  1  0.53888777  0.44720334  0.63937946  1
  O  O26  1  0.03807182  0.05208388  0.36058434  1
  O  O27  1  0.46192818  0.55208388  0.13941566  1
  O  O28  1  0.03510228  0.67092410  0.13201610  1
  O  O29  1  0.46489772  0.17092410  0.36798390  1
  O  O30  1  0.96583446  0.32803108  0.63196448  1
  O  O31  1  0.53416554  0.82803108  0.86803552  1
  O  O32  1  0.96489772  0.32907590  0.86798390  1
  O  O33  1  0.53510228  0.82907590  0.63201610  1
  O  O34  1  0.03416554  0.67196892  0.36803552  1
  O  O35  1  0.46583446  0.17196892  0.13196448  1
  O  O36  1  0.68266956  0.86278559  0.13476792  1
  O  O37  1  0.81733044  0.36278559  0.36523208  1
  O  O38  1  0.31733044  0.13721441  0.86523208  1
  O  O39  1  0.18266956  0.63721441  0.63476792  1
  F  F40  1  0.74421870  0.11478177  0.24993557  1
  F  F41  1  0.75578130  0.61478177  0.25006443  1
  F  F42  1  0.25578130  0.88521823  0.75006443  1
  F  F43  1  0.24421870  0.38521823  0.74993557  1
  F  F44  1  0.76877611  0.11205395  0.02056140  1
  F  F45  1  0.73122389  0.61205395  0.47943860  1
  F  F46  1  0.23203265  0.89081369  0.52051429  1
  F  F47  1  0.26796735  0.39081369  0.97948571  1
  F  F48  1  0.23122389  0.88794605  0.97943860  1
  F  F49  1  0.26877611  0.38794605  0.52056140  1
  F  F50  1  0.76796735  0.10918631  0.47948571  1
  F  F51  1  0.73203265  0.60918631  0.02051429  1
  F  F52  1  0.32257490  0.13717585  0.63548468  1
  F  F53  1  0.17742510  0.63717585  0.86451532  1
  F  F54  1  0.67742510  0.86282415  0.36451532  1
  F  F55  1  0.82257490  0.36282415  0.13548468  1
