# generated using pymatgen
data_Tb2CoGe4
_symmetry_space_group_name_H-M   'P 1'
_cell_length_a   4.12091602
_cell_length_b   4.14838023
_cell_length_c   8.25120941
_cell_angle_alpha   75.44080635
_cell_angle_beta   90.00000000
_cell_angle_gamma   90.00000000
_symmetry_Int_Tables_number   1
_chemical_formula_structural   Tb2CoGe4
_chemical_formula_sum   'Tb2 Co1 Ge4'
_cell_volume   136.52595934
_cell_formula_units_Z   1
loop_
 _symmetry_equiv_pos_site_id
 _symmetry_equiv_pos_as_xyz
  1  'x, y, z'
loop_
 _atom_site_type_symbol
 _atom_site_label
 _atom_site_symmetry_multiplicity
 _atom_site_fract_x
 _atom_site_fract_y
 _atom_site_fract_z
 _atom_site_occupancy
  Tb  Tb0  1  0.25000000  0.89563563  0.20872873  1
  Tb  Tb1  1  0.75000000  0.10390673  0.79218653  1
  Co  Co2  1  0.25000000  0.69148714  0.61702571  1
  Ge  Ge3  1  0.25000000  0.54789252  0.90421496  1
  Ge  Ge4  1  0.75000000  0.44603116  0.10793768  1
  Ge  Ge5  1  0.25000000  0.25863683  0.48272633  1
  Ge  Ge6  1  0.75000000  0.75740998  0.48518004  1
