# generated using pymatgen
data_SrTi3Al8O19
_symmetry_space_group_name_H-M   'P 1'
_cell_length_a   9.86034621
_cell_length_b   11.17894228
_cell_length_c   12.76085932
_cell_angle_alpha   64.02258720
_cell_angle_beta   97.65069593
_cell_angle_gamma   90.00000000
_symmetry_Int_Tables_number   1
_chemical_formula_structural   SrTi3Al8O19
_chemical_formula_sum   'Sr4 Ti12 Al32 O76'
_cell_volume   1250.54947648
_cell_formula_units_Z   4
loop_
 _symmetry_equiv_pos_site_id
 _symmetry_equiv_pos_as_xyz
  1  'x, y, z'
loop_
 _atom_site_type_symbol
 _atom_site_label
 _atom_site_symmetry_multiplicity
 _atom_site_fract_x
 _atom_site_fract_y
 _atom_site_fract_z
 _atom_site_occupancy
  Sr  Sr0  1  0.43713203  0.31319226  0.10743488  1
  Sr  Sr1  1  0.06286797  0.42062714  0.89256512  1
  Sr  Sr2  1  0.56134842  0.68609546  0.89043030  1
  Sr  Sr3  1  0.93865158  0.57652576  0.10956970  1
  Ti  Ti4  1  0.62975079  0.69015716  0.37804043  1
  Ti  Ti5  1  0.87024921  0.06819759  0.62195957  1
  Ti  Ti6  1  0.36738583  0.30953132  0.62498702  1
  Ti  Ti7  1  0.13261417  0.93451835  0.37501298  1
  Ti  Ti8  1  0.36992484  0.48265218  0.79709128  1
  Ti  Ti9  1  0.13007516  0.27974346  0.20290872  1
  Ti  Ti10  1  0.63666228  0.52239697  0.20167869  1
  Ti  Ti11  1  0.86333772  0.72407566  0.79832131  1
  Ti  Ti12  1  0.75000000  0.39237034  0.00000000  1
  Ti  Ti13  1  0.25000000  0.60795694  1.00000000  1
  Ti  Ti14  1  0.41193226  0.31134980  0.38866107  1
  Ti  Ti15  1  0.08806774  0.70001087  0.61133893  1
  Al  Al16  1  0.61296254  0.02880545  0.20542422  1
  Al  Al17  1  0.88703746  0.23422967  0.79457578  1
  Al  Al18  1  0.38698469  0.97133070  0.79430544  1
  Al  Al19  1  0.11301531  0.76563614  0.20569456  1
  Al  Al20  1  0.63487312  0.36930792  0.78611012  1
  Al  Al21  1  0.86512688  0.15541803  0.21388988  1
  Al  Al22  1  0.36724674  0.63687898  0.20999466  1
  Al  Al23  1  0.13275326  0.84687364  0.79000534  1
  Al  Al24  1  0.63367070  0.09006813  0.79449667  1
  Al  Al25  1  0.86632930  0.88456480  0.20550333  1
  Al  Al26  1  0.36660169  0.91030326  0.20508329  1
  Al  Al27  1  0.13339831  0.11538655  0.79491671  1
  Al  Al28  1  0.34811532  0.82553794  0.61296790  1
  Al  Al29  1  0.15188468  0.43850584  0.38703210  1
  Al  Al30  1  0.65986189  0.17179690  0.38741418  1
  Al  Al31  1  0.84013811  0.55921108  0.61258582  1
  Al  Al32  1  0.41511671  0.15165500  0.94443432  1
  Al  Al33  1  0.08488329  0.09608932  0.05556568  1
  Al  Al34  1  0.58483165  0.84977448  0.05481757  1
  Al  Al35  1  0.91516835  0.90459206  0.94518243  1
  Al  Al36  1  0.75000000  0.12224864  1.00000000  1
  Al  Al37  1  0.25000000  0.87815150  0.00000000  1
  Al  Al38  1  0.81554259  0.89607295  0.45384763  1
  Al  Al39  1  0.68445741  0.34992058  0.54615237  1
  Al  Al40  1  0.17959393  0.10325791  0.54517119  1
  Al  Al41  1  0.32040607  0.64842910  0.45482881  1
  Al  Al42  1  0.59357681  0.95522788  0.61146715  1
  Al  Al43  1  0.90642319  0.56669503  0.38853285  1
  Al  Al44  1  0.40938022  0.04038133  0.39057974  1
  Al  Al45  1  0.09061978  0.43096107  0.60942026  1
  Al  Al46  1  0.59013009  0.69134032  0.60825800  1
  Al  Al47  1  0.90986991  0.29959832  0.39174200  1
  O  O48  1  0.50048281  0.64533877  0.49066970  1
  O  O49  1  0.99951719  0.13600847  0.50933030  1
  O  O50  1  0.50303039  0.35574100  0.51091856  1
  O  O51  1  0.99696961  0.86665956  0.48908144  1
  O  O52  1  0.30365572  0.81197210  0.89589455  1
  O  O53  1  0.19634428  0.70786665  0.10410545  1
  O  O54  1  0.69613047  0.18831363  0.10426734  1
  O  O55  1  0.80386953  0.29258097  0.89573266  1
  O  O56  1  0.30792250  0.22305342  0.29530889  1
  O  O57  1  0.19207750  0.51836231  0.70469111  1
  O  O58  1  0.69110139  0.77398273  0.70448415  1
  O  O59  1  0.80889861  0.47846688  0.29551585  1
  O  O60  1  0.49466932  0.87466226  0.52294045  1
  O  O61  1  0.00533068  0.39760271  0.47705955  1
  O  O62  1  0.50809743  0.12209336  0.47859923  1
  O  O63  1  0.99190257  0.60069260  0.52140077  1
  O  O64  1  0.33604631  0.30844331  0.90819498  1
  O  O65  1  0.16395369  0.21663829  0.09180502  1
  O  O66  1  0.66528437  0.69314402  0.09110332  1
  O  O67  1  0.83471563  0.78424734  0.90889668  1
  O  O68  1  0.54747813  0.86035402  0.28601637  1
  O  O69  1  0.95252187  0.14637039  0.71398363  1
  O  O70  1  0.45239260  0.14009470  0.71363278  1
  O  O71  1  0.04760740  0.85372748  0.28636722  1
  O  O72  1  0.58173515  0.17256310  0.89541289  1
  O  O73  1  0.91826485  0.06797599  0.10458711  1
  O  O74  1  0.41881373  0.82662497  0.10473257  1
  O  O75  1  0.08118627  0.93135754  0.89526743  1
  O  O76  1  0.23977069  0.75386369  0.50546281  1
  O  O77  1  0.26022931  0.25932650  0.49453719  1
  O  O78  1  0.76337047  0.24823352  0.49144141  1
  O  O79  1  0.73662953  0.73967493  0.50855859  1
  O  O80  1  0.30725861  0.04833209  0.89530433  1
  O  O81  1  0.19274139  0.94363642  0.10469567  1
  O  O82  1  0.69286272  0.95176053  0.10475794  1
  O  O83  1  0.80713728  0.05651846  0.89524206  1
  O  O84  1  0.41945710  0.57139599  0.10899215  1
  O  O85  1  0.08054290  0.68038815  0.89100785  1
  O  O86  1  0.57987984  0.42825804  0.89152408  1
  O  O87  1  0.92012016  0.31978212  0.10847592  1
  O  O88  1  0.55270604  0.09879235  0.29800119  1
  O  O89  1  0.94729396  0.39679354  0.70199881  1
  O  O90  1  0.44820881  0.90120833  0.70260149  1
  O  O91  1  0.05179119  0.60380981  0.29739851  1
  O  O92  1  0.30200496  0.96686100  0.30692671  1
  O  O93  1  0.19799504  0.27378771  0.69307329  1
  O  O94  1  0.69849347  0.03375039  0.69234983  1
  O  O95  1  0.80150653  0.72610023  0.30765017  1
  O  O96  1  0.55719796  0.34450973  0.30042382  1
  O  O97  1  0.94280204  0.64493355  0.69957618  1
  O  O98  1  0.44472236  0.65464889  0.69840760  1
  O  O99  1  0.05527764  0.35305649  0.30159240  1
  O  O100  1  0.44455584  0.06955318  0.10291721  1
  O  O101  1  0.05544416  0.17247039  0.89708279  1
  O  O102  1  0.55532535  0.93034095  0.89688840  1
  O  O103  1  0.94467465  0.82722935  0.10311160  1
  O  O104  1  0.33509720  0.54278577  0.91185161  1
  O  O105  1  0.16490280  0.45463738  0.08814839  1
  O  O106  1  0.66456599  0.45770975  0.08788768  1
  O  O107  1  0.83543401  0.54559743  0.91211232  1
  O  O108  1  0.75635470  0.50980162  0.49130242  1
  O  O109  1  0.74364530  0.00110404  0.50869758  1
  O  O110  1  0.24391923  0.48972786  0.50737463  1
  O  O111  1  0.25608077  0.99710248  0.49262537  1
  O  O112  1  0.69242054  0.52877686  0.68846189  1
  O  O113  1  0.80757946  0.21723875  0.31153811  1
  O  O114  1  0.30486848  0.47367292  0.30982268  1
  O  O115  1  0.19513152  0.78349560  0.69017732  1
  O  O116  1  0.45412602  0.39607891  0.70870474  1
  O  O117  1  0.04587398  0.10478365  0.29129526  1
  O  O118  1  0.54586667  0.60264686  0.29166123  1
  O  O119  1  0.95413333  0.89430808  0.70833877  1
  O  O120  1  0.29730815  0.72846902  0.29323416  1
  O  O121  1  0.20269185  0.02170317  0.70676584  1
  O  O122  1  0.70381319  0.27094969  0.70685382  1
  O  O123  1  0.79618681  0.97780351  0.29314618  1
