# generated using pymatgen
data_Tb14Au51
_symmetry_space_group_name_H-M   'P 1'
_cell_length_a   9.23265049
_cell_length_b   12.88329728
_cell_length_c   12.88325031
_cell_angle_alpha   60.00002359
_cell_angle_beta   90.00000000
_cell_angle_gamma   90.00000000
_symmetry_Int_Tables_number   1
_chemical_formula_structural   Tb14Au51
_chemical_formula_sum   'Tb14 Au51'
_cell_volume   1327.11819438
_cell_formula_units_Z   1
loop_
 _symmetry_equiv_pos_site_id
 _symmetry_equiv_pos_as_xyz
  1  'x, y, z'
loop_
 _atom_site_type_symbol
 _atom_site_label
 _atom_site_symmetry_multiplicity
 _atom_site_fract_x
 _atom_site_fract_y
 _atom_site_fract_z
 _atom_site_occupancy
  Tb  Tb0  1  0.50000000  0.67129737  0.86025215  1
  Tb  Tb1  1  0.50000000  0.46843560  0.67130104  1
  Tb  Tb2  1  0.50000000  0.86025320  0.46845392  1
  Tb  Tb3  1  0.50000000  0.32750941  0.14142192  1
  Tb  Tb4  1  0.50000000  0.53108429  0.32750270  1
  Tb  Tb5  1  0.50000000  0.14142033  0.53106813  1
  Tb  Tb6  1  0.00000000  0.27387809  0.61383769  1
  Tb  Tb7  1  0.00000000  0.11226657  0.27389699  1
  Tb  Tb8  1  0.00000000  0.61385034  0.11226743  1
  Tb  Tb9  1  0.00000000  0.71730231  0.40091647  1
  Tb  Tb10  1  0.00000000  0.88178855  0.71729566  1
  Tb  Tb11  1  0.00000000  0.40090443  0.88179523  1
  Tb  Tb12  1  0.29251388  0.99999989  0.99999955  1
  Tb  Tb13  1  0.70748612  0.99999989  0.99999955  1
  Au  Au14  1  0.15384706  0.62131928  0.88525023  1
  Au  Au15  1  0.15384477  0.49341958  0.62131227  1
  Au  Au16  1  0.15384560  0.88523137  0.49344332  1
  Au  Au17  1  0.15270998  0.37899288  0.11628525  1
  Au  Au18  1  0.15270959  0.50472961  0.37900021  1
  Au  Au19  1  0.15270553  0.11630666  0.50470710  1
  Au  Au20  1  0.84729002  0.37899288  0.11628525  1
  Au  Au21  1  0.84729041  0.50472961  0.37900021  1
  Au  Au22  1  0.84729447  0.11630666  0.50470710  1
  Au  Au23  1  0.84615294  0.62131928  0.88525023  1
  Au  Au24  1  0.84615523  0.49341958  0.62131227  1
  Au  Au25  1  0.84615440  0.88523137  0.49344332  1
  Au  Au26  1  0.00000000  0.66663803  0.66668304  1
  Au  Au27  1  0.00000000  0.33336650  0.33331461  1
  Au  Au28  1  0.33397746  0.33429014  0.55808688  1
  Au  Au29  1  0.33397811  0.10762479  0.33429552  1
  Au  Au30  1  0.33397495  0.55809551  0.10760597  1
  Au  Au31  1  0.33660669  0.66403616  0.44329455  1
  Au  Au32  1  0.33660543  0.89266920  0.66403492  1
  Au  Au33  1  0.33660792  0.44328571  0.89268368  1
  Au  Au34  1  0.66339331  0.66403616  0.44329455  1
  Au  Au35  1  0.66339457  0.89266920  0.66403492  1
  Au  Au36  1  0.66339208  0.44328571  0.89268368  1
  Au  Au37  1  0.66602254  0.33429014  0.55808688  1
  Au  Au38  1  0.66602189  0.10762479  0.33429552  1
  Au  Au39  1  0.66602505  0.55809551  0.10760597  1
  Au  Au40  1  0.23295134  0.07930660  0.72910248  1
  Au  Au41  1  0.23295103  0.19157819  0.07931464  1
  Au  Au42  1  0.23295513  0.72911310  0.19157829  1
  Au  Au43  1  0.22453954  0.92582954  0.26614768  1
  Au  Au44  1  0.22454326  0.80803456  0.92582192  1
  Au  Au45  1  0.22454465  0.26613775  0.80803560  1
  Au  Au46  1  0.77546046  0.92582954  0.26614768  1
  Au  Au47  1  0.77545674  0.80803456  0.92582192  1
  Au  Au48  1  0.77545535  0.26613775  0.80803560  1
  Au  Au49  1  0.76704866  0.07930660  0.72910248  1
  Au  Au50  1  0.76704897  0.19157819  0.07931464  1
  Au  Au51  1  0.76704487  0.72911310  0.19157829  1
  Au  Au52  1  0.31450149  0.66665936  0.66666958  1
  Au  Au53  1  0.31486662  0.33334578  0.33332792  1
  Au  Au54  1  0.68513338  0.33334578  0.33332792  1
  Au  Au55  1  0.68549851  0.66665936  0.66666958  1
  Au  Au56  1  0.50000000  0.17485719  0.76150368  1
  Au  Au57  1  0.50000000  0.06363604  0.17486851  1
  Au  Au58  1  0.50000000  0.76150985  0.06363280  1
  Au  Au59  1  0.50000000  0.82440724  0.24096961  1
  Au  Au60  1  0.50000000  0.93462695  0.82439566  1
  Au  Au61  1  0.50000000  0.24096306  0.93462725  1
  Au  Au62  1  0.00000000  0.97444373  0.88663644  1
  Au  Au63  1  0.00000000  0.13891016  0.97444690  1
  Au  Au64  1  0.00000000  0.88663940  0.13891706  1
