# generated using pymatgen
data_Tb4Si7
_symmetry_space_group_name_H-M   'P 1'
_cell_length_a   5.67249380
_cell_length_b   5.67249380
_cell_length_c   13.86418825
_cell_angle_alpha   90.62163183
_cell_angle_beta   90.62163183
_cell_angle_gamma   89.26119505
_symmetry_Int_Tables_number   1
_chemical_formula_structural   Tb4Si7
_chemical_formula_sum   'Tb8 Si14'
_cell_volume   446.02163511
_cell_formula_units_Z   2
loop_
 _symmetry_equiv_pos_site_id
 _symmetry_equiv_pos_as_xyz
  1  'x, y, z'
loop_
 _atom_site_type_symbol
 _atom_site_label
 _atom_site_symmetry_multiplicity
 _atom_site_fract_x
 _atom_site_fract_y
 _atom_site_fract_z
 _atom_site_occupancy
  Tb  Tb0  1  0.74054257  0.99011281  0.13040366  1
  Tb  Tb1  1  0.00988719  0.25945743  0.86959634  1
  Tb  Tb2  1  0.24993102  0.00003118  0.62889180  1
  Tb  Tb3  1  0.99996882  0.75006898  0.37110820  1
  Tb  Tb4  1  0.24121517  0.49101691  0.13033298  1
  Tb  Tb5  1  0.50898309  0.75878483  0.86966702  1
  Tb  Tb6  1  0.74962127  0.49996431  0.62770138  1
  Tb  Tb7  1  0.50003569  0.25037873  0.37229862  1
  Si  Si8  1  0.74680685  0.00923315  0.71294021  1
  Si  Si9  1  0.99076685  0.25319315  0.28705979  1
  Si  Si10  1  0.24555917  0.99538401  0.20414548  1
  Si  Si11  1  0.00461599  0.75444083  0.79585452  1
  Si  Si12  1  0.25906697  0.49662725  0.71297620  1
  Si  Si13  1  0.50337275  0.74093303  0.28702380  1
  Si  Si14  1  0.74386232  0.49359431  0.18576095  1
  Si  Si15  1  0.50640569  0.25613768  0.81423905  1
  Si  Si16  1  0.75178734  0.00116248  0.54224642  1
  Si  Si17  1  0.99883752  0.24821266  0.45775358  1
  Si  Si18  1  0.26898195  0.01888368  0.03114435  1
  Si  Si19  1  0.98111632  0.73101805  0.96885565  1
  Si  Si20  1  0.25024456  0.50160907  0.54204381  1
  Si  Si21  1  0.49839093  0.74975544  0.45795619  1
