# generated using pymatgen
data_Ta11Al4
_symmetry_space_group_name_H-M   'P 1'
_cell_length_a   5.21941565
_cell_length_b   10.09300344
_cell_length_c   10.03052138
_cell_angle_alpha   89.61104266
_cell_angle_beta   90.00000000
_cell_angle_gamma   90.00000000
_symmetry_Int_Tables_number   1
_chemical_formula_structural   Ta11Al4
_chemical_formula_sum   'Ta22 Al8'
_cell_volume   528.39147906
_cell_formula_units_Z   2
loop_
 _symmetry_equiv_pos_site_id
 _symmetry_equiv_pos_as_xyz
  1  'x, y, z'
loop_
 _atom_site_type_symbol
 _atom_site_label
 _atom_site_symmetry_multiplicity
 _atom_site_fract_x
 _atom_site_fract_y
 _atom_site_fract_z
 _atom_site_occupancy
  Ta  Ta0  1  0.25004764  0.31558449  0.68170031  1
  Ta  Ta1  1  0.25004764  0.68441551  0.31829969  1
  Ta  Ta2  1  0.74583232  0.17941697  0.18206023  1
  Ta  Ta3  1  0.74583232  0.82058303  0.81793977  1
  Ta  Ta4  1  0.74995236  0.68441551  0.31829969  1
  Ta  Ta5  1  0.74995236  0.31558449  0.68170031  1
  Ta  Ta6  1  0.25416768  0.82058303  0.81793977  1
  Ta  Ta7  1  0.25416768  0.17941697  0.18206023  1
  Ta  Ta8  1  0.50000000  0.10321716  0.89710372  1
  Ta  Ta9  1  0.50000000  0.89678284  0.10289628  1
  Ta  Ta10  1  0.00000000  0.39773436  0.39786963  1
  Ta  Ta11  1  -0.00000000  0.60226564  0.60213037  1
  Ta  Ta12  1  0.50000000  0.37005080  0.96398228  1
  Ta  Ta13  1  0.50000000  0.62994920  0.03601772  1
  Ta  Ta14  1  0.00000000  0.12636510  0.46457275  1
  Ta  Ta15  1  -0.00000000  0.87363490  0.53542725  1
  Ta  Ta16  1  0.50000000  0.96449845  0.37131836  1
  Ta  Ta17  1  0.50000000  0.03550155  0.62868164  1
  Ta  Ta18  1  -0.00000000  0.46393334  0.12928796  1
  Ta  Ta19  1  -0.00000000  0.53606666  0.87071204  1
  Ta  Ta20  1  0.50000000  0.43386362  0.24220383  1
  Ta  Ta21  1  0.50000000  0.56613638  0.75779617  1
  Al  Al22  1  -0.00000000  0.06588308  0.73713050  1
  Al  Al23  1  0.00000000  0.93411692  0.26286950  1
  Al  Al24  1  0.50000000  0.23564784  0.43372954  1
  Al  Al25  1  0.50000000  0.76435216  0.56627046  1
  Al  Al26  1  0.00000000  0.73935207  0.06727013  1
  Al  Al27  1  0.00000000  0.26064793  0.93272987  1
  Al  Al28  1  0.50000000  0.50000000  0.50000000  1
  Al  Al29  1  -0.00000000  -0.00000000  0.00000000  1
