# generated using pymatgen
data_Ta5S8
_symmetry_space_group_name_H-M   'P 1'
_cell_length_a   3.27011031
_cell_length_b   13.17720668
_cell_length_c   5.79293235
_cell_angle_alpha   78.54799939
_cell_angle_beta   89.99964381
_cell_angle_gamma   97.15625817
_symmetry_Int_Tables_number   1
_chemical_formula_structural   Ta5S8
_chemical_formula_sum   'Ta5 S8'
_cell_volume   242.66874015
_cell_formula_units_Z   1
loop_
 _symmetry_equiv_pos_site_id
 _symmetry_equiv_pos_as_xyz
  1  'x, y, z'
loop_
 _atom_site_type_symbol
 _atom_site_label
 _atom_site_symmetry_multiplicity
 _atom_site_fract_x
 _atom_site_fract_y
 _atom_site_fract_z
 _atom_site_occupancy
  Ta  Ta0  1  0.87570793  0.75170772  0.11741533  1
  Ta  Ta1  1  0.37729900  0.75402533  0.62618999  1
  Ta  Ta2  1  0.62429207  0.24829228  0.38258467  1
  Ta  Ta3  1  0.12270100  0.24597467  0.87381001  1
  Ta  Ta4  1  0.25000000  0.50000000  0.75000000  1
  S  S5  1  0.31277293  0.62546800  0.01262261  1
  S  S6  1  0.81247643  0.62490929  0.50871723  1
  S  S7  1  0.68752357  0.37509071  0.99128277  1
  S  S8  1  0.18722707  0.37453200  0.48737739  1
  S  S9  1  0.56298311  0.12594560  0.10179799  1
  S  S10  1  0.06174494  0.12407491  0.60074189  1
  S  S11  1  0.43825506  0.87592509  0.89925811  1
  S  S12  1  0.93701689  0.87405440  0.39820201  1
