# generated using pymatgen
data_SrZnIn3
_symmetry_space_group_name_H-M   'P 1'
_cell_length_a   4.70868879
_cell_length_b   4.70868879
_cell_length_c   6.95110407
_cell_angle_alpha   70.20226150
_cell_angle_beta   70.20226150
_cell_angle_gamma   90.00000000
_symmetry_Int_Tables_number   1
_chemical_formula_structural   SrZnIn3
_chemical_formula_sum   'Sr1 Zn1 In3'
_cell_volume   135.28760218
_cell_formula_units_Z   1
loop_
 _symmetry_equiv_pos_site_id
 _symmetry_equiv_pos_as_xyz
  1  'x, y, z'
loop_
 _atom_site_type_symbol
 _atom_site_label
 _atom_site_symmetry_multiplicity
 _atom_site_fract_x
 _atom_site_fract_y
 _atom_site_fract_z
 _atom_site_occupancy
  Sr  Sr0  1  0.99618027  0.99618027  0.00763947  1
  Zn  Zn1  1  0.38610915  0.38610915  0.22778170  1
  In  In2  1  0.75752873  0.25752873  0.48494253  1
  In  In3  1  0.25752873  0.75752873  0.48494253  1
  In  In4  1  0.60265312  0.60265312  0.79469376  1
