# generated using pymatgen
data_TaMnNbO6
_symmetry_space_group_name_H-M   'P 1'
_cell_length_a   5.14043627
_cell_length_b   5.86660667
_cell_length_c   14.61277551
_cell_angle_alpha   90.00000000
_cell_angle_beta   90.00000000
_cell_angle_gamma   90.00000000
_symmetry_Int_Tables_number   1
_chemical_formula_structural   TaMnNbO6
_chemical_formula_sum   'Ta4 Mn4 Nb4 O24'
_cell_volume   440.67626854
_cell_formula_units_Z   4
loop_
 _symmetry_equiv_pos_site_id
 _symmetry_equiv_pos_as_xyz
  1  'x, y, z'
loop_
 _atom_site_type_symbol
 _atom_site_label
 _atom_site_symmetry_multiplicity
 _atom_site_fract_x
 _atom_site_fract_y
 _atom_site_fract_z
 _atom_site_occupancy
  Ta  Ta0  1  0.26424131  0.67701998  0.16313441  1
  Ta  Ta1  1  0.76424131  0.82298002  0.33686559  1
  Ta  Ta2  1  0.73575869  0.82298002  0.66313441  1
  Ta  Ta3  1  0.23575869  0.67701998  0.83686559  1
  Mn  Mn4  1  0.25000000  0.17222845  -0.00000000  1
  Mn  Mn5  1  0.75000000  0.32777155  0.50000000  1
  Mn  Mn6  1  0.75000000  0.82173332  0.00000000  1
  Mn  Mn7  1  0.25000000  0.67826668  0.50000000  1
  Nb  Nb8  1  0.73660285  0.32034424  0.83825239  1
  Nb  Nb9  1  0.23660285  0.17965576  0.66174761  1
  Nb  Nb10  1  0.26339715  0.17965576  0.33825239  1
  Nb  Nb11  1  0.76339715  0.32034424  0.16174761  1
  O  O12  1  0.90603590  0.12691484  0.74377735  1
  O  O13  1  0.40603590  0.37308516  0.75622265  1
  O  O14  1  0.09396410  0.37308516  0.24377735  1
  O  O15  1  0.59396410  0.12691484  0.25622265  1
  O  O16  1  0.08795448  0.86793301  0.25532992  1
  O  O17  1  0.58795448  0.63206699  0.24467008  1
  O  O18  1  0.91204552  0.63206699  0.75532992  1
  O  O19  1  0.41204552  0.86793301  0.74467008  1
  O  O20  1  0.59591071  0.11688314  0.91881068  1
  O  O21  1  0.09591071  0.38311686  0.58118932  1
  O  O22  1  0.40408929  0.38311686  0.41881068  1
  O  O23  1  0.90408929  0.11688314  0.08118932  1
  O  O24  1  0.40344361  0.88282179  0.08219065  1
  O  O25  1  0.90344361  0.61717821  0.41780935  1
  O  O26  1  0.59655639  0.61717821  0.58219065  1
  O  O27  1  0.09655639  0.88282179  0.91780935  1
  O  O28  1  0.05979749  0.40198751  0.90051716  1
  O  O29  1  0.55979749  0.09801249  0.59948284  1
  O  O30  1  0.94020251  0.09801249  0.40051716  1
  O  O31  1  0.44020251  0.40198751  0.09948284  1
  O  O32  1  0.94305445  0.60023999  0.09930262  1
  O  O33  1  0.44305445  0.89976001  0.40069738  1
  O  O34  1  0.05694555  0.89976001  0.59930262  1
  O  O35  1  0.55694555  0.60023999  0.90069738  1
