# generated using pymatgen
data_Li5Co2O2F5
_symmetry_space_group_name_H-M   'P 1'
_cell_length_a   2.94834522
_cell_length_b   2.94834522
_cell_length_c   14.62900403
_cell_angle_alpha   95.78354321
_cell_angle_beta   84.21645679
_cell_angle_gamma   90.00000000
_symmetry_Int_Tables_number   1
_chemical_formula_structural   Li5Co2O2F5
_chemical_formula_sum   'Li5 Co2 O2 F5'
_cell_volume   125.86816394
_cell_formula_units_Z   1
loop_
 _symmetry_equiv_pos_site_id
 _symmetry_equiv_pos_as_xyz
  1  'x, y, z'
loop_
 _atom_site_type_symbol
 _atom_site_label
 _atom_site_symmetry_multiplicity
 _atom_site_fract_x
 _atom_site_fract_y
 _atom_site_fract_z
 _atom_site_occupancy
  Li  Li0  1  0.00406710  0.99593290  0.99186679  1
  Li  Li1  1  0.28164790  0.71835210  0.43670521  1
  Li  Li2  1  0.71163123  0.28836877  0.57673654  1
  Li  Li3  1  0.14285700  0.85714300  0.71428600  1
  Li  Li4  1  0.57408277  0.42591723  0.85183446  1
  Co  Co5  1  0.42417229  0.57582771  0.15165543  1
  Co  Co6  1  0.86154171  0.13845829  0.27691557  1
  O  O7  1  0.93260641  0.06739359  0.13478819  1
  O  O8  1  0.35310859  0.64689141  0.29378381  1
  F  F9  1  0.50443418  0.49556582  0.99113065  1
  F  F10  1  0.78127982  0.21872018  0.43744035  1
  F  F11  1  0.21179072  0.78820928  0.57641855  1
  F  F12  1  0.64285700  0.35714300  0.71428600  1
  F  F13  1  0.07392328  0.92607672  0.85215245  1
