# generated using pymatgen
data_Tb3DyAl8
_symmetry_space_group_name_H-M   'P 1'
_cell_length_a   5.57353977
_cell_length_b   5.57353977
_cell_length_c   9.65379145
_cell_angle_alpha   73.22159097
_cell_angle_beta   90.00000000
_cell_angle_gamma   120.00000000
_symmetry_Int_Tables_number   1
_chemical_formula_structural   Tb3DyAl8
_chemical_formula_sum   'Tb3 Dy1 Al8'
_cell_volume   244.85854539
_cell_formula_units_Z   1
loop_
 _symmetry_equiv_pos_site_id
 _symmetry_equiv_pos_as_xyz
  1  'x, y, z'
loop_
 _atom_site_type_symbol
 _atom_site_label
 _atom_site_symmetry_multiplicity
 _atom_site_fract_x
 _atom_site_fract_y
 _atom_site_fract_z
 _atom_site_occupancy
  Tb  Tb0  1  0.81255631  0.12511262  0.56233108  1
  Tb  Tb1  1  0.18737052  0.87474103  0.43788845  1
  Tb  Tb2  1  0.68748088  0.87496176  0.93755735  1
  Dy  Dy3  1  0.31260096  0.12520192  0.06219713  1
  Al  Al4  1  0.99995586  0.49991173  0.00013241  1
  Al  Al5  1  0.49997979  0.49995957  0.50006064  1
  Al  Al6  1  0.75015502  0.00031003  0.24979768  1
  Al  Al7  1  0.25004467  0.00008935  0.75014664  1
  Al  Al8  1  0.75015502  0.50004731  0.24979768  1
  Al  Al9  1  0.25004467  0.49980869  0.75014664  1
  Al  Al10  1  0.24989229  0.50004731  0.24979768  1
  Al  Al11  1  0.74976402  0.49980869  0.75014664  1
