# generated using pymatgen
data_Ni3Se3O10
_symmetry_space_group_name_H-M   'P 1'
_cell_length_a   8.21681315
_cell_length_b   8.17532108
_cell_length_c   8.31019324
_cell_angle_alpha   109.37927182
_cell_angle_beta   118.40988207
_cell_angle_gamma   68.05228741
_symmetry_Int_Tables_number   1
_chemical_formula_structural   Ni3Se3O10
_chemical_formula_sum   'Ni6 Se6 O20'
_cell_volume   447.23485864
_cell_formula_units_Z   2
loop_
 _symmetry_equiv_pos_site_id
 _symmetry_equiv_pos_as_xyz
  1  'x, y, z'
loop_
 _atom_site_type_symbol
 _atom_site_label
 _atom_site_symmetry_multiplicity
 _atom_site_fract_x
 _atom_site_fract_y
 _atom_site_fract_z
 _atom_site_occupancy
  Ni  Ni0  1  0.71236571  0.86902291  0.60378460  1
  Ni  Ni1  1  0.28763429  0.13097709  0.39621540  1
  Ni  Ni2  1  0.34076729  0.96955494  0.78996610  1
  Ni  Ni3  1  0.65923271  0.03044506  0.21003390  1
  Ni  Ni4  1  0.50000000  0.50000000  0.50000000  1
  Ni  Ni5  1  0.00000000  -0.00000000  0.00000000  1
  Se  Se6  1  0.57184574  0.23472071  0.76984013  1
  Se  Se7  1  0.42815426  0.76527929  0.23015987  1
  Se  Se8  1  0.20028825  0.32650712  0.05120316  1
  Se  Se9  1  0.79971175  0.67349288  0.94879684  1
  Se  Se10  1  0.83028409  0.32442780  0.30730972  1
  Se  Se11  1  0.16971591  0.67557220  0.69269028  1
  O  O12  1  0.30602838  0.71537279  0.61035770  1
  O  O13  1  0.69397162  0.28462721  0.38964230  1
  O  O14  1  0.06318485  0.26752310  0.46992973  1
  O  O15  1  0.93681515  0.73247690  0.53007027  1
  O  O16  1  0.13075853  0.21380758  0.14436326  1
  O  O17  1  0.86924147  0.78619242  0.85563674  1
  O  O18  1  0.28780755  0.48603504  0.23258492  1
  O  O19  1  0.71219245  0.51396496  0.76741508  1
  O  O20  1  0.80916068  0.13413270  0.12705110  1
  O  O21  1  0.19083932  0.86586730  0.87294890  1
  O  O22  1  0.21006165  0.89395051  0.23901300  1
  O  O23  1  0.78993835  0.10604949  0.76098700  1
  O  O24  1  0.90764521  0.87720997  0.31818030  1
  O  O25  1  0.09235479  0.12279003  0.68181970  1
  O  O26  1  0.44243530  0.31371193  0.56120487  1
  O  O27  1  0.55756470  0.68628807  0.43879513  1
  O  O28  1  0.40439707  0.16887508  0.02322515  1
  O  O29  1  0.59560293  0.83112492  0.97677485  1
  O  O30  1  0.46572281  0.04934403  0.66866265  1
  O  O31  1  0.53427719  0.95065597  0.33133735  1
