# generated using pymatgen
data_Ta7S12
_symmetry_space_group_name_H-M   'P 1'
_cell_length_a   5.76659984
_cell_length_b   5.76659976
_cell_length_c   12.79380762
_cell_angle_alpha   85.68249027
_cell_angle_beta   94.31751245
_cell_angle_gamma   59.99995568
_symmetry_Int_Tables_number   1
_chemical_formula_structural   Ta7S12
_chemical_formula_sum   'Ta7 S12'
_cell_volume   364.24231280
_cell_formula_units_Z   1
loop_
 _symmetry_equiv_pos_site_id
 _symmetry_equiv_pos_as_xyz
  1  'x, y, z'
loop_
 _atom_site_type_symbol
 _atom_site_label
 _atom_site_symmetry_multiplicity
 _atom_site_fract_x
 _atom_site_fract_y
 _atom_site_fract_z
 _atom_site_occupancy
  Ta  Ta0  1  0.91596289  0.08403711  0.74804330  1
  Ta  Ta1  1  0.58324968  0.75015368  0.74973854  1
  Ta  Ta2  1  0.24984632  0.41675032  0.74973854  1
  Ta  Ta3  1  0.75015368  0.58324968  0.25026146  1
  Ta  Ta4  1  0.41675032  0.24984632  0.25026146  1
  Ta  Ta5  1  0.08403711  0.91596289  0.25195670  1
  Ta  Ta6  1  0.00000000  -0.00000000  0.00000000  1
  S  S7  1  0.70880371  0.29119629  0.12362619  1
  S  S8  1  0.37359586  0.95883692  0.12360827  1
  S  S9  1  0.04116308  0.62640414  0.12360827  1
  S  S10  1  0.95883692  0.37359586  0.87639173  1
  S  S11  1  0.62640414  0.04116308  0.87639173  1
  S  S12  1  0.29119629  0.70880371  0.87637381  1
  S  S13  1  0.79010113  0.20989887  0.37405927  1
  S  S14  1  0.45950140  0.87521126  0.37403125  1
  S  S15  1  0.12478874  0.54049860  0.37403125  1
  S  S16  1  0.87521126  0.45950140  0.62596875  1
  S  S17  1  0.54049860  0.12478874  0.62596875  1
  S  S18  1  0.20989887  0.79010113  0.62594073  1
