# generated using pymatgen
data_Li2Cr2NiO6
_symmetry_space_group_name_H-M   'P 1'
_cell_length_a   7.83947523
_cell_length_b   7.83947533
_cell_length_c   5.93029678
_cell_angle_alpha   101.79403288
_cell_angle_beta   101.79403117
_cell_angle_gamma   67.90198619
_symmetry_Int_Tables_number   1
_chemical_formula_structural   Li2Cr2NiO6
_chemical_formula_sum   'Li6 Cr6 Ni3 O18'
_cell_volume   327.27613681
_cell_formula_units_Z   3
loop_
 _symmetry_equiv_pos_site_id
 _symmetry_equiv_pos_as_xyz
  1  'x, y, z'
loop_
 _atom_site_type_symbol
 _atom_site_label
 _atom_site_symmetry_multiplicity
 _atom_site_fract_x
 _atom_site_fract_y
 _atom_site_fract_z
 _atom_site_occupancy
  Li  Li0  1  0.32218425  0.66714800  0.49867319  1
  Li  Li1  1  0.66714800  0.32218425  0.49867319  1
  Li  Li2  1  0.99839711  0.66826889  0.16666700  1
  Li  Li3  1  0.66826889  0.99839711  0.16666700  1
  Li  Li4  1  0.99951900  0.34448175  0.83466081  1
  Li  Li5  1  0.34448175  0.99951900  0.83466081  1
  Cr  Cr6  1  0.00477307  0.00477307  0.99050980  1
  Cr  Cr7  1  0.66189293  0.66189293  0.34282420  1
  Cr  Cr8  1  0.33103596  0.66776997  0.99269561  1
  Cr  Cr9  1  0.66776997  0.33103596  0.99269561  1
  Cr  Cr10  1  0.99889703  0.33563104  0.34063739  1
  Cr  Cr11  1  0.33563104  0.99889703  0.34063739  1
  Ni  Ni12  1  0.99502156  0.67164544  0.66666700  1
  Ni  Ni13  1  0.33333300  0.33333300  0.66666700  1
  Ni  Ni14  1  0.67164544  0.99502156  0.66666700  1
  O  O15  1  0.81987262  0.81987262  0.44154684  1
  O  O16  1  0.48891977  0.82834860  0.10758529  1
  O  O17  1  0.82834860  0.48891977  0.10758529  1
  O  O18  1  0.84679438  0.84679438  0.89178616  1
  O  O19  1  0.48776762  0.83670085  0.55730531  1
  O  O20  1  0.83670085  0.48776762  0.55730531  1
  O  O21  1  0.17774623  0.83831840  0.22574771  1
  O  O22  1  0.50455910  0.50455910  0.21713554  1
  O  O23  1  0.83831840  0.17774623  0.22574771  1
  O  O24  1  0.17889938  0.82996515  0.77602769  1
  O  O25  1  0.48224987  0.48224987  0.75254160  1
  O  O26  1  0.82996515  0.17889938  0.77602769  1
  O  O27  1  0.14283502  0.50531081  0.44134603  1
  O  O28  1  0.50531081  0.14283502  0.44134603  1
  O  O29  1  0.16210790  0.16210790  0.11619746  1
  O  O30  1  0.16135519  0.52383198  0.89198697  1
  O  O31  1  0.52383198  0.16135519  0.89198697  1
  O  O32  1  0.18441613  0.18441613  0.58079140  1
