# generated using pymatgen
data_Sr8RuRh3O16
_symmetry_space_group_name_H-M   'P 1'
_cell_length_a   5.52735912
_cell_length_b   5.52735912
_cell_length_c   13.59963820
_cell_angle_alpha   78.27485063
_cell_angle_beta   78.27485063
_cell_angle_gamma   90.00000000
_symmetry_Int_Tables_number   1
_chemical_formula_structural   Sr8RuRh3O16
_chemical_formula_sum   'Sr8 Ru1 Rh3 O16'
_cell_volume   397.96366174
_cell_formula_units_Z   1
loop_
 _symmetry_equiv_pos_site_id
 _symmetry_equiv_pos_as_xyz
  1  'x, y, z'
loop_
 _atom_site_type_symbol
 _atom_site_label
 _atom_site_symmetry_multiplicity
 _atom_site_fract_x
 _atom_site_fract_y
 _atom_site_fract_z
 _atom_site_occupancy
  Sr  Sr0  1  0.07357499  0.57357499  0.85285002  1
  Sr  Sr1  1  0.57405043  0.07405043  0.85189914  1
  Sr  Sr2  1  0.67499373  0.67499373  0.65001253  1
  Sr  Sr3  1  0.17499876  0.17499876  0.65000248  1
  Sr  Sr4  1  0.42642501  0.92642501  0.14714998  1
  Sr  Sr5  1  0.92594957  0.42594957  0.14810086  1
  Sr  Sr6  1  0.32500627  0.32500627  0.34998747  1
  Sr  Sr7  1  0.82500124  0.82500124  0.34999752  1
  Ru  Ru8  1  0.25000000  0.75000000  0.50000000  1
  Rh  Rh9  1  0.75000000  0.25000000  0.50000000  1
  Rh  Rh10  1  0.50000000  0.50000000  -0.00000000  1
  Rh  Rh11  1  0.00000000  0.00000000  -0.00000000  1
  O  O12  1  0.17082268  0.67082268  0.65835463  1
  O  O13  1  0.66910715  0.16910715  0.66178571  1
  O  O14  1  0.58056938  0.58056938  0.83886125  1
  O  O15  1  0.08057938  0.08057938  0.83884124  1
  O  O16  1  0.32917732  0.82917732  0.34164537  1
  O  O17  1  0.83089285  0.33089285  0.33821429  1
  O  O18  1  0.41943062  0.41943062  0.16113875  1
  O  O19  1  0.91942062  0.91942062  0.16115876  1
  O  O20  1  0.69861729  0.19859422  0.00000351  1
  O  O21  1  0.80140578  0.69862080  -0.00000351  1
  O  O22  1  0.44807062  0.45576916  0.49999172  1
  O  O23  1  0.54423084  0.94806234  0.50000828  1
  O  O24  1  0.30137920  0.80140227  0.00000351  1
  O  O25  1  0.19859773  0.30138271  -0.00000351  1
  O  O26  1  0.05193766  0.04423912  0.49999172  1
  O  O27  1  0.95576088  0.55192938  0.50000828  1
