# generated using pymatgen
data_SrNd4Si3O13
_symmetry_space_group_name_H-M   'P 1'
_cell_length_a   7.16195065
_cell_length_b   9.67849187
_cell_length_c   9.67854576
_cell_angle_alpha   59.99949223
_cell_angle_beta   90.00000000
_cell_angle_gamma   90.00000000
_symmetry_Int_Tables_number   1
_chemical_formula_structural   SrNd4Si3O13
_chemical_formula_sum   'Sr2 Nd8 Si6 O26'
_cell_volume   581.00187088
_cell_formula_units_Z   2
loop_
 _symmetry_equiv_pos_site_id
 _symmetry_equiv_pos_as_xyz
  1  'x, y, z'
loop_
 _atom_site_type_symbol
 _atom_site_label
 _atom_site_symmetry_multiplicity
 _atom_site_fract_x
 _atom_site_fract_y
 _atom_site_fract_z
 _atom_site_occupancy
  Sr  Sr0  1  0.50122071  0.66665958  0.66667008  1
  Sr  Sr1  1  0.00122071  0.33334042  0.33332992  1
  Nd  Nd2  1  0.50127054  0.33332894  0.33333579  1
  Nd  Nd3  1  0.00127054  0.66667106  0.66666421  1
  Nd  Nd4  1  0.74994458  0.76673628  0.99093214  1
  Nd  Nd5  1  0.74994223  0.24232398  0.76672946  1
  Nd  Nd6  1  0.74994514  0.99093898  0.24234334  1
  Nd  Nd7  1  0.24994458  0.23326372  0.00906786  1
  Nd  Nd8  1  0.24994223  0.75767602  0.23327054  1
  Nd  Nd9  1  0.24994514  0.00906102  0.75765666  1
  Si  Si10  1  0.75125420  0.02873964  0.60201731  1
  Si  Si11  1  0.75124614  0.36925031  0.02874038  1
  Si  Si12  1  0.75124980  0.60201370  0.36923834  1
  Si  Si13  1  0.25125420  0.97126036  0.39798269  1
  Si  Si14  1  0.25124614  0.63074969  0.97125962  1
  Si  Si15  1  0.25124980  0.39798630  0.63076166  1
  O  O16  1  0.56597973  0.09030359  0.65870895  1
  O  O17  1  0.56598823  0.25099455  0.09030765  1
  O  O18  1  0.56598749  0.65869490  0.25099645  1
  O  O19  1  0.06597973  0.90969641  0.34129105  1
  O  O20  1  0.06598823  0.74900545  0.90969235  1
  O  O21  1  0.06598749  0.34130510  0.74900355  1
  O  O22  1  0.43151342  0.90880081  0.33769918  1
  O  O23  1  0.43151020  0.75349809  0.90879490  1
  O  O24  1  0.43150337  0.33770563  0.75349478  1
  O  O25  1  0.93151342  0.09119919  0.66230082  1
  O  O26  1  0.93151020  0.24650191  0.09120510  1
  O  O27  1  0.93150337  0.66229437  0.24650522  1
  O  O28  1  0.75998114  0.83429818  0.68504464  1
  O  O29  1  0.75998115  0.48063361  0.83431697  1
  O  O30  1  0.75998098  0.68504756  0.48064385  1
  O  O31  1  0.25998114  0.16570182  0.31495536  1
  O  O32  1  0.25998115  0.51936639  0.16568303  1
  O  O33  1  0.25998098  0.31495244  0.51935615  1
  O  O34  1  0.74126204  0.12117745  0.40584937  1
  O  O35  1  0.74126129  0.47297353  0.12115517  1
  O  O36  1  0.74126113  0.40586901  0.47296799  1
  O  O37  1  0.24126204  0.87882255  0.59415063  1
  O  O38  1  0.24126129  0.52702647  0.87884483  1
  O  O39  1  0.24126113  0.59413099  0.52703201  1
  O  O40  1  0.74771648  0.00000020  0.00000541  1
  O  O41  1  0.24771648  -0.00000020  0.99999459  1
