# generated using pymatgen
data_SrLaCuS3
_symmetry_space_group_name_H-M   'P 1'
_cell_length_a   4.13698256
_cell_length_b   11.23063517
_cell_length_c   11.65317748
_cell_angle_alpha   90.00000000
_cell_angle_beta   90.00000000
_cell_angle_gamma   90.00000000
_symmetry_Int_Tables_number   1
_chemical_formula_structural   SrLaCuS3
_chemical_formula_sum   'Sr4 La4 Cu4 S12'
_cell_volume   541.41760110
_cell_formula_units_Z   4
loop_
 _symmetry_equiv_pos_site_id
 _symmetry_equiv_pos_as_xyz
  1  'x, y, z'
loop_
 _atom_site_type_symbol
 _atom_site_label
 _atom_site_symmetry_multiplicity
 _atom_site_fract_x
 _atom_site_fract_y
 _atom_site_fract_z
 _atom_site_occupancy
  Sr  Sr0  1  0.75000000  0.18133479  0.49232995  1
  Sr  Sr1  1  0.75000000  0.68133479  0.00767005  1
  Sr  Sr2  1  0.25000000  0.81866521  0.50767005  1
  Sr  Sr3  1  0.25000000  0.31866521  0.99232995  1
  La  La4  1  0.75000000  0.01026536  0.81686131  1
  La  La5  1  0.75000000  0.51026536  0.68313869  1
  La  La6  1  0.25000000  0.98973464  0.18313869  1
  La  La7  1  0.25000000  0.48973464  0.31686131  1
  Cu  Cu8  1  0.75000000  0.25524675  0.21164696  1
  Cu  Cu9  1  0.75000000  0.75524675  0.28835304  1
  Cu  Cu10  1  0.25000000  0.74475325  0.78835304  1
  Cu  Cu11  1  0.25000000  0.24475325  0.71164696  1
  S  S12  1  0.75000000  0.27643972  0.80430738  1
  S  S13  1  0.75000000  0.77643972  0.69569262  1
  S  S14  1  0.25000000  0.72356028  0.19569262  1
  S  S15  1  0.25000000  0.22356028  0.30430738  1
  S  S16  1  0.75000000  0.44917500  0.14120150  1
  S  S17  1  0.75000000  0.94917500  0.35879850  1
  S  S18  1  0.25000000  0.55082500  0.85879850  1
  S  S19  1  0.25000000  0.05082500  0.64120150  1
  S  S20  1  0.75000000  0.11623953  0.05867435  1
  S  S21  1  0.75000000  0.61623953  0.44132565  1
  S  S22  1  0.25000000  0.88376047  0.94132565  1
  S  S23  1  0.25000000  0.38376047  0.55867435  1
