# generated using pymatgen
data_SrLiY2(BO3)3
_symmetry_space_group_name_H-M   'P 1'
_cell_length_a   6.44158585
_cell_length_b   10.43280619
_cell_length_c   10.43279482
_cell_angle_alpha   59.99998712
_cell_angle_beta   90.00005675
_cell_angle_gamma   89.99987492
_symmetry_Int_Tables_number   1
_chemical_formula_structural   SrLiY2(BO3)3
_chemical_formula_sum   'Sr3 Li3 Y6 B9 O27'
_cell_volume   607.19079695
_cell_formula_units_Z   3
loop_
 _symmetry_equiv_pos_site_id
 _symmetry_equiv_pos_as_xyz
  1  'x, y, z'
loop_
 _atom_site_type_symbol
 _atom_site_label
 _atom_site_symmetry_multiplicity
 _atom_site_fract_x
 _atom_site_fract_y
 _atom_site_fract_z
 _atom_site_occupancy
  Sr  Sr0  1  0.99999871  0.99999923  0.50336761  1
  Sr  Sr1  1  0.99999870  0.49663310  0.99999932  1
  Sr  Sr2  1  -0.00000044  0.50336752  0.49663362  1
  Li  Li3  1  0.49999995  0.00000003  0.50288188  1
  Li  Li4  1  0.49999969  0.49711906  0.00000064  1
  Li  Li5  1  0.50000038  0.50288107  0.49711930  1
  Y  Y6  1  0.36271134  0.81685045  0.82781881  1
  Y  Y7  1  0.36270987  0.35532592  0.81685114  1
  Y  Y8  1  0.36271262  0.82782378  0.35532923  1
  Y  Y9  1  0.63728826  0.17218585  0.18314227  1
  Y  Y10  1  0.63729099  0.64467549  0.17218669  1
  Y  Y11  1  0.63728850  0.18313894  0.64467052  1
  B  B12  1  0.80474683  0.80865032  0.81248540  1
  B  B13  1  0.80474610  0.37886007  0.80864912  1
  B  B14  1  0.80474536  0.81249442  0.37886415  1
  B  B15  1  0.19525571  0.18751813  0.19134588  1
  B  B16  1  0.19525574  0.62114067  0.18752143  1
  B  B17  1  0.19525464  0.19133666  0.62113643  1
  B  B18  1  0.33526263  0.66667669  0.66666140  1
  B  B19  1  0.66473630  0.33332284  0.33333814  1
  B  B20  1  0.49999910  -0.00000028  0.00000844  1
  O  O21  1  0.31346225  0.07119628  0.63813416  1
  O  O22  1  0.31346475  0.29066396  0.07120164  1
  O  O23  1  0.31346384  0.63813744  0.29066432  1
  O  O24  1  0.30372088  0.07719393  0.31291336  1
  O  O25  1  0.30372184  0.60989536  0.07719512  1
  O  O26  1  0.30372162  0.31290784  0.60989227  1
  O  O27  1  0.69627928  0.92281883  0.39010399  1
  O  O28  1  0.69627435  0.68708255  0.92281339  1
  O  O29  1  0.69627417  0.39010176  0.68707941  1
  O  O30  1  0.68654041  0.92879097  0.70933836  1
  O  O31  1  0.68653994  0.36186720  0.92878884  1
  O  O32  1  0.68653919  0.70934386  0.36186961  1
  O  O33  1  0.01562467  0.80510317  0.80122597  1
  O  O34  1  0.01562546  0.39366776  0.80510254  1
  O  O35  1  0.01562618  0.80122925  0.39367205  1
  O  O36  1  0.98437481  0.19878947  0.19488280  1
  O  O37  1  0.98437408  0.60633260  0.19878900  1
  O  O38  1  0.98437454  0.19487761  0.60632957  1
  O  O39  1  0.33711913  0.81917052  0.58957699  1
  O  O40  1  0.33711117  0.59124485  0.81918394  1
  O  O41  1  0.33711091  0.58956910  0.59124763  1
  O  O42  1  0.66287999  0.18082970  0.40874230  1
  O  O43  1  0.66288827  0.41043577  0.18081641  1
  O  O44  1  0.66288836  0.40874954  0.41043399  1
  O  O45  1  0.49999650  0.86819890  0.00000132  1
  O  O46  1  0.50000234  0.13180013  0.86819837  1
  O  O47  1  0.50000007  0.00000169  0.13179122  1
