# generated using pymatgen
data_Ta3Sb(PO4)6
_symmetry_space_group_name_H-M   'P 1'
_cell_length_a   8.88721434
_cell_length_b   8.88721365
_cell_length_c   9.12106864
_cell_angle_alpha   60.84456391
_cell_angle_beta   119.15543343
_cell_angle_gamma   120.00000148
_symmetry_Int_Tables_number   1
_chemical_formula_structural   Ta3Sb(PO4)6
_chemical_formula_sum   'Ta3 Sb1 P6 O24'
_cell_volume   515.80986339
_cell_formula_units_Z   1
loop_
 _symmetry_equiv_pos_site_id
 _symmetry_equiv_pos_as_xyz
  1  'x, y, z'
loop_
 _atom_site_type_symbol
 _atom_site_label
 _atom_site_symmetry_multiplicity
 _atom_site_fract_x
 _atom_site_fract_y
 _atom_site_fract_z
 _atom_site_occupancy
  Ta  Ta0  1  0.85663091  0.14336909  0.56989273  1
  Ta  Ta1  1  0.64157738  0.35842262  0.92473215  1
  Ta  Ta2  1  0.14337715  0.85662285  0.43013144  1
  Sb  Sb3  1  0.36063748  0.63936252  0.08191243  1
  P  P4  1  0.25281113  0.04233207  0.74798747  1
  P  P5  1  0.53750840  0.74718887  0.74798747  1
  P  P6  1  0.95766793  0.46249160  0.74798747  1
  P  P7  1  0.46179087  0.23342367  0.25088989  1
  P  P8  1  0.02252269  0.53820913  0.25088989  1
  P  P9  1  0.76657633  0.97747731  0.25088989  1
  O  O10  1  0.25836471  0.87999481  0.91558802  1
  O  O11  1  0.53721811  0.74163529  0.91558802  1
  O  O12  1  0.12000519  0.46278189  0.91558802  1
  O  O13  1  0.62356008  0.18474905  0.41279354  1
  O  O14  1  0.97398251  0.37643992  0.41279354  1
  O  O15  1  0.81525095  0.02601749  0.41279354  1
  O  O16  1  0.72903370  0.14264994  0.08084738  1
  O  O17  1  0.49446361  0.27096630  0.08084738  1
  O  O18  1  0.85735006  0.50553639  0.08084738  1
  O  O19  1  0.36006847  0.76907500  0.58812350  1
  O  O20  1  0.99713003  0.63993153  0.58812350  1
  O  O21  1  0.23092500  0.00286997  0.58812350  1
  O  O22  1  0.60683146  0.79988842  0.25068482  1
  O  O23  1  0.44374177  0.39316854  0.25068482  1
  O  O24  1  0.20011158  0.55625823  0.25068482  1
  O  O25  1  0.71032377  0.90785234  0.70201204  1
  O  O26  1  0.89954061  0.28967623  0.70201204  1
  O  O27  1  0.09214766  0.10045939  0.70201204  1
  O  O28  1  0.43107650  0.21299074  0.77374574  1
  O  O29  1  0.55565998  0.56892350  0.77374574  1
  O  O30  1  0.78700926  0.44434002  0.77374574  1
  O  O31  1  0.28936814  0.05687644  0.27510469  1
  O  O32  1  0.04261299  0.71063186  0.27510469  1
  O  O33  1  0.94312356  0.95738701  0.27510469  1
