# generated using pymatgen
data_Sr6Al12Bi2O27
_symmetry_space_group_name_H-M   'P 1'
_cell_length_a   7.24532640
_cell_length_b   10.63518842
_cell_length_c   10.63518859
_cell_angle_alpha   115.00184764
_cell_angle_beta   103.12560962
_cell_angle_gamma   103.12560985
_symmetry_Int_Tables_number   1
_chemical_formula_structural   Sr6Al12Bi2O27
_chemical_formula_sum   'Sr6 Al12 Bi2 O27'
_cell_volume   673.10841153
_cell_formula_units_Z   1
loop_
 _symmetry_equiv_pos_site_id
 _symmetry_equiv_pos_as_xyz
  1  'x, y, z'
loop_
 _atom_site_type_symbol
 _atom_site_label
 _atom_site_symmetry_multiplicity
 _atom_site_fract_x
 _atom_site_fract_y
 _atom_site_fract_z
 _atom_site_occupancy
  Sr  Sr0  1  0.19526907  0.35668814  0.95775772  1
  Sr  Sr1  1  0.23751135  0.04224228  0.39893042  1
  Sr  Sr2  1  0.83858093  0.60106958  0.64331186  1
  Sr  Sr3  1  0.80126809  0.63748485  0.03243089  1
  Sr  Sr4  1  0.76883720  0.96756911  0.60505396  1
  Sr  Sr5  1  0.16378325  0.39494604  0.36251515  1
  Al  Al6  1  0.02189239  0.75822276  0.45810129  1
  Al  Al7  1  0.56379109  0.54189871  0.30012147  1
  Al  Al8  1  0.26366963  0.69987853  0.24177724  1
  Al  Al9  1  0.97614789  0.24140311  0.54081795  1
  Al  Al10  1  0.43532994  0.45918205  0.70058516  1
  Al  Al11  1  0.73474478  0.29941484  0.75859689  1
  Al  Al12  1  0.34482502  0.68430663  0.95840541  1
  Al  Al13  1  0.38641961  0.04159459  0.72590122  1
  Al  Al14  1  0.66051839  0.27409878  0.31569337  1
  Al  Al15  1  0.65877874  0.31820862  0.04299000  1
  Al  Al16  1  0.61578875  0.95701000  0.27521863  1
  Al  Al17  1  0.34057012  0.72478137  0.68179138  1
  Bi  Bi18  1  0.20154356  1.00000000  1.00000000  1
  Bi  Bi19  1  0.78260042  0.00000000  0.00000000  1
  O  O20  1  0.67923875  0.44589692  0.74133188  1
  O  O21  1  0.93790688  0.25866812  0.70456505  1
  O  O22  1  0.23334183  0.29543495  0.55410308  1
  O  O23  1  0.31587044  0.55025262  0.25598002  1
  O  O24  1  0.05989043  0.74401998  0.29427260  1
  O  O25  1  0.76561782  0.70572740  0.44974738  1
  O  O26  1  0.58973507  0.82389403  0.09350589  1
  O  O27  1  0.49622918  0.90649411  0.73038814  1
  O  O28  1  0.76584104  0.26961186  0.17610597  1
  O  O29  1  0.41793696  0.17572785  0.90838783  1
  O  O30  1  0.50954914  0.09161217  0.26734002  1
  O  O31  1  0.24220912  0.73265998  0.82427215  1
  O  O32  1  0.13176536  0.95003709  0.59800722  1
  O  O33  1  0.53375814  0.40199278  0.35202987  1
  O  O34  1  0.18172827  0.64797013  0.04996291  1
  O  O35  1  0.86836387  0.04850395  0.40642034  1
  O  O36  1  0.46194353  0.59357966  0.64208361  1
  O  O37  1  0.81985992  0.35791639  0.95149605  1
  O  O38  1  0.52573676  0.12980456  0.64974571  1
  O  O39  1  0.87599105  0.35025429  0.48005885  1
  O  O40  1  0.39593220  0.51994115  0.87019544  1
  O  O41  1  0.47366365  0.86930433  0.35029142  1
  O  O42  1  0.12337223  0.64970858  0.51901291  1
  O  O43  1  0.60435932  0.48098709  0.13069567  1
  O  O44  1  0.90405342  0.81854244  0.91332901  1
  O  O45  1  0.99072441  0.08667099  0.90521342  1
  O  O46  1  0.08551099  0.09478658  0.18145756  1
