# generated using pymatgen
data_SrPr(FeO3)2
_symmetry_space_group_name_H-M   'P 1'
_cell_length_a   5.54919519
_cell_length_b   5.58412736
_cell_length_c   7.84474397
_cell_angle_alpha   90.00000000
_cell_angle_beta   90.00000000
_cell_angle_gamma   90.00000000
_symmetry_Int_Tables_number   1
_chemical_formula_structural   SrPr(FeO3)2
_chemical_formula_sum   'Sr2 Pr2 Fe4 O12'
_cell_volume   243.08831882
_cell_formula_units_Z   2
loop_
 _symmetry_equiv_pos_site_id
 _symmetry_equiv_pos_as_xyz
  1  'x, y, z'
loop_
 _atom_site_type_symbol
 _atom_site_label
 _atom_site_symmetry_multiplicity
 _atom_site_fract_x
 _atom_site_fract_y
 _atom_site_fract_z
 _atom_site_occupancy
  Sr  Sr0  1  0.01285672  0.49885558  0.75000000  1
  Sr  Sr1  1  0.48714328  0.99885558  0.25000000  1
  Pr  Pr2  1  0.52778627  0.01137955  0.75000000  1
  Pr  Pr3  1  0.97221373  0.51137955  0.25000000  1
  Fe  Fe4  1  0.49687097  0.50062136  0.99972397  1
  Fe  Fe5  1  0.00312903  0.00062136  0.49972397  1
  Fe  Fe6  1  0.49687097  0.50062136  0.50027603  1
  Fe  Fe7  1  0.00312903  0.00062136  0.00027603  1
  O  O8  1  0.22333664  0.72234909  0.03726433  1
  O  O9  1  0.73987625  0.75949355  0.46640551  1
  O  O10  1  0.76012375  0.25949355  0.53359449  1
  O  O11  1  0.27666336  0.22234909  0.96273567  1
  O  O12  1  0.76012375  0.25949355  0.96640551  1
  O  O13  1  0.27666336  0.22234909  0.53726433  1
  O  O14  1  0.22333664  0.72234909  0.46273567  1
  O  O15  1  0.73987625  0.75949355  0.03359449  1
  O  O16  1  0.49522500  0.57872177  0.75000000  1
  O  O17  1  0.98608439  0.94611510  0.75000000  1
  O  O18  1  0.51391561  0.44611510  0.25000000  1
  O  O19  1  0.00477500  0.07872177  0.25000000  1
