# generated using pymatgen
data_SmGa3Ni
_symmetry_space_group_name_H-M   'P 1'
_cell_length_a   4.24372803
_cell_length_b   4.24372803
_cell_length_c   5.91944578
_cell_angle_alpha   68.96357254
_cell_angle_beta   68.96357254
_cell_angle_gamma   89.91929742
_symmetry_Int_Tables_number   1
_chemical_formula_structural   SmGa3Ni
_chemical_formula_sum   'Sm1 Ga3 Ni1'
_cell_volume   91.86910993
_cell_formula_units_Z   1
loop_
 _symmetry_equiv_pos_site_id
 _symmetry_equiv_pos_as_xyz
  1  'x, y, z'
loop_
 _atom_site_type_symbol
 _atom_site_label
 _atom_site_symmetry_multiplicity
 _atom_site_fract_x
 _atom_site_fract_y
 _atom_site_fract_z
 _atom_site_occupancy
  Sm  Sm0  1  0.00437279  0.00437279  0.99125442  1
  Ga  Ga1  1  0.75584662  0.25584662  0.48830676  1
  Ga  Ga2  1  0.25584662  0.75584662  0.48830676  1
  Ga  Ga3  1  0.59000876  0.59000876  0.81998247  1
  Ni  Ni4  1  0.36292521  0.36292521  0.27414959  1
