# generated using pymatgen
data_Sm6Cd(GeS7)2
_symmetry_space_group_name_H-M   'P 1'
_cell_length_a   5.80642067
_cell_length_b   10.13288323
_cell_length_c   10.13276791
_cell_angle_alpha   119.99963284
_cell_angle_beta   89.99958882
_cell_angle_gamma   89.99973564
_symmetry_Int_Tables_number   1
_chemical_formula_structural   Sm6Cd(GeS7)2
_chemical_formula_sum   'Sm6 Cd1 Ge2 S14'
_cell_volume   516.29969475
_cell_formula_units_Z   1
loop_
 _symmetry_equiv_pos_site_id
 _symmetry_equiv_pos_as_xyz
  1  'x, y, z'
loop_
 _atom_site_type_symbol
 _atom_site_label
 _atom_site_symmetry_multiplicity
 _atom_site_fract_x
 _atom_site_fract_y
 _atom_site_fract_z
 _atom_site_occupancy
  Sm  Sm0  1  0.24693500  0.22929446  0.35747936  1
  Sm  Sm1  1  0.24693232  0.64253233  0.87182419  1
  Sm  Sm2  1  0.24693196  0.12818384  0.77070112  1
  Sm  Sm3  1  0.75089561  0.77026370  0.64202780  1
  Sm  Sm4  1  0.75089294  0.35795596  0.12822777  1
  Sm  Sm5  1  0.75089524  0.87176511  0.22973344  1
  Cd  Cd6  1  0.48508703  0.00000129  -0.00000088  1
  Ge  Ge7  1  0.82990525  0.33336172  0.66668075  1
  Ge  Ge8  1  0.33433686  0.66664470  0.33332147  1
  S  S9  1  0.71570887  0.16392818  0.26001046  1
  S  S10  1  0.71570670  0.73999320  0.90392235  1
  S  S11  1  0.71570846  0.09607570  0.83606248  1
  S  S12  1  0.22465917  0.83592270  0.74291490  1
  S  S13  1  0.22465895  0.25708484  0.09300439  1
  S  S14  1  0.22466399  0.90699391  0.16409117  1
  S  S15  1  0.45228299  0.33334630  0.66667644  1
  S  S16  1  0.95566116  0.66664800  0.33332364  1
  S  S17  1  0.99050337  0.10318479  0.51860245  1
  S  S18  1  0.99052566  0.48141526  0.58456883  1
  S  S19  1  0.99052490  0.41543930  0.89684563  1
  S  S20  1  0.49317875  0.89679919  0.48152662  1
  S  S21  1  0.49320193  0.51845047  0.41527433  1
  S  S22  1  0.49320290  0.58471504  0.10318128  1
