# generated using pymatgen
data_SnPb4S5
_symmetry_space_group_name_H-M   'P 1'
_cell_length_a   4.20848016
_cell_length_b   15.33525054
_cell_length_c   4.20848016
_cell_angle_alpha   82.11322623
_cell_angle_beta   90.00000000
_cell_angle_gamma   97.88677377
_symmetry_Int_Tables_number   1
_chemical_formula_structural   SnPb4S5
_chemical_formula_sum   'Sn1 Pb4 S5'
_cell_volume   266.44435572
_cell_formula_units_Z   1
loop_
 _symmetry_equiv_pos_site_id
 _symmetry_equiv_pos_as_xyz
  1  'x, y, z'
loop_
 _atom_site_type_symbol
 _atom_site_label
 _atom_site_symmetry_multiplicity
 _atom_site_fract_x
 _atom_site_fract_y
 _atom_site_fract_z
 _atom_site_occupancy
  Sn  Sn0  1  -0.00000000  -0.00000000  0.00000000  1
  Pb  Pb1  1  0.59952953  0.19905906  0.40047047  1
  Pb  Pb2  1  0.19980744  0.39961487  0.80019256  1
  Pb  Pb3  1  0.80019256  0.60038513  0.19980744  1
  Pb  Pb4  1  0.40047047  0.80094094  0.59952953  1
  S  S5  1  0.50000000  -0.00000000  0.50000000  1
  S  S6  1  0.29991274  0.59982548  0.70008726  1
  S  S7  1  0.90131975  0.80263951  0.09868025  1
  S  S8  1  0.09868025  0.19736049  0.90131975  1
  S  S9  1  0.70008726  0.40017452  0.29991274  1
