# generated using pymatgen
data_Sr(B2Pt3)2
_symmetry_space_group_name_H-M   'P 1'
_cell_length_a   5.33666973
_cell_length_b   6.17476384
_cell_length_c   6.16588651
_cell_angle_alpha   59.95235659
_cell_angle_beta   89.99163928
_cell_angle_gamma   90.00000000
_symmetry_Int_Tables_number   1
_chemical_formula_structural   Sr(B2Pt3)2
_chemical_formula_sum   'Sr1 B4 Pt6'
_cell_volume   175.87662861
_cell_formula_units_Z   1
loop_
 _symmetry_equiv_pos_site_id
 _symmetry_equiv_pos_as_xyz
  1  'x, y, z'
loop_
 _atom_site_type_symbol
 _atom_site_label
 _atom_site_symmetry_multiplicity
 _atom_site_fract_x
 _atom_site_fract_y
 _atom_site_fract_z
 _atom_site_occupancy
  Sr  Sr0  1  0.50000000  0.00000000  -0.00000000  1
  B  B1  1  0.56885445  0.66673026  0.66653948  1
  B  B2  1  0.43114555  0.33326974  0.33346052  1
  B  B3  1  0.06724890  0.33319276  0.33361449  1
  B  B4  1  0.93275110  0.66680724  0.66638551  1
  Pt  Pt5  1  0.75070983  0.48407493  0.48442659  1
  Pt  Pt6  1  0.75072446  0.48416736  0.03166529  1
  Pt  Pt7  1  0.75070983  0.03149848  0.48442659  1
  Pt  Pt8  1  0.24929017  0.51592507  0.51557341  1
  Pt  Pt9  1  0.24927554  0.51583264  0.96833471  1
  Pt  Pt10  1  0.24929017  0.96850152  0.51557341  1
