# generated using pymatgen
data_SmGdCo17
_symmetry_space_group_name_H-M   'P 1'
_cell_length_a   6.29863376
_cell_length_b   6.29863396
_cell_length_c   6.29863376
_cell_angle_alpha   83.24448462
_cell_angle_beta   83.24448084
_cell_angle_gamma   83.24448462
_symmetry_Int_Tables_number   1
_chemical_formula_structural   SmGdCo17
_chemical_formula_sum   'Sm1 Gd1 Co17'
_cell_volume   245.05783033
_cell_formula_units_Z   1
loop_
 _symmetry_equiv_pos_site_id
 _symmetry_equiv_pos_as_xyz
  1  'x, y, z'
loop_
 _atom_site_type_symbol
 _atom_site_label
 _atom_site_symmetry_multiplicity
 _atom_site_fract_x
 _atom_site_fract_y
 _atom_site_fract_z
 _atom_site_occupancy
  Sm  Sm0  1  0.34464829  0.34464829  0.34464829  1
  Gd  Gd1  1  0.65562651  0.65562651  0.65562651  1
  Co  Co2  1  0.71301043  0.99968263  0.28705521  1
  Co  Co3  1  0.99968263  0.28705521  0.71301043  1
  Co  Co4  1  0.28705521  0.71301043  0.99968263  1
  Co  Co5  1  0.99968263  0.71301043  0.28705521  1
  Co  Co6  1  0.71301043  0.28705521  0.99968263  1
  Co  Co7  1  0.28705521  0.99968263  0.71301043  1
  Co  Co8  1  0.34492280  0.85026614  0.34492280  1
  Co  Co9  1  0.85026614  0.34492280  0.34492280  1
  Co  Co10  1  0.34492280  0.34492280  0.85026614  1
  Co  Co11  1  0.65561712  0.14979805  0.65561712  1
  Co  Co12  1  0.14979805  0.65561712  0.65561712  1
  Co  Co13  1  0.65561712  0.65561712  0.14979805  1
  Co  Co14  1  0.99952776  0.50037168  0.99952776  1
  Co  Co15  1  0.50037168  0.99952776  0.99952776  1
  Co  Co16  1  0.99952776  0.99952776  0.50037168  1
  Co  Co17  1  0.90357174  0.90357174  0.90357174  1
  Co  Co18  1  0.09608570  0.09608570  0.09608570  1
