# generated using pymatgen
data_Li2Mg11(WO4)12
_symmetry_space_group_name_H-M   'P 1'
_cell_length_a   5.27468055
_cell_length_b   10.76840118
_cell_length_c   17.77159868
_cell_angle_alpha   90.00000000
_cell_angle_beta   89.65412479
_cell_angle_gamma   90.00000000
_symmetry_Int_Tables_number   1
_chemical_formula_structural   Li2Mg11(WO4)12
_chemical_formula_sum   'Li2 Mg11 W12 O48'
_cell_volume   1009.40621258
_cell_formula_units_Z   1
loop_
 _symmetry_equiv_pos_site_id
 _symmetry_equiv_pos_as_xyz
  1  'x, y, z'
loop_
 _atom_site_type_symbol
 _atom_site_label
 _atom_site_symmetry_multiplicity
 _atom_site_fract_x
 _atom_site_fract_y
 _atom_site_fract_z
 _atom_site_occupancy
  Li  Li0  1  0.75732832  0.25000000  0.70710409  1
  Li  Li1  1  0.89537951  0.75000000  0.75026442  1
  Mg  Mg2  1  0.10443122  0.25000000  0.25073258  1
  Mg  Mg3  1  0.24222039  0.07414933  0.97046147  1
  Mg  Mg4  1  0.24222039  0.42585067  0.97046147  1
  Mg  Mg5  1  0.26090481  0.57761823  0.46952337  1
  Mg  Mg6  1  0.26090481  0.92238177  0.46952337  1
  Mg  Mg7  1  0.39419239  0.75000000  0.75087400  1
  Mg  Mg8  1  0.60449539  0.25000000  0.24910520  1
  Mg  Mg9  1  0.74317578  0.07317474  0.52924406  1
  Mg  Mg10  1  0.74317578  0.42682526  0.52924406  1
  Mg  Mg11  1  0.76083010  0.57732511  0.02992672  1
  Mg  Mg12  1  0.76083010  0.92267489  0.02992672  1
  W  W13  1  0.22146106  0.75000000  0.94342907  1
  W  W14  1  0.21887236  0.02736541  0.65754385  1
  W  W15  1  0.21887236  0.47263459  0.65754385  1
  W  W16  1  0.27926675  0.52508284  0.15789503  1
  W  W17  1  0.27926675  0.97491716  0.15789503  1
  W  W18  1  0.28394539  0.25000000  0.44353838  1
  W  W19  1  0.72006881  0.75000000  0.55748207  1
  W  W20  1  0.72168170  0.47652784  0.84235017  1
  W  W21  1  0.72168170  0.02347216  0.84235017  1
  W  W22  1  0.78100136  0.52575121  0.34167892  1
  W  W23  1  0.78100136  0.97424879  0.34167892  1
  W  W24  1  0.78268328  0.25000000  0.05674364  1
  O  O25  1  0.04713483  0.61018496  0.37984466  1
  O  O26  1  0.04713483  0.88981504  0.37984466  1
  O  O27  1  0.06655569  0.25000000  0.99539330  1
  O  O28  1  0.07912382  0.61462767  0.21488385  1
  O  O29  1  0.07912382  0.88537233  0.21488385  1
  O  O30  1  0.07980057  0.01331188  0.07309313  1
  O  O31  1  0.07980057  0.48668812  0.07309313  1
  O  O32  1  0.08560911  0.11690027  0.46516135  1
  O  O33  1  0.08560911  0.38309973  0.46516135  1
  O  O34  1  0.15220907  0.61918634  0.70549439  1
  O  O35  1  0.15220907  0.88081366  0.70549439  1
  O  O36  1  0.14951476  0.75000000  0.84469500  1
  O  O37  1  0.35568475  0.25000000  0.34312748  1
  O  O38  1  0.35508594  0.12398609  0.20622689  1
  O  O39  1  0.35508594  0.37601391  0.20622689  1
  O  O40  1  0.41785986  0.88446747  0.96498408  1
  O  O41  1  0.41785986  0.61553253  0.96498408  1
  O  O42  1  0.41319062  0.51058336  0.57177748  1
  O  O43  1  0.41319062  0.98941664  0.57177748  1
  O  O44  1  0.42927374  0.11962379  0.71037587  1
  O  O45  1  0.42927374  0.38037621  0.71037587  1
  O  O46  1  0.43739900  0.75000000  0.49598240  1
  O  O47  1  0.45252869  0.10813994  0.87892611  1
  O  O48  1  0.45252869  0.39186006  0.87892611  1
  O  O49  1  0.54693768  0.61002596  0.12056224  1
  O  O50  1  0.54693768  0.88997404  0.12056224  1
  O  O51  1  0.56588089  0.25000000  0.50496031  1
  O  O52  1  0.57987747  0.61554968  0.28602251  1
  O  O53  1  0.57987747  0.88445032  0.28602251  1
  O  O54  1  0.58059204  0.01336802  0.42694712  1
  O  O55  1  0.58059204  0.48663198  0.42694712  1
  O  O56  1  0.58545665  0.11666538  0.03540558  1
  O  O57  1  0.58545665  0.38333462  0.03540558  1
  O  O58  1  0.63670322  0.62119883  0.79545307  1
  O  O59  1  0.63670322  0.87880117  0.79545307  1
  O  O60  1  0.63616533  0.75000000  0.65532402  1
  O  O61  1  0.85541766  0.25000000  0.15689080  1
  O  O62  1  0.85466732  0.12408081  0.29361685  1
  O  O63  1  0.85466732  0.37591919  0.29361685  1
  O  O64  1  0.91614707  0.61438272  0.53653402  1
  O  O65  1  0.91614707  0.88561728  0.53653402  1
  O  O66  1  0.92334553  0.51251230  0.92674681  1
  O  O67  1  0.92334553  0.98748770  0.92674681  1
  O  O68  1  0.90973636  0.11684616  0.78126329  1
  O  O69  1  0.90973636  0.38315384  0.78126329  1
  O  O70  1  0.93380079  0.75000000  0.00412490  1
  O  O71  1  0.94106505  0.11308339  0.62317279  1
  O  O72  1  0.94106505  0.38691661  0.62317279  1
