# generated using pymatgen
data_ScMn2SbO6
_symmetry_space_group_name_H-M   'P 1'
_cell_length_a   6.32753557
_cell_length_b   6.30059188
_cell_length_c   6.33480492
_cell_angle_alpha   91.06888373
_cell_angle_beta   91.09253725
_cell_angle_gamma   91.15150953
_symmetry_Int_Tables_number   1
_chemical_formula_structural   ScMn2SbO6
_chemical_formula_sum   'Sc2 Mn4 Sb2 O12'
_cell_volume   252.40836248
_cell_formula_units_Z   2
loop_
 _symmetry_equiv_pos_site_id
 _symmetry_equiv_pos_as_xyz
  1  'x, y, z'
loop_
 _atom_site_type_symbol
 _atom_site_label
 _atom_site_symmetry_multiplicity
 _atom_site_fract_x
 _atom_site_fract_y
 _atom_site_fract_z
 _atom_site_occupancy
  Sc  Sc0  1  0.56362874  0.05961271  0.75085131  1
  Sc  Sc1  1  0.05609807  0.74833828  0.56406449  1
  Mn  Mn2  1  0.74835054  0.56131942  0.05228167  1
  Mn  Mn3  1  0.43975900  0.94287531  0.24758244  1
  Mn  Mn4  1  0.94522366  0.25098471  0.43493384  1
  Mn  Mn5  1  0.25047470  0.43945694  0.94988249  1
  Sb  Sb6  1  0.00134417  0.00080765  0.00210704  1
  Sb  Sb7  1  0.50124157  0.50096607  0.50080745  1
  O  O8  1  0.42106420  0.80496550  0.58243576  1
  O  O9  1  0.80389921  0.58041278  0.43471838  1
  O  O10  1  0.56985259  0.41048932  0.79838870  1
  O  O11  1  0.57457617  0.19619311  0.43803731  1
  O  O12  1  0.19643039  0.44173886  0.57281823  1
  O  O13  1  0.43509216  0.57842593  0.20385329  1
  O  O14  1  0.90410383  0.03333900  0.69445590  1
  O  O15  1  0.04223217  0.70118787  0.89911812  1
  O  O16  1  0.69529841  0.91547726  0.03044993  1
  O  O17  1  0.08923646  0.94746504  0.30292934  1
  O  O18  1  0.95956432  0.30032654  0.09057788  1
  O  O19  1  0.30252964  0.08561770  0.94970646  1
