# generated using pymatgen
data_Sr6Yb4(CdSb2)5
_symmetry_space_group_name_H-M   'P 1'
_cell_length_a   4.74080504
_cell_length_b   37.13293134
_cell_length_c   9.41845032
_cell_angle_alpha   90.05524835
_cell_angle_beta   75.42325957
_cell_angle_gamma   90.00000000
_symmetry_Int_Tables_number   1
_chemical_formula_structural   Sr6Yb4(CdSb2)5
_chemical_formula_sum   'Sr12 Yb8 Cd10 Sb20'
_cell_volume   1604.65365130
_cell_formula_units_Z   2
loop_
 _symmetry_equiv_pos_site_id
 _symmetry_equiv_pos_as_xyz
  1  'x, y, z'
loop_
 _atom_site_type_symbol
 _atom_site_label
 _atom_site_symmetry_multiplicity
 _atom_site_fract_x
 _atom_site_fract_y
 _atom_site_fract_z
 _atom_site_occupancy
  Sr  Sr0  1  0.69818796  0.19468811  0.60362408  1
  Sr  Sr1  1  0.69856370  0.39508970  0.60287259  1
  Sr  Sr2  1  0.69847112  0.59521724  0.60305776  1
  Sr  Sr3  1  0.69808188  0.79481128  0.60383625  1
  Sr  Sr4  1  0.69806660  0.99481777  0.60386681  1
  Sr  Sr5  1  0.30192188  0.09483303  0.39615624  1
  Sr  Sr6  1  0.30116029  0.29426742  0.39767942  1
  Sr  Sr7  1  0.30095675  0.49435453  0.39808649  1
  Sr  Sr8  1  0.30172202  0.69491581  0.39655596  1
  Sr  Sr9  1  0.30195655  0.89480833  0.39608690  1
  Sr  Sr10  1  0.47954452  0.35520277  0.04091096  1
  Sr  Sr11  1  0.47957924  0.55535874  0.04084152  1
  Yb  Yb12  1  0.52081318  0.05553622  0.95837363  1
  Yb  Yb13  1  0.52086846  0.25480460  0.95826308  1
  Yb  Yb14  1  0.52134932  0.45547739  0.95730136  1
  Yb  Yb15  1  0.52129180  0.65620492  0.95741640  1
  Yb  Yb16  1  0.52078999  0.85554109  0.95842003  1
  Yb  Yb17  1  0.47918713  0.15545178  0.04162575  1
  Yb  Yb18  1  0.47923485  0.75559270  0.04153030  1
  Yb  Yb19  1  0.47923012  0.95552640  0.04153975  1
  Cd  Cd20  1  0.90481648  0.02135968  0.19036703  1
  Cd  Cd21  1  0.90457050  0.22075627  0.19085900  1
  Cd  Cd22  1  0.90405060  0.42131194  0.19189879  1
  Cd  Cd23  1  0.90434204  0.62195047  0.19131591  1
  Cd  Cd24  1  0.90481581  0.82137472  0.19036837  1
  Cd  Cd25  1  0.09517292  0.12133944  0.80965416  1
  Cd  Cd26  1  0.09675282  0.32108613  0.80649437  1
  Cd  Cd27  1  0.09680091  0.52114345  0.80639817  1
  Cd  Cd28  1  0.09521302  0.72140184  0.80957396  1
  Cd  Cd29  1  0.09514514  0.92135050  0.80970971  1
  Sb  Sb30  1  0.67160863  0.09825819  0.65678273  1
  Sb  Sb31  1  0.67170995  0.29806523  0.65658011  1
  Sb  Sb32  1  0.67179688  0.49823602  0.65640624  1
  Sb  Sb33  1  0.67168912  0.69844920  0.65662175  1
  Sb  Sb34  1  0.67162267  0.89825907  0.65675465  1
  Sb  Sb35  1  0.32813579  0.19812880  0.34372842  1
  Sb  Sb36  1  0.32521665  0.39950317  0.34956670  1
  Sb  Sb37  1  0.32544384  0.59972353  0.34911231  1
  Sb  Sb38  1  0.32837762  0.79830992  0.34324475  1
  Sb  Sb39  1  0.32835253  0.99830085  0.34329494  1
  Sb  Sb40  1  0.93736498  0.09941182  0.12527004  1
  Sb  Sb41  1  0.93643689  0.29749430  0.12712622  1
  Sb  Sb42  1  0.93635299  0.49767837  0.12729403  1
  Sb  Sb43  1  0.93729331  0.69957201  0.12541339  1
  Sb  Sb44  1  0.93733882  0.89941379  0.12532237  1
  Sb  Sb45  1  0.06274874  0.19925780  0.87450252  1
  Sb  Sb46  1  0.06538125  0.40066658  0.86923750  1
  Sb  Sb47  1  0.06526650  0.60079768  0.86946700  1
  Sb  Sb48  1  0.06257902  0.79938810  0.87484196  1
  Sb  Sb49  1  0.06262619  0.99939127  0.87474763  1
