# generated using pymatgen
data_Si2P3RhO13
_symmetry_space_group_name_H-M   'P 1'
_cell_length_a   8.22082756
_cell_length_b   8.22074030
_cell_length_c   8.84205918
_cell_angle_alpha   90.00012442
_cell_angle_beta   89.99899469
_cell_angle_gamma   119.99983599
_symmetry_Int_Tables_number   1
_chemical_formula_structural   Si2P3RhO13
_chemical_formula_sum   'Si4 P6 Rh2 O26'
_cell_volume   517.50104848
_cell_formula_units_Z   2
loop_
 _symmetry_equiv_pos_site_id
 _symmetry_equiv_pos_as_xyz
  1  'x, y, z'
loop_
 _atom_site_type_symbol
 _atom_site_label
 _atom_site_symmetry_multiplicity
 _atom_site_fract_x
 _atom_site_fract_y
 _atom_site_fract_z
 _atom_site_occupancy
  Si  Si0  1  0.66665216  0.33332501  0.74718902  1
  Si  Si1  1  0.33334789  0.66667231  0.75281161  1
  Si  Si2  1  0.66665334  0.33332924  0.38229884  1
  Si  Si3  1  0.33334615  0.66667527  0.11770219  1
  P  P4  1  0.71664004  0.71663650  0.75000200  1
  P  P5  1  0.28335926  -0.00000287  0.74999837  1
  P  P6  1  -0.00000129  0.28336768  0.74999954  1
  P  P7  1  0.71429844  0.00000494  0.25000259  1
  P  P8  1  0.99999997  0.71428824  0.25000015  1
  P  P9  1  0.28570288  0.28570743  0.24999655  1
  Rh  Rh10  1  0.00000255  0.00000069  0.49806906  1
  Rh  Rh11  1  0.00000089  0.00000027  0.00193173  1
  O  O12  1  0.67164602  0.51975898  0.81856893  1
  O  O13  1  0.48022656  0.15188114  0.81857456  1
  O  O14  1  0.84810582  0.32835156  0.81855885  1
  O  O15  1  0.66905646  0.14911295  0.31979132  1
  O  O16  1  0.85088056  0.51993946  0.31979117  1
  O  O17  1  0.48004985  0.33094142  0.31978256  1
  O  O18  1  0.33094322  0.48005863  0.18020871  1
  O  O19  1  0.51995006  0.85088924  0.18021707  1
  O  O20  1  0.14911811  0.66905640  0.18020879  1
  O  O21  1  0.32835415  0.84811324  0.68143223  1
  O  O22  1  0.15189631  0.48024600  0.68144061  1
  O  O23  1  0.51977196  0.67165193  0.68142553  1
  O  O24  1  0.85755919  0.75921049  0.62412901  1
  O  O25  1  0.24078738  0.09833850  0.62412925  1
  O  O26  1  0.90166460  0.14245443  0.62412864  1
  O  O27  1  0.85778608  0.10008192  0.12564487  1
  O  O28  1  0.89992351  0.75770329  0.12564750  1
  O  O29  1  0.24229038  0.14221471  0.12564226  1
  O  O30  1  0.14221376  0.24229442  0.37435347  1
  O  O31  1  0.75770846  0.89992465  0.37435790  1
  O  O32  1  0.10007654  0.85777960  0.37435398  1
  O  O33  1  0.14243992  0.90165190  0.87587091  1
  O  O34  1  0.09833577  0.24078927  0.87587061  1
  O  O35  1  0.75921299  0.85755061  0.87587003  1
  O  O36  1  0.66661753  0.33330867  0.56505941  1
  O  O37  1  0.33338252  0.66669188  0.93494017  1
