# generated using pymatgen
data_Rb4Mn(AsS4)2
_symmetry_space_group_name_H-M   'P 1'
_cell_length_a   9.20840909
_cell_length_b   9.36835132
_cell_length_c   11.36936186
_cell_angle_alpha   105.92569253
_cell_angle_beta   104.27537081
_cell_angle_gamma   92.15958843
_symmetry_Int_Tables_number   1
_chemical_formula_structural   Rb4Mn(AsS4)2
_chemical_formula_sum   'Rb8 Mn2 As4 S16'
_cell_volume   908.18116396
_cell_formula_units_Z   2
loop_
 _symmetry_equiv_pos_site_id
 _symmetry_equiv_pos_as_xyz
  1  'x, y, z'
loop_
 _atom_site_type_symbol
 _atom_site_label
 _atom_site_symmetry_multiplicity
 _atom_site_fract_x
 _atom_site_fract_y
 _atom_site_fract_z
 _atom_site_occupancy
  Rb  Rb0  1  0.43582662  0.51863897  0.75224998  1
  Rb  Rb1  1  0.56417338  0.48136103  0.24775002  1
  Rb  Rb2  1  0.26395284  0.98344395  0.96100874  1
  Rb  Rb3  1  0.73604716  0.01655605  0.03899126  1
  Rb  Rb4  1  0.10243215  0.73966199  0.52042032  1
  Rb  Rb5  1  0.89756785  0.26033801  0.47957968  1
  Rb  Rb6  1  0.88927478  0.31743968  0.87103436  1
  Rb  Rb7  1  0.11072522  0.68256032  0.12896564  1
  Mn  Mn8  1  0.65084844  0.86098144  0.57288851  1
  Mn  Mn9  1  0.34915156  0.13901856  0.42711149  1
  As  As10  1  0.45281058  0.11185128  0.72671971  1
  As  As11  1  0.54718942  0.88814872  0.27328029  1
  As  As12  1  0.86794374  0.68752890  0.75562112  1
  As  As13  1  0.13205626  0.31247110  0.24437888  1
  S  S14  1  0.51438186  0.25946464  0.91748084  1
  S  S15  1  0.48561814  0.74053536  0.08251916  1
  S  S16  1  0.47504750  0.87931783  0.72499398  1
  S  S17  1  0.52495250  0.12068217  0.27500602  1
  S  S18  1  0.23053995  0.13349141  0.61142535  1
  S  S19  1  0.76946005  0.86650859  0.38857465  1
  S  S20  1  0.90306739  0.92279867  0.75212923  1
  S  S21  1  0.09693261  0.07720133  0.24787077  1
  S  S22  1  0.07308101  0.57960970  0.75838912  1
  S  S23  1  0.92691899  0.42039030  0.24161088  1
  S  S24  1  0.60073242  0.16416782  0.61380472  1
  S  S25  1  0.39926758  0.83583218  0.38619528  1
  S  S26  1  0.78728015  0.66818500  0.91478199  1
  S  S27  1  0.21271985  0.33181500  0.08521801  1
  S  S28  1  0.69155643  0.59017441  0.57620142  1
  S  S29  1  0.30844357  0.40982559  0.42379858  1
