# generated using pymatgen
data_ScMn6GaGe5
_symmetry_space_group_name_H-M   'P 1'
_cell_length_a   5.10664522
_cell_length_b   5.10698344
_cell_length_c   8.16467564
_cell_angle_alpha   90.00000000
_cell_angle_beta   90.00000000
_cell_angle_gamma   119.99330007
_symmetry_Int_Tables_number   1
_chemical_formula_structural   ScMn6GaGe5
_chemical_formula_sum   'Sc1 Mn6 Ga1 Ge5'
_cell_volume   184.41617949
_cell_formula_units_Z   1
loop_
 _symmetry_equiv_pos_site_id
 _symmetry_equiv_pos_as_xyz
  1  'x, y, z'
loop_
 _atom_site_type_symbol
 _atom_site_label
 _atom_site_symmetry_multiplicity
 _atom_site_fract_x
 _atom_site_fract_y
 _atom_site_fract_z
 _atom_site_occupancy
  Sc  Sc0  1  0.99998194  0.00000142  -0.00000000  1
  Mn  Mn1  1  0.00073400  0.50037303  0.24666348  1
  Mn  Mn2  1  0.49961707  0.99924833  0.24666566  1
  Mn  Mn3  1  0.49961920  0.50037231  0.24665682  1
  Mn  Mn4  1  0.00073400  0.50037303  0.75333652  1
  Mn  Mn5  1  0.49961707  0.99924833  0.75333434  1
  Mn  Mn6  1  0.49961920  0.50037231  0.75334318  1
  Ga  Ga7  1  0.66661877  0.33331571  0.50000000  1
  Ge  Ge8  1  0.33331978  0.66667375  -0.00000000  1
  Ge  Ge9  1  0.66664017  0.33333739  -0.00000000  1
  Ge  Ge10  1  0.99998964  0.00000133  0.33754462  1
  Ge  Ge11  1  0.99998964  0.00000133  0.66245538  1
  Ge  Ge12  1  0.33331951  0.66668172  0.50000000  1
