# generated using pymatgen
data_Sr10In17Au27
_symmetry_space_group_name_H-M   'P 1'
_cell_length_a   4.75191692
_cell_length_b   9.15209712
_cell_length_c   30.06356985
_cell_angle_alpha   90.38658788
_cell_angle_beta   90.00000000
_cell_angle_gamma   90.00000000
_symmetry_Int_Tables_number   1
_chemical_formula_structural   Sr10In17Au27
_chemical_formula_sum   'Sr10 In17 Au27'
_cell_volume   1307.43504637
_cell_formula_units_Z   1
loop_
 _symmetry_equiv_pos_site_id
 _symmetry_equiv_pos_as_xyz
  1  'x, y, z'
loop_
 _atom_site_type_symbol
 _atom_site_label
 _atom_site_symmetry_multiplicity
 _atom_site_fract_x
 _atom_site_fract_y
 _atom_site_fract_z
 _atom_site_occupancy
  Sr  Sr0  1  0.25000000  0.66902286  0.25187865  1
  Sr  Sr1  1  0.75000000  0.33750316  0.75001245  1
  Sr  Sr2  1  0.25000000  0.79918440  0.87588755  1
  Sr  Sr3  1  0.25000000  0.79906641  0.62387592  1
  Sr  Sr4  1  0.75000000  0.19970543  0.12453645  1
  Sr  Sr5  1  0.75000000  0.19085960  0.37146518  1
  Sr  Sr6  1  0.25000000  0.68494257  0.48426578  1
  Sr  Sr7  1  0.25000000  0.68471436  0.01561377  1
  Sr  Sr8  1  0.75000000  0.31561558  0.51481390  1
  Sr  Sr9  1  0.75000000  0.31628829  0.98467774  1
  In  In10  1  0.25000000  0.56846431  0.36897187  1
  In  In11  1  0.25000000  0.57027125  0.13188306  1
  In  In12  1  0.75000000  0.42938580  0.63095880  1
  In  In13  1  0.75000000  0.42933830  0.86896462  1
  In  In14  1  0.25000000  0.72754294  0.75016364  1
  In  In15  1  0.75000000  0.27026070  0.25068776  1
  In  In16  1  0.25000000  0.06450222  0.46507923  1
  In  In17  1  0.25000000  0.06394900  0.03544937  1
  In  In18  1  0.75000000  0.93561983  0.53515312  1
  In  In19  1  0.75000000  0.93555592  0.96464194  1
  In  In20  1  0.25000000  0.19148335  0.83907463  1
  In  In21  1  0.25000000  0.19100790  0.66109733  1
  In  In22  1  0.75000000  0.80951001  0.16152911  1
  In  In23  1  0.75000000  0.82075982  0.33606429  1
  In  In24  1  0.25000000  0.03294221  0.20290528  1
  In  In25  1  0.75000000  0.97141676  0.69867680  1
  In  In26  1  0.75000000  0.97039881  0.80124287  1
  Au  Au27  1  0.25000000  0.88330662  0.38601747  1
  Au  Au28  1  0.25000000  0.88824039  0.11604634  1
  Au  Au29  1  0.75000000  0.11421409  0.61473288  1
  Au  Au30  1  0.75000000  0.11410910  0.88529417  1
  Au  Au31  1  0.25000000  0.35279501  0.43872259  1
  Au  Au32  1  0.25000000  0.35430615  0.06118408  1
  Au  Au33  1  0.75000000  0.64605032  0.56091227  1
  Au  Au34  1  0.75000000  0.64576785  0.93884675  1
  Au  Au35  1  0.25000000  0.48691821  0.81496007  1
  Au  Au36  1  0.25000000  0.48717071  0.68518133  1
  Au  Au37  1  0.75000000  0.51217368  0.18507180  1
  Au  Au38  1  0.75000000  0.51628178  0.31547772  1
  Au  Au39  1  0.25000000  0.33335334  0.30306068  1
  Au  Au40  1  0.25000000  0.33285260  0.19529937  1
  Au  Au41  1  0.75000000  0.66823458  0.69552608  1
  Au  Au42  1  0.75000000  0.66769408  0.80479262  1
  Au  Au43  1  0.25000000  0.46940348  0.92515666  1
  Au  Au44  1  0.25000000  0.47023509  0.57458587  1
  Au  Au45  1  0.75000000  0.53181068  0.07512077  1
  Au  Au46  1  0.75000000  0.52748010  0.42483046  1
  Au  Au47  1  0.25000000  0.05310640  0.75015766  1
  Au  Au48  1  0.75000000  0.94492306  0.24832106  1
  Au  Au49  1  0.25000000  0.09647628  0.94006638  1
  Au  Au50  1  0.25000000  0.09627639  0.55998068  1
  Au  Au51  1  0.75000000  0.90376516  0.05992002  1
  Au  Au52  1  0.75000000  0.90466609  0.43992049  1
  Au  Au53  1  0.25000000  0.01907696  0.30124261  1
