# generated using pymatgen
data_Pr2VFeO6
_symmetry_space_group_name_H-M   'P 1'
_cell_length_a   5.52720849
_cell_length_b   5.68608069
_cell_length_c   7.92814131
_cell_angle_alpha   90.00000000
_cell_angle_beta   90.03993911
_cell_angle_gamma   90.00000000
_symmetry_Int_Tables_number   1
_chemical_formula_structural   Pr2VFeO6
_chemical_formula_sum   'Pr4 V2 Fe2 O12'
_cell_volume   249.16678126
_cell_formula_units_Z   2
loop_
 _symmetry_equiv_pos_site_id
 _symmetry_equiv_pos_as_xyz
  1  'x, y, z'
loop_
 _atom_site_type_symbol
 _atom_site_label
 _atom_site_symmetry_multiplicity
 _atom_site_fract_x
 _atom_site_fract_y
 _atom_site_fract_z
 _atom_site_occupancy
  Pr  Pr0  1  0.51281767  0.55413094  0.25017005  1
  Pr  Pr1  1  0.98718233  0.05413094  0.24982995  1
  Pr  Pr2  1  0.48718233  0.44586906  0.74982995  1
  Pr  Pr3  1  0.01281767  0.94586906  0.75017005  1
  V  V4  1  0.50000000  0.00000000  0.50000000  1
  V  V5  1  -0.00000000  0.50000000  0.00000000  1
  Fe  Fe6  1  0.50000000  0.00000000  0.00000000  1
  Fe  Fe7  1  -0.00000000  0.50000000  0.50000000  1
  O  O8  1  0.41021322  0.97510918  0.24840528  1
  O  O9  1  0.08978678  0.47510918  0.25159472  1
  O  O10  1  0.58978678  0.02489082  0.75159472  1
  O  O11  1  0.91021322  0.52489082  0.74840528  1
  O  O12  1  0.79596927  0.79253009  0.04680838  1
  O  O13  1  0.70403073  0.29253009  0.45319162  1
  O  O14  1  0.20227317  0.20772269  0.54729036  1
  O  O15  1  0.29772683  0.70772269  0.95270964  1
  O  O16  1  0.20403073  0.20746991  0.95319162  1
  O  O17  1  0.29596927  0.70746991  0.54680838  1
  O  O18  1  0.79772683  0.79227731  0.45270964  1
  O  O19  1  0.70227317  0.29227731  0.04729036  1
