# generated using pymatgen
data_PrNdSb
_symmetry_space_group_name_H-M   'P 1'
_cell_length_a   4.60389303
_cell_length_b   4.60389303
_cell_length_c   9.48986217
_cell_angle_alpha   75.96178210
_cell_angle_beta   75.96178210
_cell_angle_gamma   90.00000000
_symmetry_Int_Tables_number   1
_chemical_formula_structural   PrNdSb
_chemical_formula_sum   'Pr2 Nd2 Sb2'
_cell_volume   188.93983854
_cell_formula_units_Z   2
loop_
 _symmetry_equiv_pos_site_id
 _symmetry_equiv_pos_as_xyz
  1  'x, y, z'
loop_
 _atom_site_type_symbol
 _atom_site_label
 _atom_site_symmetry_multiplicity
 _atom_site_fract_x
 _atom_site_fract_y
 _atom_site_fract_z
 _atom_site_occupancy
  Pr  Pr0  1  0.32064875  0.32064875  0.35870251  1
  Pr  Pr1  1  0.67935125  0.67935125  0.64129749  1
  Nd  Nd2  1  0.50000000  -0.00000000  -0.00000000  1
  Nd  Nd3  1  0.00000000  0.50000000  -0.00000000  1
  Sb  Sb4  1  0.13708359  0.13708359  0.72583281  1
  Sb  Sb5  1  0.86291641  0.86291641  0.27416719  1
