# generated using pymatgen
data_Rb3Er7S12
_symmetry_space_group_name_H-M   'P 1'
_cell_length_a   3.99389060
_cell_length_b   12.14651198
_cell_length_c   25.03282997
_cell_angle_alpha   90.00000000
_cell_angle_beta   90.00000000
_cell_angle_gamma   90.00000000
_symmetry_Int_Tables_number   1
_chemical_formula_structural   Rb3Er7S12
_chemical_formula_sum   'Rb6 Er14 S24'
_cell_volume   1214.38864275
_cell_formula_units_Z   2
loop_
 _symmetry_equiv_pos_site_id
 _symmetry_equiv_pos_as_xyz
  1  'x, y, z'
loop_
 _atom_site_type_symbol
 _atom_site_label
 _atom_site_symmetry_multiplicity
 _atom_site_fract_x
 _atom_site_fract_y
 _atom_site_fract_z
 _atom_site_occupancy
  Rb  Rb0  1  0.50000000  0.78863950  0.13263609  1
  Rb  Rb1  1  0.50000000  0.20480387  0.86470698  1
  Rb  Rb2  1  -0.00000000  0.29519613  0.36470698  1
  Rb  Rb3  1  -0.00000000  0.71136050  0.63263609  1
  Rb  Rb4  1  0.50000000  0.06180959  0.47048815  1
  Rb  Rb5  1  -0.00000000  0.43819041  0.97048815  1
  Er  Er6  1  0.50000000  0.90479940  0.78900137  1
  Er  Er7  1  0.50000000  0.09578559  0.21076503  1
  Er  Er8  1  -0.00000000  0.40421441  0.71076503  1
  Er  Er9  1  -0.00000000  0.59520060  0.28900137  1
  Er  Er10  1  0.50000000  0.57374993  0.81785428  1
  Er  Er11  1  0.50000000  0.42940455  0.18075375  1
  Er  Er12  1  0.00000000  0.07059545  0.68075375  1
  Er  Er13  1  -0.00000000  0.92625007  0.31785428  1
  Er  Er14  1  0.50000000  0.72302304  0.41911526  1
  Er  Er15  1  0.50000000  0.27750042  0.58278998  1
  Er  Er16  1  0.00000000  0.22249958  0.08278998  1
  Er  Er17  1  0.00000000  0.77697696  0.91911526  1
  Er  Er18  1  -0.00000000  0.50048242  0.49998168  1
  Er  Er19  1  0.50000000  0.99951758  0.99998168  1
  S  S20  1  0.50000000  0.62527818  0.92246196  1
  S  S21  1  0.50000000  0.37427992  0.07599943  1
  S  S22  1  -0.00000000  0.12572008  0.57599943  1
  S  S23  1  -0.00000000  0.87472182  0.42246196  1
  S  S24  1  0.50000000  0.75928800  0.30595436  1
  S  S25  1  0.50000000  0.24104913  0.69433132  1
  S  S26  1  0.00000000  0.25895087  0.19433132  1
  S  S27  1  -0.00000000  0.74071200  0.80595436  1
  S  S28  1  0.50000000  0.64853080  0.51892874  1
  S  S29  1  0.50000000  0.34632087  0.48052688  1
  S  S30  1  0.00000000  0.15367913  0.98052688  1
  S  S31  1  0.00000000  0.85146920  0.01892874  1
  S  S32  1  0.50000000  0.54921752  0.71207701  1
  S  S33  1  0.50000000  0.44989132  0.28784687  1
  S  S34  1  0.00000000  0.05010868  0.78784687  1
  S  S35  1  -0.00000000  0.95078248  0.21207701  1
  S  S36  1  0.50000000  0.92347306  0.68076759  1
  S  S37  1  0.50000000  0.07699428  0.32158959  1
  S  S38  1  -0.00000000  0.42300572  0.82158959  1
  S  S39  1  0.00000000  0.57652694  0.18076759  1
  S  S40  1  0.50000000  0.92485624  0.89771808  1
  S  S41  1  0.50000000  0.07385789  0.10260559  1
  S  S42  1  -0.00000000  0.42614211  0.60260559  1
  S  S43  1  0.00000000  0.57514376  0.39771808  1
