# generated using pymatgen
data_SbH7F12
_symmetry_space_group_name_H-M   'P 1'
_cell_length_a   5.35435816
_cell_length_b   6.98960148
_cell_length_c   8.57658522
_cell_angle_alpha   65.95326873
_cell_angle_beta   112.76328350
_cell_angle_gamma   90.00000000
_symmetry_Int_Tables_number   1
_chemical_formula_structural   SbH7F12
_chemical_formula_sum   'Sb1 H7 F12'
_cell_volume   265.51007136
_cell_formula_units_Z   1
loop_
 _symmetry_equiv_pos_site_id
 _symmetry_equiv_pos_as_xyz
  1  'x, y, z'
loop_
 _atom_site_type_symbol
 _atom_site_label
 _atom_site_symmetry_multiplicity
 _atom_site_fract_x
 _atom_site_fract_y
 _atom_site_fract_z
 _atom_site_occupancy
  Sb  Sb0  1  -0.00000000  0.99922188  -0.00000000  1
  H  H1  1  0.42608344  0.20058404  0.62519910  1
  H  H2  1  0.57391656  0.82578314  0.37480090  1
  H  H3  1  0.02646721  0.28353394  0.45101555  1
  H  H4  1  0.97353279  0.73454949  0.54898445  1
  H  H5  1  0.63446466  0.36834081  0.26326296  1
  H  H6  1  0.36553534  0.63160377  0.73673704  1
  H  H7  1  0.50000000  0.50033364  -0.00000000  1
  F  F8  1  0.61070731  0.09044158  0.81568520  1
  F  F9  1  0.38929269  0.90612679  0.18431480  1
  F  F10  1  0.45610572  0.43465275  0.13144945  1
  F  F11  1  0.54389428  0.56610220  0.86855055  1
  F  F12  1  0.82293594  0.28395017  0.42711751  1
  F  F13  1  0.17706406  0.71106767  0.57288249  1
  F  F14  1  0.91823739  0.12045860  0.14121140  1
  F  F15  1  0.08176261  0.26166999  0.85878860  1
  F  F16  1  0.08346601  0.87813607  0.85931139  1
  F  F17  1  0.91653399  0.73744745  0.14068861  1
  F  F18  1  0.29199162  0.27846214  0.48907171  1
  F  F19  1  0.70800838  0.76753386  0.51092829  1
