# generated using pymatgen
data_Li2VO2F
_symmetry_space_group_name_H-M   'P 1'
_cell_length_a   5.17433517
_cell_length_b   5.17433517
_cell_length_c   9.49577188
_cell_angle_alpha   79.84598869
_cell_angle_beta   100.15401131
_cell_angle_gamma   70.13242879
_symmetry_Int_Tables_number   1
_chemical_formula_structural   Li2VO2F
_chemical_formula_sum   'Li8 V4 O8 F4'
_cell_volume   227.57005076
_cell_formula_units_Z   4
loop_
 _symmetry_equiv_pos_site_id
 _symmetry_equiv_pos_as_xyz
  1  'x, y, z'
loop_
 _atom_site_type_symbol
 _atom_site_label
 _atom_site_symmetry_multiplicity
 _atom_site_fract_x
 _atom_site_fract_y
 _atom_site_fract_z
 _atom_site_occupancy
  Li  Li0  1  0.10414945  0.64154014  0.72140110  1
  Li  Li1  1  0.35845986  0.89585055  0.22140110  1
  Li  Li2  1  0.06204911  0.21079769  0.60912447  1
  Li  Li3  1  0.20593948  0.04727380  0.91068358  1
  Li  Li4  1  0.78920231  0.93795089  0.10912447  1
  Li  Li5  1  0.95272620  0.79406052  0.41068358  1
  Li  Li6  1  0.63200182  0.13197092  0.73884213  1
  Li  Li7  1  0.86802908  0.36799818  0.23884213  1
  V  V8  1  0.71324811  0.53651694  0.91896271  1
  V  V9  1  0.54069595  0.70739906  0.59858021  1
  V  V10  1  0.46348306  0.28675189  0.41896271  1
  V  V11  1  0.29260094  0.45930405  0.09858021  1
  O  O12  1  0.38814667  0.85180760  0.75318714  1
  O  O13  1  0.76108387  0.95352030  0.57191046  1
  O  O14  1  0.31359399  0.46369622  0.57339644  1
  O  O15  1  0.14819240  0.61185333  0.25318714  1
  O  O16  1  0.86895824  0.38989498  0.75587536  1
  O  O17  1  0.04647970  0.23891613  0.07191046  1
  O  O18  1  0.53630378  0.68640601  0.07339644  1
  O  O19  1  0.61010502  0.13104176  0.25587536  1
  F  F20  1  0.46934811  0.28451741  0.92630754  1
  F  F21  1  0.95369634  0.79397307  0.92172888  1
  F  F22  1  0.71548259  0.53065189  0.42630754  1
  F  F23  1  0.20602693  0.04630366  0.42172888  1
