# generated using pymatgen
data_PdPb4Au
_symmetry_space_group_name_H-M   'P 1'
_cell_length_a   5.88204242
_cell_length_b   5.88204242
_cell_length_c   5.88204242
_cell_angle_alpha   59.38511028
_cell_angle_beta   75.79644960
_cell_angle_gamma   104.20355040
_symmetry_Int_Tables_number   1
_chemical_formula_structural   PdPb4Au
_chemical_formula_sum   'Pd1 Pb4 Au1'
_cell_volume   152.14527321
_cell_formula_units_Z   1
loop_
 _symmetry_equiv_pos_site_id
 _symmetry_equiv_pos_as_xyz
  1  'x, y, z'
loop_
 _atom_site_type_symbol
 _atom_site_label
 _atom_site_symmetry_multiplicity
 _atom_site_fract_x
 _atom_site_fract_y
 _atom_site_fract_z
 _atom_site_occupancy
  Pd  Pd0  1  -0.00000000  0.75000000  0.25000000  1
  Pb  Pb1  1  0.50000000  0.34073257  0.84073257  1
  Pb  Pb2  1  0.50000000  0.65926743  0.15926743  1
  Pb  Pb3  1  0.18146514  0.84073257  0.65926743  1
  Pb  Pb4  1  0.81853486  0.15926743  0.34073257  1
  Au  Au5  1  -0.00000000  0.25000000  0.75000000  1
