# generated using pymatgen
data_Nd8(Ga16Cu)3
_symmetry_space_group_name_H-M   'P 1'
_cell_length_a   6.13854524
_cell_length_b   6.13854524
_cell_length_c   30.74488552
_cell_angle_alpha   90.00000000
_cell_angle_beta   90.00000000
_cell_angle_gamma   90.00000000
_symmetry_Int_Tables_number   1
_chemical_formula_structural   Nd8(Ga16Cu)3
_chemical_formula_sum   'Nd8 Ga48 Cu3'
_cell_volume   1158.52071066
_cell_formula_units_Z   1
loop_
 _symmetry_equiv_pos_site_id
 _symmetry_equiv_pos_as_xyz
  1  'x, y, z'
loop_
 _atom_site_type_symbol
 _atom_site_label
 _atom_site_symmetry_multiplicity
 _atom_site_fract_x
 _atom_site_fract_y
 _atom_site_fract_z
 _atom_site_occupancy
  Nd  Nd0  1  0.75000000  0.25000000  0.12392548  1
  Nd  Nd1  1  0.75000000  0.25000000  0.62301753  1
  Nd  Nd2  1  0.25000000  0.75000000  0.12363302  1
  Nd  Nd3  1  0.25000000  0.75000000  0.62296130  1
  Nd  Nd4  1  0.25000000  0.75000000  0.37703870  1
  Nd  Nd5  1  0.25000000  0.75000000  0.87636698  1
  Nd  Nd6  1  0.75000000  0.25000000  0.37698247  1
  Nd  Nd7  1  0.75000000  0.25000000  0.87607452  1
  Ga  Ga8  1  0.25000000  0.25000000  0.16840046  1
  Ga  Ga9  1  0.25000000  0.25000000  0.66844060  1
  Ga  Ga10  1  0.75000000  0.75000000  0.16840046  1
  Ga  Ga11  1  0.75000000  0.75000000  0.66844060  1
  Ga  Ga12  1  0.75000000  0.75000000  0.33155940  1
  Ga  Ga13  1  0.75000000  0.75000000  0.83159954  1
  Ga  Ga14  1  0.25000000  0.25000000  0.33155940  1
  Ga  Ga15  1  0.25000000  0.25000000  0.83159954  1
  Ga  Ga16  1  0.56736216  0.06736216  0.21304186  1
  Ga  Ga17  1  0.56794421  0.06794421  0.71302752  1
  Ga  Ga18  1  0.06782517  0.93217483  0.21306700  1
  Ga  Ga19  1  0.06800072  0.93199928  0.71303880  1
  Ga  Ga20  1  0.43217483  0.56782517  0.21306700  1
  Ga  Ga21  1  0.43199928  0.56800072  0.71303880  1
  Ga  Ga22  1  0.93263784  0.43263784  0.21304186  1
  Ga  Ga23  1  0.93205579  0.43205579  0.71302752  1
  Ga  Ga24  1  0.43199928  0.93199928  0.28696120  1
  Ga  Ga25  1  0.43217483  0.93217483  0.78693300  1
  Ga  Ga26  1  0.93205579  0.06794421  0.28697248  1
  Ga  Ga27  1  0.93263784  0.06736216  0.78695814  1
  Ga  Ga28  1  0.56794421  0.43205579  0.28697248  1
  Ga  Ga29  1  0.56736216  0.43263784  0.78695814  1
  Ga  Ga30  1  0.06800072  0.56800072  0.28696120  1
  Ga  Ga31  1  0.06782517  0.56782517  0.78693300  1
  Ga  Ga32  1  0.50086063  0.00086063  0.45744153  1
  Ga  Ga33  1  0.50650726  0.00650726  0.95858447  1
  Ga  Ga34  1  0.00079111  0.99920889  0.45744564  1
  Ga  Ga35  1  0.99576586  0.00423414  0.95846935  1
  Ga  Ga36  1  0.49920889  0.50079111  0.45744564  1
  Ga  Ga37  1  0.50423414  0.49576586  0.95846935  1
  Ga  Ga38  1  0.99913937  0.49913937  0.45744153  1
  Ga  Ga39  1  0.99349274  0.49349274  0.95858447  1
  Ga  Ga40  1  0.50423414  0.00423414  0.04153065  1
  Ga  Ga41  1  0.49920889  0.99920889  0.54255436  1
  Ga  Ga42  1  0.99349274  0.00650726  0.04141553  1
  Ga  Ga43  1  0.99913937  0.00086063  0.54255847  1
  Ga  Ga44  1  0.50650726  0.49349274  0.04141553  1
  Ga  Ga45  1  0.50086063  0.49913937  0.54255847  1
  Ga  Ga46  1  0.99576586  0.49576586  0.04153065  1
  Ga  Ga47  1  0.00079111  0.50079111  0.54255436  1
  Ga  Ga48  1  0.25000000  0.25000000  0.08855710  1
  Ga  Ga49  1  0.25000000  0.25000000  0.58896079  1
  Ga  Ga50  1  0.75000000  0.75000000  0.08855710  1
  Ga  Ga51  1  0.75000000  0.75000000  0.58896079  1
  Ga  Ga52  1  0.75000000  0.75000000  0.41103921  1
  Ga  Ga53  1  0.75000000  0.75000000  0.91144290  1
  Ga  Ga54  1  0.25000000  0.25000000  0.41103921  1
  Ga  Ga55  1  0.25000000  0.25000000  0.91144290  1
  Cu  Cu56  1  0.75000000  0.25000000  0.50000000  1
  Cu  Cu57  1  0.25000000  0.75000000  0.00000000  1
  Cu  Cu58  1  0.25000000  0.75000000  0.50000000  1
