# generated using pymatgen
data_Nd2P7Rh12
_symmetry_space_group_name_H-M   'P 1'
_cell_length_a   3.92128668
_cell_length_b   9.66591569
_cell_length_c   9.66549466
_cell_angle_alpha   59.97808483
_cell_angle_beta   90.00453543
_cell_angle_gamma   90.00704796
_symmetry_Int_Tables_number   1
_chemical_formula_structural   Nd2P7Rh12
_chemical_formula_sum   'Nd2 P7 Rh12'
_cell_volume   317.19794281
_cell_formula_units_Z   1
loop_
 _symmetry_equiv_pos_site_id
 _symmetry_equiv_pos_as_xyz
  1  'x, y, z'
loop_
 _atom_site_type_symbol
 _atom_site_label
 _atom_site_symmetry_multiplicity
 _atom_site_fract_x
 _atom_site_fract_y
 _atom_site_fract_z
 _atom_site_occupancy
  Nd  Nd0  1  0.74814975  0.33339837  0.33342567  1
  Nd  Nd1  1  0.25185025  0.66660163  0.66657433  1
  P  P2  1  0.50000000  0.00000000  0.00000000  1
  P  P3  1  0.75416652  0.88407271  0.71310034  1
  P  P4  1  0.75363291  0.40269662  0.88425639  1
  P  P5  1  0.75367776  0.71316614  0.40276341  1
  P  P6  1  0.24583348  0.11592729  0.28689966  1
  P  P7  1  0.24636709  0.59730338  0.11574361  1
  P  P8  1  0.24632224  0.28683386  0.59723659  1
  Rh  Rh9  1  0.75077384  0.61857130  0.93464375  1
  Rh  Rh10  1  0.75087315  0.44686331  0.61860369  1
  Rh  Rh11  1  0.75070375  0.93498756  0.44661666  1
  Rh  Rh12  1  0.24922616  0.38142870  0.06535625  1
  Rh  Rh13  1  0.24912685  0.55313669  0.38139631  1
  Rh  Rh14  1  0.24929625  0.06501244  0.55338334  1
  Rh  Rh15  1  0.74999326  0.11042874  0.74004323  1
  Rh  Rh16  1  0.74915734  0.14915783  0.11047644  1
  Rh  Rh17  1  0.74978279  0.74006102  0.14952366  1
  Rh  Rh18  1  0.25000674  0.88957126  0.25995677  1
  Rh  Rh19  1  0.25084266  0.85084217  0.88952356  1
  Rh  Rh20  1  0.25021721  0.25993898  0.85047634  1
