# generated using pymatgen
data_Nb5Cr(B2Ru5)2
_symmetry_space_group_name_H-M   'P 1'
_cell_length_a   2.98508484
_cell_length_b   9.44186556
_cell_length_c   9.44186556
_cell_angle_alpha   90.00000000
_cell_angle_beta   90.00000000
_cell_angle_gamma   90.00000000
_symmetry_Int_Tables_number   1
_chemical_formula_structural   Nb5Cr(B2Ru5)2
_chemical_formula_sum   'Nb5 Cr1 B4 Ru10'
_cell_volume   266.11680677
_cell_formula_units_Z   1
loop_
 _symmetry_equiv_pos_site_id
 _symmetry_equiv_pos_as_xyz
  1  'x, y, z'
loop_
 _atom_site_type_symbol
 _atom_site_label
 _atom_site_symmetry_multiplicity
 _atom_site_fract_x
 _atom_site_fract_y
 _atom_site_fract_z
 _atom_site_occupancy
  Nb  Nb0  1  -0.00000000  0.67478383  0.82104222  1
  Nb  Nb1  1  0.00000000  0.32521617  0.17895778  1
  Nb  Nb2  1  -0.00000000  0.82104222  0.32521617  1
  Nb  Nb3  1  0.00000000  0.17895778  0.67478383  1
  Nb  Nb4  1  0.00000000  -0.00000000  -0.00000000  1
  Cr  Cr5  1  0.00000000  0.50000000  0.50000000  1
  B  B6  1  -0.00000000  0.87498697  0.61971189  1
  B  B7  1  0.00000000  0.12501303  0.38028811  1
  B  B8  1  0.00000000  0.61971189  0.12501303  1
  B  B9  1  -0.00000000  0.38028811  0.87498697  1
  Ru  Ru10  1  0.50000000  0.71349537  0.56841553  1
  Ru  Ru11  1  0.50000000  0.28650463  0.43158447  1
  Ru  Ru12  1  0.50000000  0.77988330  0.07204764  1
  Ru  Ru13  1  0.50000000  0.22011670  0.92795236  1
  Ru  Ru14  1  0.50000000  0.56841553  0.28650463  1
  Ru  Ru15  1  0.50000000  0.43158447  0.71349537  1
  Ru  Ru16  1  0.50000000  0.07204764  0.22011670  1
  Ru  Ru17  1  0.50000000  0.92795236  0.77988330  1
  Ru  Ru18  1  0.50000000  -0.00000000  0.50000000  1
  Ru  Ru19  1  0.50000000  0.50000000  -0.00000000  1
