# generated using pymatgen
data_Nd6Mn(SiS7)2
_symmetry_space_group_name_H-M   'P 1'
_cell_length_a   5.70660341
_cell_length_b   10.23189233
_cell_length_c   10.23175227
_cell_angle_alpha   119.99868816
_cell_angle_beta   89.99968495
_cell_angle_gamma   90.00011979
_symmetry_Int_Tables_number   1
_chemical_formula_structural   Nd6Mn(SiS7)2
_chemical_formula_sum   'Nd6 Mn1 Si2 S14'
_cell_volume   517.39239620
_cell_formula_units_Z   1
loop_
 _symmetry_equiv_pos_site_id
 _symmetry_equiv_pos_as_xyz
  1  'x, y, z'
loop_
 _atom_site_type_symbol
 _atom_site_label
 _atom_site_symmetry_multiplicity
 _atom_site_fract_x
 _atom_site_fract_y
 _atom_site_fract_z
 _atom_site_occupancy
  Nd  Nd0  1  0.25010419  0.23401503  0.35676357  1
  Nd  Nd1  1  0.25009891  0.64324018  0.87725015  1
  Nd  Nd2  1  0.25011371  0.12276250  0.76598657  1
  Nd  Nd3  1  0.75160630  0.76619426  0.64394379  1
  Nd  Nd4  1  0.75159934  0.35604027  0.12224519  1
  Nd  Nd5  1  0.75161125  0.87775347  0.23380928  1
  Mn  Mn6  1  0.48861454  0.99999096  0.00000067  1
  Si  Si7  1  0.83510102  0.33335636  0.66667801  1
  Si  Si8  1  0.33674284  0.66664378  0.33332129  1
  S  S9  1  0.46647548  0.33336220  0.66668099  1
  S  S10  1  0.96778143  0.66664058  0.33332115  1
  S  S11  1  0.72827839  0.16060862  0.24479797  1
  S  S12  1  0.72827917  0.75520515  0.91582105  1
  S  S13  1  0.72827820  0.08417834  0.83937712  1
  S  S14  1  0.24974210  0.83759461  0.75561702  1
  S  S15  1  0.24974853  0.24437567  0.08196616  1
  S  S16  1  0.24974656  0.91802906  0.16241515  1
  S  S17  1  0.97957482  0.11321649  0.52222208  1
  S  S18  1  0.97960003  0.47779354  0.59098955  1
  S  S19  1  0.97959915  0.40901876  0.88680272  1
  S  S20  1  0.48108314  0.88676999  0.47728374  1
  S  S21  1  0.48111203  0.52270325  0.40949190  1
  S  S22  1  0.48110885  0.59050693  0.11321487  1
