# generated using pymatgen
data_NdGa2Ni3
_symmetry_space_group_name_H-M   'P 1'
_cell_length_a   4.14963122
_cell_length_b   8.90480829
_cell_length_c   8.90480847
_cell_angle_alpha   59.81653572
_cell_angle_beta   90.00000000
_cell_angle_gamma   90.00000000
_symmetry_Int_Tables_number   1
_chemical_formula_structural   NdGa2Ni3
_chemical_formula_sum   'Nd3 Ga6 Ni9'
_cell_volume   284.43526166
_cell_formula_units_Z   3
loop_
 _symmetry_equiv_pos_site_id
 _symmetry_equiv_pos_as_xyz
  1  'x, y, z'
loop_
 _atom_site_type_symbol
 _atom_site_label
 _atom_site_symmetry_multiplicity
 _atom_site_fract_x
 _atom_site_fract_y
 _atom_site_fract_z
 _atom_site_occupancy
  Nd  Nd0  1  0.50000000  0.33324859  0.33350397  1
  Nd  Nd1  1  0.50000000  0.66649603  0.66675141  1
  Nd  Nd2  1  0.00000000  0.99987720  0.00012280  1
  Ga  Ga3  1  0.00000000  0.51581416  0.48418584  1
  Ga  Ga4  1  0.00000000  0.48428590  0.99981252  1
  Ga  Ga5  1  0.00000000  0.00018748  0.51571410  1
  Ga  Ga6  1  0.50000000  0.27323809  0.72676191  1
  Ga  Ga7  1  0.50000000  0.72595104  0.00003069  1
  Ga  Ga8  1  0.50000000  0.99996931  0.27404896  1
  Ni  Ni9  1  -0.00000000  0.17482983  0.19500264  1
  Ni  Ni10  1  -0.00000000  0.19528406  0.62976644  1
  Ni  Ni11  1  0.00000000  0.62965281  0.17492833  1
  Ni  Ni12  1  -0.00000000  0.80499736  0.82517017  1
  Ni  Ni13  1  -0.00000000  0.37023356  0.80471594  1
  Ni  Ni14  1  0.00000000  0.82507167  0.37034719  1
  Ni  Ni15  1  0.50000000  0.70753313  0.29246687  1
  Ni  Ni16  1  0.50000000  0.29307976  0.99984997  1
  Ni  Ni17  1  0.50000000  0.00015003  0.70692024  1
