# generated using pymatgen
data_NdYCo14B
_symmetry_space_group_name_H-M   'P 1'
_cell_length_a   8.61334335
_cell_length_b   8.61334335
_cell_length_c   11.72177733
_cell_angle_alpha   90.00000000
_cell_angle_beta   90.00000000
_cell_angle_gamma   90.00000000
_symmetry_Int_Tables_number   1
_chemical_formula_structural   NdYCo14B
_chemical_formula_sum   'Nd4 Y4 Co56 B4'
_cell_volume   869.63495210
_cell_formula_units_Z   4
loop_
 _symmetry_equiv_pos_site_id
 _symmetry_equiv_pos_as_xyz
  1  'x, y, z'
loop_
 _atom_site_type_symbol
 _atom_site_label
 _atom_site_symmetry_multiplicity
 _atom_site_fract_x
 _atom_site_fract_y
 _atom_site_fract_z
 _atom_site_occupancy
  Nd  Nd0  1  0.64341120  0.64341120  0.50000000  1
  Nd  Nd1  1  0.35658880  0.35658880  0.50000000  1
  Nd  Nd2  1  0.85658880  0.14341120  -0.00000000  1
  Nd  Nd3  1  0.14341120  0.85658880  -0.00000000  1
  Y  Y4  1  0.22402218  0.77597782  0.50000000  1
  Y  Y5  1  0.77597782  0.22402218  0.50000000  1
  Y  Y6  1  0.27597782  0.27597782  -0.00000000  1
  Y  Y7  1  0.72402218  0.72402218  -0.00000000  1
  Co  Co8  1  0.40092742  0.59907258  0.29555872  1
  Co  Co9  1  0.59907258  0.40092742  0.29555872  1
  Co  Co10  1  0.09907258  0.09907258  0.79555872  1
  Co  Co11  1  0.90092742  0.90092742  0.79555872  1
  Co  Co12  1  0.59907258  0.40092742  0.70444128  1
  Co  Co13  1  0.40092742  0.59907258  0.70444128  1
  Co  Co14  1  0.90092742  0.90092742  0.20444128  1
  Co  Co15  1  0.09907258  0.09907258  0.20444128  1
  Co  Co16  1  0.18224581  0.81775419  0.25466277  1
  Co  Co17  1  0.81775419  0.18224581  0.25466277  1
  Co  Co18  1  0.31775419  0.31775419  0.75466277  1
  Co  Co19  1  0.68224581  0.68224581  0.75466277  1
  Co  Co20  1  0.81775419  0.18224581  0.74533723  1
  Co  Co21  1  0.18224581  0.81775419  0.74533723  1
  Co  Co22  1  0.68224581  0.68224581  0.24533723  1
  Co  Co23  1  0.31775419  0.31775419  0.24533723  1
  Co  Co24  1  -0.00000000  0.50000000  0.50000000  1
  Co  Co25  1  0.50000000  -0.00000000  -0.00000000  1
  Co  Co26  1  0.50000000  -0.00000000  0.50000000  1
  Co  Co27  1  -0.00000000  0.50000000  -0.00000000  1
  Co  Co28  1  0.14033106  0.53747291  0.32204645  1
  Co  Co29  1  0.85966894  0.46252709  0.32204645  1
  Co  Co30  1  0.35966894  0.03747291  0.82204645  1
  Co  Co31  1  0.64033106  0.96252709  0.82204645  1
  Co  Co32  1  0.85966894  0.46252709  0.67795355  1
  Co  Co33  1  0.14033106  0.53747291  0.67795355  1
  Co  Co34  1  0.64033106  0.96252709  0.17795355  1
  Co  Co35  1  0.35966894  0.03747291  0.17795355  1
  Co  Co36  1  0.53747291  0.14033106  0.32204645  1
  Co  Co37  1  0.46252709  0.85966894  0.32204645  1
  Co  Co38  1  0.03747291  0.35966894  0.82204645  1
  Co  Co39  1  0.96252709  0.64033106  0.82204645  1
  Co  Co40  1  0.46252709  0.85966894  0.67795355  1
  Co  Co41  1  0.53747291  0.14033106  0.67795355  1
  Co  Co42  1  0.96252709  0.64033106  0.17795355  1
  Co  Co43  1  0.03747291  0.35966894  0.17795355  1
  Co  Co44  1  0.93193103  0.72406055  0.37387121  1
  Co  Co45  1  0.06806897  0.27593945  0.37387121  1
  Co  Co46  1  0.56806897  0.22406055  0.87387121  1
  Co  Co47  1  0.43193103  0.77593945  0.87387121  1
  Co  Co48  1  0.06806897  0.27593945  0.62612879  1
  Co  Co49  1  0.93193103  0.72406055  0.62612879  1
  Co  Co50  1  0.43193103  0.77593945  0.12612879  1
  Co  Co51  1  0.56806897  0.22406055  0.12612879  1
  Co  Co52  1  0.72406055  0.93193103  0.37387121  1
  Co  Co53  1  0.27593945  0.06806897  0.37387121  1
  Co  Co54  1  0.22406055  0.56806897  0.87387121  1
  Co  Co55  1  0.77593945  0.43193103  0.87387121  1
  Co  Co56  1  0.27593945  0.06806897  0.62612879  1
  Co  Co57  1  0.72406055  0.93193103  0.62612879  1
  Co  Co58  1  0.77593945  0.43193103  0.12612879  1
  Co  Co59  1  0.22406055  0.56806897  0.12612879  1
  Co  Co60  1  0.50000000  0.50000000  0.11559163  1
  Co  Co61  1  -0.00000000  -0.00000000  0.61559163  1
  Co  Co62  1  0.50000000  0.50000000  0.88440837  1
  Co  Co63  1  0.00000000  -0.00000000  0.38440837  1
  B  B64  1  0.87731584  0.87731584  0.50000000  1
  B  B65  1  0.12268416  0.12268416  0.50000000  1
  B  B66  1  0.62268416  0.37731584  -0.00000000  1
  B  B67  1  0.37731584  0.62268416  -0.00000000  1
