# generated using pymatgen
data_Na4Eu(GeSe3)2
_symmetry_space_group_name_H-M   'P 1'
_cell_length_a   7.20300009
_cell_length_b   7.20300009
_cell_length_c   8.08145387
_cell_angle_alpha   98.59382104
_cell_angle_beta   98.59382104
_cell_angle_gamma   119.83948555
_symmetry_Int_Tables_number   1
_chemical_formula_structural   Na4Eu(GeSe3)2
_chemical_formula_sum   'Na4 Eu1 Ge2 Se6'
_cell_volume   347.16342105
_cell_formula_units_Z   1
loop_
 _symmetry_equiv_pos_site_id
 _symmetry_equiv_pos_as_xyz
  1  'x, y, z'
loop_
 _atom_site_type_symbol
 _atom_site_label
 _atom_site_symmetry_multiplicity
 _atom_site_fract_x
 _atom_site_fract_y
 _atom_site_fract_z
 _atom_site_occupancy
  Na  Na0  1  0.67314985  0.32685015  0.00000000  1
  Na  Na1  1  0.32682706  0.67317294  0.00000000  1
  Na  Na2  1  0.00000256  -0.00000256  0.00000000  1
  Na  Na3  1  0.83397348  0.16602652  0.50000000  1
  Eu  Eu4  1  0.16596584  0.83403416  0.50000000  1
  Ge  Ge5  1  0.55137849  0.55130678  0.65860596  1
  Ge  Ge6  1  0.44869322  0.44862151  0.34139404  1
  Se  Se7  1  0.90095769  0.58393785  0.74932525  1
  Se  Se8  1  0.58022091  0.89909139  0.74967172  1
  Se  Se9  1  0.10090861  0.41977909  0.25032828  1
  Se  Se10  1  0.41606215  0.09904231  0.25067475  1
  Se  Se11  1  0.26655152  0.26469138  0.74968061  1
  Se  Se12  1  0.73530862  0.73344848  0.25031939  1
