# generated using pymatgen
data_Rb16Sn89
_symmetry_space_group_name_H-M   'P 1'
_cell_length_a   12.53840643
_cell_length_b   12.56759778
_cell_length_c   24.97106960
_cell_angle_alpha   90.09267342
_cell_angle_beta   90.00000000
_cell_angle_gamma   90.00000000
_symmetry_Int_Tables_number   1
_chemical_formula_structural   Rb16Sn89
_chemical_formula_sum   'Rb16 Sn89'
_cell_volume   3934.87728968
_cell_formula_units_Z   1
loop_
 _symmetry_equiv_pos_site_id
 _symmetry_equiv_pos_as_xyz
  1  'x, y, z'
loop_
 _atom_site_type_symbol
 _atom_site_label
 _atom_site_symmetry_multiplicity
 _atom_site_fract_x
 _atom_site_fract_y
 _atom_site_fract_z
 _atom_site_occupancy
  Rb  Rb0  1  0.50000000  0.00018747  0.37421545  1
  Rb  Rb1  1  0.50000000  0.00187247  0.87703192  1
  Rb  Rb2  1  -0.00000000  0.25209488  0.24953566  1
  Rb  Rb3  1  -0.00000000  0.25181200  0.75237749  1
  Rb  Rb4  1  0.75008620  0.49799890  0.99916045  1
  Rb  Rb5  1  0.75219948  0.49999478  0.49901863  1
  Rb  Rb6  1  0.50000000  0.00165126  0.12321355  1
  Rb  Rb7  1  0.50000000  0.99993076  0.62547266  1
  Rb  Rb8  1  -0.00000000  0.74790111  0.24991711  1
  Rb  Rb9  1  -0.00000000  0.74799482  0.75160807  1
  Rb  Rb10  1  0.24991380  0.49799890  0.99916045  1
  Rb  Rb11  1  0.24780052  0.49999478  0.49901863  1
  Rb  Rb12  1  0.50000000  0.49924390  0.24967037  1
  Rb  Rb13  1  0.50000000  0.49955809  0.75217428  1
  Rb  Rb14  1  -0.00000000  0.00185362  0.99917845  1
  Rb  Rb15  1  -0.00000000  0.99994061  0.49900493  1
  Sn  Sn16  1  0.61795708  0.19344082  0.24932074  1
  Sn  Sn17  1  0.61804158  0.19372665  0.75060257  1
  Sn  Sn18  1  0.82378688  0.49985151  0.31206847  1
  Sn  Sn19  1  0.82244158  0.50021623  0.81135740  1
  Sn  Sn20  1  0.50000000  0.38081998  0.40419956  1
  Sn  Sn21  1  0.50000000  0.37450468  0.91462945  1
  Sn  Sn22  1  0.38253050  0.80620277  0.25011534  1
  Sn  Sn23  1  0.38236836  0.80636711  0.74985642  1
  Sn  Sn24  1  0.19800967  0.49996260  0.19320467  1
  Sn  Sn25  1  0.19770721  0.50001962  0.69319654  1
  Sn  Sn26  1  0.50000000  0.61204803  0.09779393  1
  Sn  Sn27  1  0.50000000  0.61941221  0.59621445  1
  Sn  Sn28  1  0.61746950  0.80620277  0.25011534  1
  Sn  Sn29  1  0.61763164  0.80636711  0.74985642  1
  Sn  Sn30  1  0.80199033  0.49996260  0.19320467  1
  Sn  Sn31  1  0.80229279  0.50001962  0.69319654  1
  Sn  Sn32  1  0.38204292  0.19344082  0.24932074  1
  Sn  Sn33  1  0.38195842  0.19372665  0.75060257  1
  Sn  Sn34  1  0.17621312  0.49985151  0.31206847  1
  Sn  Sn35  1  0.17755842  0.50021623  0.81135740  1
  Sn  Sn36  1  0.50000000  0.61944995  0.40397195  1
  Sn  Sn37  1  0.50000000  0.61479705  0.90237543  1
  Sn  Sn38  1  0.50000000  0.37063767  0.08515169  1
  Sn  Sn39  1  0.50000000  0.38039971  0.59645361  1
  Sn  Sn40  1  0.12007405  0.00010996  0.34592548  1
  Sn  Sn41  1  0.11974024  0.00087480  0.84577136  1
  Sn  Sn42  1  0.32591347  0.12532448  0.00046928  1
  Sn  Sn43  1  0.30681713  0.11723194  0.49985280  1
  Sn  Sn44  1  -0.00000000  0.32089428  0.43883206  1
  Sn  Sn45  1  -0.00000000  0.32496564  0.93832612  1
  Sn  Sn46  1  0.88053680  0.00024557  0.15384886  1
  Sn  Sn47  1  0.87954988  0.99992896  0.65358980  1
  Sn  Sn48  1  0.69698650  0.88719354  0.99986536  1
  Sn  Sn49  1  0.69331599  0.88248129  0.49994989  1
  Sn  Sn50  1  -0.00000000  0.69670605  0.05597863  1
  Sn  Sn51  1  -0.00000000  0.69812510  0.55703054  1
  Sn  Sn52  1  0.11946320  0.00024557  0.15384886  1
  Sn  Sn53  1  0.12045012  0.99992896  0.65358980  1
  Sn  Sn54  1  0.30301350  0.88719354  0.99986536  1
  Sn  Sn55  1  0.30668401  0.88248129  0.49994989  1
  Sn  Sn56  1  0.87992595  0.00010996  0.34592548  1
  Sn  Sn57  1  0.88025976  0.00087480  0.84577136  1
  Sn  Sn58  1  0.67408653  0.12532448  0.00046928  1
  Sn  Sn59  1  0.69318287  0.11723194  0.49985280  1
  Sn  Sn60  1  -0.00000000  0.30346187  0.05644073  1
  Sn  Sn61  1  -0.00000000  0.30142401  0.55711397  1
  Sn  Sn62  1  -0.00000000  0.67918842  0.43847667  1
  Sn  Sn63  1  -0.00000000  0.67653680  0.93706391  1
  Sn  Sn64  1  0.68613471  0.31987745  0.34083359  1
  Sn  Sn65  1  0.68207799  0.32167475  0.84302388  1
  Sn  Sn66  1  0.31692769  0.68484704  0.15764390  1
  Sn  Sn67  1  0.31641038  0.68404026  0.65782275  1
  Sn  Sn68  1  0.68307231  0.68484704  0.15764390  1
  Sn  Sn69  1  0.68358962  0.68404026  0.65782275  1
  Sn  Sn70  1  0.31386529  0.31987745  0.34083359  1
  Sn  Sn71  1  0.31792201  0.32167475  0.84302388  1
  Sn  Sn72  1  0.31353698  0.67996315  0.34091524  1
  Sn  Sn73  1  0.31355067  0.68136261  0.84124729  1
  Sn  Sn74  1  0.67956362  0.31724149  0.15611312  1
  Sn  Sn75  1  0.68347626  0.31558123  0.65801697  1
  Sn  Sn76  1  0.32043638  0.31724149  0.15611312  1
  Sn  Sn77  1  0.31652374  0.31558123  0.65801697  1
  Sn  Sn78  1  0.68646302  0.67996315  0.34091524  1
  Sn  Sn79  1  0.68644933  0.68136261  0.84124729  1
  Sn  Sn80  1  0.18084517  0.18619526  0.40897943  1
  Sn  Sn81  1  0.18274723  0.18425076  0.91202565  1
  Sn  Sn82  1  0.81586235  0.81615842  0.09193232  1
  Sn  Sn83  1  0.81536547  0.81705245  0.59190907  1
  Sn  Sn84  1  0.18413765  0.81615842  0.09193232  1
  Sn  Sn85  1  0.18463453  0.81705245  0.59190907  1
  Sn  Sn86  1  0.81915483  0.18619526  0.40897943  1
  Sn  Sn87  1  0.81725277  0.18425076  0.91202565  1
  Sn  Sn88  1  0.81300119  0.18080741  0.09018180  1
  Sn  Sn89  1  0.81512938  0.18263603  0.59194390  1
  Sn  Sn90  1  0.18076076  0.81404019  0.40888176  1
  Sn  Sn91  1  0.18026347  0.81389612  0.90890471  1
  Sn  Sn92  1  0.81923924  0.81404019  0.40888176  1
  Sn  Sn93  1  0.81973653  0.81389612  0.90890471  1
  Sn  Sn94  1  0.18699881  0.18080741  0.09018180  1
  Sn  Sn95  1  0.18487062  0.18263603  0.59194390  1
  Sn  Sn96  1  0.50000000  0.24754859  0.49987576  1
  Sn  Sn97  1  0.74638962  0.99913520  0.24996156  1
  Sn  Sn98  1  0.74676263  0.99958668  0.75020453  1
  Sn  Sn99  1  -0.00000000  0.50145204  0.12570213  1
  Sn  Sn100  1  -0.00000000  0.50005312  0.62474192  1
  Sn  Sn101  1  0.50000000  0.75192837  0.00091460  1
  Sn  Sn102  1  0.50000000  0.75256940  0.49988190  1
  Sn  Sn103  1  0.25361038  0.99913520  0.24996156  1
  Sn  Sn104  1  0.25323737  0.99958668  0.75020453  1
