# generated using pymatgen
data_NaMo2(P2O7)2
_symmetry_space_group_name_H-M   'P 1'
_cell_length_a   4.97680766
_cell_length_b   7.14044306
_cell_length_c   8.44149728
_cell_angle_alpha   91.59785833
_cell_angle_beta   92.48225395
_cell_angle_gamma   106.67472498
_symmetry_Int_Tables_number   1
_chemical_formula_structural   NaMo2(P2O7)2
_chemical_formula_sum   'Na1 Mo2 P4 O14'
_cell_volume   286.84327714
_cell_formula_units_Z   1
loop_
 _symmetry_equiv_pos_site_id
 _symmetry_equiv_pos_as_xyz
  1  'x, y, z'
loop_
 _atom_site_type_symbol
 _atom_site_label
 _atom_site_symmetry_multiplicity
 _atom_site_fract_x
 _atom_site_fract_y
 _atom_site_fract_z
 _atom_site_occupancy
  Na  Na0  1  0.59545716  0.99044687  0.02643342  1
  Mo  Mo1  1  0.49968938  0.00064988  0.50113612  1
  Mo  Mo2  1  0.00022867  0.50054808  0.99957032  1
  P  P3  1  0.47686295  0.36853529  0.24292854  1
  P  P4  1  0.52274197  0.63090647  0.75667820  1
  P  P5  1  0.88039680  0.75712413  0.30579525  1
  P  P6  1  0.12008860  0.24199886  0.69481719  1
  O  O7  1  0.69044988  0.89537410  0.31829201  1
  O  O8  1  0.30961126  0.10474370  0.68026805  1
  O  O9  1  0.87514839  0.19221473  0.56846511  1
  O  O10  1  0.12501529  0.80769567  0.43160083  1
  O  O11  1  0.22868584  0.44260356  0.20087513  1
  O  O12  1  0.77132517  0.55756285  0.79902401  1
  O  O13  1  0.03067059  0.24496512  0.86533001  1
  O  O14  1  0.96734268  0.75526065  0.13461967  1
  O  O15  1  0.29697355  0.45817869  0.64980264  1
  O  O16  1  0.70254599  0.54163875  0.35041952  1
  O  O17  1  0.62705670  0.32029183  0.09841272  1
  O  O18  1  0.37439957  0.67961931  0.90191954  1
  O  O19  1  0.60665713  0.80502389  0.65064870  1
  O  O20  1  0.39355243  0.19481755  0.34926303  1
