# generated using pymatgen
data_NaNd9(Ge3O13)2
_symmetry_space_group_name_H-M   'P 1'
_cell_length_a   7.18344872
_cell_length_b   9.86216120
_cell_length_c   9.86212070
_cell_angle_alpha   120.00052360
_cell_angle_beta   90.00003318
_cell_angle_gamma   89.99989885
_symmetry_Int_Tables_number   1
_chemical_formula_structural   NaNd9(Ge3O13)2
_chemical_formula_sum   'Na1 Nd9 Ge6 O26'
_cell_volume   605.06738891
_cell_formula_units_Z   1
loop_
 _symmetry_equiv_pos_site_id
 _symmetry_equiv_pos_as_xyz
  1  'x, y, z'
loop_
 _atom_site_type_symbol
 _atom_site_label
 _atom_site_symmetry_multiplicity
 _atom_site_fract_x
 _atom_site_fract_y
 _atom_site_fract_z
 _atom_site_occupancy
  Na  Na0  1  0.49154121  0.66664241  0.33332338  1
  Nd  Nd1  1  0.99786726  0.33332744  0.66666355  1
  Nd  Nd2  1  0.50009222  0.33333861  0.66667004  1
  Nd  Nd3  1  0.00020160  0.66666963  0.33333557  1
  Nd  Nd4  1  0.74836182  0.76410178  0.76953280  1
  Nd  Nd5  1  0.74835800  0.23047913  0.99457855  1
  Nd  Nd6  1  0.74836000  0.00543318  0.23590421  1
  Nd  Nd7  1  0.24918906  0.23880307  0.23433384  1
  Nd  Nd8  1  0.24918925  0.76565828  0.00445547  1
  Nd  Nd9  1  0.24918803  0.99553512  0.76119331  1
  Ge  Ge10  1  0.74774585  0.62770909  0.02997328  1
  Ge  Ge11  1  0.74774126  0.97002785  0.59773843  1
  Ge  Ge12  1  0.74774989  0.40226954  0.37230034  1
  Ge  Ge13  1  0.24775260  0.37239047  0.97532657  1
  Ge  Ge14  1  0.24775433  0.02466207  0.39705467  1
  Ge  Ge15  1  0.24775478  0.60293731  0.62760710  1
  O  O16  1  0.56268601  0.76278172  0.08128230  1
  O  O17  1  0.56268329  0.91872498  0.68150593  1
  O  O18  1  0.56269296  0.31849952  0.23722495  1
  O  O19  1  0.05505027  0.24148253  0.89455063  1
  O  O20  1  0.05505663  0.10544333  0.34692347  1
  O  O21  1  0.05505315  0.65307468  0.75851841  1
  O  O22  1  0.44442492  0.24692699  0.90017950  1
  O  O23  1  0.44442416  0.09981191  0.34673745  1
  O  O24  1  0.44442440  0.65325397  0.75307173  1
  O  O25  1  0.94296384  0.75569419  0.09411714  1
  O  O26  1  0.94295711  0.90589201  0.66158571  1
  O  O27  1  0.94296208  0.33842862  0.24431256  1
  O  O28  1  0.74831565  0.50489687  0.82316575  1
  O  O29  1  0.74831296  0.17683457  0.68172432  1
  O  O30  1  0.74831470  0.31827036  0.49510639  1
  O  O31  1  0.24055411  0.48113558  0.17776372  1
  O  O32  1  0.24055319  0.82222810  0.30337341  1
  O  O33  1  0.24055269  0.69662718  0.51886339  1
  O  O34  1  0.75819810  0.00000381  0.00000444  1
  O  O35  1  0.25023946  0.00000028  0.99999498  1
  O  O36  1  0.76367301  0.51997238  0.12705577  1
  O  O37  1  0.76367617  0.87293778  0.39291493  1
  O  O38  1  0.76367269  0.60708926  0.48003386  1
  O  O39  1  0.24990295  0.47342974  0.86724509  1
  O  O40  1  0.24990315  0.13276158  0.60618094  1
  O  O41  1  0.24990518  0.39381309  0.52657212  1
