# generated using pymatgen
data_NaV3(PbO3)4
_symmetry_space_group_name_H-M   'P 1'
_cell_length_a   7.41286499
_cell_length_b   10.28859149
_cell_length_c   10.28808165
_cell_angle_alpha   60.00015667
_cell_angle_beta   90.00000000
_cell_angle_gamma   90.00000000
_symmetry_Int_Tables_number   1
_chemical_formula_structural   NaV3(PbO3)4
_chemical_formula_sum   'Na2 V6 Pb8 O24'
_cell_volume   679.52859014
_cell_formula_units_Z   2
loop_
 _symmetry_equiv_pos_site_id
 _symmetry_equiv_pos_as_xyz
  1  'x, y, z'
loop_
 _atom_site_type_symbol
 _atom_site_label
 _atom_site_symmetry_multiplicity
 _atom_site_fract_x
 _atom_site_fract_y
 _atom_site_fract_z
 _atom_site_occupancy
  Na  Na0  1  0.49089736  0.66655690  0.66675283  1
  Na  Na1  1  0.99089736  0.33344310  0.33324717  1
  V  V2  1  0.74874654  0.39629827  0.62316147  1
  V  V3  1  0.74871825  0.98070058  0.39621354  1
  V  V4  1  0.74873742  0.62303480  0.98073232  1
  V  V5  1  0.24874654  0.60370173  0.37683853  1
  V  V6  1  0.24871825  0.01929942  0.60378646  1
  V  V7  1  0.24873742  0.37696520  0.01926768  1
  Pb  Pb8  1  0.75064776  0.99481820  0.74693289  1
  Pb  Pb9  1  0.75056296  0.25818181  0.99491151  1
  Pb  Pb10  1  0.75057748  0.74693874  0.25821952  1
  Pb  Pb11  1  0.25064776  0.00518180  0.25306711  1
  Pb  Pb12  1  0.25056296  0.74181819  0.00508849  1
  Pb  Pb13  1  0.25057748  0.25306126  0.74178048  1
  Pb  Pb14  1  0.52108144  0.33333729  0.33336266  1
  Pb  Pb15  1  0.02108144  0.66666271  0.66663734  1
  O  O16  1  0.93531979  0.74145998  0.91480609  1
  O  O17  1  0.93528743  0.34371856  0.74145095  1
  O  O18  1  0.93534193  0.91480858  0.34375881  1
  O  O19  1  0.43531979  0.25854002  0.08519391  1
  O  O20  1  0.43528743  0.65628144  0.25854905  1
  O  O21  1  0.43534193  0.08519142  0.65624119  1
  O  O22  1  0.06479598  0.25623855  0.08277753  1
  O  O23  1  0.06476630  0.66097499  0.25623995  1
  O  O24  1  0.06482259  0.08277356  0.66096916  1
  O  O25  1  0.56479598  0.74376145  0.91722247  1
  O  O26  1  0.56476630  0.33902501  0.74376005  1
  O  O27  1  0.56482259  0.91722644  0.33903084  1
  O  O28  1  0.74863689  0.89584080  0.59411067  1
  O  O29  1  0.74860593  0.50999024  0.89594348  1
  O  O30  1  0.74863386  0.59403579  0.51005307  1
  O  O31  1  0.24863689  0.10415920  0.40588933  1
  O  O32  1  0.24860593  0.49000976  0.10405652  1
  O  O33  1  0.24863386  0.40596421  0.48994693  1
  O  O34  1  0.74792047  0.30733338  0.51655943  1
  O  O35  1  0.74794623  0.17602736  0.30736047  1
  O  O36  1  0.74795338  0.51659061  0.17605932  1
  O  O37  1  0.24792047  0.69266662  0.48344057  1
  O  O38  1  0.24794623  0.82397264  0.69263953  1
  O  O39  1  0.24795338  0.48340939  0.82394068  1
