# generated using pymatgen
data_RbVGa(PO5)2
_symmetry_space_group_name_H-M   'P 1'
_cell_length_a   7.96449533
_cell_length_b   8.17234644
_cell_length_c   14.21131305
_cell_angle_alpha   90.00000000
_cell_angle_beta   105.29519343
_cell_angle_gamma   90.00000000
_symmetry_Int_Tables_number   1
_chemical_formula_structural   RbVGa(PO5)2
_chemical_formula_sum   'Rb4 V4 Ga4 P8 O40'
_cell_volume   892.23095776
_cell_formula_units_Z   4
loop_
 _symmetry_equiv_pos_site_id
 _symmetry_equiv_pos_as_xyz
  1  'x, y, z'
loop_
 _atom_site_type_symbol
 _atom_site_label
 _atom_site_symmetry_multiplicity
 _atom_site_fract_x
 _atom_site_fract_y
 _atom_site_fract_z
 _atom_site_occupancy
  Rb  Rb0  1  0.31984573  0.96313905  0.20675005  1
  Rb  Rb1  1  0.68015427  0.46313905  0.29324995  1
  Rb  Rb2  1  0.68015427  0.03686095  0.79324995  1
  Rb  Rb3  1  0.31984573  0.53686095  0.70675005  1
  V  V4  1  0.80158485  0.94974925  0.13232851  1
  V  V5  1  0.19841515  0.44974925  0.36767149  1
  V  V6  1  0.19841515  0.05025075  0.86767149  1
  V  V7  1  0.80158485  0.55025075  0.63232851  1
  Ga  Ga8  1  0.72012933  0.03855534  0.47396617  1
  Ga  Ga9  1  0.27987067  0.53855534  0.02603383  1
  Ga  Ga10  1  0.27987067  0.96144466  0.52603383  1
  Ga  Ga11  1  0.72012933  0.46144466  0.97396617  1
  P  P12  1  0.00411380  0.09980373  0.35066758  1
  P  P13  1  0.99588620  0.59980373  0.14933242  1
  P  P14  1  0.99588620  0.90019627  0.64933242  1
  P  P15  1  0.00411380  0.40019627  0.85066758  1
  P  P16  1  0.49582074  0.77930288  0.95919550  1
  P  P17  1  0.50417926  0.27930288  0.54080450  1
  P  P18  1  0.50417926  0.22069712  0.04080450  1
  P  P19  1  0.49582074  0.72069712  0.45919550  1
  O  O20  1  0.96198184  0.06743279  0.24022527  1
  O  O21  1  0.03801816  0.56743279  0.25977473  1
  O  O22  1  0.03801816  0.93256721  0.75977473  1
  O  O23  1  0.96198184  0.43256721  0.74022527  1
  O  O24  1  0.65988374  0.88317735  0.00531314  1
  O  O25  1  0.34011626  0.38317735  0.49468686  1
  O  O26  1  0.34011626  0.11682265  0.99468686  1
  O  O27  1  0.65988374  0.61682265  0.50531314  1
  O  O28  1  0.93114210  0.09489144  0.06953228  1
  O  O29  1  0.06885790  0.59489144  0.43046772  1
  O  O30  1  0.06885790  0.90510856  0.93046772  1
  O  O31  1  0.93114210  0.40510856  0.56953228  1
  O  O32  1  0.98248122  0.78524806  0.12771625  1
  O  O33  1  0.01751878  0.28524806  0.37228375  1
  O  O34  1  0.01751878  0.21475194  0.87228375  1
  O  O35  1  0.98248122  0.71475194  0.62771625  1
  O  O36  1  0.61857924  0.12887608  0.12888659  1
  O  O37  1  0.38142076  0.62887608  0.37111341  1
  O  O38  1  0.38142076  0.87112392  0.87111341  1
  O  O39  1  0.61857924  0.37112392  0.62888659  1
  O  O40  1  0.86154696  0.02593845  0.39273227  1
  O  O41  1  0.13845304  0.52593845  0.10726773  1
  O  O42  1  0.13845304  0.97406155  0.60726773  1
  O  O43  1  0.86154696  0.47406155  0.89273227  1
  O  O44  1  0.18027298  0.01190247  0.39703636  1
  O  O45  1  0.81972702  0.51190247  0.10296364  1
  O  O46  1  0.81972702  0.98809753  0.60296364  1
  O  O47  1  0.18027298  0.48809753  0.89703636  1
  O  O48  1  0.55024606  0.61609874  0.91860398  1
  O  O49  1  0.44975394  0.11609874  0.58139602  1
  O  O50  1  0.44975394  0.38390126  0.08139602  1
  O  O51  1  0.55024606  0.88390126  0.41860398  1
  O  O52  1  0.71478558  0.83397551  0.20318163  1
  O  O53  1  0.28521442  0.33397551  0.29681837  1
  O  O54  1  0.28521442  0.16602449  0.79681837  1
  O  O55  1  0.71478558  0.66602449  0.70318163  1
  O  O56  1  0.39808723  0.73636725  0.03819883  1
  O  O57  1  0.60191277  0.23636725  0.46180117  1
  O  O58  1  0.60191277  0.26363275  0.96180117  1
  O  O59  1  0.39808723  0.76363275  0.53819883  1
