# generated using pymatgen
data_Na6Al3Fe3(TeO6)4
_symmetry_space_group_name_H-M   'P 1'
_cell_length_a   10.84326151
_cell_length_b   10.84326151
_cell_length_c   10.84326151
_cell_angle_alpha   70.52877937
_cell_angle_beta   70.52877937
_cell_angle_gamma   109.47122063
_symmetry_Int_Tables_number   1
_chemical_formula_structural   Na6Al3Fe3(TeO6)4
_chemical_formula_sum   'Na12 Al6 Fe6 Te8 O48'
_cell_volume   981.42678065
_cell_formula_units_Z   2
loop_
 _symmetry_equiv_pos_site_id
 _symmetry_equiv_pos_as_xyz
  1  'x, y, z'
loop_
 _atom_site_type_symbol
 _atom_site_label
 _atom_site_symmetry_multiplicity
 _atom_site_fract_x
 _atom_site_fract_y
 _atom_site_fract_z
 _atom_site_occupancy
  Na  Na0  1  0.37502831  0.62502831  0.25000000  1
  Na  Na1  1  0.12497169  0.87497169  0.75000000  1
  Na  Na2  1  0.37497169  0.75000000  0.87502831  1
  Na  Na3  1  0.12502831  0.25000000  0.62497169  1
  Na  Na4  1  0.25000000  0.62497169  0.62502831  1
  Na  Na5  1  0.75000000  0.87502831  0.87497169  1
  Na  Na6  1  0.62502831  0.37502831  0.75000000  1
  Na  Na7  1  0.87497169  0.12497169  0.25000000  1
  Na  Na8  1  0.62497169  0.25000000  0.12502831  1
  Na  Na9  1  0.87502831  0.75000000  0.37497169  1
  Na  Na10  1  0.75000000  0.37497169  0.37502831  1
  Na  Na11  1  0.25000000  0.12502831  0.12497169  1
  Al  Al12  1  0.87500000  0.62500000  0.75000000  1
  Al  Al13  1  0.62500000  0.87500000  0.25000000  1
  Al  Al14  1  0.37500000  0.25000000  0.37500000  1
  Al  Al15  1  0.12500000  0.75000000  0.12500000  1
  Al  Al16  1  0.75000000  0.12500000  0.62500000  1
  Al  Al17  1  0.25000000  0.37500000  0.87500000  1
  Fe  Fe18  1  0.12500000  0.37500000  0.25000000  1
  Fe  Fe19  1  0.37500000  0.12500000  0.75000000  1
  Fe  Fe20  1  0.62500000  0.75000000  0.62500000  1
  Fe  Fe21  1  0.87500000  0.25000000  0.87500000  1
  Fe  Fe22  1  0.25000000  0.87500000  0.37500000  1
  Fe  Fe23  1  0.75000000  0.62500000  0.12500000  1
  Te  Te24  1  0.50000000  0.99843513  -0.00000000  1
  Te  Te25  1  0.49843513  0.50000000  0.50000000  1
  Te  Te26  1  0.00156487  0.50156487  0.99843513  1
  Te  Te27  1  -0.00000000  0.00000000  0.50156487  1
  Te  Te28  1  0.50000000  0.49843513  0.00000000  1
  Te  Te29  1  0.50156487  0.00156487  0.49843513  1
  Te  Te30  1  0.99843513  0.50000000  0.50000000  1
  Te  Te31  1  -0.00000000  -0.00000000  0.00156487  1
  O  O32  1  0.57580074  0.88563790  0.10505085  1
  O  O33  1  0.49068874  0.68085159  0.39494915  1
  O  O34  1  0.00931126  0.61436210  0.80983716  1
  O  O35  1  0.92419926  0.81914841  0.69016284  1
  O  O36  1  0.11436210  0.69016284  0.99068874  1
  O  O37  1  0.31914841  0.80983716  0.07580074  1
  O  O38  1  0.38563790  0.39494915  0.42419926  1
  O  O39  1  0.18085159  0.10505085  0.50931126  1
  O  O40  1  0.30983716  0.42419926  0.68085159  1
  O  O41  1  0.19016284  0.50931126  0.88563790  1
  O  O42  1  0.60505085  0.99068874  0.81914841  1
  O  O43  1  0.89494915  0.07580074  0.61436210  1
  O  O44  1  0.42538571  0.11451235  0.90147790  1
  O  O45  1  0.51599025  0.32686362  0.59852210  1
  O  O46  1  0.98400975  0.38548765  0.18912663  1
  O  O47  1  0.07461429  0.17313638  0.31087337  1
  O  O48  1  0.88548765  0.31087337  0.01599025  1
  O  O49  1  0.67313638  0.18912663  0.92538571  1
  O  O50  1  0.61451235  0.59852210  0.57461429  1
  O  O51  1  0.82686362  0.90147790  0.48400975  1
  O  O52  1  0.68912663  0.57461429  0.32686362  1
  O  O53  1  0.81087337  0.48400975  0.11451235  1
  O  O54  1  0.40147790  0.01599025  0.17313638  1
  O  O55  1  0.09852210  0.92538571  0.38548765  1
  O  O56  1  0.42419926  0.30983716  0.18085159  1
  O  O57  1  0.50931126  0.19016284  0.38563790  1
  O  O58  1  0.99068874  0.60505085  0.31914841  1
  O  O59  1  0.07580074  0.89494915  0.11436210  1
  O  O60  1  0.88563790  0.57580074  0.60505085  1
  O  O61  1  0.68085159  0.49068874  0.89494915  1
  O  O62  1  0.61436210  0.00931126  0.30983716  1
  O  O63  1  0.81914841  0.92419926  0.19016284  1
  O  O64  1  0.69016284  0.11436210  0.49068874  1
  O  O65  1  0.80983716  0.31914841  0.57580074  1
  O  O66  1  0.39494915  0.38563790  0.92419926  1
  O  O67  1  0.10505085  0.18085159  0.00931126  1
  O  O68  1  0.57461429  0.68912663  0.82686362  1
  O  O69  1  0.48400975  0.81087337  0.61451235  1
  O  O70  1  0.01599025  0.40147790  0.67313638  1
  O  O71  1  0.92538571  0.09852210  0.88548765  1
  O  O72  1  0.11451235  0.42538571  0.40147790  1
  O  O73  1  0.32686362  0.51599025  0.09852210  1
  O  O74  1  0.38548765  0.98400975  0.68912663  1
  O  O75  1  0.17313638  0.07461429  0.81087337  1
  O  O76  1  0.31087337  0.88548765  0.51599025  1
  O  O77  1  0.18912663  0.67313638  0.42538571  1
  O  O78  1  0.59852210  0.61451235  0.07461429  1
  O  O79  1  0.90147790  0.82686362  0.98400975  1
