# generated using pymatgen
data_NaLiZnS2
_symmetry_space_group_name_H-M   'P 1'
_cell_length_a   3.98203938
_cell_length_b   3.98207286
_cell_length_c   6.82385023
_cell_angle_alpha   90.00003812
_cell_angle_beta   89.99786840
_cell_angle_gamma   120.00076421
_symmetry_Int_Tables_number   1
_chemical_formula_structural   NaLiZnS2
_chemical_formula_sum   'Na1 Li1 Zn1 S2'
_cell_volume   93.70689022
_cell_formula_units_Z   1
loop_
 _symmetry_equiv_pos_site_id
 _symmetry_equiv_pos_as_xyz
  1  'x, y, z'
loop_
 _atom_site_type_symbol
 _atom_site_label
 _atom_site_symmetry_multiplicity
 _atom_site_fract_x
 _atom_site_fract_y
 _atom_site_fract_z
 _atom_site_occupancy
  Na  Na0  1  0.99998690  0.99999292  0.02616447  1
  Li  Li1  1  0.33332431  0.66666563  0.35664686  1
  Zn  Zn2  1  0.66666132  0.33333113  0.61163404  1
  S  S3  1  0.33332333  0.66666384  0.73381174  1
  S  S4  1  0.66670414  0.33334648  0.27174289  1
