# generated using pymatgen
data_NaPuF4
_symmetry_space_group_name_H-M   'P 1'
_cell_length_a   6.20969392
_cell_length_b   7.21228919
_cell_length_c   7.26109245
_cell_angle_alpha   61.94282848
_cell_angle_beta   64.46094671
_cell_angle_gamma   64.58925361
_symmetry_Int_Tables_number   1
_chemical_formula_structural   NaPuF4
_chemical_formula_sum   'Na3 Pu3 F12'
_cell_volume   248.25836006
_cell_formula_units_Z   3
loop_
 _symmetry_equiv_pos_site_id
 _symmetry_equiv_pos_as_xyz
  1  'x, y, z'
loop_
 _atom_site_type_symbol
 _atom_site_label
 _atom_site_symmetry_multiplicity
 _atom_site_fract_x
 _atom_site_fract_y
 _atom_site_fract_z
 _atom_site_occupancy
  Na  Na0  1  0.68902135  0.13940418  0.50800607  1
  Na  Na1  1  0.64656619  0.65748489  0.03267023  1
  Na  Na2  1  0.33341891  0.87845808  0.45837053  1
  Pu  Pu3  1  0.00225856  0.99345454  0.00133643  1
  Pu  Pu4  1  0.99893825  0.50060944  0.50419350  1
  Pu  Pu5  1  0.33471671  0.39479348  0.93271384  1
  F  F6  1  0.04148952  0.65312803  0.71418144  1
  F  F7  1  0.02974761  0.19868950  0.17046378  1
  F  F8  1  0.59439645  0.49105410  0.54967050  1
  F  F9  1  0.60298829  0.02499742  0.99592415  1
  F  F10  1  0.36818539  0.32374686  0.28056886  1
  F  F11  1  0.36498919  0.76259869  0.83011583  1
  F  F12  1  0.99809534  0.12413732  0.62542743  1
  F  F13  1  0.97247406  0.62002230  0.13254663  1
  F  F14  1  0.27790216  0.22857637  0.73663862  1
  F  F15  1  0.24625153  0.75180527  0.25490385  1
  F  F16  1  0.74763030  0.87735133  0.38105332  1
  F  F17  1  0.75093019  0.37968820  0.89121499  1
