# generated using pymatgen
data_Mo2P4O15
_symmetry_space_group_name_H-M   'P 1'
_cell_length_a   6.83281343
_cell_length_b   8.49609604
_cell_length_c   11.10808037
_cell_angle_alpha   106.05754286
_cell_angle_beta   90.00000000
_cell_angle_gamma   90.00000000
_symmetry_Int_Tables_number   1
_chemical_formula_structural   Mo2P4O15
_chemical_formula_sum   'Mo4 P8 O30'
_cell_volume   619.68975981
_cell_formula_units_Z   2
loop_
 _symmetry_equiv_pos_site_id
 _symmetry_equiv_pos_as_xyz
  1  'x, y, z'
loop_
 _atom_site_type_symbol
 _atom_site_label
 _atom_site_symmetry_multiplicity
 _atom_site_fract_x
 _atom_site_fract_y
 _atom_site_fract_z
 _atom_site_occupancy
  Mo  Mo0  1  0.74917521  0.79713184  0.34821548  1
  Mo  Mo1  1  0.24818224  0.20253857  0.15261342  1
  Mo  Mo2  1  0.25181776  0.20253857  0.65261342  1
  Mo  Mo3  1  0.75082479  0.79713184  0.84821548  1
  P  P4  1  0.05994993  0.81459927  0.10093906  1
  P  P5  1  0.55772307  0.18302604  0.39913984  1
  P  P6  1  0.94227693  0.18302604  0.89913984  1
  P  P7  1  0.44005007  0.81459927  0.60093906  1
  P  P8  1  0.38724863  0.58611376  0.12687134  1
  P  P9  1  0.88347694  0.41898798  0.37743453  1
  P  P10  1  0.61652306  0.41898798  0.87743453  1
  P  P11  1  0.11275137  0.58611376  0.62687134  1
  O  O12  1  0.67182664  0.02661259  0.34038028  1
  O  O13  1  0.17111285  0.97292411  0.15996073  1
  O  O14  1  0.32888715  0.97292411  0.65996073  1
  O  O15  1  0.82817336  0.02661259  0.84038028  1
  O  O16  1  0.52783987  0.80517497  0.47391949  1
  O  O17  1  0.02579011  0.19368235  0.02788089  1
  O  O18  1  0.47420989  0.19368235  0.52788089  1
  O  O19  1  0.97216013  0.80517497  0.97391949  1
  O  O20  1  0.93294458  0.84461097  0.45485777  1
  O  O21  1  0.43333215  0.15554352  0.04721963  1
  O  O22  1  0.06666785  0.15554352  0.54721963  1
  O  O23  1  0.56705542  0.84461097  0.95485777  1
  O  O24  1  0.21984127  0.66918800  0.06643114  1
  O  O25  1  0.71302149  0.33040764  0.42981810  1
  O  O26  1  0.78697851  0.33040764  0.92981810  1
  O  O27  1  0.28015873  0.66918800  0.56643114  1
  O  O28  1  0.79355094  0.54525649  0.32183295  1
  O  O29  1  0.29639342  0.45423249  0.17569362  1
  O  O30  1  0.20360658  0.45423249  0.67569362  1
  O  O31  1  0.70644906  0.54525649  0.82183295  1
  O  O32  1  0.91500602  0.77178047  0.19039389  1
  O  O33  1  0.40887174  0.22292997  0.31103797  1
  O  O34  1  0.09112826  0.22292997  0.81103797  1
  O  O35  1  0.58499398  0.77178047  0.69039389  1
  O  O36  1  0.50668168  0.71169782  0.21832148  1
  O  O37  1  0.01876035  0.29894497  0.29389813  1
  O  O38  1  0.48123965  0.29894497  0.79389813  1
  O  O39  1  0.99331832  0.71169782  0.71832148  1
  O  O40  1  0.51714249  0.50861618  0.00714025  1
  O  O41  1  0.98285751  0.50861618  0.50714025  1
