# generated using pymatgen
data_Mg3(AlCu2)2
_symmetry_space_group_name_H-M   'P 1'
_cell_length_a   5.09514469
_cell_length_b   5.09078096
_cell_length_c   12.26304055
_cell_angle_alpha   90.30351258
_cell_angle_beta   90.00000000
_cell_angle_gamma   120.02835952
_symmetry_Int_Tables_number   1
_chemical_formula_structural   Mg3(AlCu2)2
_chemical_formula_sum   'Mg6 Al4 Cu8'
_cell_volume   275.38318601
_cell_formula_units_Z   2
loop_
 _symmetry_equiv_pos_site_id
 _symmetry_equiv_pos_as_xyz
  1  'x, y, z'
loop_
 _atom_site_type_symbol
 _atom_site_label
 _atom_site_symmetry_multiplicity
 _atom_site_fract_x
 _atom_site_fract_y
 _atom_site_fract_z
 _atom_site_occupancy
  Mg  Mg0  1  0.33326064  0.16652228  0.79135559  1
  Mg  Mg1  1  0.99930498  0.49860996  0.12130674  1
  Mg  Mg2  1  0.66548896  0.83097692  0.46037005  1
  Mg  Mg3  1  0.00007236  0.50014472  0.87531141  1
  Mg  Mg4  1  0.66784504  0.83568908  0.20629595  1
  Mg  Mg5  1  0.33402802  0.16805704  0.54536026  1
  Al  Al6  1  0.34029963  0.18060026  0.16202352  1
  Al  Al7  1  0.99303337  0.48606674  0.50464348  1
  Al  Al8  1  0.66666700  0.83333300  0.83333300  1
  Al  Al9  1  0.16666700  0.83333300  0.33333300  1
  Cu  Cu10  1  0.83234415  0.16468930  0.66825329  1
  Cu  Cu11  1  0.50098885  0.50197770  0.99841371  1
  Cu  Cu12  1  0.16666700  0.33333300  0.33333300  1
  Cu  Cu13  1  0.83348946  0.66745529  0.66755106  1
  Cu  Cu14  1  0.49984354  0.99921171  0.99911594  1
  Cu  Cu15  1  0.99936817  0.99921171  0.99911594  1
  Cu  Cu16  1  0.66666700  0.33333300  0.33333300  1
  Cu  Cu17  1  0.33396483  0.66745529  0.66755106  1
