# generated using pymatgen
data_Na2CaMnAl2P2H2(O5F2)2
_symmetry_space_group_name_H-M   'P 1'
_cell_length_a   7.34664390
_cell_length_b   9.09342226
_cell_length_c   9.09343552
_cell_angle_alpha   74.93255615
_cell_angle_beta   74.72219309
_cell_angle_gamma   106.19723370
_symmetry_Int_Tables_number   1
_chemical_formula_structural   Na2CaMnAl2P2H2(O5F2)2
_chemical_formula_sum   'Na4 Ca2 Mn2 Al4 P4 H4 O20 F8'
_cell_volume   525.04299933
_cell_formula_units_Z   2
loop_
 _symmetry_equiv_pos_site_id
 _symmetry_equiv_pos_as_xyz
  1  'x, y, z'
loop_
 _atom_site_type_symbol
 _atom_site_label
 _atom_site_symmetry_multiplicity
 _atom_site_fract_x
 _atom_site_fract_y
 _atom_site_fract_z
 _atom_site_occupancy
  Na  Na0  1  0.96263997  0.62108011  0.13261987  1
  Na  Na1  1  0.96263997  0.12108011  0.63261987  1
  Na  Na2  1  0.03736003  0.87891989  0.36738013  1
  Na  Na3  1  0.03736003  0.37891989  0.86738013  1
  Ca  Ca4  1  0.50000000  0.25000000  0.25000000  1
  Ca  Ca5  1  0.50000000  0.75000000  0.75000000  1
  Mn  Mn6  1  0.50000000  0.00000000  -0.00000000  1
  Mn  Mn7  1  0.50000000  0.50000000  0.50000000  1
  Al  Al8  1  0.00000000  0.25000000  0.25000000  1
  Al  Al9  1  0.00000000  0.75000000  0.75000000  1
  Al  Al10  1  0.00000000  0.00000000  -0.00000000  1
  Al  Al11  1  0.00000000  0.50000000  0.50000000  1
  P  P12  1  0.36236994  0.07952995  0.67875765  1
  P  P13  1  0.36236994  0.57952995  0.17875765  1
  P  P14  1  0.63763006  0.42047005  0.82124235  1
  P  P15  1  0.63763006  0.92047005  0.32124235  1
  H  H16  1  0.76929112  0.27153985  0.47869392  1
  H  H17  1  0.76929112  0.77153985  0.97869392  1
  H  H18  1  0.23070888  0.22846015  0.02130608  1
  H  H19  1  0.23070888  0.72846015  0.52130608  1
  O  O20  1  0.91930757  0.81792832  0.93110048  1
  O  O21  1  0.91930757  0.31792832  0.43110048  1
  O  O22  1  0.08069243  0.68207168  0.56889952  1
  O  O23  1  0.08069243  0.18207168  0.06889952  1
  O  O24  1  0.50510566  0.51265502  0.25373063  1
  O  O25  1  0.50510566  0.01265502  0.75373063  1
  O  O26  1  0.49489434  0.98734498  0.24626937  1
  O  O27  1  0.49489434  0.48734498  0.74626937  1
  O  O28  1  0.23276617  0.94567759  0.63158339  1
  O  O29  1  0.23276617  0.44567759  0.13158339  1
  O  O30  1  0.78209315  0.37835402  0.69615752  1
  O  O31  1  0.78209315  0.87835402  0.19615752  1
  O  O32  1  0.76723383  0.55432241  0.86841661  1
  O  O33  1  0.76723383  0.05432241  0.36841661  1
  O  O34  1  0.21790685  0.12164598  0.80384248  1
  O  O35  1  0.21790685  0.62164598  0.30384248  1
  O  O36  1  0.48553410  0.23695509  0.52312579  1
  O  O37  1  0.48553410  0.73695509  0.02312579  1
  O  O38  1  0.51446590  0.26304491  0.97687421  1
  O  O39  1  0.51446590  0.76304491  0.47687421  1
  F  F40  1  0.15210826  0.15172847  0.34650916  1
  F  F41  1  0.15210826  0.65172847  0.84650916  1
  F  F42  1  0.83479211  0.08906195  0.90802197  1
  F  F43  1  0.83479211  0.58906195  0.40802197  1
  F  F44  1  0.84789174  0.34827153  0.15349084  1
  F  F45  1  0.84789174  0.84827153  0.65349084  1
  F  F46  1  0.16520789  0.41093805  0.59197803  1
  F  F47  1  0.16520789  0.91093805  0.09197803  1
