# generated using pymatgen
data_Mn4Ga3Co8Ge
_symmetry_space_group_name_H-M   'P 1'
_cell_length_a   4.04682528
_cell_length_b   4.04682528
_cell_length_c   13.41198734
_cell_angle_alpha   90.00000000
_cell_angle_beta   81.32288184
_cell_angle_gamma   120.00000006
_symmetry_Int_Tables_number   1
_chemical_formula_structural   Mn4Ga3Co8Ge
_chemical_formula_sum   'Mn4 Ga3 Co8 Ge1'
_cell_volume   187.30990964
_cell_formula_units_Z   1
loop_
 _symmetry_equiv_pos_site_id
 _symmetry_equiv_pos_as_xyz
  1  'x, y, z'
loop_
 _atom_site_type_symbol
 _atom_site_label
 _atom_site_symmetry_multiplicity
 _atom_site_fract_x
 _atom_site_fract_y
 _atom_site_fract_z
 _atom_site_occupancy
  Mn  Mn0  1  0.87522057  0.43761029  0.68716914  1
  Mn  Mn1  1  0.37616032  0.68808016  0.93575952  1
  Mn  Mn2  1  0.87383968  0.93691984  0.18924048  1
  Mn  Mn3  1  0.37477943  0.18738971  0.43783086  1
  Ga  Ga4  1  0.12477976  0.56238988  0.31283036  1
  Ga  Ga5  1  0.62500000  0.81250000  0.56250000  1
  Ga  Ga6  1  0.12522024  0.06261012  0.81216964  1
  Co  Co7  1  0.00000411  0.50000206  0.49999383  1
  Co  Co8  1  0.49939446  0.74969723  0.75090832  1
  Co  Co9  1  0.99874393  0.99937197  0.00188410  1
  Co  Co10  1  0.50079634  0.25039817  0.24880548  1
  Co  Co11  1  0.24999589  0.12499794  0.62500617  1
  Co  Co12  1  0.74920366  0.37460183  0.87619452  1
  Co  Co13  1  0.25125607  0.62562803  0.12311590  1
  Co  Co14  1  0.75060554  0.87530277  0.37409168  1
  Ge  Ge15  1  0.62500000  0.31250000  0.06250000  1
