# generated using pymatgen
data_Mo3PdPtN
_symmetry_space_group_name_H-M   'P 1'
_cell_length_a   6.88790578
_cell_length_b   6.88790578
_cell_length_c   6.88790578
_cell_angle_alpha   90.00000000
_cell_angle_beta   90.00000000
_cell_angle_gamma   90.00000000
_symmetry_Int_Tables_number   1
_chemical_formula_structural   Mo3PdPtN
_chemical_formula_sum   'Mo12 Pd4 Pt4 N4'
_cell_volume   326.78460858
_cell_formula_units_Z   4
loop_
 _symmetry_equiv_pos_site_id
 _symmetry_equiv_pos_as_xyz
  1  'x, y, z'
loop_
 _atom_site_type_symbol
 _atom_site_label
 _atom_site_symmetry_multiplicity
 _atom_site_fract_x
 _atom_site_fract_y
 _atom_site_fract_z
 _atom_site_occupancy
  Mo  Mo0  1  0.80019956  0.04787086  0.12440434  1
  Mo  Mo1  1  0.19980044  0.54787086  0.37559566  1
  Mo  Mo2  1  0.30019956  0.45212914  0.87559566  1
  Mo  Mo3  1  0.69980044  0.95212914  0.62440434  1
  Mo  Mo4  1  0.04787086  0.12440434  0.80019956  1
  Mo  Mo5  1  0.54787086  0.37559566  0.19980044  1
  Mo  Mo6  1  0.45212914  0.87559566  0.30019956  1
  Mo  Mo7  1  0.95212914  0.62440434  0.69980044  1
  Mo  Mo8  1  0.12440434  0.80019956  0.04787086  1
  Mo  Mo9  1  0.37559566  0.19980044  0.54787086  1
  Mo  Mo10  1  0.87559566  0.30019956  0.45212914  1
  Mo  Mo11  1  0.62440434  0.69980044  0.95212914  1
  Pd  Pd12  1  0.30882292  0.80882292  0.69117708  1
  Pd  Pd13  1  0.80882292  0.69117708  0.30882292  1
  Pd  Pd14  1  0.69117708  0.30882292  0.80882292  1
  Pd  Pd15  1  0.19117708  0.19117708  0.19117708  1
  Pt  Pt16  1  0.94075957  0.44075957  0.05924043  1
  Pt  Pt17  1  0.05924043  0.94075957  0.44075957  1
  Pt  Pt18  1  0.44075957  0.05924043  0.94075957  1
  Pt  Pt19  1  0.55924043  0.55924043  0.55924043  1
  N  N20  1  0.62423546  0.12423546  0.37576454  1
  N  N21  1  0.37576454  0.62423546  0.12423546  1
  N  N22  1  0.12423546  0.37576454  0.62423546  1
  N  N23  1  0.87576454  0.87576454  0.87576454  1
