# generated using pymatgen
data_Na4Ca2SiAs4
_symmetry_space_group_name_H-M   'P 1'
_cell_length_a   7.16576661
_cell_length_b   9.45023827
_cell_length_c   9.52027698
_cell_angle_alpha   59.75584837
_cell_angle_beta   91.74974220
_cell_angle_gamma   90.87853793
_symmetry_Int_Tables_number   1
_chemical_formula_structural   Na4Ca2SiAs4
_chemical_formula_sum   'Na8 Ca4 Si2 As8'
_cell_volume   556.68478850
_cell_formula_units_Z   2
loop_
 _symmetry_equiv_pos_site_id
 _symmetry_equiv_pos_as_xyz
  1  'x, y, z'
loop_
 _atom_site_type_symbol
 _atom_site_label
 _atom_site_symmetry_multiplicity
 _atom_site_fract_x
 _atom_site_fract_y
 _atom_site_fract_z
 _atom_site_occupancy
  Na  Na0  1  0.38562022  0.52790985  0.52460288  1
  Na  Na1  1  0.88564114  0.47207340  0.05253371  1
  Na  Na2  1  0.18461561  0.14582233  0.14071854  1
  Na  Na3  1  0.20714017  0.15259487  0.70823547  1
  Na  Na4  1  0.19714505  0.70716410  0.15124053  1
  Na  Na5  1  0.70715622  0.84736461  0.86086112  1
  Na  Na6  1  0.68463752  0.85418865  0.28653695  1
  Na  Na7  1  0.69716478  0.29285100  0.85841249  1
  Ca  Ca8  1  0.38390155  0.52302953  0.95101314  1
  Ca  Ca9  1  0.38234178  0.95245483  0.52007394  1
  Ca  Ca10  1  0.88389804  0.47696660  0.47404412  1
  Ca  Ca11  1  0.88234559  0.04754868  0.47252605  1
  Si  Si12  1  0.49912965  0.33344911  0.33655134  1
  Si  Si13  1  0.99912791  0.66654178  0.66999650  1
  As  As14  1  0.12076262  0.81150001  0.80021555  1
  As  As15  1  0.09266166  0.80787702  0.38961178  1
  As  As16  1  0.10421034  0.38977289  0.80173957  1
  As  As17  1  0.59270517  0.19218574  0.19744707  1
  As  As18  1  0.62073911  0.18849185  0.61167875  1
  As  As19  1  0.60423024  0.61018979  0.19151533  1
  As  As20  1  0.16244872  0.32631761  0.33705368  1
  As  As21  1  0.66237692  0.67370574  0.66339150  1
