# generated using pymatgen
data_Na3SrTa4O12
_symmetry_space_group_name_H-M   'P 1'
_cell_length_a   5.61220550
_cell_length_b   5.62337321
_cell_length_c   7.99854617
_cell_angle_alpha   90.00000000
_cell_angle_beta   90.00000000
_cell_angle_gamma   89.98705044
_symmetry_Int_Tables_number   1
_chemical_formula_structural   Na3SrTa4O12
_chemical_formula_sum   'Na3 Sr1 Ta4 O12'
_cell_volume   252.43031946
_cell_formula_units_Z   1
loop_
 _symmetry_equiv_pos_site_id
 _symmetry_equiv_pos_as_xyz
  1  'x, y, z'
loop_
 _atom_site_type_symbol
 _atom_site_label
 _atom_site_symmetry_multiplicity
 _atom_site_fract_x
 _atom_site_fract_y
 _atom_site_fract_z
 _atom_site_occupancy
  Na  Na0  1  0.99738318  0.99188411  0.25000000  1
  Na  Na1  1  0.49725815  0.50800211  0.75000000  1
  Na  Na2  1  0.00281696  0.00762173  0.75000000  1
  Sr  Sr3  1  0.50066091  0.48900596  0.25000000  1
  Ta  Ta4  1  0.00010157  0.49996946  0.99685514  1
  Ta  Ta5  1  0.50003969  0.99951459  0.50308184  1
  Ta  Ta6  1  0.00010157  0.49996946  0.50314486  1
  Ta  Ta7  1  0.50003969  0.99951459  0.99691816  1
  O  O8  1  0.21948140  0.78065354  0.98413972  1
  O  O9  1  0.28536075  0.28516722  0.51631645  1
  O  O10  1  0.78009806  0.22048522  0.47969022  1
  O  O11  1  0.71677965  0.71706589  0.01640130  1
  O  O12  1  0.78009806  0.22048522  0.02030978  1
  O  O13  1  0.71677965  0.71706589  0.48359870  1
  O  O14  1  0.21948140  0.78065354  0.51586028  1
  O  O15  1  0.28536075  0.28516722  0.98368355  1
  O  O16  1  0.03214782  0.50708630  0.25000000  1
  O  O17  1  0.46566392  0.00489740  0.25000000  1
  O  O18  1  0.96532477  0.49214590  0.75000000  1
  O  O19  1  0.53502205  0.99364466  0.75000000  1
