# generated using pymatgen
data_Na(CoO2)3
_symmetry_space_group_name_H-M   'P 1'
_cell_length_a   4.86973541
_cell_length_b   4.85931776
_cell_length_c   5.86058772
_cell_angle_alpha   73.59617687
_cell_angle_beta   98.09996766
_cell_angle_gamma   119.92926104
_symmetry_Int_Tables_number   1
_chemical_formula_structural   Na(CoO2)3
_chemical_formula_sum   'Na1 Co3 O6'
_cell_volume   115.29589324
_cell_formula_units_Z   1
loop_
 _symmetry_equiv_pos_site_id
 _symmetry_equiv_pos_as_xyz
  1  'x, y, z'
loop_
 _atom_site_type_symbol
 _atom_site_label
 _atom_site_symmetry_multiplicity
 _atom_site_fract_x
 _atom_site_fract_y
 _atom_site_fract_z
 _atom_site_occupancy
  Na  Na0  1  0.33333300  0.16666700  0.50000000  1
  Co  Co1  1  0.66787192  0.33393546  -0.00000000  1
  Co  Co2  1  0.33333300  0.66666700  -0.00000000  1
  Co  Co3  1  0.99879508  0.99939754  0.00000000  1
  O  O4  1  0.33333300  0.93964670  0.17272756  1
  O  O5  1  0.00211909  0.27683403  0.17170214  1
  O  O6  1  0.66454791  0.60804794  0.17170214  1
  O  O7  1  0.66454791  0.05649897  0.82829786  1
  O  O8  1  0.33333300  0.39368730  0.82727244  1
  O  O9  1  0.00211909  0.72528506  0.82829786  1
