# generated using pymatgen
data_Mn5In4SbPd10
_symmetry_space_group_name_H-M   'P 1'
_cell_length_a   4.54409586
_cell_length_b   4.54409586
_cell_length_c   18.71274437
_cell_angle_alpha   83.02610310
_cell_angle_beta   90.00000000
_cell_angle_gamma   120.00000000
_symmetry_Int_Tables_number   1
_chemical_formula_structural   Mn5In4SbPd10
_chemical_formula_sum   'Mn5 In4 Sb1 Pd10'
_cell_volume   331.32354375
_cell_formula_units_Z   1
loop_
 _symmetry_equiv_pos_site_id
 _symmetry_equiv_pos_as_xyz
  1  'x, y, z'
loop_
 _atom_site_type_symbol
 _atom_site_label
 _atom_site_symmetry_multiplicity
 _atom_site_fract_x
 _atom_site_fract_y
 _atom_site_fract_z
 _atom_site_occupancy
  Mn  Mn0  1  0.70037320  0.40074640  0.89888040  1
  Mn  Mn1  1  0.50000000  -0.00000000  0.50000000  1
  Mn  Mn2  1  0.09999951  0.19999901  0.70000148  1
  Mn  Mn3  1  0.29962680  0.59925360  0.10111960  1
  Mn  Mn4  1  0.90000049  0.80000099  0.29999852  1
  In  In5  1  0.59988740  0.19977480  0.20033781  1
  In  In6  1  0.20001957  0.40003915  0.39994128  1
  In  In7  1  0.79998043  0.59996085  0.60005872  1
  In  In8  1  0.40011260  0.80022520  0.79966219  1
  Sb  Sb9  1  -0.00000000  -0.00000000  -0.00000000  1
  Pd  Pd10  1  0.04990815  0.09981629  0.85027556  1
  Pd  Pd11  1  0.84998902  0.69997803  0.45003295  1
  Pd  Pd12  1  0.44999274  0.89998549  0.65002177  1
  Pd  Pd13  1  0.65002360  0.30004719  0.04992921  1
  Pd  Pd14  1  0.25000754  0.50001509  0.24997737  1
  Pd  Pd15  1  0.34997640  0.69995281  0.95007079  1
  Pd  Pd16  1  0.15001098  0.30002197  0.54996705  1
  Pd  Pd17  1  0.74999246  0.49998491  0.75002263  1
  Pd  Pd18  1  0.95009185  0.90018371  0.14972444  1
  Pd  Pd19  1  0.55000726  0.10001451  0.34997823  1
