# generated using pymatgen
data_Mg10TiSn(BO5)4
_symmetry_space_group_name_H-M   'P 1'
_cell_length_a   6.14365992
_cell_length_b   9.89857756
_cell_length_c   12.85970260
_cell_angle_alpha   85.47941050
_cell_angle_beta   75.98286328
_cell_angle_gamma   71.85859795
_symmetry_Int_Tables_number   1
_chemical_formula_structural   Mg10TiSn(BO5)4
_chemical_formula_sum   'Mg20 Ti2 Sn2 B8 O40'
_cell_volume   721.03483837
_cell_formula_units_Z   2
loop_
 _symmetry_equiv_pos_site_id
 _symmetry_equiv_pos_as_xyz
  1  'x, y, z'
loop_
 _atom_site_type_symbol
 _atom_site_label
 _atom_site_symmetry_multiplicity
 _atom_site_fract_x
 _atom_site_fract_y
 _atom_site_fract_z
 _atom_site_occupancy
  Mg  Mg0  1  0.61381386  0.00010136  0.28267771  1
  Mg  Mg1  1  0.38618614  0.99989864  0.71732229  1
  Mg  Mg2  1  0.24746166  0.00547980  0.50083963  1
  Mg  Mg3  1  0.75253834  0.99452020  0.49916037  1
  Mg  Mg4  1  0.76006576  0.99875783  0.00097555  1
  Mg  Mg5  1  0.23993424  0.00124217  0.99902445  1
  Mg  Mg6  1  0.75184216  0.49995207  0.50017262  1
  Mg  Mg7  1  0.24815784  0.50004793  0.49982738  1
  Mg  Mg8  1  0.87574211  0.50517488  0.21892171  1
  Mg  Mg9  1  0.12425789  0.49482512  0.78107829  1
  Mg  Mg10  1  0.24273108  0.51268570  0.00231113  1
  Mg  Mg11  1  0.75726892  0.48731430  0.99768887  1
  Mg  Mg12  1  0.11096992  0.99941051  0.28216990  1
  Mg  Mg13  1  0.88903008  0.00058949  0.71783010  1
  Mg  Mg14  1  0.61536244  0.49516267  0.78040592  1
  Mg  Mg15  1  0.38463756  0.50483733  0.21959408  1
  Mg  Mg16  1  0.81632717  0.23589797  0.12009105  1
  Mg  Mg17  1  0.18367283  0.76410203  0.87990895  1
  Mg  Mg18  1  0.05924712  0.26097475  0.61857240  1
  Mg  Mg19  1  0.94075288  0.73902525  0.38142760  1
  Ti  Ti20  1  0.56229209  0.26067927  0.61300082  1
  Ti  Ti21  1  0.43770791  0.73932073  0.38699918  1
  Sn  Sn22  1  0.31706459  0.24006135  0.11608597  1
  Sn  Sn23  1  0.68293541  0.75993865  0.88391403  1
  B  B24  1  0.54574753  0.76952034  0.14083640  1
  B  B25  1  0.45425247  0.23047966  0.85916360  1
  B  B26  1  0.17830295  0.27686281  0.36347887  1
  B  B27  1  0.82169705  0.72313719  0.63652113  1
  B  B28  1  0.04018912  0.77929811  0.14137915  1
  B  B29  1  0.95981088  0.22070189  0.85862085  1
  B  B30  1  0.68182214  0.27193652  0.35969131  1
  B  B31  1  0.31817786  0.72806348  0.64030869  1
  O  O32  1  0.01972694  0.38773551  0.07829594  1
  O  O33  1  0.98027306  0.61226449  0.92170406  1
  O  O34  1  0.04296779  0.14497831  0.76277630  1
  O  O35  1  0.95703221  0.85502169  0.23722370  1
  O  O36  1  0.76090769  0.12445827  0.35742227  1
  O  O37  1  0.23909231  0.87554173  0.64257773  1
  O  O38  1  0.05747798  0.85052453  0.04335622  1
  O  O39  1  0.94252202  0.14947547  0.95664378  1
  O  O40  1  0.61863473  0.10174974  0.14366586  1
  O  O41  1  0.38136527  0.89825026  0.85633414  1
  O  O42  1  0.59706205  0.34580528  0.45832154  1
  O  O43  1  0.40293795  0.65419472  0.54167846  1
  O  O44  1  0.88819376  0.11719220  0.57630956  1
  O  O45  1  0.11180624  0.88280780  0.42369044  1
  O  O46  1  0.53711971  0.15763136  0.76146282  1
  O  O47  1  0.46288029  0.84236864  0.23853718  1
  O  O48  1  0.68357371  0.35098800  0.26555946  1
  O  O49  1  0.31642629  0.64901200  0.73444054  1
  O  O50  1  0.25849332  0.13041669  0.35778899  1
  O  O51  1  0.74150668  0.86958331  0.64221101  1
  O  O52  1  0.61271142  0.62291442  0.13979104  1
  O  O53  1  0.38728858  0.37708558  0.86020896  1
  O  O54  1  0.71562556  0.38899257  0.64231883  1
  O  O55  1  0.28437444  0.61100743  0.35768117  1
  O  O56  1  0.74780937  0.61052767  0.35774393  1
  O  O57  1  0.25219063  0.38947233  0.64225607  1
  O  O58  1  0.58456703  0.88250914  0.42355067  1
  O  O59  1  0.41543297  0.11749086  0.57644933  1
  O  O60  1  0.09462109  0.35303878  0.45831712  1
  O  O61  1  0.90537891  0.64696122  0.54168288  1
  O  O62  1  0.55712349  0.85038714  0.04609465  1
  O  O63  1  0.44287651  0.14961286  0.95390535  1
  O  O64  1  0.12758853  0.10159758  0.14316537  1
  O  O65  1  0.87241147  0.89840242  0.85683463  1
  O  O66  1  0.10543693  0.63059779  0.14608115  1
  O  O67  1  0.89456307  0.36940221  0.85391885  1
  O  O68  1  0.50604504  0.38746775  0.07842454  1
  O  O69  1  0.49395496  0.61253225  0.92157546  1
  O  O70  1  0.18042910  0.35616338  0.26640584  1
  O  O71  1  0.81957090  0.64383662  0.73359416  1
