# generated using pymatgen
data_LiLa5Si4N10O
_symmetry_space_group_name_H-M   'P 1'
_cell_length_a   5.76825571
_cell_length_b   6.58656411
_cell_length_c   8.38855745
_cell_angle_alpha   103.13807106
_cell_angle_beta   107.61241018
_cell_angle_gamma   94.60657740
_symmetry_Int_Tables_number   1
_chemical_formula_structural   LiLa5Si4N10O
_chemical_formula_sum   'Li1 La5 Si4 N10 O1'
_cell_volume   291.97495673
_cell_formula_units_Z   1
loop_
 _symmetry_equiv_pos_site_id
 _symmetry_equiv_pos_as_xyz
  1  'x, y, z'
loop_
 _atom_site_type_symbol
 _atom_site_label
 _atom_site_symmetry_multiplicity
 _atom_site_fract_x
 _atom_site_fract_y
 _atom_site_fract_z
 _atom_site_occupancy
  Li  Li0  1  0.49298458  0.00484813  0.49219950  1
  La  La1  1  0.91205308  0.14734429  0.33213701  1
  La  La2  1  0.08691650  0.85010537  0.66259245  1
  La  La3  1  0.28481571  0.73522373  0.13164057  1
  La  La4  1  0.71706330  0.28095286  0.87629844  1
  La  La5  1  0.49420136  0.48647514  0.49082932  1
  Si  Si6  1  0.37712576  0.20820761  0.09458714  1
  Si  Si7  1  0.61893717  0.78954615  0.90788095  1
  Si  Si8  1  0.17158446  0.35617191  0.74181181  1
  Si  Si9  1  0.82918212  0.64371102  0.26021563  1
  N  N10  1  0.50282178  0.00276663  0.99590433  1
  N  N11  1  0.63604689  0.40429784  0.20374903  1
  N  N12  1  0.36731928  0.59510678  0.79012874  1
  N  N13  1  0.16855455  0.29511390  0.93564192  1
  N  N14  1  0.82871892  0.70310626  0.06315680  1
  N  N15  1  0.86717910  0.36428335  0.63072161  1
  N  N16  1  0.13521092  0.64295407  0.37275030  1
  N  N17  1  0.29443537  0.17095456  0.62008715  1
  N  N18  1  0.70877674  0.82494997  0.38697809  1
  N  N19  1  0.27555595  0.12845299  0.24611842  1
  O  O20  1  0.73051645  0.86542745  0.76457081  1
