# generated using pymatgen
data_Li5AuO4
_symmetry_space_group_name_H-M   'P 1'
_cell_length_a   4.77667749
_cell_length_b   4.77686799
_cell_length_c   5.36503099
_cell_angle_alpha   95.64550414
_cell_angle_beta   63.56592853
_cell_angle_gamma   102.76661388
_symmetry_Int_Tables_number   1
_chemical_formula_structural   Li5AuO4
_chemical_formula_sum   'Li5 Au1 O4'
_cell_volume   106.90793191
_cell_formula_units_Z   1
loop_
 _symmetry_equiv_pos_site_id
 _symmetry_equiv_pos_as_xyz
  1  'x, y, z'
loop_
 _atom_site_type_symbol
 _atom_site_label
 _atom_site_symmetry_multiplicity
 _atom_site_fract_x
 _atom_site_fract_y
 _atom_site_fract_z
 _atom_site_occupancy
  Li  Li0  1  0.20960174  0.50000000  0.58079653  1
  Li  Li1  1  0.71567302  0.00000000  0.56865396  1
  Li  Li2  1  0.28432698  -0.00000000  0.43134604  1
  Li  Li3  1  0.79039826  0.50000000  0.41920347  1
  Li  Li4  1  0.00000000  0.00000000  -0.00000000  1
  Au  Au5  1  0.50000000  0.50000000  -0.00000000  1
  O  O6  1  0.40150445  0.25020033  0.70575037  1
  O  O7  1  0.89274518  0.74979967  0.70575037  1
  O  O8  1  0.10725482  0.25020033  0.29424963  1
  O  O9  1  0.59849555  0.74979967  0.29424963  1
