# generated using pymatgen
data_Mg3Si9B36C
_symmetry_space_group_name_H-M   'P 1'
_cell_length_a   8.00215153
_cell_length_b   8.00215367
_cell_length_c   8.00208186
_cell_angle_alpha   78.30842847
_cell_angle_beta   78.30840100
_cell_angle_gamma   78.30831556
_symmetry_Int_Tables_number   1
_chemical_formula_structural   Mg3Si9B36C
_chemical_formula_sum   'Mg3 Si9 B36 C1'
_cell_volume   484.34137789
_cell_formula_units_Z   1
loop_
 _symmetry_equiv_pos_site_id
 _symmetry_equiv_pos_as_xyz
  1  'x, y, z'
loop_
 _atom_site_type_symbol
 _atom_site_label
 _atom_site_symmetry_multiplicity
 _atom_site_fract_x
 _atom_site_fract_y
 _atom_site_fract_z
 _atom_site_occupancy
  Mg  Mg0  1  0.50093659  0.00026995  0.50096520  1
  Mg  Mg1  1  0.00027600  0.50096383  0.50094247  1
  Mg  Mg2  1  0.50097208  0.50094710  0.00027036  1
  Si  Si3  1  0.42732752  0.42732731  0.42731398  1
  Si  Si4  1  0.57097669  0.57097674  0.57099215  1
  Si  Si5  1  0.26140215  0.26140611  0.65683137  1
  Si  Si6  1  0.26139786  0.65684344  0.26139350  1
  Si  Si7  1  0.65684349  0.26139385  0.26139736  1
  Si  Si8  1  0.73831713  0.73832079  0.34466566  1
  Si  Si9  1  0.73832764  0.34465345  0.73832492  1
  Si  Si10  1  0.34465357  0.73832348  0.73832847  1
  Si  Si11  1  0.04416471  0.04416482  0.04416095  1
  B  B12  1  0.29594761  0.00591155  0.00590497  1
  B  B13  1  0.00590826  0.00590859  0.29594577  1
  B  B14  1  0.00591204  0.29594779  0.00590471  1
  B  B15  1  0.72395859  0.98212879  0.98213531  1
  B  B16  1  0.98213187  0.98213147  0.72395976  1
  B  B17  1  0.98212816  0.72395834  0.98213594  1
  B  B18  1  0.37545173  0.01939553  0.19973143  1
  B  B19  1  0.01939521  0.19973051  0.37545265  1
  B  B20  1  0.19973194  0.37545428  0.01939456  1
  B  B21  1  0.01939497  0.37545081  0.19973204  1
  B  B22  1  0.37545382  0.19973241  0.01939455  1
  B  B23  1  0.19973083  0.01939519  0.37545214  1
  B  B24  1  0.62717195  0.97745739  0.79709080  1
  B  B25  1  0.97745869  0.79709216  0.62716945  1
  B  B26  1  0.79708973  0.62716935  0.97745979  1
  B  B27  1  0.97745724  0.62717188  0.79709073  1
  B  B28  1  0.62716902  0.79709035  0.97745922  1
  B  B29  1  0.79709192  0.97745800  0.62716973  1
  B  B30  1  0.41934762  0.82126950  0.10804963  1
  B  B31  1  0.82126823  0.10805097  0.41934970  1
  B  B32  1  0.10805355  0.41935255  0.82126352  1
  B  B33  1  0.82126866  0.41934692  0.10805101  1
  B  B34  1  0.41935226  0.10805452  0.82126247  1
  B  B35  1  0.10805144  0.82126782  0.41934872  1
  B  B36  1  0.58900937  0.17420803  0.89069965  1
  B  B37  1  0.17420965  0.89069890  0.58900802  1
  B  B38  1  0.89069454  0.58900550  0.17421534  1
  B  B39  1  0.17420710  0.58900957  0.89070128  1
  B  B40  1  0.58900489  0.89069576  0.17421479  1
  B  B41  1  0.89070021  0.17420906  0.58900791  1
  B  B42  1  0.44362818  0.87439648  0.87439220  1
  B  B43  1  0.87439425  0.87439475  0.44362573  1
  B  B44  1  0.87439701  0.44362815  0.87439185  1
  B  B45  1  0.56524967  0.12158172  0.12158803  1
  B  B46  1  0.12158670  0.12158628  0.56525031  1
  B  B47  1  0.12158079  0.56525070  0.12158858  1
  C  C48  1  0.93223988  0.93224055  0.93224430  1
