# generated using pymatgen
data_Li4CoTeO6
_symmetry_space_group_name_H-M   'P 1'
_cell_length_a   5.22586271
_cell_length_b   5.22586271
_cell_length_c   5.22752696
_cell_angle_alpha   100.21986878
_cell_angle_beta   100.21986878
_cell_angle_gamma   119.52648655
_symmetry_Int_Tables_number   1
_chemical_formula_structural   Li4CoTeO6
_chemical_formula_sum   'Li4 Co1 Te1 O6'
_cell_volume   116.25537604
_cell_formula_units_Z   1
loop_
 _symmetry_equiv_pos_site_id
 _symmetry_equiv_pos_as_xyz
  1  'x, y, z'
loop_
 _atom_site_type_symbol
 _atom_site_label
 _atom_site_symmetry_multiplicity
 _atom_site_fract_x
 _atom_site_fract_y
 _atom_site_fract_z
 _atom_site_occupancy
  Li  Li0  1  0.82874827  0.17125173  0.50000000  1
  Li  Li1  1  0.16979322  0.83020678  0.50000000  1
  Li  Li2  1  0.50160311  0.49839689  0.50000000  1
  Li  Li3  1  0.66606050  0.33393950  -0.00000000  1
  Co  Co4  1  0.33433783  0.66566217  -0.00000000  1
  Te  Te5  1  0.00022600  -0.00022600  0.00000000  1
  O  O6  1  0.08355674  0.38851005  0.23381410  1
  O  O7  1  0.38030970  0.06905583  0.23575732  1
  O  O8  1  0.93094417  0.61969030  0.76424268  1
  O  O9  1  0.61148995  0.91644326  0.76618590  1
  O  O10  1  0.22529681  0.23236630  0.77587456  1
  O  O11  1  0.76763370  0.77470319  0.22412544  1
