# generated using pymatgen
data_LiNiRhF6
_symmetry_space_group_name_H-M   'P 1'
_cell_length_a   4.70642846
_cell_length_b   4.70642846
_cell_length_c   9.31921660
_cell_angle_alpha   90.00000000
_cell_angle_beta   90.00000000
_cell_angle_gamma   90.00000000
_symmetry_Int_Tables_number   1
_chemical_formula_structural   LiNiRhF6
_chemical_formula_sum   'Li2 Ni2 Rh2 F12'
_cell_volume   206.42501700
_cell_formula_units_Z   2
loop_
 _symmetry_equiv_pos_site_id
 _symmetry_equiv_pos_as_xyz
  1  'x, y, z'
loop_
 _atom_site_type_symbol
 _atom_site_label
 _atom_site_symmetry_multiplicity
 _atom_site_fract_x
 _atom_site_fract_y
 _atom_site_fract_z
 _atom_site_occupancy
  Li  Li0  1  0.50000000  0.50000000  0.49929418  1
  Li  Li1  1  0.00000000  -0.00000000  0.99929418  1
  Ni  Ni2  1  0.50000000  0.50000000  0.16865681  1
  Ni  Ni3  1  0.00000000  -0.00000000  0.66865681  1
  Rh  Rh4  1  0.50000000  0.50000000  0.83259420  1
  Rh  Rh5  1  0.00000000  -0.00000000  0.33259420  1
  F  F6  1  0.19390146  0.80609854  0.49880652  1
  F  F7  1  0.80609854  0.19390146  0.49880652  1
  F  F8  1  0.30609854  0.30609854  0.99880652  1
  F  F9  1  0.69390146  0.69390146  0.99880652  1
  F  F10  1  0.19600849  0.80399151  0.16722218  1
  F  F11  1  0.80399151  0.19600849  0.16722218  1
  F  F12  1  0.30399151  0.30399151  0.66722218  1
  F  F13  1  0.69600849  0.69600849  0.66722218  1
  F  F14  1  0.80249109  0.19750891  0.83369870  1
  F  F15  1  0.19750891  0.80249109  0.83369870  1
  F  F16  1  0.69750891  0.69750891  0.33369870  1
  F  F17  1  0.30249109  0.30249109  0.33369870  1
