# generated using pymatgen
data_Li3Ni11As7
_symmetry_space_group_name_H-M   'P 1'
_cell_length_a   3.72454380
_cell_length_b   9.35812778
_cell_length_c   9.37462181
_cell_angle_alpha   120.23824446
_cell_angle_beta   90.00000000
_cell_angle_gamma   90.00000000
_symmetry_Int_Tables_number   1
_chemical_formula_structural   Li3Ni11As7
_chemical_formula_sum   'Li3 Ni11 As7'
_cell_volume   282.29215937
_cell_formula_units_Z   1
loop_
 _symmetry_equiv_pos_site_id
 _symmetry_equiv_pos_as_xyz
  1  'x, y, z'
loop_
 _atom_site_type_symbol
 _atom_site_label
 _atom_site_symmetry_multiplicity
 _atom_site_fract_x
 _atom_site_fract_y
 _atom_site_fract_z
 _atom_site_occupancy
  Li  Li0  1  0.50000000  0.33252398  0.66653649  1
  Li  Li1  1  0.00000000  0.66679512  0.33359960  1
  Li  Li2  1  0.50000000  0.12015827  0.90191001  1
  Ni  Ni3  1  -0.00000000  0.88215282  0.71919242  1
  Ni  Ni4  1  -0.00000000  0.28280831  0.16402576  1
  Ni  Ni5  1  0.00000000  0.83440764  0.11899478  1
  Ni  Ni6  1  0.50000000  0.95496032  0.56953765  1
  Ni  Ni7  1  0.50000000  0.43034549  0.38540250  1
  Ni  Ni8  1  0.50000000  0.61579696  0.04450349  1
  Ni  Ni9  1  0.00000000  0.38076283  0.95033259  1
  Ni  Ni10  1  0.00000000  0.05166754  0.42849767  1
  Ni  Ni11  1  0.00000000  0.56834545  0.62076704  1
  Ni  Ni12  1  0.50000000  0.09273215  0.21519894  1
  Ni  Ni13  1  0.50000000  0.78412923  0.87864658  1
  As  As14  1  0.50000000  0.70917159  0.58620830  1
  As  As15  1  0.50000000  0.42168171  0.12816243  1
  As  As16  1  0.50000000  0.87722301  0.29200211  1
  As  As17  1  0.00000000  0.99598091  0.00286314  1
  As  As18  1  0.00000000  0.12765691  0.70458761  1
  As  As19  1  0.00000000  0.29020177  0.41839789  1
  As  As20  1  0.00000000  0.58049799  0.87063299  1
