# generated using pymatgen
data_LiMg4Al(MoO4)6
_symmetry_space_group_name_H-M   'P 1'
_cell_length_a   6.99495951
_cell_length_b   8.38030457
_cell_length_c   9.86736840
_cell_angle_alpha   95.89410075
_cell_angle_beta   107.11668122
_cell_angle_gamma   101.61389427
_symmetry_Int_Tables_number   1
_chemical_formula_structural   LiMg4Al(MoO4)6
_chemical_formula_sum   'Li1 Mg4 Al1 Mo6 O24'
_cell_volume   533.32280457
_cell_formula_units_Z   1
loop_
 _symmetry_equiv_pos_site_id
 _symmetry_equiv_pos_as_xyz
  1  'x, y, z'
loop_
 _atom_site_type_symbol
 _atom_site_label
 _atom_site_symmetry_multiplicity
 _atom_site_fract_x
 _atom_site_fract_y
 _atom_site_fract_z
 _atom_site_occupancy
  Li  Li0  1  0.96542023  0.39133017  0.21574965  1
  Mg  Mg1  1  0.46418614  0.80613957  0.01184376  1
  Mg  Mg2  1  0.54185161  0.19275262  0.00007334  1
  Mg  Mg3  1  0.75163824  0.80155936  0.58736363  1
  Mg  Mg4  1  0.24628388  0.20024778  0.40103456  1
  Al  Al5  1  0.03911385  0.61757822  0.79337692  1
  Mo  Mo6  1  0.01775680  0.79820605  0.11571762  1
  Mo  Mo7  1  0.98029243  0.20789642  0.87468278  1
  Mo  Mo8  1  0.50672993  0.49328880  0.25761419  1
  Mo  Mo9  1  0.49801620  0.51108002  0.74610337  1
  Mo  Mo10  1  0.69838832  0.10661005  0.33939462  1
  Mo  Mo11  1  0.30174797  0.89107016  0.66383940  1
  O  O12  1  0.55342531  0.21043212  0.42405462  1
  O  O13  1  0.45167743  0.78493177  0.58774589  1
  O  O14  1  0.64556788  0.36442066  0.18220468  1
  O  O15  1  0.33781490  0.63200396  0.81608065  1
  O  O16  1  0.01207449  0.63256476  0.20990824  1
  O  O17  1  0.99280173  0.39908746  0.79461956  1
  O  O18  1  0.14694507  0.98380679  0.24210016  1
  O  O19  1  0.85601398  0.02491529  0.74374808  1
  O  O20  1  0.45019549  0.64190320  0.14542341  1
  O  O21  1  0.54071119  0.36036834  0.85423105  1
  O  O22  1  0.66479672  0.59762538  0.43184520  1
  O  O23  1  0.34671052  0.40329833  0.57522694  1
  O  O24  1  0.55322224  0.02372555  0.14777163  1
  O  O25  1  0.44520823  0.97704751  0.84983477  1
  O  O26  1  0.75838520  0.80188361  0.02635100  1
  O  O27  1  0.23464969  0.19438971  0.96334841  1
  O  O28  1  0.13323504  0.75570428  0.96643616  1
  O  O29  1  0.85242060  0.22109236  0.00711296  1
  O  O30  1  0.26523747  0.37395891  0.26447259  1
  O  O31  1  0.75548677  0.62214733  0.74304395  1
  O  O32  1  0.74389132  0.93931098  0.42907097  1
  O  O33  1  0.24804517  0.05142411  0.56870503  1
  O  O34  1  0.95090669  0.23350701  0.36390898  1
  O  O35  1  0.04915125  0.75269135  0.65596121  1
