# generated using pymatgen
data_LaThN2
_symmetry_space_group_name_H-M   'P 1'
_cell_length_a   3.70192165
_cell_length_b   3.70192165
_cell_length_c   6.43450324
_cell_angle_alpha   73.28198363
_cell_angle_beta   90.00000000
_cell_angle_gamma   119.99999994
_symmetry_Int_Tables_number   1
_chemical_formula_structural   LaThN2
_chemical_formula_sum   'La1 Th1 N2'
_cell_volume   72.03009806
_cell_formula_units_Z   1
loop_
 _symmetry_equiv_pos_site_id
 _symmetry_equiv_pos_as_xyz
  1  'x, y, z'
loop_
 _atom_site_type_symbol
 _atom_site_label
 _atom_site_symmetry_multiplicity
 _atom_site_fract_x
 _atom_site_fract_y
 _atom_site_fract_z
 _atom_site_occupancy
  La  La0  1  0.00000000  0.00000000  -0.00000000  1
  Th  Th1  1  0.50000000  0.00000000  0.50000000  1
  N  N2  1  0.24180185  0.48360369  0.27459446  1
  N  N3  1  0.75819815  0.51639631  0.72540554  1
