# generated using pymatgen
data_LaZnCuP2
_symmetry_space_group_name_H-M   'P 1'
_cell_length_a   4.07694729
_cell_length_b   4.07694791
_cell_length_c   6.79457370
_cell_angle_alpha   90.00085043
_cell_angle_beta   90.00087813
_cell_angle_gamma   60.00031453
_symmetry_Int_Tables_number   1
_chemical_formula_structural   LaZnCuP2
_chemical_formula_sum   'La1 Zn1 Cu1 P2'
_cell_volume   97.80577107
_cell_formula_units_Z   1
loop_
 _symmetry_equiv_pos_site_id
 _symmetry_equiv_pos_as_xyz
  1  'x, y, z'
loop_
 _atom_site_type_symbol
 _atom_site_label
 _atom_site_symmetry_multiplicity
 _atom_site_fract_x
 _atom_site_fract_y
 _atom_site_fract_z
 _atom_site_occupancy
  La  La0  1  -0.00000016  0.00000040  0.98562227  1
  Zn  Zn1  1  0.33333480  0.33333485  0.37733259  1
  Cu  Cu2  1  0.66667742  0.66667787  0.63607889  1
  P  P3  1  0.66666347  0.66666322  0.26802142  1
  P  P4  1  0.33332446  0.33332367  0.73294482  1
