# generated using pymatgen
data_La5Er5Ge6
_symmetry_space_group_name_H-M   'P 1'
_cell_length_a   6.53928704
_cell_length_b   8.76167128
_cell_length_c   8.76167129
_cell_angle_alpha   60.51374816
_cell_angle_beta   89.99817331
_cell_angle_gamma   90.00182677
_symmetry_Int_Tables_number   1
_chemical_formula_structural   La5Er5Ge6
_chemical_formula_sum   'La5 Er5 Ge6'
_cell_volume   436.97845992
_cell_formula_units_Z   1
loop_
 _symmetry_equiv_pos_site_id
 _symmetry_equiv_pos_as_xyz
  1  'x, y, z'
loop_
 _atom_site_type_symbol
 _atom_site_label
 _atom_site_symmetry_multiplicity
 _atom_site_fract_x
 _atom_site_fract_y
 _atom_site_fract_z
 _atom_site_occupancy
  La  La0  1  0.75008198  0.74969215  0.00062744  1
  La  La1  1  0.75008198  0.99937256  0.25030785  1
  La  La2  1  0.24988067  0.74741567  0.25258433  1
  La  La3  1  0.24998238  0.24921671  0.99842904  1
  La  La4  1  0.24998238  0.00157096  0.75078329  1
  Er  Er5  1  0.50068948  0.33328134  0.33540631  1
  Er  Er6  1  0.50068948  0.66459369  0.66671866  1
  Er  Er7  1  0.99931838  0.66461915  0.66667830  1
  Er  Er8  1  0.99931838  0.33332170  0.33538085  1
  Er  Er9  1  0.74995585  0.25518551  0.74481449  1
  Ge  Ge10  1  0.74995126  0.59889549  0.40110451  1
  Ge  Ge11  1  0.74990180  0.39260354  0.99268210  1
  Ge  Ge12  1  0.74990180  0.00731790  0.60739646  1
  Ge  Ge13  1  0.25012029  0.39549573  0.60450427  1
  Ge  Ge14  1  0.25007193  0.60627179  0.99885390  1
  Ge  Ge15  1  0.25007193  0.00114610  0.39372821  1
