# generated using pymatgen
data_La2MnNiO6
_symmetry_space_group_name_H-M   'P 1'
_cell_length_a   5.46902389
_cell_length_b   5.46902360
_cell_length_c   5.46902389
_cell_angle_alpha   61.09272777
_cell_angle_beta   61.09273625
_cell_angle_gamma   61.09272777
_symmetry_Int_Tables_number   1
_chemical_formula_structural   La2MnNiO6
_chemical_formula_sum   'La2 Mn1 Ni1 O6'
_cell_volume   118.51354717
_cell_formula_units_Z   1
loop_
 _symmetry_equiv_pos_site_id
 _symmetry_equiv_pos_as_xyz
  1  'x, y, z'
loop_
 _atom_site_type_symbol
 _atom_site_label
 _atom_site_symmetry_multiplicity
 _atom_site_fract_x
 _atom_site_fract_y
 _atom_site_fract_z
 _atom_site_occupancy
  La  La0  1  0.24967303  0.24967303  0.24967303  1
  La  La1  1  0.75032697  0.75032697  0.75032697  1
  Mn  Mn2  1  -0.00000000  -0.00000000  -0.00000000  1
  Ni  Ni3  1  0.50000000  0.50000000  0.50000000  1
  O  O4  1  0.69194225  0.23984684  0.82270317  1
  O  O5  1  0.23984684  0.82270317  0.69194225  1
  O  O6  1  0.82270317  0.69194225  0.23984684  1
  O  O7  1  0.76015316  0.17729683  0.30805775  1
  O  O8  1  0.17729683  0.30805775  0.76015316  1
  O  O9  1  0.30805775  0.76015316  0.17729683  1
