# generated using pymatgen
data_Lu4Zr3O12
_symmetry_space_group_name_H-M   'P 1'
_cell_length_a   6.33871192
_cell_length_b   6.39313570
_cell_length_c   6.33403381
_cell_angle_alpha   98.96778974
_cell_angle_beta   99.62327729
_cell_angle_gamma   99.46778831
_symmetry_Int_Tables_number   1
_chemical_formula_structural   Lu4Zr3O12
_chemical_formula_sum   'Lu4 Zr3 O12'
_cell_volume   245.14473644
_cell_formula_units_Z   1
loop_
 _symmetry_equiv_pos_site_id
 _symmetry_equiv_pos_as_xyz
  1  'x, y, z'
loop_
 _atom_site_type_symbol
 _atom_site_label
 _atom_site_symmetry_multiplicity
 _atom_site_fract_x
 _atom_site_fract_y
 _atom_site_fract_z
 _atom_site_occupancy
  Lu  Lu0  1  0.69684770  0.86315052  0.39129308  1
  Lu  Lu1  1  0.86105629  0.39027301  0.68867705  1
  Lu  Lu2  1  0.30315230  0.13684948  0.60870692  1
  Lu  Lu3  1  0.13894371  0.60972699  0.31132295  1
  Zr  Zr4  1  -0.00000000  0.00000000  -0.00000000  1
  Zr  Zr5  1  0.39146849  0.68179429  0.85455524  1
  Zr  Zr6  1  0.60853151  0.31820571  0.14544476  1
  O  O7  1  0.67647087  0.90573222  0.04423653  1
  O  O8  1  0.92457818  0.05926652  0.68228986  1
  O  O9  1  0.07205148  0.68441854  0.91827103  1
  O  O10  1  0.32352913  0.09426778  0.95576347  1
  O  O11  1  0.07542182  0.94073348  0.31771014  1
  O  O12  1  0.92794852  0.31558146  0.08172897  1
  O  O13  1  0.18358504  0.43335014  0.58772304  1
  O  O14  1  0.42734105  0.57281657  0.17433567  1
  O  O15  1  0.57668203  0.17882962  0.41660999  1
  O  O16  1  0.81641496  0.56664986  0.41227696  1
  O  O17  1  0.57265895  0.42718343  0.82566433  1
  O  O18  1  0.42331797  0.82117038  0.58339001  1
