# generated using pymatgen
data_La2(CuNi)5
_symmetry_space_group_name_H-M   'P 1'
_cell_length_a   3.96150464
_cell_length_b   5.10667035
_cell_length_c   8.81185485
_cell_angle_alpha   90.00000862
_cell_angle_beta   90.00000000
_cell_angle_gamma   90.00000000
_symmetry_Int_Tables_number   1
_chemical_formula_structural   La2(CuNi)5
_chemical_formula_sum   'La2 Cu5 Ni5'
_cell_volume   178.26468950
_cell_formula_units_Z   1
loop_
 _symmetry_equiv_pos_site_id
 _symmetry_equiv_pos_as_xyz
  1  'x, y, z'
loop_
 _atom_site_type_symbol
 _atom_site_label
 _atom_site_symmetry_multiplicity
 _atom_site_fract_x
 _atom_site_fract_y
 _atom_site_fract_z
 _atom_site_occupancy
  La  La0  1  0.00000000  0.99996827  1.00000000  1
  La  La1  1  -0.00000000  0.49996309  0.50000000  1
  Cu  Cu2  1  0.00000000  0.99998994  0.33130687  1
  Cu  Cu3  1  -0.00000000  0.49998094  0.83262109  1
  Cu  Cu4  1  0.00000000  0.49998094  0.16737891  1
  Cu  Cu5  1  -0.00000000  0.99998994  0.66869313  1
  Cu  Cu6  1  0.50000000  0.99999523  0.50000000  1
  Ni  Ni7  1  0.50000000  0.49999422  0.00000000  1
  Ni  Ni8  1  0.50000000  0.25175256  0.24913347  1
  Ni  Ni9  1  0.50000000  0.74821615  0.75087609  1
  Ni  Ni10  1  0.50000000  0.74821615  0.24912391  1
  Ni  Ni11  1  0.50000000  0.25175256  0.75086653  1
