# generated using pymatgen
data_LaMgAl11O19
_symmetry_space_group_name_H-M   'P 1'
_cell_length_a   5.64304846
_cell_length_b   5.64447295
_cell_length_c   22.28437423
_cell_angle_alpha   90.00000000
_cell_angle_beta   90.00000000
_cell_angle_gamma   60.00763408
_symmetry_Int_Tables_number   1
_chemical_formula_structural   LaMgAl11O19
_chemical_formula_sum   'La2 Mg2 Al22 O38'
_cell_volume   614.75441238
_cell_formula_units_Z   2
loop_
 _symmetry_equiv_pos_site_id
 _symmetry_equiv_pos_as_xyz
  1  'x, y, z'
loop_
 _atom_site_type_symbol
 _atom_site_label
 _atom_site_symmetry_multiplicity
 _atom_site_fract_x
 _atom_site_fract_y
 _atom_site_fract_z
 _atom_site_occupancy
  La  La0  1  0.66709189  0.66582370  0.75105914  1
  La  La1  1  0.33290811  0.33417630  0.25105914  1
  Mg  Mg2  1  0.33362605  0.33271561  0.52669365  1
  Mg  Mg3  1  0.66637395  0.66728439  0.02669365  1
  Al  Al4  1  0.00013814  0.99970542  0.50286972  1
  Al  Al5  1  0.99986186  0.00029458  0.00286972  1
  Al  Al6  1  0.00018393  0.99963627  0.73734362  1
  Al  Al7  1  0.99981607  0.00036373  0.23734362  1
  Al  Al8  1  0.83389123  0.33221309  0.60737541  1
  Al  Al9  1  0.33378768  0.83239830  0.60735284  1
  Al  Al10  1  0.83381338  0.83239902  0.60735281  1
  Al  Al11  1  0.16824737  0.66349411  0.39162662  1
  Al  Al12  1  0.66242982  0.16935574  0.39157509  1
  Al  Al13  1  0.16820535  0.16935743  0.39157453  1
  Al  Al14  1  0.16610877  0.66778691  0.10737541  1
  Al  Al15  1  0.66621232  0.16760170  0.10735284  1
  Al  Al16  1  0.16618662  0.16760098  0.10735281  1
  Al  Al17  1  0.83175263  0.33650589  0.89162662  1
  Al  Al18  1  0.33757018  0.83064426  0.89157509  1
  Al  Al19  1  0.83179465  0.83064257  0.89157453  1
  Al  Al20  1  0.33373558  0.33253307  0.68854966  1
  Al  Al21  1  0.66627768  0.66742694  0.30954463  1
  Al  Al22  1  0.66626442  0.66746693  0.18854966  1
  Al  Al23  1  0.33372232  0.33257306  0.80954463  1
  Al  Al24  1  0.66658899  0.66680982  0.47422250  1
  Al  Al25  1  0.33341101  0.33319018  0.97422250  1
  O  O26  1  0.18081404  0.63836943  0.74912939  1
  O  O27  1  0.63878816  0.18038348  0.74909565  1
  O  O28  1  0.18082781  0.18037783  0.74909629  1
  O  O29  1  0.81918596  0.36163057  0.24912939  1
  O  O30  1  0.36121184  0.81961652  0.24909565  1
  O  O31  1  0.81917219  0.81962217  0.24909629  1
  O  O32  1  0.00041858  0.99915191  0.65377364  1
  O  O33  1  0.99966106  0.00067288  0.35406499  1
  O  O34  1  0.99958142  0.00084809  0.15377364  1
  O  O35  1  0.00033894  0.99932712  0.85406499  1
  O  O36  1  0.66700213  0.66599423  0.55622406  1
  O  O37  1  0.33306001  0.33386725  0.43766752  1
  O  O38  1  0.33299787  0.33400577  0.05622406  1
  O  O39  1  0.66693999  0.66613275  0.93766752  1
  O  O40  1  0.14807366  0.70385198  0.55645454  1
  O  O41  1  0.70478211  0.14692430  0.55654565  1
  O  O42  1  0.14828482  0.14691440  0.55654659  1
  O  O43  1  0.84328057  0.31343535  0.44894770  1
  O  O44  1  0.31319297  0.84383766  0.44885018  1
  O  O45  1  0.84296325  0.84383199  0.44885083  1
  O  O46  1  0.85192634  0.29614802  0.05645454  1
  O  O47  1  0.29521789  0.85307570  0.05654565  1
  O  O48  1  0.85171518  0.85308560  0.05654659  1
  O  O49  1  0.15671943  0.68656465  0.94894770  1
  O  O50  1  0.68680703  0.15616234  0.94885018  1
  O  O51  1  0.15703675  0.15616801  0.94885083  1
  O  O52  1  0.50759006  0.98482486  0.65164137  1
  O  O53  1  0.98671603  0.50594718  0.65148360  1
  O  O54  1  0.50733947  0.50594924  0.65148511  1
  O  O55  1  0.49515428  0.00968250  0.34752430  1
  O  O56  1  0.00773695  0.49674794  0.34773928  1
  O  O57  1  0.49550509  0.49674637  0.34773911  1
  O  O58  1  0.49240994  0.01517514  0.15164137  1
  O  O59  1  0.01328397  0.49405282  0.15148360  1
  O  O60  1  0.49266053  0.49405076  0.15148511  1
  O  O61  1  0.50484572  0.99031750  0.84752430  1
  O  O62  1  0.99226305  0.50325206  0.84773928  1
  O  O63  1  0.50449491  0.50325363  0.84773911  1
