# generated using pymatgen
data_KZrCuTe3
_symmetry_space_group_name_H-M   'P 1'
_cell_length_a   4.20593633
_cell_length_b   8.13900816
_cell_length_c   11.13107479
_cell_angle_alpha   90.00000000
_cell_angle_beta   90.00000000
_cell_angle_gamma   75.02595940
_symmetry_Int_Tables_number   1
_chemical_formula_structural   KZrCuTe3
_chemical_formula_sum   'K2 Zr2 Cu2 Te6'
_cell_volume   368.10162386
_cell_formula_units_Z   2
loop_
 _symmetry_equiv_pos_site_id
 _symmetry_equiv_pos_as_xyz
  1  'x, y, z'
loop_
 _atom_site_type_symbol
 _atom_site_label
 _atom_site_symmetry_multiplicity
 _atom_site_fract_x
 _atom_site_fract_y
 _atom_site_fract_z
 _atom_site_occupancy
  K  K0  1  0.24661059  0.50677882  0.25021584  1
  K  K1  1  0.75338941  0.49322118  0.75021584  1
  Zr  Zr2  1  0.99659595  0.00680810  0.47249090  1
  Zr  Zr3  1  0.00340405  0.99319190  0.97249090  1
  Cu  Cu4  1  0.53179634  0.93640732  0.25994050  1
  Cu  Cu5  1  0.46820366  0.06359268  0.75994050  1
  Te  Te6  1  0.62689896  0.74620208  0.44983768  1
  Te  Te7  1  0.37833751  0.24332497  0.55528397  1
  Te  Te8  1  0.62166249  0.75667503  0.05528397  1
  Te  Te9  1  0.37310104  0.25379792  0.94983768  1
  Te  Te10  1  0.93175710  0.13648580  0.23614111  1
  Te  Te11  1  0.06824290  0.86351420  0.73614111  1
