# generated using pymatgen
data_Mg2Al2SiH4O9
_symmetry_space_group_name_H-M   'P 1'
_cell_length_a   5.36122005
_cell_length_b   5.35783365
_cell_length_c   14.12164001
_cell_angle_alpha   90.29329231
_cell_angle_beta   90.26794184
_cell_angle_gamma   60.10124988
_symmetry_Int_Tables_number   1
_chemical_formula_structural   Mg2Al2SiH4O9
_chemical_formula_sum   'Mg4 Al4 Si2 H8 O18'
_cell_volume   351.64449416
_cell_formula_units_Z   2
loop_
 _symmetry_equiv_pos_site_id
 _symmetry_equiv_pos_as_xyz
  1  'x, y, z'
loop_
 _atom_site_type_symbol
 _atom_site_label
 _atom_site_symmetry_multiplicity
 _atom_site_fract_x
 _atom_site_fract_y
 _atom_site_fract_z
 _atom_site_occupancy
  Mg  Mg0  1  0.31682460  0.68358675  0.26372981  1
  Mg  Mg1  1  0.66890259  0.33475533  0.76301957  1
  Mg  Mg2  1  0.98808225  0.35276934  0.26299842  1
  Mg  Mg3  1  0.99789826  0.66493031  0.76234257  1
  Al  Al4  1  0.32012181  0.34595382  0.45954661  1
  Al  Al5  1  0.67089916  0.67509731  0.95915961  1
  Al  Al6  1  0.64419527  0.02635439  0.26430665  1
  Al  Al7  1  0.34167908  0.99148153  0.76418230  1
  Si  Si8  1  0.97697015  0.01639504  0.46176028  1
  Si  Si9  1  0.01381395  0.00500395  0.96148866  1
  H  H10  1  0.67782981  0.31725662  0.12498327  1
  H  H11  1  0.03718382  0.28496112  0.62529754  1
  H  H12  1  0.33511147  0.30494195  0.90441071  1
  H  H13  1  0.65083542  0.72199417  0.40489862  1
  H  H14  1  0.64363352  0.01912687  0.62462907  1
  H  H15  1  0.30785409  0.70013867  0.62458645  1
  H  H16  1  0.34201089  0.99516608  0.12503186  1
  H  H17  1  0.94879707  0.73237315  0.12568558  1
  O  O18  1  0.65192308  0.71127839  0.33612838  1
  O  O19  1  0.02858439  0.99821824  0.84334608  1
  O  O20  1  0.03044980  0.29847670  0.69532823  1
  O  O21  1  0.77845454  0.32602526  0.99950502  1
  O  O22  1  0.64513645  0.00087166  0.69449560  1
  O  O23  1  0.34180250  0.33020426  0.33498479  1
  O  O24  1  0.91931961  0.77607725  0.99928536  1
  O  O25  1  0.32909582  0.68952690  0.69423691  1
  O  O26  1  0.65549033  0.32752403  0.19456121  1
  O  O27  1  0.33521730  0.30940647  0.83555217  1
  O  O28  1  0.64604301  0.68918446  0.83455608  1
  O  O29  1  0.95956362  0.02152121  0.34371831  1
  O  O30  1  0.66203675  0.10067594  0.50549278  1
  O  O31  1  0.95446327  0.71777074  0.19565743  1
  O  O32  1  0.07072480  0.24717829  0.49950974  1
  O  O33  1  0.21510302  0.69608573  0.49935062  1
  O  O34  1  0.32976253  0.91898911  0.00534951  1
  O  O35  1  0.33948599  0.01529894  0.19498420  1
