# generated using pymatgen
data_LaCeNi10
_symmetry_space_group_name_H-M   'P 1'
_cell_length_a   3.96955922
_cell_length_b   4.91602660
_cell_length_c   8.51295241
_cell_angle_alpha   89.99999215
_cell_angle_beta   90.00000000
_cell_angle_gamma   90.00000000
_symmetry_Int_Tables_number   1
_chemical_formula_structural   LaCeNi10
_chemical_formula_sum   'La1 Ce1 Ni10'
_cell_volume   166.12565824
_cell_formula_units_Z   1
loop_
 _symmetry_equiv_pos_site_id
 _symmetry_equiv_pos_as_xyz
  1  'x, y, z'
loop_
 _atom_site_type_symbol
 _atom_site_label
 _atom_site_symmetry_multiplicity
 _atom_site_fract_x
 _atom_site_fract_y
 _atom_site_fract_z
 _atom_site_occupancy
  La  La0  1  -0.00000000  0.49998995  0.50000000  1
  Ce  Ce1  1  -0.00000000  0.99996404  1.00000000  1
  Ni  Ni2  1  -0.00000000  0.99998841  0.32572953  1
  Ni  Ni3  1  -0.00000000  0.49997762  0.83917165  1
  Ni  Ni4  1  0.00000000  0.49997762  0.16082835  1
  Ni  Ni5  1  0.00000000  0.99998841  0.67427047  1
  Ni  Ni6  1  0.50000000  -0.00000289  0.50000000  1
  Ni  Ni7  1  0.50000000  0.49999081  0.00000000  1
  Ni  Ni8  1  0.50000000  0.24719926  0.24500773  1
  Ni  Ni9  1  0.50000000  0.75276376  0.75499380  1
  Ni  Ni10  1  0.50000000  0.75276376  0.24500620  1
  Ni  Ni11  1  0.50000000  0.24719926  0.75499227  1
