# generated using pymatgen
data_KCo2H3(SeO5)2
_symmetry_space_group_name_H-M   'P 1'
_cell_length_a   5.65819987
_cell_length_b   5.65819987
_cell_length_c   7.92950551
_cell_angle_alpha   70.55260132
_cell_angle_beta   70.55260132
_cell_angle_gamma   71.65721372
_symmetry_Int_Tables_number   1
_chemical_formula_structural   KCo2H3(SeO5)2
_chemical_formula_sum   'K1 Co2 H3 Se2 O10'
_cell_volume   219.71160292
_cell_formula_units_Z   1
loop_
 _symmetry_equiv_pos_site_id
 _symmetry_equiv_pos_as_xyz
  1  'x, y, z'
loop_
 _atom_site_type_symbol
 _atom_site_label
 _atom_site_symmetry_multiplicity
 _atom_site_fract_x
 _atom_site_fract_y
 _atom_site_fract_z
 _atom_site_occupancy
  K  K0  1  0.50030796  0.50030796  0.50090826  1
  Co  Co1  1  0.99201695  0.50092065  0.99741093  1
  Co  Co2  1  0.50092065  0.99201695  0.99741093  1
  H  H3  1  0.30887774  0.30887774  0.21628245  1
  H  H4  1  0.67610259  0.67610259  0.79555381  1
  H  H5  1  0.47359835  0.47359835  0.02045082  1
  Se  Se6  1  0.92042892  0.92042892  0.27858022  1
  Se  Se7  1  0.07834932  0.07834932  0.72433110  1
  O  O8  1  0.80676548  0.80676548  0.15297544  1
  O  O9  1  0.19415914  0.19415914  0.84806861  1
  O  O10  1  0.80101248  0.80101248  0.49960485  1
  O  O11  1  0.19764039  0.19764039  0.50255259  1
  O  O12  1  0.24485240  0.82396167  0.22411420  1
  O  O13  1  0.82396167  0.24485240  0.22411420  1
  O  O14  1  0.75455637  0.17639055  0.77999434  1
  O  O15  1  0.17639055  0.75455637  0.77999434  1
  O  O16  1  0.34557352  0.34557352  0.08092749  1
  O  O17  1  0.64848554  0.64848554  0.92872542  1
