# generated using pymatgen
data_KH2(IO3)3
_symmetry_space_group_name_H-M   'P 1'
_cell_length_a   8.33164604
_cell_length_b   8.33326381
_cell_length_c   8.32209672
_cell_angle_alpha   85.94850248
_cell_angle_beta   60.35619674
_cell_angle_gamma   66.62896913
_symmetry_Int_Tables_number   1
_chemical_formula_structural   KH2(IO3)3
_chemical_formula_sum   'K2 H4 I6 O18'
_cell_volume   455.23250656
_cell_formula_units_Z   2
loop_
 _symmetry_equiv_pos_site_id
 _symmetry_equiv_pos_as_xyz
  1  'x, y, z'
loop_
 _atom_site_type_symbol
 _atom_site_label
 _atom_site_symmetry_multiplicity
 _atom_site_fract_x
 _atom_site_fract_y
 _atom_site_fract_z
 _atom_site_occupancy
  K  K0  1  0.51621100  0.27849191  0.72317631  1
  K  K1  1  0.48496005  0.72018265  0.27674836  1
  H  H2  1  0.27345623  0.47167124  0.36204984  1
  H  H3  1  0.72730675  0.52569271  0.63823703  1
  H  H4  1  0.49040752  0.01854771  0.03123438  1
  H  H5  1  0.98712488  0.51808407  0.97780745  1
  I  I6  1  0.91180541  0.80138421  0.30180231  1
  I  I7  1  0.08839710  0.19586220  0.69340086  1
  I  I8  1  0.43743502  0.81617960  0.81583233  1
  I  I9  1  0.57512319  0.18767328  0.19030406  1
  I  I10  1  0.97940765  0.27202190  0.23693106  1
  I  I11  1  0.02124625  0.74035696  0.75854032  1
  O  O12  1  0.04810422  0.45137157  0.12244217  1
  O  O13  1  0.94117799  0.55581990  0.87953796  1
  O  O14  1  0.27937853  0.81353356  0.06263038  1
  O  O15  1  0.72198502  0.18531951  0.94140997  1
  O  O16  1  0.90847569  0.34285587  0.47502893  1
  O  O17  1  0.08506054  0.65644058  0.52872092  1
  O  O18  1  0.84299610  0.86973238  0.11669547  1
  O  O19  1  0.15475967  0.13356417  0.87804931  1
  O  O20  1  0.72465964  0.35664319  0.26320083  1
  O  O21  1  0.27035078  0.64131170  0.73612898  1
  O  O22  1  0.68133991  0.77029248  0.46335372  1
  O  O23  1  0.31971362  0.22621376  0.52994120  1
  O  O24  1  0.62273798  0.57228418  0.77521195  1
  O  O25  1  0.38026364  0.42497276  0.22587545  1
  O  O26  1  0.58452693  0.92051547  0.84063724  1
  O  O27  1  0.41716238  0.08007185  0.16938335  1
  O  O28  1  0.84173483  0.02147325  0.40461775  1
  O  O29  1  0.15569147  0.97343538  0.59507011  1
