# generated using pymatgen
data_KBP2PbO8
_symmetry_space_group_name_H-M   'P 1'
_cell_length_a   7.16414020
_cell_length_b   7.16414020
_cell_length_c   8.95088405
_cell_angle_alpha   64.86451497
_cell_angle_beta   67.28900420
_cell_angle_gamma   89.25121423
_symmetry_Int_Tables_number   1
_chemical_formula_structural   KBP2PbO8
_chemical_formula_sum   'K2 B2 P4 Pb2 O16'
_cell_volume   377.33598922
_cell_formula_units_Z   2
loop_
 _symmetry_equiv_pos_site_id
 _symmetry_equiv_pos_as_xyz
  1  'x, y, z'
loop_
 _atom_site_type_symbol
 _atom_site_label
 _atom_site_symmetry_multiplicity
 _atom_site_fract_x
 _atom_site_fract_y
 _atom_site_fract_z
 _atom_site_occupancy
  K  K0  1  0.37345442  0.48897542  0.74588681  1
  K  K1  1  0.51513778  0.13065877  0.24588681  1
  B  B2  1  0.73393405  0.23583742  0.50018724  1
  B  B3  1  0.01397534  0.01587871  0.00018724  1
  P  P4  1  0.88339376  0.28595838  0.73471259  1
  P  P5  1  0.36813929  0.96349747  0.75851366  1
  P  P6  1  0.72932903  0.63189365  0.23471259  1
  P  P7  1  0.02798888  0.12334706  0.25851366  1
  Pb  Pb8  1  0.84242360  0.74465531  0.78146273  1
  Pb  Pb9  1  0.22388196  0.62611366  0.28146273  1
  O  O10  1  0.08706301  0.44358458  0.61504548  1
  O  O11  1  0.70884816  0.38257090  0.82085588  1
  O  O12  1  0.23679613  0.87284114  0.69831490  1
  O  O13  1  0.49372066  0.81072077  0.84054834  1
  O  O14  1  0.54657321  0.72029596  0.32085588  1
  O  O15  1  0.17884396  0.31488896  0.19831490  1
  O  O16  1  0.09873089  0.91573099  0.34054834  1
  O  O17  1  0.69136994  0.54789152  0.11504548  1
  O  O18  1  0.83699745  0.18552445  0.62332595  1
  O  O19  1  0.90143885  0.07516801  0.88460981  1
  O  O20  1  0.50950441  0.17973336  0.59541892  1
  O  O21  1  0.23782217  0.04446875  0.90111769  1
  O  O22  1  0.79022218  0.46395135  0.38460981  1
  O  O23  1  0.97484773  0.14507668  0.09541892  1
  O  O24  1  0.80441356  0.11106014  0.40111769  1
  O  O25  1  0.94114960  0.78967659  0.12332595  1
