# generated using pymatgen
data_KBaV3Cd2O11
_symmetry_space_group_name_H-M   'P 1'
_cell_length_a   7.10960687
_cell_length_b   10.60699342
_cell_length_c   15.56414462
_cell_angle_alpha   94.76650519
_cell_angle_beta   90.00000000
_cell_angle_gamma   90.00000000
_symmetry_Int_Tables_number   1
_chemical_formula_structural   KBaV3Cd2O11
_chemical_formula_sum   'K4 Ba4 V12 Cd8 O44'
_cell_volume   1169.65714804
_cell_formula_units_Z   4
loop_
 _symmetry_equiv_pos_site_id
 _symmetry_equiv_pos_as_xyz
  1  'x, y, z'
loop_
 _atom_site_type_symbol
 _atom_site_label
 _atom_site_symmetry_multiplicity
 _atom_site_fract_x
 _atom_site_fract_y
 _atom_site_fract_z
 _atom_site_occupancy
  K  K0  1  0.44000396  0.13003277  0.65306014  1
  K  K1  1  0.05999604  0.63003277  0.15306014  1
  K  K2  1  0.55999604  0.86996723  0.34693986  1
  K  K3  1  0.94000396  0.36996723  0.84693986  1
  Ba  Ba4  1  0.45803790  0.31616729  0.03761649  1
  Ba  Ba5  1  0.04196210  0.81616729  0.53761649  1
  Ba  Ba6  1  0.54196210  0.68383271  0.96238351  1
  Ba  Ba7  1  0.95803790  0.18383271  0.46238351  1
  V  V8  1  0.65696586  0.01888375  0.86263116  1
  V  V9  1  0.84303414  0.51888375  0.36263116  1
  V  V10  1  0.34303414  0.98111625  0.13736884  1
  V  V11  1  0.15696586  0.48111625  0.63736884  1
  V  V12  1  0.97059860  0.04438770  0.72195664  1
  V  V13  1  0.52940140  0.54438770  0.22195664  1
  V  V14  1  0.02940140  0.95561230  0.27804336  1
  V  V15  1  0.47059860  0.45561230  0.77804336  1
  V  V16  1  0.53883208  0.79851824  0.56263659  1
  V  V17  1  0.96116792  0.29851824  0.06263659  1
  V  V18  1  0.46116792  0.20148176  0.43736341  1
  V  V19  1  0.03883208  0.70148176  0.93736341  1
  Cd  Cd20  1  0.16936565  0.03561963  0.92289947  1
  Cd  Cd21  1  0.33063435  0.53561963  0.42289947  1
  Cd  Cd22  1  0.83063435  0.96438037  0.07710053  1
  Cd  Cd23  1  0.66936565  0.46438037  0.57710053  1
  Cd  Cd24  1  0.77383217  0.71481826  0.74338016  1
  Cd  Cd25  1  0.72616783  0.21481826  0.24338016  1
  Cd  Cd26  1  0.22616783  0.28518174  0.25661984  1
  Cd  Cd27  1  0.27383217  0.78518174  0.75661984  1
  O  O28  1  0.69318388  0.68367635  0.60438151  1
  O  O29  1  0.80681612  0.18367635  0.10438151  1
  O  O30  1  0.30681612  0.31632365  0.39561849  1
  O  O31  1  0.19318388  0.81632365  0.89561849  1
  O  O32  1  0.15315598  0.10035823  0.78608635  1
  O  O33  1  0.34684402  0.60035823  0.28608635  1
  O  O34  1  0.84684402  0.89964177  0.21391365  1
  O  O35  1  0.65315598  0.39964177  0.71391365  1
  O  O36  1  0.74682418  0.10212195  0.77207246  1
  O  O37  1  0.75317582  0.60212195  0.27207246  1
  O  O38  1  0.25317582  0.89787805  0.22792754  1
  O  O39  1  0.24682418  0.39787805  0.72792754  1
  O  O40  1  0.84217277  0.99974105  0.93153966  1
  O  O41  1  0.65782723  0.49974105  0.43153966  1
  O  O42  1  0.15782723  0.00025895  0.06846034  1
  O  O43  1  0.34217277  0.50025895  0.56846034  1
  O  O44  1  0.00558795  0.08318069  0.61975158  1
  O  O45  1  0.49441205  0.58318069  0.11975158  1
  O  O46  1  0.99441205  0.91681931  0.38024842  1
  O  O47  1  0.50558795  0.41681931  0.88024842  1
  O  O48  1  0.57875802  0.87082555  0.82274364  1
  O  O49  1  0.92124198  0.37082555  0.32274364  1
  O  O50  1  0.42124198  0.12917445  0.17725636  1
  O  O51  1  0.07875802  0.62917445  0.67725636  1
  O  O52  1  0.97410490  0.87907838  0.71934654  1
  O  O53  1  0.52589510  0.37907838  0.21934654  1
  O  O54  1  0.02589510  0.12092162  0.28065346  1
  O  O55  1  0.47410490  0.62092162  0.78065346  1
  O  O56  1  0.68164509  0.91253220  0.52841366  1
  O  O57  1  0.81835491  0.41253220  0.02841366  1
  O  O58  1  0.31835491  0.08746780  0.47158634  1
  O  O59  1  0.18164509  0.58746780  0.97158634  1
  O  O60  1  0.48033752  0.09991080  0.91858626  1
  O  O61  1  0.01966248  0.59991080  0.41858626  1
  O  O62  1  0.51966248  0.90008920  0.08141374  1
  O  O63  1  0.98033752  0.40008920  0.58141374  1
  O  O64  1  0.40250311  0.73891934  0.47584199  1
  O  O65  1  0.09749689  0.23891934  0.97584199  1
  O  O66  1  0.59749689  0.26108066  0.52415801  1
  O  O67  1  0.90250311  0.76108066  0.02415801  1
  O  O68  1  0.37667874  0.86485585  0.63910969  1
  O  O69  1  0.12332126  0.36485585  0.13910969  1
  O  O70  1  0.62332126  0.13514415  0.36089031  1
  O  O71  1  0.87667874  0.63514415  0.86089031  1
