# generated using pymatgen
data_K6Zn4Sn5S17
_symmetry_space_group_name_H-M   'P 1'
_cell_length_a   9.88150589
_cell_length_b   11.08091098
_cell_length_c   11.07256421
_cell_angle_alpha   101.62150106
_cell_angle_beta   116.50114805
_cell_angle_gamma   63.16304477
_symmetry_Int_Tables_number   1
_chemical_formula_structural   K6Zn4Sn5S17
_chemical_formula_sum   'K6 Zn4 Sn5 S17'
_cell_volume   968.14860461
_cell_formula_units_Z   1
loop_
 _symmetry_equiv_pos_site_id
 _symmetry_equiv_pos_as_xyz
  1  'x, y, z'
loop_
 _atom_site_type_symbol
 _atom_site_label
 _atom_site_symmetry_multiplicity
 _atom_site_fract_x
 _atom_site_fract_y
 _atom_site_fract_z
 _atom_site_occupancy
  K  K0  1  0.75030513  0.50000000  0.50061025  1
  K  K1  1  0.58350434  0.00000000  0.16700868  1
  K  K2  1  0.49019948  0.01820855  0.50436447  1
  K  K3  1  0.01416499  0.98179145  0.50436447  1
  K  K4  1  0.49064076  0.50000000  0.98128152  1
  K  K5  1  0.00837887  0.50000000  0.01675775  1
  Zn  Zn6  1  0.38715780  0.63790155  0.63825237  1
  Zn  Zn7  1  0.38695800  0.36346307  0.36279825  1
  Zn  Zn8  1  0.25109457  0.36209845  0.63825237  1
  Zn  Zn9  1  0.97584026  0.63653693  0.36279825  1
  Sn  Sn10  1  0.99885519  0.00000000  0.99771038  1
  Sn  Sn11  1  0.25068431  0.72342932  0.27790587  1
  Sn  Sn12  1  0.69485662  0.27694824  0.72300844  1
  Sn  Sn13  1  0.02815182  0.72305176  0.72300844  1
  Sn  Sn14  1  0.02722156  0.27657068  0.27790587  1
  S  S15  1  0.39370877  0.77760315  0.50681147  1
  S  S16  1  0.66479114  0.22145783  0.49133331  1
  S  S17  1  0.39312323  0.49313367  0.22198536  1
  S  S18  1  0.66495653  0.50637893  0.77635571  1
  S  S19  1  0.11139918  0.49362107  0.77635571  1
  S  S20  1  0.82886213  0.50686633  0.22198536  1
  S  S21  1  0.82654217  0.77854217  0.49133331  1
  S  S22  1  0.11310269  0.22239685  0.50681147  1
  S  S23  1  0.28325494  0.85644316  0.14364478  1
  S  S24  1  0.99555785  0.14394616  0.85632604  1
  S  S25  1  0.86076819  0.85605384  0.85632604  1
  S  S26  1  0.86038984  0.14355684  0.14364478  1
  S  S27  1  0.96285864  0.77900452  0.22088105  1
  S  S28  1  0.52233407  0.22074441  0.77847240  1
  S  S29  1  0.25613834  0.77925559  0.77847240  1
  S  S30  1  0.25802241  0.22099548  0.22088105  1
  S  S31  1  0.24997620  0.50000000  0.49995240  1
