# generated using pymatgen
data_KNd9(Si3O13)2
_symmetry_space_group_name_H-M   'P 1'
_cell_length_a   7.16388134
_cell_length_b   9.65321621
_cell_length_c   9.65319324
_cell_angle_alpha   120.00028355
_cell_angle_beta   90.00030794
_cell_angle_gamma   89.99993997
_symmetry_Int_Tables_number   1
_chemical_formula_structural   KNd9(Si3O13)2
_chemical_formula_sum   'K1 Nd9 Si6 O26'
_cell_volume   578.12374573
_cell_formula_units_Z   1
loop_
 _symmetry_equiv_pos_site_id
 _symmetry_equiv_pos_as_xyz
  1  'x, y, z'
loop_
 _atom_site_type_symbol
 _atom_site_label
 _atom_site_symmetry_multiplicity
 _atom_site_fract_x
 _atom_site_fract_y
 _atom_site_fract_z
 _atom_site_occupancy
  K  K0  1  0.00495470  0.33333330  0.66666809  1
  Nd  Nd1  1  0.25450675  0.76831712  0.01017346  1
  Nd  Nd2  1  0.25450911  0.98982210  0.75814349  1
  Nd  Nd3  1  0.25451076  0.24185495  0.23167996  1
  Nd  Nd4  1  0.75849165  0.23302447  0.98761215  1
  Nd  Nd5  1  0.75848684  0.01239086  0.24541108  1
  Nd  Nd6  1  0.75849149  0.75459090  0.76697918  1
  Nd  Nd7  1  0.50567593  0.33333359  0.66666313  1
  Nd  Nd8  1  0.00391539  0.66666256  0.33333274  1
  Nd  Nd9  1  0.50431364  0.66667160  0.33333846  1
  Si  Si10  1  0.26062136  0.02794974  0.39706144  1
  Si  Si11  1  0.26062757  0.60294268  0.63089345  1
  Si  Si12  1  0.26062946  0.36911090  0.97204754  1
  Si  Si13  1  0.74927177  0.96738091  0.60098268  1
  Si  Si14  1  0.74926554  0.39901784  0.36639780  1
  Si  Si15  1  0.74926251  0.63360021  0.03261686  1
  O  O16  1  0.25947197  0.99999949  -0.00000019  1
  O  O17  1  0.75711800  0.00000085  0.99999800  1
  O  O18  1  0.25398954  0.83068093  0.31780807  1
  O  O19  1  0.25399295  0.68219413  0.51287158  1
  O  O20  1  0.25399772  0.48713442  0.16932312  1
  O  O21  1  0.73589567  0.15994600  0.69041123  1
  O  O22  1  0.73589808  0.30959024  0.46953744  1
  O  O23  1  0.73588861  0.53045850  0.84005246  1
  O  O24  1  0.44153133  0.08663808  0.33380722  1
  O  O25  1  0.44153249  0.66620615  0.75283976  1
  O  O26  1  0.44153529  0.24716264  0.91336223  1
  O  O27  1  0.93905539  0.90365629  0.65025606  1
  O  O28  1  0.93905696  0.34974294  0.25339838  1
  O  O29  1  0.93905368  0.74659840  0.09633998  1
  O  O30  1  0.07976176  0.08152610  0.32897578  1
  O  O31  1  0.07975866  0.67101489  0.75254693  1
  O  O32  1  0.07976093  0.24745632  0.91847464  1
  O  O33  1  0.56851913  0.89193294  0.64758294  1
  O  O34  1  0.56851354  0.35241174  0.24434768  1
  O  O35  1  0.56851377  0.75565084  0.10806766  1
  O  O36  1  0.27928064  0.11458968  0.59137384  1
  O  O37  1  0.27929144  0.40862464  0.52321379  1
  O  O38  1  0.27929218  0.47678259  0.88540832  1
  O  O39  1  0.75372375  0.87344506  0.40327831  1
  O  O40  1  0.75371618  0.59672063  0.47016623  1
  O  O41  1  0.75371588  0.52983179  0.12655707  1
