# generated using pymatgen
data_K(SiPt)4
_symmetry_space_group_name_H-M   'P 1'
_cell_length_a   4.64243404
_cell_length_b   6.43255082
_cell_length_c   6.43255082
_cell_angle_alpha   97.48208309
_cell_angle_beta   111.15269854
_cell_angle_gamma   68.84730146
_symmetry_Int_Tables_number   1
_chemical_formula_structural   K(SiPt)4
_chemical_formula_sum   'K1 Si4 Pt4'
_cell_volume   167.07964055
_cell_formula_units_Z   1
loop_
 _symmetry_equiv_pos_site_id
 _symmetry_equiv_pos_as_xyz
  1  'x, y, z'
loop_
 _atom_site_type_symbol
 _atom_site_label
 _atom_site_symmetry_multiplicity
 _atom_site_fract_x
 _atom_site_fract_y
 _atom_site_fract_z
 _atom_site_occupancy
  K  K0  1  0.29863332  1.00000000  0.00000000  1
  Si  Si1  1  0.11388109  0.50063184  0.72814068  1
  Si  Si2  1  0.88637225  0.49936816  0.27185932  1
  Si  Si3  1  0.61451293  0.27185932  0.50063184  1
  Si  Si4  1  0.38574041  0.72814068  0.49936816  1
  Pt  Pt5  1  0.32523915  0.50204514  0.15209345  1
  Pt  Pt6  1  0.67519084  0.49795486  0.84790655  1
  Pt  Pt7  1  0.82728430  0.84790655  0.50204514  1
  Pt  Pt8  1  0.17314570  0.15209345  0.49795486  1
