# generated using pymatgen
data_Ho2As7Rh12
_symmetry_space_group_name_H-M   'P 1'
_cell_length_a   3.92389876
_cell_length_b   10.01771112
_cell_length_c   10.01536964
_cell_angle_alpha   119.99141106
_cell_angle_beta   90.00117125
_cell_angle_gamma   90.00053293
_symmetry_Int_Tables_number   1
_chemical_formula_structural   Ho2As7Rh12
_chemical_formula_sum   'Ho2 As7 Rh12'
_cell_volume   340.97417897
_cell_formula_units_Z   1
loop_
 _symmetry_equiv_pos_site_id
 _symmetry_equiv_pos_as_xyz
  1  'x, y, z'
loop_
 _atom_site_type_symbol
 _atom_site_label
 _atom_site_symmetry_multiplicity
 _atom_site_fract_x
 _atom_site_fract_y
 _atom_site_fract_z
 _atom_site_occupancy
  Ho  Ho0  1  0.74937584  0.33326354  0.66660231  1
  Ho  Ho1  1  0.25062416  0.66673646  0.33339769  1
  As  As2  1  0.50000000  -0.00000000  -0.00000000  1
  As  As3  1  0.75108637  0.88161321  0.59454363  1
  As  As4  1  0.75162078  0.40570782  0.28704397  1
  As  As5  1  0.75169731  0.71295105  0.11852665  1
  As  As6  1  0.24891363  0.11838679  0.40545637  1
  As  As7  1  0.24837922  0.59429218  0.71295603  1
  As  As8  1  0.24830269  0.28704895  0.88147335  1
  Rh  Rh9  1  0.75103932  0.61799331  0.55083143  1
  Rh  Rh10  1  0.75076757  0.44906827  0.06711403  1
  Rh  Rh11  1  0.75105967  0.93218431  0.38178245  1
  Rh  Rh12  1  0.24896068  0.38200669  0.44916857  1
  Rh  Rh13  1  0.24923243  0.55093173  0.93288597  1
  Rh  Rh14  1  0.24894033  0.06781569  0.61821755  1
  Rh  Rh15  1  0.75086424  0.11442586  0.85091378  1
  Rh  Rh16  1  0.75137491  0.14970862  0.26404741  1
  Rh  Rh17  1  0.75104818  0.73644396  0.88553876  1
  Rh  Rh18  1  0.24913576  0.88557414  0.14908622  1
  Rh  Rh19  1  0.24862509  0.85029138  0.73595259  1
  Rh  Rh20  1  0.24895182  0.26355604  0.11446124  1
