# generated using pymatgen
data_Hf2Ga3Cu
_symmetry_space_group_name_H-M   'P 1'
_cell_length_a   4.14166986
_cell_length_b   5.36481151
_cell_length_c   5.39196037
_cell_angle_alpha   91.22263288
_cell_angle_beta   112.58538052
_cell_angle_gamma   67.29395971
_symmetry_Int_Tables_number   1
_chemical_formula_structural   Hf2Ga3Cu
_chemical_formula_sum   'Hf2 Ga3 Cu1'
_cell_volume   100.90513591
_cell_formula_units_Z   1
loop_
 _symmetry_equiv_pos_site_id
 _symmetry_equiv_pos_as_xyz
  1  'x, y, z'
loop_
 _atom_site_type_symbol
 _atom_site_label
 _atom_site_symmetry_multiplicity
 _atom_site_fract_x
 _atom_site_fract_y
 _atom_site_fract_z
 _atom_site_occupancy
  Hf  Hf0  1  0.74357682  0.71406135  0.20121499  1
  Hf  Hf1  1  0.24744233  0.29718828  0.79207294  1
  Ga  Ga2  1  0.46523388  0.68435212  0.61481989  1
  Ga  Ga3  1  0.03645416  0.13684755  0.20975586  1
  Ga  Ga4  1  0.95493098  0.88591637  0.79577832  1
  Cu  Cu5  1  0.55236183  0.28163433  0.38635800  1
