# generated using pymatgen
data_Ho2Mn(GeO3)4
_symmetry_space_group_name_H-M   'P 1'
_cell_length_a   5.02015694
_cell_length_b   10.01356711
_cell_length_c   10.01356711
_cell_angle_alpha   90.57215276
_cell_angle_beta   90.00000000
_cell_angle_gamma   90.00000000
_symmetry_Int_Tables_number   1
_chemical_formula_structural   Ho2Mn(GeO3)4
_chemical_formula_sum   'Ho4 Mn2 Ge8 O24'
_cell_volume   503.35370020
_cell_formula_units_Z   2
loop_
 _symmetry_equiv_pos_site_id
 _symmetry_equiv_pos_as_xyz
  1  'x, y, z'
loop_
 _atom_site_type_symbol
 _atom_site_label
 _atom_site_symmetry_multiplicity
 _atom_site_fract_x
 _atom_site_fract_y
 _atom_site_fract_z
 _atom_site_occupancy
  Ho  Ho0  1  0.50000000  -0.00000000  0.50000000  1
  Ho  Ho1  1  0.50000000  0.50000000  -0.00000000  1
  Ho  Ho2  1  0.50000000  0.75000000  0.75000000  1
  Ho  Ho3  1  0.50000000  0.25000000  0.25000000  1
  Mn  Mn4  1  0.50000000  0.50000000  0.50000000  1
  Mn  Mn5  1  0.50000000  -0.00000000  -0.00000000  1
  Ge  Ge6  1  0.99645586  0.74687000  0.47854682  1
  Ge  Ge7  1  0.00354414  0.25313000  0.52145318  1
  Ge  Ge8  1  0.00354414  0.24687000  0.97854682  1
  Ge  Ge9  1  0.99645586  0.75313000  0.02145318  1
  Ge  Ge10  1  0.00354414  0.47854682  0.74687000  1
  Ge  Ge11  1  0.99645586  0.52145318  0.25313000  1
  Ge  Ge12  1  0.99645586  0.97854682  0.24687000  1
  Ge  Ge13  1  0.00354414  0.02145318  0.75313000  1
  O  O14  1  0.26116287  0.56388927  0.66863533  1
  O  O15  1  0.25370838  0.06295120  0.32979411  1
  O  O16  1  0.25370838  0.43704880  0.17020589  1
  O  O17  1  0.26116287  0.93611073  0.83136467  1
  O  O18  1  0.73883713  0.43611073  0.33136467  1
  O  O19  1  0.74629162  0.93704880  0.67020589  1
  O  O20  1  0.74629162  0.56295120  0.82979411  1
  O  O21  1  0.73883713  0.06388927  0.16863533  1
  O  O22  1  0.73883713  0.66863533  0.56388927  1
  O  O23  1  0.74629162  0.32979411  0.06295120  1
  O  O24  1  0.74629162  0.17020589  0.43704880  1
  O  O25  1  0.73883713  0.83136467  0.93611073  1
  O  O26  1  0.26116287  0.33136467  0.43611073  1
  O  O27  1  0.25370838  0.67020589  0.93704880  1
  O  O28  1  0.25370838  0.82979411  0.56295120  1
  O  O29  1  0.26116287  0.16863533  0.06388927  1
  O  O30  1  0.83128628  0.36928760  0.63071240  1
  O  O31  1  0.83100328  0.87246941  0.37246941  1
  O  O32  1  0.83100328  0.62753059  0.12753059  1
  O  O33  1  0.83128628  0.13071240  0.86928760  1
  O  O34  1  0.16871372  0.63071240  0.36928760  1
  O  O35  1  0.16899672  0.12753059  0.62753059  1
  O  O36  1  0.16899672  0.37246941  0.87246941  1
  O  O37  1  0.16871372  0.86928760  0.13071240  1
