# generated using pymatgen
data_Ca2SnS4
_symmetry_space_group_name_H-M   'P 1'
_cell_length_a   6.80156054
_cell_length_b   7.15729695
_cell_length_c   15.14380864
_cell_angle_alpha   90.00000000
_cell_angle_beta   99.18680306
_cell_angle_gamma   90.00000000
_symmetry_Int_Tables_number   1
_chemical_formula_structural   Ca2SnS4
_chemical_formula_sum   'Ca8 Sn4 S16'
_cell_volume   727.75636754
_cell_formula_units_Z   4
loop_
 _symmetry_equiv_pos_site_id
 _symmetry_equiv_pos_as_xyz
  1  'x, y, z'
loop_
 _atom_site_type_symbol
 _atom_site_label
 _atom_site_symmetry_multiplicity
 _atom_site_fract_x
 _atom_site_fract_y
 _atom_site_fract_z
 _atom_site_occupancy
  Ca  Ca0  1  0.31954619  0.74695970  0.52361146  1
  Ca  Ca1  1  0.18045381  0.24695970  0.97638854  1
  Ca  Ca2  1  0.68045381  0.25304030  0.47638854  1
  Ca  Ca3  1  0.81954619  0.75304030  0.02361146  1
  Ca  Ca4  1  0.52343275  0.83103819  0.78270631  1
  Ca  Ca5  1  0.97656725  0.33103819  0.71729369  1
  Ca  Ca6  1  0.47656725  0.16896181  0.21729369  1
  Ca  Ca7  1  0.02343275  0.66896181  0.28270631  1
  Sn  Sn8  1  0.85122332  0.76463966  0.59450686  1
  Sn  Sn9  1  0.64877668  0.26463966  0.90549314  1
  Sn  Sn10  1  0.14877668  0.23536034  0.40549314  1
  Sn  Sn11  1  0.35122332  0.73536034  0.09450686  1
  S  S12  1  0.63258033  0.50862649  0.62027162  1
  S  S13  1  0.86741967  0.00862649  0.87972838  1
  S  S14  1  0.36741967  0.49137351  0.37972838  1
  S  S15  1  0.13258033  0.99137351  0.12027162  1
  S  S16  1  0.86424500  0.51406027  0.87207940  1
  S  S17  1  0.63575500  0.01406027  0.62792060  1
  S  S18  1  0.13575500  0.48593973  0.12792060  1
  S  S19  1  0.36424500  0.98593973  0.37207940  1
  S  S20  1  0.16108490  0.68562318  0.68667217  1
  S  S21  1  0.33891510  0.18562318  0.81332783  1
  S  S22  1  0.83891510  0.31437682  0.31332783  1
  S  S23  1  0.66108490  0.81437682  0.18667217  1
  S  S24  1  0.41039163  0.71655744  0.94391735  1
  S  S25  1  0.08960837  0.21655744  0.55608265  1
  S  S26  1  0.58960837  0.28344256  0.05608265  1
  S  S27  1  0.91039163  0.78344256  0.44391735  1
