# generated using pymatgen
data_HoCuPbS3
_symmetry_space_group_name_H-M   'P 1'
_cell_length_a   3.94998629
_cell_length_b   6.85098276
_cell_length_c   10.22844791
_cell_angle_alpha   90.00000000
_cell_angle_beta   90.00000000
_cell_angle_gamma   73.24506124
_symmetry_Int_Tables_number   1
_chemical_formula_structural   HoCuPbS3
_chemical_formula_sum   'Ho2 Cu2 Pb2 S6'
_cell_volume   265.04406329
_cell_formula_units_Z   2
loop_
 _symmetry_equiv_pos_site_id
 _symmetry_equiv_pos_as_xyz
  1  'x, y, z'
loop_
 _atom_site_type_symbol
 _atom_site_label
 _atom_site_symmetry_multiplicity
 _atom_site_fract_x
 _atom_site_fract_y
 _atom_site_fract_z
 _atom_site_occupancy
  Ho  Ho0  1  0.99714350  0.00571299  0.49864418  1
  Ho  Ho1  1  0.00285650  0.99428701  0.99864418  1
  Cu  Cu2  1  0.46616031  0.06767938  0.24958507  1
  Cu  Cu3  1  0.53383969  0.93232062  0.74958507  1
  Pb  Pb4  1  0.74827522  0.50344955  0.22658087  1
  Pb  Pb5  1  0.25172478  0.49655045  0.72658087  1
  S  S6  1  0.07326241  0.85347517  0.25029618  1
  S  S7  1  0.92673759  0.14652483  0.75029618  1
  S  S8  1  0.36256829  0.27486341  0.43490401  1
  S  S9  1  0.63681605  0.72636791  0.56478969  1
  S  S10  1  0.36318395  0.27363209  0.06478969  1
  S  S11  1  0.63743171  0.72513659  0.93490401  1
