# generated using pymatgen
data_K3In(PO4)2
_symmetry_space_group_name_H-M   'P 1'
_cell_length_a   9.79446157
_cell_length_b   9.79446157
_cell_length_c   9.95631473
_cell_angle_alpha   90.18602801
_cell_angle_beta   90.18602801
_cell_angle_gamma   71.26544595
_symmetry_Int_Tables_number   1
_chemical_formula_structural   K3In(PO4)2
_chemical_formula_sum   'K12 In4 P8 O32'
_cell_volume   904.51119058
_cell_formula_units_Z   4
loop_
 _symmetry_equiv_pos_site_id
 _symmetry_equiv_pos_as_xyz
  1  'x, y, z'
loop_
 _atom_site_type_symbol
 _atom_site_label
 _atom_site_symmetry_multiplicity
 _atom_site_fract_x
 _atom_site_fract_y
 _atom_site_fract_z
 _atom_site_occupancy
  K  K0  1  0.35999557  0.64000443  0.25000000  1
  K  K1  1  0.64000443  0.35999557  0.75000000  1
  K  K2  1  0.13200400  0.35937239  0.20663360  1
  K  K3  1  0.64062761  0.86799600  0.29336640  1
  K  K4  1  0.86799600  0.64062761  0.79336640  1
  K  K5  1  0.35937239  0.13200400  0.70663360  1
  K  K6  1  0.89479605  0.10520395  0.25000000  1
  K  K7  1  0.10520395  0.89479605  0.75000000  1
  K  K8  1  0.51481085  0.30372015  0.40900228  1
  K  K9  1  0.69627985  0.48518915  0.09099772  1
  K  K10  1  0.48518915  0.69627985  0.59099772  1
  K  K11  1  0.30372015  0.51481085  0.90900228  1
  In  In12  1  0.01336360  0.73580464  0.42524641  1
  In  In13  1  0.26419536  0.98663640  0.07475359  1
  In  In14  1  0.98663640  0.26419536  0.57475359  1
  In  In15  1  0.73580464  0.01336360  0.92524641  1
  P  P16  1  0.49798875  0.20300247  0.07235375  1
  P  P17  1  0.79699753  0.50201125  0.42764625  1
  P  P18  1  0.50201125  0.79699753  0.92764625  1
  P  P19  1  0.20300247  0.49798875  0.57235375  1
  P  P20  1  0.96263311  0.23592565  0.91611040  1
  P  P21  1  0.76407435  0.03736689  0.58388960  1
  P  P22  1  0.03736689  0.76407435  0.08388960  1
  P  P23  1  0.23592565  0.96263311  0.41611040  1
  O  O24  1  0.64208508  0.09349831  0.12992619  1
  O  O25  1  0.90650169  0.35791492  0.37007381  1
  O  O26  1  0.35791492  0.90650169  0.87007381  1
  O  O27  1  0.09349831  0.64208508  0.62992619  1
  O  O28  1  0.02716136  0.18090101  0.77540034  1
  O  O29  1  0.81909899  0.97283864  0.72459966  1
  O  O30  1  0.97283864  0.81909899  0.22459966  1
  O  O31  1  0.18090101  0.02716136  0.27540034  1
  O  O32  1  0.46732357  0.35614170  0.13023378  1
  O  O33  1  0.64385830  0.53267643  0.36976622  1
  O  O34  1  0.53267643  0.64385830  0.86976622  1
  O  O35  1  0.35614170  0.46732357  0.63023378  1
  O  O36  1  0.36875635  0.14970286  0.10588576  1
  O  O37  1  0.85029714  0.63124365  0.39411424  1
  O  O38  1  0.63124365  0.85029714  0.89411424  1
  O  O39  1  0.14970286  0.36875635  0.60588576  1
  O  O40  1  0.91281209  0.39981852  0.92582659  1
  O  O41  1  0.60018148  0.08718791  0.57417341  1
  O  O42  1  0.08718791  0.60018148  0.07417341  1
  O  O43  1  0.39981852  0.91281209  0.42582659  1
  O  O44  1  0.52377790  0.20070553  0.91549302  1
  O  O45  1  0.79929447  0.47622210  0.58450698  1
  O  O46  1  0.47622210  0.79929447  0.08450698  1
  O  O47  1  0.20070553  0.52377790  0.41549302  1
  O  O48  1  0.82832886  0.18647032  0.94703828  1
  O  O49  1  0.81352968  0.17167114  0.55296172  1
  O  O50  1  0.17167114  0.81352968  0.05296172  1
  O  O51  1  0.18647032  0.82832886  0.44703828  1
  O  O52  1  0.08001295  0.16561668  0.02376023  1
  O  O53  1  0.83438332  0.91998705  0.47623977  1
  O  O54  1  0.91998705  0.83438332  0.97623977  1
  O  O55  1  0.16561668  0.08001295  0.52376023  1
