# generated using pymatgen
data_HoAlNi4
_symmetry_space_group_name_H-M   'P 1'
_cell_length_a   4.03993249
_cell_length_b   4.85462948
_cell_length_c   4.85462905
_cell_angle_alpha   62.01232747
_cell_angle_beta   90.00000000
_cell_angle_gamma   90.00000000
_symmetry_Int_Tables_number   1
_chemical_formula_structural   HoAlNi4
_chemical_formula_sum   'Ho1 Al1 Ni4'
_cell_volume   84.07576811
_cell_formula_units_Z   1
loop_
 _symmetry_equiv_pos_site_id
 _symmetry_equiv_pos_as_xyz
  1  'x, y, z'
loop_
 _atom_site_type_symbol
 _atom_site_label
 _atom_site_symmetry_multiplicity
 _atom_site_fract_x
 _atom_site_fract_y
 _atom_site_fract_z
 _atom_site_occupancy
  Ho  Ho0  1  0.00000000  -0.00001948  0.00001948  1
  Al  Al1  1  0.50000000  0.49998060  0.50001940  1
  Ni  Ni2  1  0.00000000  0.33368541  0.33371724  1
  Ni  Ni3  1  0.00000000  0.66628276  0.66631459  1
  Ni  Ni4  1  0.50000000  0.49998683  0.00001611  1
  Ni  Ni5  1  0.50000000  0.99998389  0.50001317  1
