# generated using pymatgen
data_K4Ba2SnAs4
_symmetry_space_group_name_H-M   'P 1'
_cell_length_a   8.05121027
_cell_length_b   10.73561007
_cell_length_c   10.64941673
_cell_angle_alpha   120.26621445
_cell_angle_beta   89.35428274
_cell_angle_gamma   91.28213824
_symmetry_Int_Tables_number   1
_chemical_formula_structural   K4Ba2SnAs4
_chemical_formula_sum   'K8 Ba4 Sn2 As8'
_cell_volume   794.81183496
_cell_formula_units_Z   2
loop_
 _symmetry_equiv_pos_site_id
 _symmetry_equiv_pos_as_xyz
  1  'x, y, z'
loop_
 _atom_site_type_symbol
 _atom_site_label
 _atom_site_symmetry_multiplicity
 _atom_site_fract_x
 _atom_site_fract_y
 _atom_site_fract_z
 _atom_site_occupancy
  K  K0  1  0.38100683  0.52456012  0.47433596  1
  K  K1  1  0.88100261  0.05022058  0.52565850  1
  K  K2  1  0.19420387  0.13795869  0.85840109  1
  K  K3  1  0.20847556  0.71763318  0.85261904  1
  K  K4  1  0.20172481  0.14688239  0.28505217  1
  K  K5  1  0.70847381  0.86502655  0.14738712  1
  K  K6  1  0.69420455  0.27956629  0.14160726  1
  K  K7  1  0.70171931  0.86182286  0.71494265  1
  Ba  Ba8  1  0.38002095  0.94702075  0.47613629  1
  Ba  Ba9  1  0.37989302  0.52320998  0.05448106  1
  Ba  Ba10  1  0.88003165  0.47088219  0.52386947  1
  Ba  Ba11  1  0.87988606  0.46872495  0.94551921  1
  Sn  Sn12  1  0.49819251  0.33583861  0.66502518  1
  Sn  Sn13  1  0.99820583  0.67079206  0.33497175  1
  As  As14  1  0.16226616  0.33897726  0.67607974  1
  As  As15  1  0.66228176  0.66290745  0.32391059  1
  As  As16  1  0.11510534  0.79896588  0.18923212  1
  As  As17  1  0.09357520  0.39252643  0.19190433  1
  As  As18  1  0.10320313  0.80297823  0.60984520  1
  As  As19  1  0.59359507  0.20062094  0.80808919  1
  As  As20  1  0.61508477  0.60974053  0.81077588  1
  As  As21  1  0.60320719  0.19314407  0.39015619  1
