# generated using pymatgen
data_Bi2Se3
_symmetry_space_group_name_H-M   'P 1'
_cell_length_a   9.87224469
_cell_length_b   9.87224469
_cell_length_c   13.68539385
_cell_angle_alpha   90.00000000
_cell_angle_beta   90.00000000
_cell_angle_gamma   90.00000000
_symmetry_Int_Tables_number   1
_chemical_formula_structural   Bi2Se3
_chemical_formula_sum   'Bi16 Se24'
_cell_volume   1333.79511537
_cell_formula_units_Z   8
loop_
 _symmetry_equiv_pos_site_id
 _symmetry_equiv_pos_as_xyz
  1  'x, y, z'
loop_
 _atom_site_type_symbol
 _atom_site_label
 _atom_site_symmetry_multiplicity
 _atom_site_fract_x
 _atom_site_fract_y
 _atom_site_fract_z
 _atom_site_occupancy
  Bi  Bi0  1  0.75000000  0.25000000  0.49390499  1
  Bi  Bi1  1  0.25000000  0.75000000  0.99390499  1
  Bi  Bi2  1  0.25000000  0.75000000  0.50609501  1
  Bi  Bi3  1  0.75000000  0.25000000  0.00609501  1
  Bi  Bi4  1  0.75000000  0.75000000  0.52720203  1
  Bi  Bi5  1  0.75000000  0.75000000  0.02720203  1
  Bi  Bi6  1  0.25000000  0.25000000  0.47279797  1
  Bi  Bi7  1  0.25000000  0.25000000  0.97279797  1
  Bi  Bi8  1  0.01308444  0.98691556  0.25000000  1
  Bi  Bi9  1  0.48691556  0.98691556  0.25000000  1
  Bi  Bi10  1  0.01308444  0.51308444  0.25000000  1
  Bi  Bi11  1  0.48691556  0.51308444  0.25000000  1
  Bi  Bi12  1  0.98691556  0.01308444  0.75000000  1
  Bi  Bi13  1  0.51308444  0.01308444  0.75000000  1
  Bi  Bi14  1  0.98691556  0.48691556  0.75000000  1
  Bi  Bi15  1  0.51308444  0.48691556  0.75000000  1
  Se  Se16  1  0.48426909  0.75000000  0.11308103  1
  Se  Se17  1  0.01573091  0.75000000  0.11308103  1
  Se  Se18  1  0.75000000  0.48426909  0.61308103  1
  Se  Se19  1  0.75000000  0.01573091  0.61308103  1
  Se  Se20  1  0.51573091  0.25000000  0.88691897  1
  Se  Se21  1  0.98426909  0.25000000  0.88691897  1
  Se  Se22  1  0.25000000  0.51573091  0.38691897  1
  Se  Se23  1  0.25000000  0.98426909  0.38691897  1
  Se  Se24  1  0.02986581  0.75000000  0.64865731  1
  Se  Se25  1  0.47013419  0.75000000  0.64865731  1
  Se  Se26  1  0.75000000  0.02986581  0.14865731  1
  Se  Se27  1  0.75000000  0.47013419  0.14865731  1
  Se  Se28  1  0.97013419  0.25000000  0.35134269  1
  Se  Se29  1  0.52986581  0.25000000  0.35134269  1
  Se  Se30  1  0.25000000  0.97013419  0.85134269  1
  Se  Se31  1  0.25000000  0.52986581  0.85134269  1
  Se  Se32  1  0.54618995  0.75000000  0.37879114  1
  Se  Se33  1  0.95381005  0.75000000  0.37879114  1
  Se  Se34  1  0.75000000  0.54618995  0.87879114  1
  Se  Se35  1  0.75000000  0.95381005  0.87879114  1
  Se  Se36  1  0.45381005  0.25000000  0.62120886  1
  Se  Se37  1  0.04618995  0.25000000  0.62120886  1
  Se  Se38  1  0.25000000  0.45381005  0.12120886  1
  Se  Se39  1  0.25000000  0.04618995  0.12120886  1
