# generated using pymatgen
data_La3CrW(SO2)3
_symmetry_space_group_name_H-M   'P 1'
_cell_length_a   9.49774648
_cell_length_b   9.49777163
_cell_length_c   5.63067935
_cell_angle_alpha   89.99954817
_cell_angle_beta   90.00023653
_cell_angle_gamma   119.99956420
_symmetry_Int_Tables_number   1
_chemical_formula_structural   La3CrW(SO2)3
_chemical_formula_sum   'La6 Cr2 W2 S6 O12'
_cell_volume   439.88143274
_cell_formula_units_Z   2
loop_
 _symmetry_equiv_pos_site_id
 _symmetry_equiv_pos_as_xyz
  1  'x, y, z'
loop_
 _atom_site_type_symbol
 _atom_site_label
 _atom_site_symmetry_multiplicity
 _atom_site_fract_x
 _atom_site_fract_y
 _atom_site_fract_z
 _atom_site_occupancy
  La  La0  1  0.68038518  0.08890330  0.25000322  1
  La  La1  1  0.31960723  0.91108867  0.74999792  1
  La  La2  1  0.91109375  0.59149159  0.25000346  1
  La  La3  1  0.40852097  0.31960485  0.25000757  1
  La  La4  1  0.59148078  0.68039631  0.75000420  1
  La  La5  1  0.08890489  0.40850993  0.74999614  1
  Cr  Cr6  1  0.00000342  0.00000490  -0.00001192  1
  Cr  Cr7  1  0.00001179  0.00000436  0.50000097  1
  W  W8  1  0.66666085  0.33332720  0.75000759  1
  W  W9  1  0.33333425  0.66666799  0.24999974  1
  S  S10  1  0.04551646  0.22680580  0.24999638  1
  S  S11  1  0.95448670  0.77320847  0.75000179  1
  S  S12  1  0.77320283  0.81872131  0.25000300  1
  S  S13  1  0.18128904  0.95448335  0.24999533  1
  S  S14  1  0.81871886  0.04551884  0.74999749  1
  S  S15  1  0.22680199  0.18128492  0.75000194  1
  O  O16  1  0.83952644  0.36593864  0.97518879  1
  O  O17  1  0.16047298  0.63406075  0.47518065  1
  O  O18  1  0.63406511  0.47359413  0.97518330  1
  O  O19  1  0.52641386  0.16048054  0.97518223  1
  O  O20  1  0.47358589  0.83951684  0.47518564  1
  O  O21  1  0.36592896  0.52640322  0.47518717  1
  O  O22  1  0.16047233  0.63406069  0.02481190  1
  O  O23  1  0.83952506  0.36593632  0.52481455  1
  O  O24  1  0.36592871  0.52640097  0.02481749  1
  O  O25  1  0.47358588  0.83951861  0.02481404  1
  O  O26  1  0.52641059  0.16047794  0.52481591  1
  O  O27  1  0.63406621  0.47359355  0.52481751  1
