# generated using pymatgen
data_Eu2FeP3Pt7
_symmetry_space_group_name_H-M   'P 1'
_cell_length_a   4.08375763
_cell_length_b   4.08375763
_cell_length_c   13.79781893
_cell_angle_alpha   81.48979162
_cell_angle_beta   81.48979162
_cell_angle_gamma   90.00000000
_symmetry_Int_Tables_number   1
_chemical_formula_structural   Eu2FeP3Pt7
_chemical_formula_sum   'Eu2 Fe1 P3 Pt7'
_cell_volume   225.01156747
_cell_formula_units_Z   1
loop_
 _symmetry_equiv_pos_site_id
 _symmetry_equiv_pos_as_xyz
  1  'x, y, z'
loop_
 _atom_site_type_symbol
 _atom_site_label
 _atom_site_symmetry_multiplicity
 _atom_site_fract_x
 _atom_site_fract_y
 _atom_site_fract_z
 _atom_site_occupancy
  Eu  Eu0  1  0.33519553  0.33519553  0.32960894  1
  Eu  Eu1  1  0.66480447  0.66480447  0.67039106  1
  Fe  Fe2  1  0.50000000  0.50000000  -0.00000000  1
  P  P3  1  0.11976353  0.11976353  0.76047294  1
  P  P4  1  0.88023647  0.88023647  0.23952706  1
  P  P5  1  0.75000000  0.25000000  0.50000000  1
  Pt  Pt6  1  0.57031861  0.07031861  0.85936278  1
  Pt  Pt7  1  0.07066626  0.57066626  0.85866748  1
  Pt  Pt8  1  0.42933374  0.92933374  0.14133252  1
  Pt  Pt9  1  0.92968139  0.42968139  0.14063722  1
  Pt  Pt10  1  0.20705404  0.20705404  0.58589192  1
  Pt  Pt11  1  0.79294596  0.79294596  0.41410808  1
  Pt  Pt12  1  0.00000000  -0.00000000  -0.00000000  1
