# generated using pymatgen
data_Gd3SOF5
_symmetry_space_group_name_H-M   'P 1'
_cell_length_a   3.75180126
_cell_length_b   9.59498968
_cell_length_c   9.53397179
_cell_angle_alpha   60.49330125
_cell_angle_beta   90.00000000
_cell_angle_gamma   90.00000000
_symmetry_Int_Tables_number   1
_chemical_formula_structural   Gd3SOF5
_chemical_formula_sum   'Gd6 S2 O2 F10'
_cell_volume   298.69382461
_cell_formula_units_Z   2
loop_
 _symmetry_equiv_pos_site_id
 _symmetry_equiv_pos_as_xyz
  1  'x, y, z'
loop_
 _atom_site_type_symbol
 _atom_site_label
 _atom_site_symmetry_multiplicity
 _atom_site_fract_x
 _atom_site_fract_y
 _atom_site_fract_z
 _atom_site_occupancy
  Gd  Gd0  1  0.75000000  0.13469910  0.58182051  1
  Gd  Gd1  1  0.75000000  0.27097227  0.13370874  1
  Gd  Gd2  1  0.75000000  0.58435026  0.29863954  1
  Gd  Gd3  1  0.25000000  0.89608520  0.40518582  1
  Gd  Gd4  1  0.25000000  0.71484787  0.87653008  1
  Gd  Gd5  1  0.25000000  0.40311605  0.70439315  1
  S  S6  1  0.75000000  0.66744491  0.67091093  1
  S  S7  1  0.25000000  0.33790588  0.32734540  1
  O  O8  1  0.75000000  0.38738449  0.56376663  1
  O  O9  1  0.75000000  0.05202915  0.38336737  1
  F  F10  1  0.75000000  0.88012348  0.84111940  1
  F  F11  1  0.75000000  0.27323011  0.88749780  1
  F  F12  1  0.75000000  0.83749021  0.27534367  1
  F  F13  1  0.25000000  0.11791686  0.14545917  1
  F  F14  1  0.25000000  0.71618118  0.12078178  1
  F  F15  1  0.25000000  0.14940719  0.72810813  1
  F  F16  1  0.75000000  0.56601239  0.04816738  1
  F  F17  1  0.25000000  0.62486202  0.43111738  1
  F  F18  1  0.25000000  0.95286917  0.62165450  1
  F  F19  1  0.25000000  0.43307222  0.95508261  1
