# generated using pymatgen
data_K(Nb2Cl5)4
_symmetry_space_group_name_H-M   'P 1'
_cell_length_a   9.44018920
_cell_length_b   13.65813814
_cell_length_c   18.14294078
_cell_angle_alpha   90.00000000
_cell_angle_beta   90.00000000
_cell_angle_gamma   90.06631333
_symmetry_Int_Tables_number   1
_chemical_formula_structural   K(Nb2Cl5)4
_chemical_formula_sum   'K3 Nb24 Cl60'
_cell_volume   2339.26590836
_cell_formula_units_Z   3
loop_
 _symmetry_equiv_pos_site_id
 _symmetry_equiv_pos_as_xyz
  1  'x, y, z'
loop_
 _atom_site_type_symbol
 _atom_site_label
 _atom_site_symmetry_multiplicity
 _atom_site_fract_x
 _atom_site_fract_y
 _atom_site_fract_z
 _atom_site_occupancy
  K  K0  1  0.67892938  0.25512098  0.25000000  1
  K  K1  1  0.67890946  0.74498893  0.25000000  1
  K  K2  1  0.32080543  0.74451770  0.75000000  1
  Nb  Nb3  1  0.64717302  0.39135690  0.97046967  1
  Nb  Nb4  1  0.35175526  0.39120400  0.02805588  1
  Nb  Nb5  1  0.64717302  0.39135690  0.52953033  1
  Nb  Nb6  1  0.35175526  0.39120400  0.47194412  1
  Nb  Nb7  1  0.35257964  0.60823462  0.02833432  1
  Nb  Nb8  1  0.64721033  0.60832135  0.97096400  1
  Nb  Nb9  1  0.35257964  0.60823462  0.47166568  1
  Nb  Nb10  1  0.64721033  0.60832135  0.52903600  1
  Nb  Nb11  1  0.05683065  0.00148332  0.75000000  1
  Nb  Nb12  1  0.94631719  0.99996811  0.25000000  1
  Nb  Nb13  1  0.83738698  0.11002055  0.83257406  1
  Nb  Nb14  1  0.16316497  0.10893495  0.16799502  1
  Nb  Nb15  1  0.83738698  0.11002055  0.66742594  1
  Nb  Nb16  1  0.16316497  0.10893495  0.33200498  1
  Nb  Nb17  1  0.16305625  0.89110064  0.16799472  1
  Nb  Nb18  1  0.83684659  0.89091524  0.83217147  1
  Nb  Nb19  1  0.16305625  0.89110064  0.33200528  1
  Nb  Nb20  1  0.83684659  0.89091524  0.66782853  1
  Nb  Nb21  1  0.57933180  0.49978111  0.10565497  1
  Nb  Nb22  1  0.41983763  0.49888977  0.89268078  1
  Nb  Nb23  1  0.57933180  0.49978111  0.39434503  1
  Nb  Nb24  1  0.41983763  0.49888977  0.60731922  1
  Nb  Nb25  1  0.61911552  0.00128307  0.75000000  1
  Nb  Nb26  1  0.37820197  0.00009832  0.25000000  1
  Cl  Cl27  1  0.84699934  0.25236510  0.75000000  1
  Cl  Cl28  1  0.15148886  0.25320559  0.25000000  1
  Cl  Cl29  1  0.15135302  0.74680565  0.25000000  1
  Cl  Cl30  1  0.84826219  0.74729357  0.75000000  1
  Cl  Cl31  1  0.49994186  0.24814972  -0.00000252  1
  Cl  Cl32  1  0.49994186  0.24814972  0.50000252  1
  Cl  Cl33  1  0.50024821  0.75199289  0.00000121  1
  Cl  Cl34  1  0.50024821  0.75199289  0.49999879  1
  Cl  Cl35  1  0.76693895  0.37393648  0.09268063  1
  Cl  Cl36  1  0.23453965  0.37334832  0.90727564  1
  Cl  Cl37  1  0.76693895  0.37393648  0.40731937  1
  Cl  Cl38  1  0.23453965  0.37334832  0.59272436  1
  Cl  Cl39  1  0.23299646  0.62597740  0.90700126  1
  Cl  Cl40  1  0.76696820  0.62623641  0.09284684  1
  Cl  Cl41  1  0.23299646  0.62597740  0.59299874  1
  Cl  Cl42  1  0.76696820  0.62623641  0.40715316  1
  Cl  Cl43  1  0.33689026  0.99603022  0.75000000  1
  Cl  Cl44  1  0.66375938  0.99997995  0.25000000  1
  Cl  Cl45  1  0.57823651  0.37516783  0.84117920  1
  Cl  Cl46  1  0.41991122  0.37625205  0.15887893  1
  Cl  Cl47  1  0.57823651  0.37516783  0.65882080  1
  Cl  Cl48  1  0.41991122  0.37625205  0.34112107  1
  Cl  Cl49  1  0.42044674  0.62354108  0.15891969  1
  Cl  Cl50  1  0.57998521  0.62367180  0.84071501  1
  Cl  Cl51  1  0.42044674  0.62354108  0.34108031  1
  Cl  Cl52  1  0.57998521  0.62367180  0.65928499  1
  Cl  Cl53  1  0.84208457  0.50029277  0.93128041  1
  Cl  Cl54  1  0.15806644  0.50004145  0.06881643  1
  Cl  Cl55  1  0.84208457  0.50029277  0.56871959  1
  Cl  Cl56  1  0.15806644  0.50004145  0.43118357  1
  Cl  Cl57  1  0.83382870  0.99966159  0.94041699  1
  Cl  Cl58  1  0.16651966  -0.00000283  0.05931470  1
  Cl  Cl59  1  0.83382870  0.99966159  0.55958301  1
  Cl  Cl60  1  0.16651966  -0.00000283  0.44068530  1
  Cl  Cl61  1  0.57907591  0.12466952  0.84521291  1
  Cl  Cl62  1  0.42298665  0.12398250  0.15401836  1
  Cl  Cl63  1  0.57907591  0.12466952  0.65478709  1
  Cl  Cl64  1  0.42298665  0.12398250  0.34598164  1
  Cl  Cl65  1  0.42278501  0.87615863  0.15406934  1
  Cl  Cl66  1  0.57781112  0.87609073  0.84559577  1
  Cl  Cl67  1  0.42278501  0.87615863  0.34593066  1
  Cl  Cl68  1  0.57781112  0.87609073  0.65440423  1
  Cl  Cl69  1  0.31336858  0.50364710  0.75000000  1
  Cl  Cl70  1  0.68828619  0.50002843  0.25000000  1
  Cl  Cl71  1  0.09577617  0.12555341  0.84640233  1
  Cl  Cl72  1  0.90297267  0.12469990  0.15218283  1
  Cl  Cl73  1  0.09577617  0.12555341  0.65359767  1
  Cl  Cl74  1  0.90297267  0.12469990  0.34781717  1
  Cl  Cl75  1  0.90282763  0.87516542  0.15214640  1
  Cl  Cl76  1  0.09648056  0.87569091  0.84763456  1
  Cl  Cl77  1  0.90282763  0.87516542  0.34785360  1
  Cl  Cl78  1  0.09648056  0.87569091  0.65236544  1
  Cl  Cl79  1  0.83665677  0.25074317  0.93613376  1
  Cl  Cl80  1  0.16308117  0.25009585  0.06419613  1
  Cl  Cl81  1  0.83665677  0.25074317  0.56386624  1
  Cl  Cl82  1  0.16308117  0.25009585  0.43580387  1
  Cl  Cl83  1  0.16365205  0.74957947  0.06418332  1
  Cl  Cl84  1  0.83643072  0.74962639  0.93581754  1
  Cl  Cl85  1  0.16365205  0.74957947  0.43581668  1
  Cl  Cl86  1  0.83643072  0.74962639  0.56418246  1
