# generated using pymatgen
data_H9Au(ClO)4
_symmetry_space_group_name_H-M   'P 1'
_cell_length_a   4.46162863
_cell_length_b   7.39537285
_cell_length_c   9.95497294
_cell_angle_alpha   114.51902838
_cell_angle_beta   90.76309464
_cell_angle_gamma   71.89617033
_symmetry_Int_Tables_number   1
_chemical_formula_structural   H9Au(ClO)4
_chemical_formula_sum   'H9 Au1 Cl4 O4'
_cell_volume   281.50277196
_cell_formula_units_Z   1
loop_
 _symmetry_equiv_pos_site_id
 _symmetry_equiv_pos_as_xyz
  1  'x, y, z'
loop_
 _atom_site_type_symbol
 _atom_site_label
 _atom_site_symmetry_multiplicity
 _atom_site_fract_x
 _atom_site_fract_y
 _atom_site_fract_z
 _atom_site_occupancy
  H  H0  1  0.21530865  0.56899597  0.21820711  1
  H  H1  1  0.79219569  0.44820378  0.78415172  1
  H  H2  1  0.43644034  0.73811932  0.40357354  1
  H  H3  1  0.80569696  0.73330803  0.40471728  1
  H  H4  1  0.53934794  0.27198273  0.60098612  1
  H  H5  1  0.17331636  0.26946282  0.60034326  1
  H  H6  1  0.31117653  0.45622205  0.32164971  1
  H  H7  1  0.75935454  0.54748431  0.67262327  1
  H  H8  1  0.49295501  0.00362464  0.50335805  1
  Au  Au9  1  0.86640563  0.99987734  0.00085966  1
  Cl  Cl10  1  0.78646979  0.16086800  0.25947652  1
  Cl  Cl11  1  0.96806673  0.83910673  0.74269839  1
  Cl  Cl12  1  0.69208599  0.32584058  0.99641846  1
  Cl  Cl13  1  0.00540022  0.67336322  0.00484075  1
  O  O14  1  0.19754196  0.59586914  0.32394259  1
  O  O15  1  0.79248237  0.41209558  0.67701698  1
  O  O16  1  0.58502946  0.81270226  0.45881605  1
  O  O17  1  0.39672582  0.19247351  0.54662053  1
