# generated using pymatgen
data_Dy6Mn(SiS7)2
_symmetry_space_group_name_H-M   'P 1'
_cell_length_a   5.61516948
_cell_length_b   9.92267235
_cell_length_c   9.92240062
_cell_angle_alpha   60.00008447
_cell_angle_beta   89.99997022
_cell_angle_gamma   90.00017894
_symmetry_Int_Tables_number   1
_chemical_formula_structural   Dy6Mn(SiS7)2
_chemical_formula_sum   'Dy6 Mn1 Si2 S14'
_cell_volume   478.78361468
_cell_formula_units_Z   1
loop_
 _symmetry_equiv_pos_site_id
 _symmetry_equiv_pos_as_xyz
  1  'x, y, z'
loop_
 _atom_site_type_symbol
 _atom_site_label
 _atom_site_symmetry_multiplicity
 _atom_site_fract_x
 _atom_site_fract_y
 _atom_site_fract_z
 _atom_site_occupancy
  Dy  Dy0  1  0.24946607  0.23342912  0.12273172  1
  Dy  Dy1  1  0.24946596  0.64384065  0.23339069  1
  Dy  Dy2  1  0.24948365  0.12274699  0.64385273  1
  Dy  Dy3  1  0.74998837  0.76672753  0.87765307  1
  Dy  Dy4  1  0.74998586  0.35559973  0.76669644  1
  Dy  Dy5  1  0.75000155  0.87766783  0.35563383  1
  Mn  Mn6  1  0.48811167  0.99996233  0.00016185  1
  Si  Si7  1  0.83490589  0.33335387  0.33331276  1
  Si  Si8  1  0.33710403  0.66665114  0.66666363  1
  S  S9  1  0.45937407  0.33335306  0.33330947  1
  S  S10  1  0.96133874  0.66664768  0.66666126  1
  S  S11  1  0.72753862  0.16212998  0.08675979  1
  S  S12  1  0.72753425  0.75111496  0.16212797  1
  S  S13  1  0.72751451  0.08674620  0.75112360  1
  S  S14  1  0.24389891  0.83586651  0.91559663  1
  S  S15  1  0.24389402  0.24853422  0.83585729  1
  S  S16  1  0.24387296  0.91559988  0.24855845  1
  S  S17  1  0.98609350  0.10766178  0.41156081  1
  S  S18  1  0.98611306  0.48079085  0.10762252  1
  S  S19  1  0.98610848  0.41158599  0.48075859  1
  S  S20  1  0.48805787  0.89228779  0.58831409  1
  S  S21  1  0.48807726  0.51937778  0.89229076  1
  S  S22  1  0.48807072  0.58832413  0.51936206  1
