# generated using pymatgen
data_EuCdAg
_symmetry_space_group_name_H-M   'P 1'
_cell_length_a   4.93992130
_cell_length_b   6.38566465
_cell_length_c   6.10872238
_cell_angle_alpha   93.44060970
_cell_angle_beta   113.84936704
_cell_angle_gamma   67.24460394
_symmetry_Int_Tables_number   1
_chemical_formula_structural   EuCdAg
_chemical_formula_sum   'Eu2 Cd2 Ag2'
_cell_volume   161.46089320
_cell_formula_units_Z   2
loop_
 _symmetry_equiv_pos_site_id
 _symmetry_equiv_pos_as_xyz
  1  'x, y, z'
loop_
 _atom_site_type_symbol
 _atom_site_label
 _atom_site_symmetry_multiplicity
 _atom_site_fract_x
 _atom_site_fract_y
 _atom_site_fract_z
 _atom_site_occupancy
  Eu  Eu0  1  0.75137797  0.69969681  0.20245274  1
  Eu  Eu1  1  0.24862203  0.30030319  0.79754726  1
  Cd  Cd2  1  0.06001545  0.11006833  0.23009923  1
  Cd  Cd3  1  0.93998455  0.88993167  0.76990077  1
  Ag  Ag4  1  0.54687665  0.29432396  0.38807725  1
  Ag  Ag5  1  0.45312335  0.70567604  0.61192275  1
