# generated using pymatgen
data_In5CuTe8
_symmetry_space_group_name_H-M   'P 1'
_cell_length_a   7.73241250
_cell_length_b   7.73241250
_cell_length_c   9.01705673
_cell_angle_alpha   89.95299460
_cell_angle_beta   90.04700540
_cell_angle_gamma   70.71077041
_symmetry_Int_Tables_number   1
_chemical_formula_structural   In5CuTe8
_chemical_formula_sum   'In5 Cu1 Te8'
_cell_volume   508.86594297
_cell_formula_units_Z   1
loop_
 _symmetry_equiv_pos_site_id
 _symmetry_equiv_pos_as_xyz
  1  'x, y, z'
loop_
 _atom_site_type_symbol
 _atom_site_label
 _atom_site_symmetry_multiplicity
 _atom_site_fract_x
 _atom_site_fract_y
 _atom_site_fract_z
 _atom_site_occupancy
  In  In0  1  0.49045594  0.49045594  -0.00000000  1
  In  In1  1  0.00997746  0.00997746  0.50000000  1
  In  In2  1  0.50018377  0.50018377  0.50000000  1
  In  In3  1  0.01039414  0.48974194  0.75685853  1
  In  In4  1  0.48974194  0.01039414  0.24314147  1
  Cu  Cu5  1  0.00055573  0.00055573  -0.00000000  1
  Te  Te6  1  0.64256576  0.10515070  0.98386067  1
  Te  Te7  1  0.11057158  0.61497624  0.47789290  1
  Te  Te8  1  0.10515070  0.64256576  0.01613933  1
  Te  Te9  1  0.61497624  0.11057158  0.52210710  1
  Te  Te10  1  0.10435619  0.14661033  0.23180044  1
  Te  Te11  1  0.61562779  0.65883245  0.75229000  1
  Te  Te12  1  0.14661033  0.10435619  0.76819956  1
  Te  Te13  1  0.65883245  0.61562779  0.24771000  1
