# generated using pymatgen
data_CsInCuF6
_symmetry_space_group_name_H-M   'P 1'
_cell_length_a   7.72001919
_cell_length_b   7.44081111
_cell_length_c   7.89483202
_cell_angle_alpha   90.00000000
_cell_angle_beta   59.24806915
_cell_angle_gamma   118.81065446
_symmetry_Int_Tables_number   1
_chemical_formula_structural   CsInCuF6
_chemical_formula_sum   'Cs2 In2 Cu2 F12'
_cell_volume   322.69196271
_cell_formula_units_Z   2
loop_
 _symmetry_equiv_pos_site_id
 _symmetry_equiv_pos_as_xyz
  1  'x, y, z'
loop_
 _atom_site_type_symbol
 _atom_site_label
 _atom_site_symmetry_multiplicity
 _atom_site_fract_x
 _atom_site_fract_y
 _atom_site_fract_z
 _atom_site_occupancy
  Cs  Cs0  1  0.78086486  0.39043243  0.35956757  1
  Cs  Cs1  1  0.21913514  0.60956757  0.64043243  1
  In  In2  1  0.00000000  -0.00000000  0.50000000  1
  In  In3  1  0.00000000  -0.00000000  -0.00000000  1
  Cu  Cu4  1  0.50000000  0.50000000  -0.00000000  1
  Cu  Cu5  1  0.50000000  -0.00000000  -0.00000000  1
  F  F6  1  0.84474263  0.92237131  0.32762869  1
  F  F7  1  0.60189237  0.30094619  0.94905381  1
  F  F8  1  0.24172257  0.91265769  0.93850974  1
  F  F9  1  0.24172257  0.32906488  0.31976769  1
  F  F10  1  0.24172257  0.32906488  0.93850974  1
  F  F11  1  0.24172257  0.91265769  0.31976769  1
  F  F12  1  0.15525737  0.07762869  0.67237131  1
  F  F13  1  0.39810763  0.69905381  0.05094619  1
  F  F14  1  0.75827743  0.08734231  0.06149026  1
  F  F15  1  0.75827743  0.67093512  0.68023231  1
  F  F16  1  0.75827743  0.67093512  0.06149026  1
  F  F17  1  0.75827743  0.08734231  0.68023231  1
