# generated using pymatgen
data_CsZnCoF6
_symmetry_space_group_name_H-M   'P 1'
_cell_length_a   7.44800745
_cell_length_b   7.38715932
_cell_length_c   7.48497154
_cell_angle_alpha   89.90795519
_cell_angle_beta   60.12365177
_cell_angle_gamma   119.74109319
_symmetry_Int_Tables_number   1
_chemical_formula_structural   CsZnCoF6
_chemical_formula_sum   'Cs2 Zn2 Co2 F12'
_cell_volume   292.64553170
_cell_formula_units_Z   2
loop_
 _symmetry_equiv_pos_site_id
 _symmetry_equiv_pos_as_xyz
  1  'x, y, z'
loop_
 _atom_site_type_symbol
 _atom_site_label
 _atom_site_symmetry_multiplicity
 _atom_site_fract_x
 _atom_site_fract_y
 _atom_site_fract_z
 _atom_site_occupancy
  Cs  Cs0  1  0.75403402  0.37675835  0.37279658  1
  Cs  Cs1  1  0.24596516  0.62324115  0.62720424  1
  Zn  Zn2  1  0.50000009  0.49999904  0.00000015  1
  Zn  Zn3  1  0.49999906  0.99999854  0.99999953  1
  Co  Co4  1  -0.00000015  0.00000135  0.50000107  1
  Co  Co5  1  0.00000247  0.00000038  0.00000002  1
  F  F6  1  0.86938586  0.93491913  0.31457098  1
  F  F7  1  0.64390735  0.32272473  0.92717356  1
  F  F8  1  0.23519214  0.93165293  0.93167432  1
  F  F9  1  0.23790987  0.30021082  0.33145829  1
  F  F10  1  0.24202273  0.31042577  0.92927003  1
  F  F11  1  0.24679821  0.93652850  0.32591147  1
  F  F12  1  0.13061517  0.06508289  0.68543089  1
  F  F13  1  0.35609407  0.67727375  0.07282542  1
  F  F14  1  0.76481093  0.06834709  0.06832228  1
  F  F15  1  0.76208762  0.69979008  0.66854207  1
  F  F16  1  0.75797837  0.68957672  0.07072847  1
  F  F17  1  0.75319702  0.06346877  0.67409063  1
