# generated using pymatgen
data_CsPSe6
_symmetry_space_group_name_H-M   'P 1'
_cell_length_a   7.16116876
_cell_length_b   11.54507915
_cell_length_c   13.01362746
_cell_angle_alpha   90.00000000
_cell_angle_beta   90.00000000
_cell_angle_gamma   91.78117106
_symmetry_Int_Tables_number   1
_chemical_formula_structural   CsPSe6
_chemical_formula_sum   'Cs4 P4 Se24'
_cell_volume   1075.39819716
_cell_formula_units_Z   4
loop_
 _symmetry_equiv_pos_site_id
 _symmetry_equiv_pos_as_xyz
  1  'x, y, z'
loop_
 _atom_site_type_symbol
 _atom_site_label
 _atom_site_symmetry_multiplicity
 _atom_site_fract_x
 _atom_site_fract_y
 _atom_site_fract_z
 _atom_site_occupancy
  Cs  Cs0  1  0.24999261  0.25002544  0.02634831  1
  Cs  Cs1  1  0.74999261  0.75002544  0.97365169  1
  Cs  Cs2  1  0.47435591  0.00061021  0.49557584  1
  Cs  Cs3  1  0.97435591  0.50061021  0.50442416  1
  P  P4  1  0.75011453  0.24996894  0.84740533  1
  P  P5  1  0.25011453  0.74996894  0.15259467  1
  P  P6  1  0.75002853  0.24969656  0.33884306  1
  P  P7  1  0.25002853  0.74969656  0.66115694  1
  Se  Se8  1  0.60815597  0.10945785  0.23630066  1
  Se  Se9  1  0.39219309  0.89089997  0.76260304  1
  Se  Se10  1  0.89219309  0.39089997  0.23739696  1
  Se  Se11  1  0.10815597  0.60945785  0.76369934  1
  Se  Se12  1  0.50858606  0.57505546  0.32305899  1
  Se  Se13  1  0.48878275  0.42445259  0.67684494  1
  Se  Se14  1  0.98878275  0.92445259  0.32315506  1
  Se  Se15  1  0.00858606  0.07505546  0.67694101  1
  Se  Se16  1  0.48810443  0.23242321  0.74683860  1
  Se  Se17  1  0.51221211  0.76757773  0.25310593  1
  Se  Se18  1  0.01221211  0.26757773  0.74689407  1
  Se  Se19  1  0.98810443  0.73242321  0.25316140  1
  Se  Se20  1  0.51579938  0.31829794  0.42326369  1
  Se  Se21  1  0.48386031  0.68250863  0.57598324  1
  Se  Se22  1  0.98386031  0.18250863  0.42401676  1
  Se  Se23  1  0.01579938  0.81829794  0.57673631  1
  Se  Se24  1  0.88565986  0.02524599  0.17011148  1
  Se  Se25  1  0.11499528  0.97484098  0.82969629  1
  Se  Se26  1  0.61499528  0.47484098  0.17030371  1
  Se  Se27  1  0.38565986  0.52524599  0.82988852  1
  Se  Se28  1  0.73255787  0.08890073  0.93422552  1
  Se  Se29  1  0.26730130  0.91113778  0.06588317  1
  Se  Se30  1  0.76730130  0.41113778  0.93411683  1
  Se  Se31  1  0.23255787  0.58890073  0.06577448  1
