# generated using pymatgen
data_Cu2B3Ir4
_symmetry_space_group_name_H-M   'P 1'
_cell_length_a   2.81983963
_cell_length_b   2.85639124
_cell_length_c   12.94643635
_cell_angle_alpha   83.66648347
_cell_angle_beta   90.00000000
_cell_angle_gamma   90.00000000
_symmetry_Int_Tables_number   1
_chemical_formula_structural   Cu2B3Ir4
_chemical_formula_sum   'Cu2 B3 Ir4'
_cell_volume   103.64146543
_cell_formula_units_Z   1
loop_
 _symmetry_equiv_pos_site_id
 _symmetry_equiv_pos_as_xyz
  1  'x, y, z'
loop_
 _atom_site_type_symbol
 _atom_site_label
 _atom_site_symmetry_multiplicity
 _atom_site_fract_x
 _atom_site_fract_y
 _atom_site_fract_z
 _atom_site_occupancy
  Cu  Cu0  1  0.25000000  0.72253012  0.55493975  1
  Cu  Cu1  1  0.75000000  0.27851773  0.44296454  1
  B  B2  1  0.25000000  0.61821216  0.76357567  1
  B  B3  1  0.75000000  0.38529254  0.22941492  1
  B  B4  1  0.25000000  0.01074029  0.97851942  1
  Ir  Ir5  1  0.25000000  0.84973492  0.30053016  1
  Ir  Ir6  1  0.75000000  0.15145531  0.69708937  1
  Ir  Ir7  1  0.25000000  0.44934724  0.10130552  1
  Ir  Ir8  1  0.75000000  0.55016967  0.89966065  1
