# generated using pymatgen
data_Er2TeS2
_symmetry_space_group_name_H-M   'P 1'
_cell_length_a   4.14728008
_cell_length_b   5.32631848
_cell_length_c   7.49243085
_cell_angle_alpha   69.17918469
_cell_angle_beta   73.93279627
_cell_angle_gamma   90.00000000
_symmetry_Int_Tables_number   1
_chemical_formula_structural   Er2TeS2
_chemical_formula_sum   'Er2 Te1 S2'
_cell_volume   147.76054840
_cell_formula_units_Z   1
loop_
 _symmetry_equiv_pos_site_id
 _symmetry_equiv_pos_as_xyz
  1  'x, y, z'
loop_
 _atom_site_type_symbol
 _atom_site_label
 _atom_site_symmetry_multiplicity
 _atom_site_fract_x
 _atom_site_fract_y
 _atom_site_fract_z
 _atom_site_occupancy
  Er  Er0  1  0.66727811  0.16727811  0.66544378  1
  Er  Er1  1  0.33272189  0.83272189  0.33455622  1
  Te  Te2  1  0.00000000  -0.00000000  0.00000000  1
  S  S3  1  0.29688260  0.29688260  0.40623480  1
  S  S4  1  0.70311740  0.70311740  0.59376520  1
