# generated using pymatgen
data_K2U2O5
_symmetry_space_group_name_H-M   'P 1'
_cell_length_a   8.62346929
_cell_length_b   4.35823549
_cell_length_c   4.35854163
_cell_angle_alpha   89.99991429
_cell_angle_beta   89.99966552
_cell_angle_gamma   90.00023276
_symmetry_Int_Tables_number   1
_chemical_formula_structural   K2U2O5
_chemical_formula_sum   'K2 U2 O5'
_cell_volume   163.80754911
_cell_formula_units_Z   1
loop_
 _symmetry_equiv_pos_site_id
 _symmetry_equiv_pos_as_xyz
  1  'x, y, z'
loop_
 _atom_site_type_symbol
 _atom_site_label
 _atom_site_symmetry_multiplicity
 _atom_site_fract_x
 _atom_site_fract_y
 _atom_site_fract_z
 _atom_site_occupancy
  K  K0  1  -0.00000401  0.00000010  0.99999875  1
  K  K1  1  0.49992766  0.99999909  0.99999836  1
  U  U2  1  0.24913201  0.50001315  0.50000319  1
  U  U3  1  0.75097518  0.49999162  0.49999113  1
  O  O4  1  0.22408369  0.50000143  0.99999896  1
  O  O5  1  0.77587215  0.49999659  0.00000396  1
  O  O6  1  0.50006141  0.49999823  0.50000369  1
  O  O7  1  0.22407891  0.99999749  0.50000200  1
  O  O8  1  0.77587201  0.00000231  0.49999997  1
