# generated using pymatgen
data_CsVZnF6
_symmetry_space_group_name_H-M   'P 1'
_cell_length_a   7.53672714
_cell_length_b   7.44344362
_cell_length_c   7.60503172
_cell_angle_alpha   90.00000000
_cell_angle_beta   59.69974618
_cell_angle_gamma   119.59140349
_symmetry_Int_Tables_number   1
_chemical_formula_structural   CsVZnF6
_chemical_formula_sum   'Cs2 V2 Zn2 F12'
_cell_volume   302.15915642
_cell_formula_units_Z   2
loop_
 _symmetry_equiv_pos_site_id
 _symmetry_equiv_pos_as_xyz
  1  'x, y, z'
loop_
 _atom_site_type_symbol
 _atom_site_label
 _atom_site_symmetry_multiplicity
 _atom_site_fract_x
 _atom_site_fract_y
 _atom_site_fract_z
 _atom_site_occupancy
  Cs  Cs0  1  0.75296502  0.37648251  0.37351749  1
  Cs  Cs1  1  0.24703498  0.62351749  0.62648251  1
  V  V2  1  -0.00000000  0.00000000  0.50000000  1
  V  V3  1  -0.00000000  0.00000000  0.00000000  1
  Zn  Zn4  1  0.50000000  0.50000000  0.00000000  1
  Zn  Zn5  1  0.50000000  0.00000000  0.00000000  1
  F  F6  1  0.86553870  0.93276935  0.31723065  1
  F  F7  1  0.64016133  0.32008066  0.92991934  1
  F  F8  1  0.24180492  0.93201121  0.93027881  1
  F  F9  1  0.24180492  0.30979371  0.32791627  1
  F  F10  1  0.24180492  0.30979371  0.93027881  1
  F  F11  1  0.24180492  0.93201121  0.32791627  1
  F  F12  1  0.13446130  0.06723065  0.68276935  1
  F  F13  1  0.35983867  0.67991934  0.07008066  1
  F  F14  1  0.75819508  0.06798879  0.06972119  1
  F  F15  1  0.75819508  0.69020629  0.67208373  1
  F  F16  1  0.75819508  0.69020629  0.06972119  1
  F  F17  1  0.75819508  0.06798879  0.67208373  1
