# generated using pymatgen
data_Cs4InSbCl12
_symmetry_space_group_name_H-M   'P 1'
_cell_length_a   7.67695765
_cell_length_b   10.67216974
_cell_length_c   7.67695765
_cell_angle_alpha   90.00000000
_cell_angle_beta   90.00000000
_cell_angle_gamma   90.00000000
_symmetry_Int_Tables_number   1
_chemical_formula_structural   Cs4InSbCl12
_chemical_formula_sum   'Cs4 In1 Sb1 Cl12'
_cell_volume   628.97156673
_cell_formula_units_Z   1
loop_
 _symmetry_equiv_pos_site_id
 _symmetry_equiv_pos_as_xyz
  1  'x, y, z'
loop_
 _atom_site_type_symbol
 _atom_site_label
 _atom_site_symmetry_multiplicity
 _atom_site_fract_x
 _atom_site_fract_y
 _atom_site_fract_z
 _atom_site_occupancy
  Cs  Cs0  1  0.50000000  0.21863582  -0.00000000  1
  Cs  Cs1  1  -0.00000000  0.78136418  0.50000000  1
  Cs  Cs2  1  0.50000000  0.78136418  -0.00000000  1
  Cs  Cs3  1  -0.00000000  0.21863582  0.50000000  1
  In  In4  1  -0.00000000  0.00000000  -0.00000000  1
  Sb  Sb5  1  0.50000000  0.50000000  0.50000000  1
  Cl  Cl6  1  -0.00000000  0.23941771  -0.00000000  1
  Cl  Cl7  1  0.50000000  0.72603877  0.50000000  1
  Cl  Cl8  1  0.27784497  0.50000000  0.27784497  1
  Cl  Cl9  1  0.76392606  0.00000000  0.76392606  1
  Cl  Cl10  1  0.27784497  0.50000000  0.72215503  1
  Cl  Cl11  1  0.76392606  0.00000000  0.23607394  1
  Cl  Cl12  1  -0.00000000  0.76058229  -0.00000000  1
  Cl  Cl13  1  0.50000000  0.27396123  0.50000000  1
  Cl  Cl14  1  0.72215503  0.50000000  0.72215503  1
  Cl  Cl15  1  0.23607394  0.00000000  0.23607394  1
  Cl  Cl16  1  0.72215503  0.50000000  0.27784497  1
  Cl  Cl17  1  0.23607394  0.00000000  0.76392606  1
