# generated using pymatgen
data_Dy(CuS)3
_symmetry_space_group_name_H-M   'P 1'
_cell_length_a   6.67758399
_cell_length_b   6.67808244
_cell_length_c   7.43030985
_cell_angle_alpha   63.28938393
_cell_angle_beta   90.00492616
_cell_angle_gamma   120.00366830
_symmetry_Int_Tables_number   1
_chemical_formula_structural   Dy(CuS)3
_chemical_formula_sum   'Dy2 Cu6 S6'
_cell_volume   245.27160945
_cell_formula_units_Z   2
loop_
 _symmetry_equiv_pos_site_id
 _symmetry_equiv_pos_as_xyz
  1  'x, y, z'
loop_
 _atom_site_type_symbol
 _atom_site_label
 _atom_site_symmetry_multiplicity
 _atom_site_fract_x
 _atom_site_fract_y
 _atom_site_fract_z
 _atom_site_occupancy
  Dy  Dy0  1  0.99981973  0.99965510  0.00050392  1
  Dy  Dy1  1  0.66684727  0.33367790  0.99949608  1
  Cu  Cu2  1  0.87253514  0.42134139  0.36835517  1
  Cu  Cu3  1  0.54881789  0.75926352  0.36832002  1
  Cu  Cu4  1  0.21067184  0.08297114  0.36836054  1
  Cu  Cu5  1  0.45599516  0.25036186  0.63163946  1
  Cu  Cu6  1  0.11784811  0.57407048  0.63167998  1
  Cu  Cu7  1  0.79413186  0.91199161  0.63164483  1
  S  S8  1  0.08454532  0.83491471  0.74882044  1
  S  S9  1  0.41615990  0.50075012  0.74881917  1
  S  S10  1  0.75028249  0.16652795  0.74885852  1
  S  S11  1  0.91638451  0.16680505  0.25114148  1
  S  S12  1  0.25050610  0.83258388  0.25118083  1
  S  S13  1  0.58212168  0.49841829  0.25117956  1
