# generated using pymatgen
data_CrAg(PSe3)2
_symmetry_space_group_name_H-M   'P 1'
_cell_length_a   6.38107237
_cell_length_b   6.38107237
_cell_length_c   7.35060044
_cell_angle_alpha   98.03530658
_cell_angle_beta   98.03530658
_cell_angle_gamma   119.99811858
_symmetry_Int_Tables_number   1
_chemical_formula_structural   CrAg(PSe3)2
_chemical_formula_sum   'Cr1 Ag1 P2 Se6'
_cell_volume   248.87337487
_cell_formula_units_Z   1
loop_
 _symmetry_equiv_pos_site_id
 _symmetry_equiv_pos_as_xyz
  1  'x, y, z'
loop_
 _atom_site_type_symbol
 _atom_site_label
 _atom_site_symmetry_multiplicity
 _atom_site_fract_x
 _atom_site_fract_y
 _atom_site_fract_z
 _atom_site_occupancy
  Cr  Cr0  1  0.33365652  0.66634348  0.00000000  1
  Ag  Ag1  1  0.66685714  0.33314286  -0.00000000  1
  P  P2  1  0.05049907  0.05105876  0.15728308  1
  P  P3  1  0.94894124  0.94950093  0.84271692  1
  Se  Se4  1  0.12061628  0.43478787  0.24155455  1
  Se  Se5  1  0.39196712  0.03504321  0.24177189  1
  Se  Se6  1  0.96495679  0.60803288  0.75822811  1
  Se  Se7  1  0.56521213  0.87938372  0.75844545  1
  Se  Se8  1  0.72059734  0.76330363  0.24089575  1
  Se  Se9  1  0.23669637  0.27940266  0.75910425  1
