# generated using pymatgen
data_CeAl2Cu3
_symmetry_space_group_name_H-M   'P 1'
_cell_length_a   4.18815759
_cell_length_b   5.30533227
_cell_length_c   5.16226778
_cell_angle_alpha   120.92107089
_cell_angle_beta   90.00000000
_cell_angle_gamma   90.00000000
_symmetry_Int_Tables_number   1
_chemical_formula_structural   CeAl2Cu3
_chemical_formula_sum   'Ce1 Al2 Cu3'
_cell_volume   98.40125676
_cell_formula_units_Z   1
loop_
 _symmetry_equiv_pos_site_id
 _symmetry_equiv_pos_as_xyz
  1  'x, y, z'
loop_
 _atom_site_type_symbol
 _atom_site_label
 _atom_site_symmetry_multiplicity
 _atom_site_fract_x
 _atom_site_fract_y
 _atom_site_fract_z
 _atom_site_occupancy
  Ce  Ce0  1  -0.00000000  0.99997895  0.00000000  1
  Al  Al1  1  0.50000000  0.49998902  0.50000273  1
  Al  Al2  1  0.50000000  0.99998629  0.49999727  1
  Cu  Cu3  1  -0.00000000  0.33595068  0.67195192  1
  Cu  Cu4  1  0.00000000  0.66399876  0.32804808  1
  Cu  Cu5  1  0.50000000  0.49999630  -0.00000000  1
