# generated using pymatgen
data_MoH18C5(NO)4
_symmetry_space_group_name_H-M   'P 1'
_cell_length_a   11.02646606
_cell_length_b   11.02646606
_cell_length_c   11.02646606
_cell_angle_alpha   90.00000000
_cell_angle_beta   90.00000000
_cell_angle_gamma   90.00000000
_symmetry_Int_Tables_number   1
_chemical_formula_structural   MoH18C5(NO)4
_chemical_formula_sum   'Mo4 H72 C20 N16 O16'
_cell_volume   1340.63031325
_cell_formula_units_Z   4
loop_
 _symmetry_equiv_pos_site_id
 _symmetry_equiv_pos_as_xyz
  1  'x, y, z'
loop_
 _atom_site_type_symbol
 _atom_site_label
 _atom_site_symmetry_multiplicity
 _atom_site_fract_x
 _atom_site_fract_y
 _atom_site_fract_z
 _atom_site_occupancy
  Mo  Mo0  1  0.49872179  0.99872179  0.50127821  1
  Mo  Mo1  1  0.99872179  0.50127821  0.49872179  1
  Mo  Mo2  1  0.50127821  0.49872179  0.99872179  1
  Mo  Mo3  1  0.00127821  0.00127821  0.00127821  1
  H  H4  1  0.33530996  0.23510272  0.49740110  1
  H  H5  1  0.50259890  0.83530996  0.26489728  1
  H  H6  1  0.73510272  0.00259890  0.66469004  1
  H  H7  1  0.83530996  0.26489728  0.50259890  1
  H  H8  1  0.00259890  0.66469004  0.73510272  1
  H  H9  1  0.23510272  0.49740110  0.33530996  1
  H  H10  1  0.66469004  0.73510272  0.00259890  1
  H  H11  1  0.49740110  0.33530996  0.23510272  1
  H  H12  1  0.26489728  0.50259890  0.83530996  1
  H  H13  1  0.16469004  0.76489728  0.99740110  1
  H  H14  1  0.99740110  0.16469004  0.76489728  1
  H  H15  1  0.76489728  0.99740110  0.16469004  1
  H  H16  1  0.23057198  0.35553533  0.49779246  1
  H  H17  1  0.50220754  0.73057198  0.14446467  1
  H  H18  1  0.85553533  0.00220754  0.76942802  1
  H  H19  1  0.73057198  0.14446467  0.50220754  1
  H  H20  1  0.00220754  0.76942802  0.85553533  1
  H  H21  1  0.35553533  0.49779246  0.23057198  1
  H  H22  1  0.76942802  0.85553533  0.00220754  1
  H  H23  1  0.49779246  0.23057198  0.35553533  1
  H  H24  1  0.14446467  0.50220754  0.73057198  1
  H  H25  1  0.26942802  0.64446467  0.99779246  1
  H  H26  1  0.99779246  0.26942802  0.64446467  1
  H  H27  1  0.64446467  0.99779246  0.26942802  1
  H  H28  1  0.75399041  0.64483578  0.63232994  1
  H  H29  1  0.36767006  0.25399041  0.85516422  1
  H  H30  1  0.14483578  0.86767006  0.24600959  1
  H  H31  1  0.25399041  0.85516422  0.36767006  1
  H  H32  1  0.86767006  0.24600959  0.14483578  1
  H  H33  1  0.64483578  0.63232994  0.75399041  1
  H  H34  1  0.24600959  0.14483578  0.86767006  1
  H  H35  1  0.63232994  0.75399041  0.64483578  1
  H  H36  1  0.85516422  0.36767006  0.25399041  1
  H  H37  1  0.74600959  0.35516422  0.13232994  1
  H  H38  1  0.13232994  0.74600959  0.35516422  1
  H  H39  1  0.35516422  0.13232994  0.74600959  1
  H  H40  1  0.39420325  0.55175154  0.54478069  1
  H  H41  1  0.45521931  0.89420325  0.94824846  1
  H  H42  1  0.05175154  0.95521931  0.60579675  1
  H  H43  1  0.89420325  0.94824846  0.45521931  1
  H  H44  1  0.95521931  0.60579675  0.05175154  1
  H  H45  1  0.55175154  0.54478069  0.39420325  1
  H  H46  1  0.60579675  0.05175154  0.95521931  1
  H  H47  1  0.54478069  0.39420325  0.55175154  1
  H  H48  1  0.94824846  0.45521931  0.89420325  1
  H  H49  1  0.10579675  0.44824846  0.04478069  1
  H  H50  1  0.04478069  0.10579675  0.44824846  1
  H  H51  1  0.44824846  0.04478069  0.10579675  1
  H  H52  1  0.43743275  0.70669588  0.57046278  1
  H  H53  1  0.42953722  0.93743275  0.79330412  1
  H  H54  1  0.20669588  0.92953722  0.56256725  1
  H  H55  1  0.93743275  0.79330412  0.42953722  1
  H  H56  1  0.92953722  0.56256725  0.20669588  1
  H  H57  1  0.70669588  0.57046278  0.43743275  1
  H  H58  1  0.56256725  0.20669588  0.92953722  1
  H  H59  1  0.57046278  0.43743275  0.70669588  1
  H  H60  1  0.79330412  0.42953722  0.93743275  1
  H  H61  1  0.06256725  0.29330412  0.07046278  1
  H  H62  1  0.07046278  0.06256725  0.29330412  1
  H  H63  1  0.29330412  0.07046278  0.06256725  1
  H  H64  1  0.42945146  0.59876114  0.69636219  1
  H  H65  1  0.30363781  0.92945146  0.90123886  1
  H  H66  1  0.09876114  0.80363781  0.57054854  1
  H  H67  1  0.92945146  0.90123886  0.30363781  1
  H  H68  1  0.80363781  0.57054854  0.09876114  1
  H  H69  1  0.59876114  0.69636219  0.42945146  1
  H  H70  1  0.57054854  0.09876114  0.80363781  1
  H  H71  1  0.69636219  0.42945146  0.59876114  1
  H  H72  1  0.90123886  0.30363781  0.92945146  1
  H  H73  1  0.07054854  0.40123886  0.19636219  1
  H  H74  1  0.19636219  0.07054854  0.40123886  1
  H  H75  1  0.40123886  0.19636219  0.07054854  1
  C  C76  1  0.36203117  0.36203117  0.36203117  1
  C  C77  1  0.63796883  0.86203117  0.13796883  1
  C  C78  1  0.86203117  0.13796883  0.63796883  1
  C  C79  1  0.13796883  0.63796883  0.86203117  1
  C  C80  1  0.65909599  0.65909599  0.65909599  1
  C  C81  1  0.34090401  0.15909599  0.84090401  1
  C  C82  1  0.15909599  0.84090401  0.34090401  1
  C  C83  1  0.84090401  0.34090401  0.15909599  1
  C  C84  1  0.44990365  0.61260629  0.60009107  1
  C  C85  1  0.39990893  0.94990365  0.88739371  1
  C  C86  1  0.11260629  0.89990893  0.55009635  1
  C  C87  1  0.94990365  0.88739371  0.39990893  1
  C  C88  1  0.89990893  0.55009635  0.11260629  1
  C  C89  1  0.61260629  0.60009107  0.44990365  1
  C  C90  1  0.55009635  0.11260629  0.89990893  1
  C  C91  1  0.60009107  0.44990365  0.61260629  1
  C  C92  1  0.88739371  0.39990893  0.94990365  1
  C  C93  1  0.05009635  0.38739371  0.10009107  1
  C  C94  1  0.10009107  0.05009635  0.38739371  1
  C  C95  1  0.38739371  0.10009107  0.05009635  1
  N  N96  1  0.30876792  0.31833782  0.46240971  1
  N  N97  1  0.53759029  0.80876792  0.18166218  1
  N  N98  1  0.81833782  0.03759029  0.69123208  1
  N  N99  1  0.80876792  0.18166218  0.53759029  1
  N  N100  1  0.03759029  0.69123208  0.81833782  1
  N  N101  1  0.31833782  0.46240971  0.30876792  1
  N  N102  1  0.69123208  0.81833782  0.03759029  1
  N  N103  1  0.46240971  0.30876792  0.31833782  1
  N  N104  1  0.18166218  0.53759029  0.80876792  1
  N  N105  1  0.19123208  0.68166218  0.96240971  1
  N  N106  1  0.96240971  0.19123208  0.68166218  1
  N  N107  1  0.68166218  0.96240971  0.19123208  1
  N  N108  1  0.58034934  0.58034934  0.58034934  1
  N  N109  1  0.41965066  0.08034934  0.91965066  1
  N  N110  1  0.08034934  0.91965066  0.41965066  1
  N  N111  1  0.91965066  0.41965066  0.08034934  1
  O  O112  1  0.59357345  0.09357345  0.40642655  1
  O  O113  1  0.09357345  0.40642655  0.59357345  1
  O  O114  1  0.40642655  0.59357345  0.09357345  1
  O  O115  1  0.90642655  0.90642655  0.90642655  1
  O  O116  1  0.36606424  0.08286947  0.54456705  1
  O  O117  1  0.45543295  0.86606424  0.41713053  1
  O  O118  1  0.58286947  0.95543295  0.63393576  1
  O  O119  1  0.86606424  0.41713053  0.45543295  1
  O  O120  1  0.95543295  0.63393576  0.58286947  1
  O  O121  1  0.08286947  0.54456705  0.36606424  1
  O  O122  1  0.63393576  0.58286947  0.95543295  1
  O  O123  1  0.54456705  0.36606424  0.08286947  1
  O  O124  1  0.41713053  0.45543295  0.86606424  1
  O  O125  1  0.13393576  0.91713053  0.04456705  1
  O  O126  1  0.04456705  0.13393576  0.91713053  1
  O  O127  1  0.91713053  0.04456705  0.13393576  1
