# generated using pymatgen
data_CeSm3S4
_symmetry_space_group_name_H-M   'P 1'
_cell_length_a   3.99355884
_cell_length_b   6.96559260
_cell_length_c   6.96362049
_cell_angle_alpha   100.05241298
_cell_angle_beta   106.66314315
_cell_angle_gamma   90.00000012
_symmetry_Int_Tables_number   1
_chemical_formula_structural   CeSm3S4
_chemical_formula_sum   'Ce1 Sm3 S4'
_cell_volume   182.46981199
_cell_formula_units_Z   1
loop_
 _symmetry_equiv_pos_site_id
 _symmetry_equiv_pos_as_xyz
  1  'x, y, z'
loop_
 _atom_site_type_symbol
 _atom_site_label
 _atom_site_symmetry_multiplicity
 _atom_site_fract_x
 _atom_site_fract_y
 _atom_site_fract_z
 _atom_site_occupancy
  Ce  Ce0  1  0.00000000  0.00000000  0.00000000  1
  Sm  Sm1  1  0.75154714  0.25089225  0.50309428  1
  Sm  Sm2  1  0.50000000  0.50000000  0.00000000  1
  Sm  Sm3  1  0.24845286  0.74910775  0.49690572  1
  S  S4  1  0.37444568  0.12538123  0.74889136  1
  S  S5  1  0.12495695  0.37485286  0.24991390  1
  S  S6  1  0.87504305  0.62514714  0.75008610  1
  S  S7  1  0.62555432  0.87461877  0.25110864  1
