# generated using pymatgen
data_Cs3Pr5(PS4)6
_symmetry_space_group_name_H-M   'P 1'
_cell_length_a   10.63815285
_cell_length_b   10.63815285
_cell_length_c   21.51104704
_cell_angle_alpha   79.70200491
_cell_angle_beta   79.70200491
_cell_angle_gamma   78.02043882
_symmetry_Int_Tables_number   1
_chemical_formula_structural   Cs3Pr5(PS4)6
_chemical_formula_sum   'Cs6 Pr10 P12 S48'
_cell_volume   2317.51430411
_cell_formula_units_Z   2
loop_
 _symmetry_equiv_pos_site_id
 _symmetry_equiv_pos_as_xyz
  1  'x, y, z'
loop_
 _atom_site_type_symbol
 _atom_site_label
 _atom_site_symmetry_multiplicity
 _atom_site_fract_x
 _atom_site_fract_y
 _atom_site_fract_z
 _atom_site_occupancy
  Cs  Cs0  1  0.80306218  0.55428172  0.21054380  1
  Cs  Cs1  1  0.44621694  0.19643324  0.28876957  1
  Cs  Cs2  1  0.19643324  0.44621694  0.78876957  1
  Cs  Cs3  1  0.55428172  0.80306218  0.71054380  1
  Cs  Cs4  1  0.01012597  0.50263915  0.47233226  1
  Cs  Cs5  1  0.50263915  0.01012597  0.97233226  1
  Pr  Pr6  1  0.29067284  0.51389894  0.07504932  1
  Pr  Pr7  1  0.48549055  0.70920651  0.42546380  1
  Pr  Pr8  1  0.70920651  0.48549055  0.92546380  1
  Pr  Pr9  1  0.51389894  0.29067284  0.57504932  1
  Pr  Pr10  1  0.93639269  0.17329686  0.06799989  1
  Pr  Pr11  1  0.82699793  0.06330727  0.43248451  1
  Pr  Pr12  1  0.06330727  0.82699793  0.93248451  1
  Pr  Pr13  1  0.17329686  0.93639269  0.56799989  1
  Pr  Pr14  1  0.06597456  0.93556224  0.24941828  1
  Pr  Pr15  1  0.93556224  0.06597456  0.74941828  1
  P  P16  1  0.08124593  0.82252309  0.10085039  1
  P  P17  1  0.17726030  0.91899259  0.39924289  1
  P  P18  1  0.91899259  0.17726030  0.89924289  1
  P  P19  1  0.82252309  0.08124593  0.60085039  1
  P  P20  1  0.15667956  0.23948785  0.16350183  1
  P  P21  1  0.75971141  0.84357407  0.33667984  1
  P  P22  1  0.84357407  0.75971141  0.83667984  1
  P  P23  1  0.23948785  0.15667956  0.66350183  1
  P  P24  1  0.64705112  0.38460360  0.40349281  1
  P  P25  1  0.61565105  0.35238089  0.09655094  1
  P  P26  1  0.35238089  0.61565105  0.59655094  1
  P  P27  1  0.38460360  0.64705112  0.90349281  1
  S  S28  1  0.16866419  0.29451569  0.06502823  1
  S  S29  1  0.70605533  0.83069441  0.43519994  1
  S  S30  1  0.83069441  0.70605533  0.93519994  1
  S  S31  1  0.29451569  0.16866419  0.56502823  1
  S  S32  1  0.02577553  0.68068762  0.06468404  1
  S  S33  1  0.31928405  0.97437988  0.43522854  1
  S  S34  1  0.97437988  0.31928405  0.93522854  1
  S  S35  1  0.68068762  0.02577553  0.56468404  1
  S  S36  1  0.96987648  0.20663374  0.19600115  1
  S  S37  1  0.79389682  0.02967610  0.30401941  1
  S  S38  1  0.02967610  0.79389682  0.80401941  1
  S  S39  1  0.20663374  0.96987648  0.69600115  1
  S  S40  1  0.82647978  0.32068253  0.35757534  1
  S  S41  1  0.67992520  0.17394231  0.14261486  1
  S  S42  1  0.17394231  0.67992520  0.64261486  1
  S  S43  1  0.32068253  0.82647978  0.85757534  1
  S  S44  1  0.66823038  0.47434723  0.47814304  1
  S  S45  1  0.52580539  0.33193076  0.02170103  1
  S  S46  1  0.33193076  0.52580539  0.52170103  1
  S  S47  1  0.47434723  0.66823038  0.97814304  1
  S  S48  1  0.52604611  0.50432957  0.34677603  1
  S  S49  1  0.49562077  0.47371685  0.15308632  1
  S  S50  1  0.47371685  0.49562077  0.65308632  1
  S  S51  1  0.50432957  0.52604611  0.84677603  1
  S  S52  1  0.93077452  0.71988858  0.31636178  1
  S  S53  1  0.27988032  0.06908313  0.18351647  1
  S  S54  1  0.06908313  0.27988032  0.68351647  1
  S  S55  1  0.71988858  0.93077452  0.81636178  1
  S  S56  1  0.04882627  0.84313547  0.47299390  1
  S  S57  1  0.15643232  0.95126466  0.02695183  1
  S  S58  1  0.95126466  0.15643232  0.52695183  1
  S  S59  1  0.84313547  0.04882627  0.97299390  1
  S  S60  1  0.77648783  0.43683644  0.05759915  1
  S  S61  1  0.56330381  0.22347989  0.44220832  1
  S  S62  1  0.22347989  0.56330381  0.94220832  1
  S  S63  1  0.43683644  0.77648783  0.55759915  1
  S  S64  1  0.07889839  0.08217269  0.35084359  1
  S  S65  1  0.91804753  0.92111608  0.14917627  1
  S  S66  1  0.92111608  0.91804753  0.64917627  1
  S  S67  1  0.08217269  0.07889839  0.85084359  1
  S  S68  1  0.18259189  0.39223340  0.20076624  1
  S  S69  1  0.60786683  0.81707654  0.29931643  1
  S  S70  1  0.81707654  0.60786683  0.79931643  1
  S  S71  1  0.39223340  0.18259189  0.70076624  1
  S  S72  1  0.21584657  0.73886457  0.15904602  1
  S  S73  1  0.26089372  0.78372077  0.34116192  1
  S  S74  1  0.78372077  0.26089372  0.84116192  1
  S  S75  1  0.73886457  0.21584657  0.65904602  1
