# generated using pymatgen
data_CeGaCu4
_symmetry_space_group_name_H-M   'P 1'
_cell_length_a   4.15150471
_cell_length_b   5.13673974
_cell_length_c   5.12876023
_cell_angle_alpha   120.05148051
_cell_angle_beta   90.00000000
_cell_angle_gamma   90.00000000
_symmetry_Int_Tables_number   1
_chemical_formula_structural   CeGaCu4
_chemical_formula_sum   'Ce1 Ga1 Cu4'
_cell_volume   94.66961265
_cell_formula_units_Z   1
loop_
 _symmetry_equiv_pos_site_id
 _symmetry_equiv_pos_as_xyz
  1  'x, y, z'
loop_
 _atom_site_type_symbol
 _atom_site_label
 _atom_site_symmetry_multiplicity
 _atom_site_fract_x
 _atom_site_fract_y
 _atom_site_fract_z
 _atom_site_occupancy
  Ce  Ce0  1  -0.00000000  0.99998908  -0.00000000  1
  Ga  Ga1  1  0.50000000  0.50000074  0.00000000  1
  Cu  Cu2  1  0.00000000  0.33241001  0.66489990  1
  Cu  Cu3  1  -0.00000000  0.66751011  0.33510010  1
  Cu  Cu4  1  0.50000000  0.49999646  0.50000286  1
  Cu  Cu5  1  0.50000000  0.99999360  0.49999714  1
