# generated using pymatgen
data_Ce4Cu3(SO)4
_symmetry_space_group_name_H-M   'P 1'
_cell_length_a   5.48519835
_cell_length_b   5.48519835
_cell_length_c   9.15756480
_cell_angle_alpha   72.57302546
_cell_angle_beta   72.57302546
_cell_angle_gamma   90.00000000
_symmetry_Int_Tables_number   1
_chemical_formula_structural   Ce4Cu3(SO)4
_chemical_formula_sum   'Ce4 Cu3 S4 O4'
_cell_volume   249.59361135
_cell_formula_units_Z   1
loop_
 _symmetry_equiv_pos_site_id
 _symmetry_equiv_pos_as_xyz
  1  'x, y, z'
loop_
 _atom_site_type_symbol
 _atom_site_label
 _atom_site_symmetry_multiplicity
 _atom_site_fract_x
 _atom_site_fract_y
 _atom_site_fract_z
 _atom_site_occupancy
  Ce  Ce0  1  0.32693399  0.57801482  0.34505119  1
  Ce  Ce1  1  0.82801482  0.07693399  0.34505119  1
  Ce  Ce2  1  0.17306601  0.92306601  0.65494881  1
  Ce  Ce3  1  0.67198518  0.42198518  0.65494881  1
  Cu  Cu4  1  0.25000000  0.00000000  -0.00000000  1
  Cu  Cu5  1  0.25000000  0.50000000  -0.00000000  1
  Cu  Cu6  1  0.75000000  0.00000000  -0.00000000  1
  S  S7  1  0.08422419  0.33299931  0.83277651  1
  S  S8  1  0.58299931  0.83422419  0.83277651  1
  S  S9  1  0.41577581  0.16577581  0.16722349  1
  S  S10  1  0.91700069  0.66700069  0.16722349  1
  O  O11  1  0.99962154  0.74962154  0.50075692  1
  O  O12  1  0.50037846  0.25037846  0.49924308  1
  O  O13  1  0.50000000  0.75000000  0.50000000  1
  O  O14  1  0.00000000  0.25000000  0.50000000  1
