# generated using pymatgen
data_Ce2Al41Mo3
_symmetry_space_group_name_H-M   'P 1'
_cell_length_a   10.36314820
_cell_length_b   10.32233227
_cell_length_c   10.36314820
_cell_angle_alpha   90.00000000
_cell_angle_beta   60.00000000
_cell_angle_gamma   120.13088833
_symmetry_Int_Tables_number   1
_chemical_formula_structural   Ce2Al41Mo3
_chemical_formula_sum   'Ce2 Al41 Mo3'
_cell_volume   782.31961269
_cell_formula_units_Z   1
loop_
 _symmetry_equiv_pos_site_id
 _symmetry_equiv_pos_as_xyz
  1  'x, y, z'
loop_
 _atom_site_type_symbol
 _atom_site_label
 _atom_site_symmetry_multiplicity
 _atom_site_fract_x
 _atom_site_fract_y
 _atom_site_fract_z
 _atom_site_occupancy
  Ce  Ce0  1  0.24983728  0.12475592  0.12508136  1
  Ce  Ce1  1  0.75016272  0.87524408  0.87491864  1
  Al  Al2  1  0.52420206  0.76287956  0.48789897  1
  Al  Al3  1  0.97548206  0.48820920  0.76225897  1
  Al  Al4  1  0.25077853  0.76287956  0.76132250  1
  Al  Al5  1  0.25046817  0.48820920  0.48727286  1
  Al  Al6  1  0.25046817  0.48820920  0.76225897  1
  Al  Al7  1  0.25077853  0.76287956  0.48789897  1
  Al  Al8  1  0.47579794  0.23712044  0.51210103  1
  Al  Al9  1  0.02451794  0.51179080  0.23774103  1
  Al  Al10  1  0.74922147  0.23712044  0.23867750  1
  Al  Al11  1  0.74953183  0.51179080  0.51272714  1
  Al  Al12  1  0.74953183  0.51179080  0.23774103  1
  Al  Al13  1  0.74922147  0.23712044  0.51210103  1
  Al  Al14  1  0.38189127  0.05672999  0.32516128  1
  Al  Al15  1  0.38159445  0.32452839  0.79336274  1
  Al  Al16  1  0.11789113  0.32452839  0.05706606  1
  Al  Al17  1  0.11850622  0.79343489  0.32507132  1
  Al  Al18  1  0.64957120  0.32452839  0.05706606  1
  Al  Al19  1  0.84967744  0.05672999  0.32516128  1
  Al  Al20  1  0.84985736  0.79343489  0.32507132  1
  Al  Al21  1  0.64957120  0.32452839  0.79336274  1
  Al  Al22  1  0.38159445  0.32452839  0.32504281  1
  Al  Al23  1  0.11850622  0.79343489  0.05642246  1
  Al  Al24  1  0.38189127  0.05672999  0.79294744  1
  Al  Al25  1  0.11789113  0.32452839  0.32504281  1
  Al  Al26  1  0.61810873  0.94327001  0.67483872  1
  Al  Al27  1  0.61840555  0.67547161  0.20663726  1
  Al  Al28  1  0.88210887  0.67547161  0.94293394  1
  Al  Al29  1  0.88149378  0.20656511  0.67492868  1
  Al  Al30  1  0.35042880  0.67547161  0.94293394  1
  Al  Al31  1  0.15032256  0.94327001  0.67483872  1
  Al  Al32  1  0.15014264  0.20656511  0.67492868  1
  Al  Al33  1  0.35042880  0.67547161  0.20663726  1
  Al  Al34  1  0.61840555  0.67547161  0.67495719  1
  Al  Al35  1  0.88149378  0.20656511  0.94357754  1
  Al  Al36  1  0.61810873  0.94327001  0.20705256  1
  Al  Al37  1  0.88210887  0.67547161  0.67495719  1
  Al  Al38  1  0.50000000  0.50000000  -0.00000000  1
  Al  Al39  1  0.50000000  0.00000000  -0.00000000  1
  Al  Al40  1  0.00000000  0.00000000  0.50000000  1
  Al  Al41  1  0.00000000  0.00000000  -0.00000000  1
  Al  Al42  1  0.50000000  0.00000000  0.50000000  1
  Mo  Mo43  1  0.50000000  0.50000000  0.50000000  1
  Mo  Mo44  1  0.00000000  0.50000000  -0.00000000  1
  Mo  Mo45  1  0.00000000  0.50000000  0.50000000  1
