# generated using pymatgen
data_BiPbIO2
_symmetry_space_group_name_H-M   'P 1'
_cell_length_a   4.07346284
_cell_length_b   4.07346284
_cell_length_c   7.51551151
_cell_angle_alpha   74.27599848
_cell_angle_beta   74.27599848
_cell_angle_gamma   90.00000000
_symmetry_Int_Tables_number   1
_chemical_formula_structural   BiPbIO2
_chemical_formula_sum   'Bi1 Pb1 I1 O2'
_cell_volume   115.18332045
_cell_formula_units_Z   1
loop_
 _symmetry_equiv_pos_site_id
 _symmetry_equiv_pos_as_xyz
  1  'x, y, z'
loop_
 _atom_site_type_symbol
 _atom_site_label
 _atom_site_symmetry_multiplicity
 _atom_site_fract_x
 _atom_site_fract_y
 _atom_site_fract_z
 _atom_site_occupancy
  Bi  Bi0  1  0.66577761  0.66577761  0.66844479  1
  Pb  Pb1  1  0.34043169  0.34043169  0.31913662  1
  I  I2  1  0.00665329  0.00665329  0.98669342  1
  O  O3  1  0.74356871  0.24356871  0.51286259  1
  O  O4  1  0.24356871  0.74356871  0.51286259  1
