# generated using pymatgen
data_Ca4AlZn43
_symmetry_space_group_name_H-M   'P 1'
_cell_length_a   6.86582087
_cell_length_b   8.29517808
_cell_length_c   15.11577444
_cell_angle_alpha   90.00000000
_cell_angle_beta   90.00000000
_cell_angle_gamma   114.44654073
_symmetry_Int_Tables_number   1
_chemical_formula_structural   Ca4AlZn43
_chemical_formula_sum   'Ca4 Al1 Zn43'
_cell_volume   783.71098131
_cell_formula_units_Z   1
loop_
 _symmetry_equiv_pos_site_id
 _symmetry_equiv_pos_as_xyz
  1  'x, y, z'
loop_
 _atom_site_type_symbol
 _atom_site_label
 _atom_site_symmetry_multiplicity
 _atom_site_fract_x
 _atom_site_fract_y
 _atom_site_fract_z
 _atom_site_occupancy
  Ca  Ca0  1  -0.00000000  0.25000000  0.37487698  1
  Ca  Ca1  1  0.50000000  0.25000000  0.87512302  1
  Ca  Ca2  1  0.50000000  0.75000000  0.12500000  1
  Ca  Ca3  1  -0.00000000  0.75000000  0.62500000  1
  Al  Al4  1  -0.00000000  0.75000000  0.12500000  1
  Zn  Zn5  1  0.46465805  0.57530216  0.33329171  1
  Zn  Zn6  1  0.96437266  0.57503961  0.83296908  1
  Zn  Zn7  1  0.75921376  0.16437706  0.03855824  1
  Zn  Zn8  1  0.25979826  0.16383905  0.53874720  1
  Zn  Zn9  1  0.63888985  0.42459770  0.08316479  1
  Zn  Zn10  1  0.13875526  0.42394406  0.58301809  1
  Zn  Zn11  1  0.25977322  0.66387497  0.46137218  1
  Zn  Zn12  1  0.75985940  0.66467089  0.96132723  1
  Zn  Zn13  1  0.34483670  0.33562294  0.21144176  1
  Zn  Zn14  1  0.84595921  0.33616095  0.71125280  1
  Zn  Zn15  1  0.13933305  0.92496039  0.41703092  1
  Zn  Zn16  1  0.63935590  0.92469784  0.91670829  1
  Zn  Zn17  1  0.84518851  0.83532911  0.28867277  1
  Zn  Zn18  1  0.34589825  0.83612503  0.78862782  1
  Zn  Zn19  1  0.96429215  0.07540230  0.16683521  1
  Zn  Zn20  1  0.46481121  0.07605594  0.66698191  1
  Zn  Zn21  1  0.03570785  0.42459770  0.16683521  1
  Zn  Zn22  1  0.53518879  0.42394406  0.66698191  1
  Zn  Zn23  1  0.74022678  0.83612503  0.46137218  1
  Zn  Zn24  1  0.24014060  0.83532911  0.96132723  1
  Zn  Zn25  1  0.86066695  0.57503961  0.41703092  1
  Zn  Zn26  1  0.36064410  0.57530216  0.91670829  1
  Zn  Zn27  1  0.24078624  0.33562294  0.03855824  1
  Zn  Zn28  1  0.74020174  0.33616095  0.53874720  1
  Zn  Zn29  1  0.15481149  0.66467089  0.28867277  1
  Zn  Zn30  1  0.65410175  0.66387497  0.78862782  1
  Zn  Zn31  1  0.36111015  0.07540230  0.08316479  1
  Zn  Zn32  1  0.86124474  0.07605594  0.58301809  1
  Zn  Zn33  1  0.65516330  0.16437706  0.21144176  1
  Zn  Zn34  1  0.15404079  0.16383905  0.71125280  1
  Zn  Zn35  1  0.53534195  0.92469784  0.33329171  1
  Zn  Zn36  1  0.03562734  0.92496039  0.83296908  1
  Zn  Zn37  1  0.00066435  0.49900753  0.99954338  1
  Zn  Zn38  1  0.50012180  0.50022788  0.50012011  1
  Zn  Zn39  1  0.74834318  0.49900753  0.25045662  1
  Zn  Zn40  1  0.25010608  0.50022788  0.74987989  1
  Zn  Zn41  1  0.99933565  0.00099247  0.99954338  1
  Zn  Zn42  1  0.49987820  0.99977212  0.50012011  1
  Zn  Zn43  1  0.25165682  0.00099247  0.25045662  1
  Zn  Zn44  1  0.74989392  0.99977212  0.74987989  1
  Zn  Zn45  1  0.50000000  0.75000000  0.62500000  1
  Zn  Zn46  1  0.50000000  0.25000000  0.37428052  1
  Zn  Zn47  1  0.00000000  0.25000000  0.87571948  1
