# generated using pymatgen
data_Ce2Ga3Cu
_symmetry_space_group_name_H-M   'P 1'
_cell_length_a   4.46063164
_cell_length_b   4.46063164
_cell_length_c   7.35475184
_cell_angle_alpha   90.00662612
_cell_angle_beta   89.99337388
_cell_angle_gamma   119.99782391
_symmetry_Int_Tables_number   1
_chemical_formula_structural   Ce2Ga3Cu
_chemical_formula_sum   'Ce2 Ga3 Cu1'
_cell_volume   126.73626268
_cell_formula_units_Z   1
loop_
 _symmetry_equiv_pos_site_id
 _symmetry_equiv_pos_as_xyz
  1  'x, y, z'
loop_
 _atom_site_type_symbol
 _atom_site_label
 _atom_site_symmetry_multiplicity
 _atom_site_fract_x
 _atom_site_fract_y
 _atom_site_fract_z
 _atom_site_occupancy
  Ce  Ce0  1  -0.00000198  0.00000198  0.73323075  1
  Ce  Ce1  1  0.99999392  0.00000608  0.26066191  1
  Ga  Ga2  1  0.33334284  0.66665716  0.48616030  1
  Ga  Ga3  1  0.33339888  0.66660112  0.03059923  1
  Ga  Ga4  1  0.66660272  0.33339728  0.96129310  1
  Cu  Cu5  1  0.66666362  0.33333638  0.52805472  1
