# generated using pymatgen
data_La3Pb3I13O40
_symmetry_space_group_name_H-M   'P 1'
_cell_length_a   13.79900673
_cell_length_b   13.79900673
_cell_length_c   13.79900661
_cell_angle_alpha   108.95071729
_cell_angle_beta   108.95071729
_cell_angle_gamma   108.95071818
_symmetry_Int_Tables_number   1
_chemical_formula_structural   La3Pb3I13O40
_chemical_formula_sum   'La6 Pb6 I26 O80'
_cell_volume   2060.71096209
_cell_formula_units_Z   2
loop_
 _symmetry_equiv_pos_site_id
 _symmetry_equiv_pos_as_xyz
  1  'x, y, z'
loop_
 _atom_site_type_symbol
 _atom_site_label
 _atom_site_symmetry_multiplicity
 _atom_site_fract_x
 _atom_site_fract_y
 _atom_site_fract_z
 _atom_site_occupancy
  La  La0  1  0.47493180  0.60192211  0.24036959  1
  La  La1  1  0.60192211  0.24036959  0.47493180  1
  La  La2  1  0.24036959  0.47493180  0.60192211  1
  La  La3  1  0.97493180  0.74036959  0.10192211  1
  La  La4  1  0.74036959  0.10192211  0.97493180  1
  La  La5  1  0.10192211  0.97493180  0.74036959  1
  Pb  Pb6  1  0.67721767  0.81049333  0.61721078  1
  Pb  Pb7  1  0.81049333  0.61721078  0.67721767  1
  Pb  Pb8  1  0.61721078  0.67721767  0.81049333  1
  Pb  Pb9  1  0.17721767  0.11721078  0.31049333  1
  Pb  Pb10  1  0.11721078  0.31049333  0.17721767  1
  Pb  Pb11  1  0.31049333  0.17721767  0.11721078  1
  I  I12  1  0.35899446  0.70213432  0.46537130  1
  I  I13  1  0.70213432  0.46537130  0.35899446  1
  I  I14  1  0.46537130  0.35899446  0.70213432  1
  I  I15  1  0.85899446  0.96537130  0.20213432  1
  I  I16  1  0.96537130  0.20213432  0.85899446  1
  I  I17  1  0.20213432  0.85899446  0.96537130  1
  I  I18  1  0.64129540  0.58820715  0.05010006  1
  I  I19  1  0.58820715  0.05010006  0.64129540  1
  I  I20  1  0.05010006  0.64129540  0.58820715  1
  I  I21  1  0.14129540  0.55010006  0.08820715  1
  I  I22  1  0.55010006  0.08820715  0.14129540  1
  I  I23  1  0.08820715  0.14129540  0.55010006  1
  I  I24  1  0.91836425  0.91836425  0.91836425  1
  I  I25  1  0.41836425  0.41836425  0.41836425  1
  I  I26  1  0.63816289  0.94839635  0.34433638  1
  I  I27  1  0.94839635  0.34433638  0.63816289  1
  I  I28  1  0.34433638  0.63816289  0.94839635  1
  I  I29  1  0.13816289  0.84433638  0.44839635  1
  I  I30  1  0.84433638  0.44839635  0.13816289  1
  I  I31  1  0.44839635  0.13816289  0.84433638  1
  I  I32  1  0.82607252  0.80174007  0.42769213  1
  I  I33  1  0.80174007  0.42769213  0.82607252  1
  I  I34  1  0.42769213  0.82607252  0.80174007  1
  I  I35  1  0.32607252  0.92769213  0.30174007  1
  I  I36  1  0.92769213  0.30174007  0.32607252  1
  I  I37  1  0.30174007  0.32607252  0.92769213  1
  O  O38  1  0.65055182  0.65055182  0.65055182  1
  O  O39  1  0.15055182  0.15055182  0.15055182  1
  O  O40  1  0.51319776  0.80132955  0.24838070  1
  O  O41  1  0.80132955  0.24838070  0.51319776  1
  O  O42  1  0.24838070  0.51319776  0.80132955  1
  O  O43  1  0.01319776  0.74838070  0.30132955  1
  O  O44  1  0.74838070  0.30132955  0.01319776  1
  O  O45  1  0.30132955  0.01319776  0.74838070  1
  O  O46  1  0.46326741  0.82330867  0.61493473  1
  O  O47  1  0.82330867  0.61493473  0.46326741  1
  O  O48  1  0.61493473  0.46326741  0.82330867  1
  O  O49  1  0.96326741  0.11493473  0.32330867  1
  O  O50  1  0.11493473  0.32330867  0.96326741  1
  O  O51  1  0.32330867  0.96326741  0.11493473  1
  O  O52  1  0.85099259  0.92282852  0.39399840  1
  O  O53  1  0.92282852  0.39399840  0.85099259  1
  O  O54  1  0.39399840  0.85099259  0.92282852  1
  O  O55  1  0.35099259  0.89399840  0.42282852  1
  O  O56  1  0.89399840  0.42282852  0.35099259  1
  O  O57  1  0.42282852  0.35099259  0.89399840  1
  O  O58  1  0.78635287  0.92944697  0.85136755  1
  O  O59  1  0.92944697  0.85136755  0.78635287  1
  O  O60  1  0.85136755  0.78635287  0.92944697  1
  O  O61  1  0.28635287  0.35136755  0.42944697  1
  O  O62  1  0.35136755  0.42944697  0.28635287  1
  O  O63  1  0.42944697  0.28635287  0.35136755  1
  O  O64  1  0.55422962  0.02846096  0.35390157  1
  O  O65  1  0.02846096  0.35390157  0.55422962  1
  O  O66  1  0.35390157  0.55422962  0.02846096  1
  O  O67  1  0.05422962  0.85390157  0.52846096  1
  O  O68  1  0.85390157  0.52846096  0.05422962  1
  O  O69  1  0.52846096  0.05422962  0.85390157  1
  O  O70  1  0.54676534  0.62929952  0.96555437  1
  O  O71  1  0.62929952  0.96555437  0.54676534  1
  O  O72  1  0.96555437  0.54676534  0.62929952  1
  O  O73  1  0.04676534  0.46555437  0.12929952  1
  O  O74  1  0.46555437  0.12929952  0.04676534  1
  O  O75  1  0.12929952  0.04676534  0.46555437  1
  O  O76  1  0.78112455  0.71061530  0.09445427  1
  O  O77  1  0.71061530  0.09445427  0.78112455  1
  O  O78  1  0.09445427  0.78112455  0.71061530  1
  O  O79  1  0.28112455  0.59445427  0.21061530  1
  O  O80  1  0.59445427  0.21061530  0.28112455  1
  O  O81  1  0.21061530  0.28112455  0.59445427  1
  O  O82  1  0.47486492  0.68648236  0.43205059  1
  O  O83  1  0.68648236  0.43205059  0.47486492  1
  O  O84  1  0.43205059  0.47486492  0.68648236  1
  O  O85  1  0.97486492  0.93205059  0.18648236  1
  O  O86  1  0.93205059  0.18648236  0.97486492  1
  O  O87  1  0.18648236  0.97486492  0.93205059  1
  O  O88  1  0.31947415  0.58239694  0.49823556  1
  O  O89  1  0.58239694  0.49823556  0.31947415  1
  O  O90  1  0.49823556  0.31947415  0.58239694  1
  O  O91  1  0.81947415  0.99823556  0.08239694  1
  O  O92  1  0.99823556  0.08239694  0.81947415  1
  O  O93  1  0.08239694  0.81947415  0.99823556  1
  O  O94  1  0.67729942  0.97996879  0.23918465  1
  O  O95  1  0.97996879  0.23918465  0.67729942  1
  O  O96  1  0.23918465  0.67729942  0.97996879  1
  O  O97  1  0.17729942  0.73918465  0.47996879  1
  O  O98  1  0.73918465  0.47996879  0.17729942  1
  O  O99  1  0.47996879  0.17729942  0.73918465  1
  O  O100  1  0.63337455  0.64466699  0.18596847  1
  O  O101  1  0.64466699  0.18596847  0.63337455  1
  O  O102  1  0.18596847  0.63337455  0.64466699  1
  O  O103  1  0.13337455  0.68596847  0.14466699  1
  O  O104  1  0.68596847  0.14466699  0.13337455  1
  O  O105  1  0.14466699  0.13337455  0.68596847  1
  O  O106  1  0.67830812  0.76291977  0.41340268  1
  O  O107  1  0.76291977  0.41340268  0.67830812  1
  O  O108  1  0.41340268  0.67830812  0.76291977  1
  O  O109  1  0.17830812  0.91340268  0.26291977  1
  O  O110  1  0.91340268  0.26291977  0.17830812  1
  O  O111  1  0.26291977  0.17830812  0.91340268  1
  O  O112  1  0.89520140  0.88405870  0.58721632  1
  O  O113  1  0.88405870  0.58721632  0.89520140  1
  O  O114  1  0.58721632  0.89520140  0.88405870  1
  O  O115  1  0.39520140  0.08721632  0.38405870  1
  O  O116  1  0.08721632  0.38405870  0.39520140  1
  O  O117  1  0.38405870  0.39520140  0.08721632  1
