# generated using pymatgen
data_Cs3Sm7Se12
_symmetry_space_group_name_H-M   'P 1'
_cell_length_a   4.27070209
_cell_length_b   13.17739589
_cell_length_c   26.82139648
_cell_angle_alpha   90.00000000
_cell_angle_beta   90.00000000
_cell_angle_gamma   90.00000000
_symmetry_Int_Tables_number   1
_chemical_formula_structural   Cs3Sm7Se12
_chemical_formula_sum   'Cs6 Sm14 Se24'
_cell_volume   1509.42054608
_cell_formula_units_Z   2
loop_
 _symmetry_equiv_pos_site_id
 _symmetry_equiv_pos_as_xyz
  1  'x, y, z'
loop_
 _atom_site_type_symbol
 _atom_site_label
 _atom_site_symmetry_multiplicity
 _atom_site_fract_x
 _atom_site_fract_y
 _atom_site_fract_z
 _atom_site_occupancy
  Cs  Cs0  1  0.50000000  0.78620314  0.13315381  1
  Cs  Cs1  1  0.50000000  0.20732292  0.86408435  1
  Cs  Cs2  1  0.00000000  0.29267708  0.36408435  1
  Cs  Cs3  1  -0.00000000  0.71379686  0.63315381  1
  Cs  Cs4  1  0.50000000  0.06070774  0.47022757  1
  Cs  Cs5  1  -0.00000000  0.43929226  0.97022757  1
  Sm  Sm6  1  0.50000000  0.71860842  0.41765862  1
  Sm  Sm7  1  0.50000000  0.28217168  0.58395301  1
  Sm  Sm8  1  -0.00000000  0.21782832  0.08395301  1
  Sm  Sm9  1  0.00000000  0.78139158  0.91765862  1
  Sm  Sm10  1  -0.00000000  0.49999088  0.49993671  1
  Sm  Sm11  1  0.50000000  0.00000912  0.99993671  1
  Sm  Sm12  1  0.50000000  0.57953396  0.81693049  1
  Sm  Sm13  1  0.50000000  0.42282180  0.18187658  1
  Sm  Sm14  1  -0.00000000  0.07717820  0.68187658  1
  Sm  Sm15  1  0.00000000  0.92046604  0.31693049  1
  Sm  Sm16  1  0.50000000  0.90624727  0.78831635  1
  Sm  Sm17  1  0.50000000  0.09398082  0.21141367  1
  Sm  Sm18  1  -0.00000000  0.40601918  0.71141367  1
  Sm  Sm19  1  -0.00000000  0.59375273  0.28831635  1
  Se  Se20  1  0.50000000  0.64791588  0.51845081  1
  Se  Se21  1  0.50000000  0.34724571  0.48105973  1
  Se  Se22  1  0.00000000  0.15275429  0.98105973  1
  Se  Se23  1  0.00000000  0.85208412  0.01845081  1
  Se  Se24  1  0.50000000  0.55137362  0.71075431  1
  Se  Se25  1  0.50000000  0.44802402  0.28906888  1
  Se  Se26  1  0.00000000  0.05197598  0.78906888  1
  Se  Se27  1  -0.00000000  0.94862638  0.21075431  1
  Se  Se28  1  0.50000000  0.93003620  0.68000043  1
  Se  Se29  1  0.50000000  0.07020460  0.32187771  1
  Se  Se30  1  0.00000000  0.42979540  0.82187771  1
  Se  Se31  1  -0.00000000  0.56996380  0.18000043  1
  Se  Se32  1  0.50000000  0.63012401  0.92222066  1
  Se  Se33  1  0.50000000  0.36892361  0.07688218  1
  Se  Se34  1  0.00000000  0.13107639  0.57688218  1
  Se  Se35  1  -0.00000000  0.86987599  0.42222066  1
  Se  Se36  1  0.50000000  0.75533098  0.30389360  1
  Se  Se37  1  0.50000000  0.24464949  0.69643481  1
  Se  Se38  1  0.00000000  0.25535051  0.19643481  1
  Se  Se39  1  0.00000000  0.74466902  0.80389360  1
  Se  Se40  1  0.50000000  0.92946107  0.89675636  1
  Se  Se41  1  0.50000000  0.06894234  0.10350933  1
  Se  Se42  1  0.00000000  0.43105766  0.60350933  1
  Se  Se43  1  0.00000000  0.57053893  0.39675636  1
