# generated using pymatgen
data_Ca3YTi4O12
_symmetry_space_group_name_H-M   'P 1'
_cell_length_a   5.40202092
_cell_length_b   5.53335017
_cell_length_c   7.72401972
_cell_angle_alpha   90.00000000
_cell_angle_beta   90.00000000
_cell_angle_gamma   90.19904076
_symmetry_Int_Tables_number   1
_chemical_formula_structural   Ca3YTi4O12
_chemical_formula_sum   'Ca3 Y1 Ti4 O12'
_cell_volume   230.87939164
_cell_formula_units_Z   1
loop_
 _symmetry_equiv_pos_site_id
 _symmetry_equiv_pos_as_xyz
  1  'x, y, z'
loop_
 _atom_site_type_symbol
 _atom_site_label
 _atom_site_symmetry_multiplicity
 _atom_site_fract_x
 _atom_site_fract_y
 _atom_site_fract_z
 _atom_site_occupancy
  Ca  Ca0  1  0.50909416  0.54723319  0.25000000  1
  Ca  Ca1  1  0.00816841  0.95321789  0.75000000  1
  Ca  Ca2  1  0.49074848  0.45395414  0.75000000  1
  Y  Y3  1  0.99209900  0.05519550  0.25000000  1
  Ti  Ti4  1  0.00130312  0.50111112  0.99800484  1
  Ti  Ti5  1  0.49828646  0.99924506  0.50226124  1
  Ti  Ti6  1  0.00130312  0.50111112  0.50199516  1
  Ti  Ti7  1  0.49828646  0.99924506  0.99773876  1
  O  O8  1  0.40877383  0.97888655  0.25000000  1
  O  O9  1  0.07859966  0.47180459  0.25000000  1
  O  O10  1  0.57731662  0.02160705  0.75000000  1
  O  O11  1  0.92000309  0.52183574  0.75000000  1
  O  O12  1  0.20020571  0.20199026  0.53716488  1
  O  O13  1  0.29771425  0.70413586  0.95892780  1
  O  O14  1  0.80246089  0.80118496  0.04729934  1
  O  O15  1  0.70762794  0.29046541  0.45425548  1
  O  O16  1  0.80246089  0.80118496  0.45270066  1
  O  O17  1  0.70762794  0.29046541  0.04574452  1
  O  O18  1  0.20020571  0.20199026  0.96283512  1
  O  O19  1  0.29771425  0.70413586  0.54107220  1
