# generated using pymatgen
data_Cd3InAu12
_symmetry_space_group_name_H-M   'P 1'
_cell_length_a   5.95465401
_cell_length_b   5.95465401
_cell_length_c   9.77728918
_cell_angle_alpha   90.00000000
_cell_angle_beta   90.00000000
_cell_angle_gamma   120.02573604
_symmetry_Int_Tables_number   1
_chemical_formula_structural   Cd3InAu12
_chemical_formula_sum   'Cd3 In1 Au12'
_cell_volume   300.15768781
_cell_formula_units_Z   1
loop_
 _symmetry_equiv_pos_site_id
 _symmetry_equiv_pos_as_xyz
  1  'x, y, z'
loop_
 _atom_site_type_symbol
 _atom_site_label
 _atom_site_symmetry_multiplicity
 _atom_site_fract_x
 _atom_site_fract_y
 _atom_site_fract_z
 _atom_site_occupancy
  Cd  Cd0  1  0.33330836  0.66669164  0.25000000  1
  Cd  Cd1  1  0.00000177  -0.00000177  0.49954839  1
  Cd  Cd2  1  0.00000177  -0.00000177  0.00045161  1
  In  In3  1  0.66668493  0.33331507  0.75000000  1
  Au  Au4  1  0.16684132  0.83315868  0.75000000  1
  Au  Au5  1  0.66633406  0.83313525  0.75000000  1
  Au  Au6  1  0.16686475  0.33366594  0.75000000  1
  Au  Au7  1  0.83307422  0.16692578  0.25000000  1
  Au  Au8  1  0.33383533  0.16694883  0.25000000  1
  Au  Au9  1  0.83305117  0.66616467  0.25000000  1
  Au  Au10  1  0.49991506  0.99983123  0.49946682  1
  Au  Au11  1  0.49991734  0.50008266  0.49946265  1
  Au  Au12  1  0.00016877  0.50008494  0.49946682  1
  Au  Au13  1  0.49991506  0.99983123  0.00053318  1
  Au  Au14  1  0.49991734  0.50008266  0.00053735  1
  Au  Au15  1  0.00016877  0.50008494  0.00053318  1
