# generated using pymatgen
data_V3Co5O16
_symmetry_space_group_name_H-M   'P 1'
_cell_length_a   5.64769795
_cell_length_b   5.71537045
_cell_length_c   8.79226269
_cell_angle_alpha   89.99998554
_cell_angle_beta   90.31569045
_cell_angle_gamma   120.39458762
_symmetry_Int_Tables_number   1
_chemical_formula_structural   V3Co5O16
_chemical_formula_sum   'V3 Co5 O16'
_cell_volume   244.79226732
_cell_formula_units_Z   1
loop_
 _symmetry_equiv_pos_site_id
 _symmetry_equiv_pos_as_xyz
  1  'x, y, z'
loop_
 _atom_site_type_symbol
 _atom_site_label
 _atom_site_symmetry_multiplicity
 _atom_site_fract_x
 _atom_site_fract_y
 _atom_site_fract_z
 _atom_site_occupancy
  V  V0  1  0.69544727  0.84773430  0.21258555  1
  V  V1  1  0.84285212  0.67309472  0.70913073  1
  V  V2  1  0.84304422  0.16965818  0.70932970  1
  Co  Co3  1  0.17347048  0.83291701  0.20700585  1
  Co  Co4  1  0.32803474  0.66401962  0.47711314  1
  Co  Co5  1  0.17349316  0.34055807  0.20699902  1
  Co  Co6  1  0.33826953  0.16918982  0.71160014  1
  Co  Co7  1  0.66100581  0.33051787  0.98361096  1
  O  O8  1  0.15376779  0.81462158  0.60034474  1
  O  O9  1  0.04356098  0.52179091  0.33093241  1
  O  O10  1  0.33565927  0.66785262  0.10004557  1
  O  O11  1  0.00746029  0.00374368  0.32639664  1
  O  O12  1  0.99634143  0.99816305  0.82442402  1
  O  O13  1  0.15373081  0.33923779  0.60034254  1
  O  O14  1  0.47690528  0.95427476  0.33827651  1
  O  O15  1  0.47687667  0.52262796  0.33827144  1
  O  O16  1  0.32700893  0.16353703  0.10429420  1
  O  O17  1  0.65608136  0.82805057  0.60624484  1
  O  O18  1  0.52205542  0.47543089  0.83937815  1
  O  O19  1  0.52208048  0.04670866  0.83934843  1
  O  O20  1  0.66800605  0.33406683  0.59801698  1
  O  O21  1  0.82390054  0.65982314  0.10364204  1
  O  O22  1  0.95705291  0.47850531  0.84472928  1
  O  O23  1  0.82389547  0.16407659  0.10365512  1
