# generated using pymatgen
data_Ba3Ho2MoO9
_symmetry_space_group_name_H-M   'P 1'
_cell_length_a   6.06697595
_cell_length_b   6.08619331
_cell_length_c   14.88961615
_cell_angle_alpha   89.68301648
_cell_angle_beta   89.99999998
_cell_angle_gamma   60.10439059
_symmetry_Int_Tables_number   1
_chemical_formula_structural   Ba3Ho2MoO9
_chemical_formula_sum   'Ba6 Ho4 Mo2 O18'
_cell_volume   476.62759602
_cell_formula_units_Z   2
loop_
 _symmetry_equiv_pos_site_id
 _symmetry_equiv_pos_as_xyz
  1  'x, y, z'
loop_
 _atom_site_type_symbol
 _atom_site_label
 _atom_site_symmetry_multiplicity
 _atom_site_fract_x
 _atom_site_fract_y
 _atom_site_fract_z
 _atom_site_occupancy
  Ba  Ba0  1  0.66578424  0.66649245  0.91403397  1
  Ba  Ba1  1  0.00156191  0.00000000  0.25000000  1
  Ba  Ba2  1  0.33227569  0.33350755  0.58596603  1
  Ba  Ba3  1  0.33421576  0.33350755  0.08596603  1
  Ba  Ba4  1  0.66772431  0.66649245  0.41403397  1
  Ba  Ba5  1  0.99843809  1.00000000  0.75000000  1
  Ho  Ho6  1  0.33353773  0.33358075  0.83204597  1
  Ho  Ho7  1  0.66646227  0.66641925  0.16795403  1
  Ho  Ho8  1  0.33288052  0.33358075  0.33204597  1
  Ho  Ho9  1  0.66711948  0.66641925  0.66795403  1
  Mo  Mo10  1  0.00000000  0.00000000  0.50000000  1
  Mo  Mo11  1  0.00000000  0.00000000  0.00000000  1
  O  O12  1  0.54388604  0.47814451  0.76109977  1
  O  O13  1  0.88506477  0.82877561  0.08429964  1
  O  O14  1  0.18956839  0.13365424  0.43453320  1
  O  O15  1  0.45611396  0.52185549  0.23890023  1
  O  O16  1  0.81043161  0.86634576  0.56546680  1
  O  O17  1  0.11493523  0.17122439  0.91570036  1
  O  O18  1  0.97796845  0.47814451  0.26109977  1
  O  O19  1  0.28616063  0.82877561  0.58429964  1
  O  O20  1  0.67677738  0.13365424  0.93453320  1
  O  O21  1  0.32322262  0.86634576  0.06546680  1
  O  O22  1  0.71383937  0.17122439  0.41570036  1
  O  O23  1  0.02203155  0.52185549  0.73890023  1
  O  O24  1  0.15222465  0.69484215  0.92493748  1
  O  O25  1  0.50083157  0.00000000  0.25000000  1
  O  O26  1  0.84706580  0.30515785  0.57506252  1
  O  O27  1  0.84777535  0.30515785  0.07506252  1
  O  O28  1  0.15293420  0.69484215  0.42493748  1
  O  O29  1  0.49916843  1.00000000  0.75000000  1
