# generated using pymatgen
data_Ba7Cd31
_symmetry_space_group_name_H-M   'P 1'
_cell_length_a   10.55428024
_cell_length_b   10.83375370
_cell_length_c   10.83672414
_cell_angle_alpha   59.96137645
_cell_angle_beta   89.99944909
_cell_angle_gamma   90.00058304
_symmetry_Int_Tables_number   1
_chemical_formula_structural   Ba7Cd31
_chemical_formula_sum   'Ba7 Cd31'
_cell_volume   1072.67231382
_cell_formula_units_Z   1
loop_
 _symmetry_equiv_pos_site_id
 _symmetry_equiv_pos_as_xyz
  1  'x, y, z'
loop_
 _atom_site_type_symbol
 _atom_site_label
 _atom_site_symmetry_multiplicity
 _atom_site_fract_x
 _atom_site_fract_y
 _atom_site_fract_z
 _atom_site_occupancy
  Ba  Ba0  1  0.00000076  0.33335207  0.33334648  1
  Ba  Ba1  1  0.00000007  0.66659002  0.66662697  1
  Ba  Ba2  1  0.49999980  0.49924528  0.49926166  1
  Ba  Ba3  1  0.49999989  0.49943219  0.00146660  1
  Ba  Ba4  1  0.49999954  0.00144268  0.49945008  1
  Ba  Ba5  1  0.21199650  0.00000993  0.00003780  1
  Ba  Ba6  1  0.78800147  0.00003883  0.00000681  1
  Cd  Cd7  1  0.00000142  0.27326671  0.72671283  1
  Cd  Cd8  1  0.99999984  0.72651988  -0.00022133  1
  Cd  Cd9  1  0.99999957  -0.00004064  0.27343943  1
  Cd  Cd10  1  0.99999811  0.72671126  0.27324897  1
  Cd  Cd11  1  0.00000061  0.27346617  -0.00004587  1
  Cd  Cd12  1  0.00000010  -0.00024534  0.72654745  1
  Cd  Cd13  1  0.16826861  0.49822258  0.49821599  1
  Cd  Cd14  1  0.16818398  0.49823042  0.00349642  1
  Cd  Cd15  1  0.16817717  0.00348264  0.49823189  1
  Cd  Cd16  1  0.83173089  0.49822092  0.49821993  1
  Cd  Cd17  1  0.83181625  0.49822618  0.00350205  1
  Cd  Cd18  1  0.83182371  0.00347831  0.49823515  1
  Cd  Cd19  1  0.34943538  0.33337591  0.33335371  1
  Cd  Cd20  1  0.35357981  0.66667518  0.66668373  1
  Cd  Cd21  1  0.64642333  0.66667527  0.66667984  1
  Cd  Cd22  1  0.65056234  0.33338139  0.33334646  1
  Cd  Cd23  1  0.25956635  0.18408406  0.63203432  1
  Cd  Cd24  1  0.25956343  0.63201609  0.18410645  1
  Cd  Cd25  1  0.25966649  0.18401979  0.18403269  1
  Cd  Cd26  1  0.26437970  0.36795084  0.81593548  1
  Cd  Cd27  1  0.26435607  0.81591482  0.36799471  1
  Cd  Cd28  1  0.26442868  0.81611970  0.81611577  1
  Cd  Cd29  1  0.73564211  0.81591974  0.36798263  1
  Cd  Cd30  1  0.73562039  0.36796609  0.81593005  1
  Cd  Cd31  1  0.73557036  0.81611549  0.81611835  1
  Cd  Cd32  1  0.74044236  0.63202246  0.18410201  1
  Cd  Cd33  1  0.74042941  0.18409181  0.63202523  1
  Cd  Cd34  1  0.74033421  0.18401753  0.18403423  1
  Cd  Cd35  1  0.50000029  0.09976059  0.80020177  1
  Cd  Cd36  1  0.50000071  0.80018888  0.09974359  1
  Cd  Cd37  1  0.50000024  0.09995426  0.09989966  1
