# generated using pymatgen
data_Ba6Pr2Fe4O15
_symmetry_space_group_name_H-M   'P 1'
_cell_length_a   7.17554841
_cell_length_b   12.03850582
_cell_length_c   11.97293301
_cell_angle_alpha   59.81866226
_cell_angle_beta   89.81903982
_cell_angle_gamma   89.64004920
_symmetry_Int_Tables_number   1
_chemical_formula_structural   Ba6Pr2Fe4O15
_chemical_formula_sum   'Ba12 Pr4 Fe8 O30'
_cell_volume   894.03355351
_cell_formula_units_Z   2
loop_
 _symmetry_equiv_pos_site_id
 _symmetry_equiv_pos_as_xyz
  1  'x, y, z'
loop_
 _atom_site_type_symbol
 _atom_site_label
 _atom_site_symmetry_multiplicity
 _atom_site_fract_x
 _atom_site_fract_y
 _atom_site_fract_z
 _atom_site_occupancy
  Ba  Ba0  1  0.33463512  0.17240769  0.65086818  1
  Ba  Ba1  1  0.33555225  0.65134621  0.17479301  1
  Ba  Ba2  1  0.33618986  0.17180007  0.17569389  1
  Ba  Ba3  1  0.83463512  0.82327586  0.34913182  1
  Ba  Ba4  1  0.83618986  0.34749396  0.82430611  1
  Ba  Ba5  1  0.83555225  0.82613922  0.82520699  1
  Ba  Ba6  1  0.49695817  -0.00001148  0.00105132  1
  Ba  Ba7  1  0.99695817  0.00103983  0.99894868  1
  Ba  Ba8  1  0.67066655  0.04551787  0.47602119  1
  Ba  Ba9  1  0.17066655  0.52153906  0.52397881  1
  Ba  Ba10  1  0.02148460  0.33468900  0.33336562  1
  Ba  Ba11  1  0.52148460  0.66805462  0.66663438  1
  Pr  Pr12  1  0.66348503  0.47855931  0.04200221  1
  Pr  Pr13  1  0.66850386  0.47775463  0.47770774  1
  Pr  Pr14  1  0.16348503  0.52056151  0.95799779  1
  Pr  Pr15  1  0.16850386  0.95546237  0.52229226  1
  Fe  Fe16  1  0.83385331  0.17530608  0.64331072  1
  Fe  Fe17  1  0.82966136  0.64452746  0.17244617  1
  Fe  Fe18  1  0.84260955  0.18139731  0.17682965  1
  Fe  Fe19  1  0.33385331  0.81861680  0.35668928  1
  Fe  Fe20  1  0.34260955  0.35822696  0.82317035  1
  Fe  Fe21  1  0.32966136  0.81697364  0.82755383  1
  Fe  Fe22  1  0.47449758  0.33323042  0.32965847  1
  Fe  Fe23  1  0.97449758  0.66288889  0.67034153  1
  O  O24  1  0.22763757  0.89756265  0.19250248  1
  O  O25  1  0.23331530  0.19557589  0.90260781  1
  O  O26  1  0.22963487  0.89827789  0.91125459  1
  O  O27  1  0.72763757  0.09006513  0.80749752  1
  O  O28  1  0.72963487  0.80953248  0.08874541  1
  O  O29  1  0.73331530  0.09818369  0.09739219  1
  O  O30  1  0.65888855  0.25917717  0.49949877  1
  O  O31  1  0.65491833  0.50334665  0.24275455  1
  O  O32  1  0.66022843  0.26083312  0.23595163  1
  O  O33  1  0.15888855  0.75867594  0.50050123  1
  O  O34  1  0.16022843  0.49678475  0.76404837  1
  O  O35  1  0.15491833  0.74610120  0.75724545  1
  O  O36  1  0.49032156  0.67594710  0.38884790  1
  O  O37  1  0.47352421  0.39686794  0.93730861  1
  O  O38  1  0.45088390  0.93252082  0.67332428  1
  O  O39  1  0.49196472  0.39105238  0.67792917  1
  O  O40  1  0.45569974  0.93569050  0.39082875  1
  O  O41  1  0.46742447  0.66454686  0.93858933  1
  O  O42  1  0.95569974  0.32651924  0.60917125  1
  O  O43  1  0.96742447  0.60313620  0.06141067  1
  O  O44  1  0.99196472  0.06898155  0.32207083  1
  O  O45  1  0.95088390  0.60584510  0.32667572  1
  O  O46  1  0.99032156  0.06479500  0.61115210  1
  O  O47  1  0.97352421  0.33417655  0.06269139  1
  O  O48  1  0.33059317  0.41815370  0.16333829  1
  O  O49  1  0.32135836  0.17404679  0.41033963  1
  O  O50  1  0.34051957  0.41591804  0.40909199  1
  O  O51  1  0.83059317  0.58149199  0.83666171  1
  O  O52  1  0.84051957  0.82501002  0.59090801  1
  O  O53  1  0.82135836  0.58438641  0.58966037  1
