# generated using pymatgen
data_Ba3SrSn12
_symmetry_space_group_name_H-M   'P 1'
_cell_length_a   5.34104050
_cell_length_b   7.35414297
_cell_length_c   12.98047198
_cell_angle_alpha   90.00113773
_cell_angle_beta   90.00000000
_cell_angle_gamma   90.00000000
_symmetry_Int_Tables_number   1
_chemical_formula_structural   Ba3SrSn12
_chemical_formula_sum   'Ba3 Sr1 Sn12'
_cell_volume   509.85704416
_cell_formula_units_Z   1
loop_
 _symmetry_equiv_pos_site_id
 _symmetry_equiv_pos_as_xyz
  1  'x, y, z'
loop_
 _atom_site_type_symbol
 _atom_site_label
 _atom_site_symmetry_multiplicity
 _atom_site_fract_x
 _atom_site_fract_y
 _atom_site_fract_z
 _atom_site_occupancy
  Ba  Ba0  1  0.25000000  0.00000914  0.66727049  1
  Ba  Ba1  1  0.75000000  0.99998025  0.33263241  1
  Ba  Ba2  1  0.75000000  0.49998382  0.83350486  1
  Sr  Sr3  1  0.25000000  0.50002189  0.16663325  1
  Sn  Sn4  1  0.75000000  0.49999447  0.35411412  1
  Sn  Sn5  1  0.75000000  0.99999352  0.85881604  1
  Sn  Sn6  1  0.75000000  0.78200236  0.07259045  1
  Sn  Sn7  1  0.75000000  0.28756812  0.57005325  1
  Sn  Sn8  1  0.75000000  0.21799727  0.07259393  1
  Sn  Sn9  1  0.75000000  0.71245720  0.57005718  1
  Sn  Sn10  1  0.25000000  0.00000223  0.14316051  1
  Sn  Sn11  1  0.25000000  0.50000189  0.64226831  1
  Sn  Sn12  1  0.25000000  0.71221413  0.42766996  1
  Sn  Sn13  1  0.25000000  0.21421531  0.93048648  1
  Sn  Sn14  1  0.25000000  0.28777948  0.42766537  1
  Sn  Sn15  1  0.25000000  0.78577893  0.93048339  1
