# generated using pymatgen
data_Ba3Ta4Ti4O21
_symmetry_space_group_name_H-M   'P 1'
_cell_length_a   9.12876498
_cell_length_b   9.15701008
_cell_length_c   11.92856134
_cell_angle_alpha   89.99993675
_cell_angle_beta   90.03009985
_cell_angle_gamma   120.10236532
_symmetry_Int_Tables_number   1
_chemical_formula_structural   Ba3Ta4Ti4O21
_chemical_formula_sum   'Ba6 Ta8 Ti8 O42'
_cell_volume   862.65161342
_cell_formula_units_Z   2
loop_
 _symmetry_equiv_pos_site_id
 _symmetry_equiv_pos_as_xyz
  1  'x, y, z'
loop_
 _atom_site_type_symbol
 _atom_site_label
 _atom_site_symmetry_multiplicity
 _atom_site_fract_x
 _atom_site_fract_y
 _atom_site_fract_z
 _atom_site_occupancy
  Ba  Ba0  1  0.59721549  0.00248662  0.74971226  1
  Ba  Ba1  1  0.40278436  0.40526990  0.75028463  1
  Ba  Ba2  1  0.99999931  0.59133921  0.74999857  1
  Ba  Ba3  1  0.40278323  0.99751393  0.25028747  1
  Ba  Ba4  1  0.59721580  0.59473005  0.24971575  1
  Ba  Ba5  1  0.00000044  0.40866201  0.25000114  1
  Ta  Ta6  1  0.33086458  0.66185472  0.49988975  1
  Ta  Ta7  1  0.66913479  0.33814456  0.50011033  1
  Ta  Ta8  1  0.66913300  0.33098948  0.00010923  1
  Ta  Ta9  1  0.33086717  0.66901129  0.99989111  1
  Ta  Ta10  1  0.23781708  0.99861382  0.59296961  1
  Ta  Ta11  1  0.76218247  0.00138585  0.40703018  1
  Ta  Ta12  1  0.23781892  0.23920159  0.09296941  1
  Ta  Ta13  1  0.76218129  0.76079887  0.90703023  1
  Ti  Ti14  1  0.75403207  0.75303983  0.59328867  1
  Ti  Ti15  1  0.99980394  0.24549188  0.59661461  1
  Ti  Ti16  1  0.24596683  0.24695936  0.40671106  1
  Ti  Ti17  1  0.00019574  0.75450693  0.40338576  1
  Ti  Ti18  1  0.75403422  0.00099446  0.09328938  1
  Ti  Ti19  1  0.99979955  0.75430585  0.09661096  1
  Ti  Ti20  1  0.24596649  0.99900568  0.90671056  1
  Ti  Ti21  1  0.00020067  0.24569600  0.90338912  1
  O  O22  1  0.20362689  0.00040527  0.75206972  1
  O  O23  1  0.79637407  0.79677778  0.74793085  1
  O  O24  1  0.00000120  0.20765922  0.75000139  1
  O  O25  1  0.79637317  0.99959409  0.24793045  1
  O  O26  1  0.20362630  0.20322176  0.25206873  1
  O  O27  1  0.99999879  0.79234049  0.24999904  1
  O  O28  1  0.79758807  0.00018551  0.57445799  1
  O  O29  1  0.20259571  0.20247568  0.57371235  1
  O  O30  1  0.99974137  0.79690561  0.57375790  1
  O  O31  1  0.20241204  0.99981482  0.42554206  1
  O  O32  1  0.79740366  0.79752401  0.42628796  1
  O  O33  1  0.00025821  0.20309387  0.42624175  1
  O  O34  1  0.20259778  0.00012016  0.07371197  1
  O  O35  1  0.79758583  0.79739971  0.07445787  1
  O  O36  1  0.99974231  0.20283830  0.07375633  1
  O  O37  1  0.79740264  0.99987968  0.92628818  1
  O  O38  1  0.20241508  0.20260028  0.92554213  1
  O  O39  1  0.00025813  0.79716192  0.92624355  1
  O  O40  1  0.16904615  0.48069507  0.60067486  1
  O  O41  1  0.31334323  0.83099624  0.60055921  1
  O  O42  1  0.52023928  0.68794323  0.59816105  1
  O  O43  1  0.68791255  0.51922399  0.60049946  1
  O  O44  1  0.48221202  0.16897748  0.60044822  1
  O  O45  1  0.83186818  0.31178587  0.59856235  1
  O  O46  1  0.83095394  0.51930500  0.39932560  1
  O  O47  1  0.68665616  0.16900344  0.39944090  1
  O  O48  1  0.47976051  0.31205702  0.40183895  1
  O  O49  1  0.31208594  0.48077517  0.39950067  1
  O  O50  1  0.51778767  0.83102271  0.39955170  1
  O  O51  1  0.16813208  0.68821445  0.40143711  1
  O  O52  1  0.83186664  0.52007977  0.09856323  1
  O  O53  1  0.68791390  0.16868909  0.10049935  1
  O  O54  1  0.48221222  0.31323413  0.10044814  1
  O  O55  1  0.31334505  0.48234702  0.10055716  1
  O  O56  1  0.52023818  0.83229695  0.09816254  1
  O  O57  1  0.16904623  0.68834961  0.10067464  1
  O  O58  1  0.16813426  0.47992055  0.90143657  1
  O  O59  1  0.31208716  0.83131125  0.89950084  1
  O  O60  1  0.51778829  0.68676575  0.89955182  1
  O  O61  1  0.68665592  0.51765314  0.89944272  1
  O  O62  1  0.47976223  0.16770289  0.90183789  1
  O  O63  1  0.83095351  0.31165014  0.89932500  1
