# generated using pymatgen
data_Ba3CaBi2O9
_symmetry_space_group_name_H-M   'P 1'
_cell_length_a   6.16814771
_cell_length_b   8.70773244
_cell_length_c   10.69435184
_cell_angle_alpha   65.97606458
_cell_angle_beta   73.23879709
_cell_angle_gamma   90.00000000
_symmetry_Int_Tables_number   1
_chemical_formula_structural   Ba3CaBi2O9
_chemical_formula_sum   'Ba6 Ca2 Bi4 O18'
_cell_volume   497.80609707
_cell_formula_units_Z   2
loop_
 _symmetry_equiv_pos_site_id
 _symmetry_equiv_pos_as_xyz
  1  'x, y, z'
loop_
 _atom_site_type_symbol
 _atom_site_label
 _atom_site_symmetry_multiplicity
 _atom_site_fract_x
 _atom_site_fract_y
 _atom_site_fract_z
 _atom_site_occupancy
  Ba  Ba0  1  0.50000000  0.24175908  1.00000000  1
  Ba  Ba1  1  0.83042156  0.58314210  0.33915589  1
  Ba  Ba2  1  0.16957844  0.92229899  0.66084411  1
  Ba  Ba3  1  0.50000000  0.75824092  0.00000000  1
  Ba  Ba4  1  0.83042156  0.07770101  0.33915589  1
  Ba  Ba5  1  0.16957844  0.41685790  0.66084411  1
  Ca  Ca6  1  0.33399787  0.83399787  0.33200326  1
  Ca  Ca7  1  0.66600213  0.16600213  0.66799674  1
  Bi  Bi8  1  0.00000000  -0.00000000  0.00000000  1
  Bi  Bi9  1  0.33242238  0.33242238  0.33515424  1
  Bi  Bi10  1  0.66757762  0.66757762  0.66484576  1
  Bi  Bi11  1  0.00000000  0.50000000  0.00000000  1
  O  O12  1  1.00000000  0.25530818  0.00000000  1
  O  O13  1  0.33897892  0.57737259  0.32204116  1
  O  O14  1  0.66102108  0.89941474  0.67795884  1
  O  O15  1  0.16596758  0.41893281  0.16213537  1
  O  O16  1  0.50045162  0.74572276  0.50855448  1
  O  O17  1  0.83960529  0.07936116  0.84127667  1
  O  O18  1  0.32810195  0.58106719  0.83786463  1
  O  O19  1  0.68088297  0.92063884  0.15872333  1
  O  O20  1  0.00900610  0.25427724  0.49144552  1
  O  O21  1  0.00000000  0.74469182  1.00000000  1
  O  O22  1  0.33897892  0.10058526  0.32204116  1
  O  O23  1  0.66102108  0.42262741  0.67795884  1
  O  O24  1  0.83403242  0.58106719  0.83786463  1
  O  O25  1  0.16039471  0.92063884  0.15872333  1
  O  O26  1  0.49954838  0.25427724  0.49144552  1
  O  O27  1  0.67189805  0.41893281  0.16213537  1
  O  O28  1  0.99099390  0.74572276  0.50855448  1
  O  O29  1  0.31911703  0.07936116  0.84127667  1
