# generated using pymatgen
data_BaLaGa3O7
_symmetry_space_group_name_H-M   'P 1'
_cell_length_a   5.47452613
_cell_length_b   8.25290456
_cell_length_c   8.25290456
_cell_angle_alpha   88.68578020
_cell_angle_beta   90.00000000
_cell_angle_gamma   90.00000000
_symmetry_Int_Tables_number   1
_chemical_formula_structural   BaLaGa3O7
_chemical_formula_sum   'Ba2 La2 Ga6 O14'
_cell_volume   372.77426438
_cell_formula_units_Z   2
loop_
 _symmetry_equiv_pos_site_id
 _symmetry_equiv_pos_as_xyz
  1  'x, y, z'
loop_
 _atom_site_type_symbol
 _atom_site_label
 _atom_site_symmetry_multiplicity
 _atom_site_fract_x
 _atom_site_fract_y
 _atom_site_fract_z
 _atom_site_occupancy
  Ba  Ba0  1  0.50524606  0.33592230  0.83592230  1
  Ba  Ba1  1  0.50524606  0.66407770  0.16407770  1
  La  La2  1  0.48696059  0.16190141  0.33809859  1
  La  La3  1  0.48696059  0.83809859  0.66190141  1
  Ga  Ga4  1  0.00696802  0.50000000  0.50000000  1
  Ga  Ga5  1  0.00696802  -0.00000000  -0.00000000  1
  Ga  Ga6  1  0.96828098  0.86228716  0.36228716  1
  Ga  Ga7  1  0.02977471  0.64852724  0.85147276  1
  Ga  Ga8  1  0.96828098  0.13771284  0.63771284  1
  Ga  Ga9  1  0.02977471  0.35147276  0.14852724  1
  O  O10  1  0.30129477  0.12306025  0.62306025  1
  O  O11  1  0.69867180  0.34101247  0.15898753  1
  O  O12  1  0.30129477  0.87693975  0.37693975  1
  O  O13  1  0.69867180  0.65898753  0.84101247  1
  O  O14  1  0.20330438  0.40517366  0.34009022  1
  O  O15  1  0.81068576  0.07588833  0.83115912  1
  O  O16  1  0.20330438  0.59482634  0.65990978  1
  O  O17  1  0.81068576  0.92411167  0.16884088  1
  O  O18  1  0.81068576  0.66884088  0.42411167  1
  O  O19  1  0.20330438  0.84009022  0.90517366  1
  O  O20  1  0.81068576  0.33115912  0.57588833  1
  O  O21  1  0.20330438  0.15990978  0.09482634  1
  O  O22  1  0.15554229  0.50000000  -0.00000000  1
  O  O23  1  0.79410331  -0.00000000  0.50000000  1
