# generated using pymatgen
data_Ba4Sr2Nd2Co4O15
_symmetry_space_group_name_H-M   'P 1'
_cell_length_a   6.93173344
_cell_length_b   11.80709082
_cell_length_c   11.80709082
_cell_angle_alpha   119.99165760
_cell_angle_beta   89.73668465
_cell_angle_gamma   89.73668465
_symmetry_Int_Tables_number   1
_chemical_formula_structural   Ba4Sr2Nd2Co4O15
_chemical_formula_sum   'Ba8 Sr4 Nd4 Co8 O30'
_cell_volume   836.90556057
_cell_formula_units_Z   2
loop_
 _symmetry_equiv_pos_site_id
 _symmetry_equiv_pos_as_xyz
  1  'x, y, z'
loop_
 _atom_site_type_symbol
 _atom_site_label
 _atom_site_symmetry_multiplicity
 _atom_site_fract_x
 _atom_site_fract_y
 _atom_site_fract_z
 _atom_site_occupancy
  Ba  Ba0  1  0.32993292  0.17300992  0.82520272  1
  Ba  Ba1  1  0.32946744  0.65682078  0.82887710  1
  Ba  Ba2  1  0.33483534  0.17397893  0.34533805  1
  Ba  Ba3  1  0.82993292  0.82520272  0.17300992  1
  Ba  Ba4  1  0.83483534  0.34533805  0.17397893  1
  Ba  Ba5  1  0.82946744  0.82887710  0.65682078  1
  Ba  Ba6  1  0.00930602  0.33248294  0.66439908  1
  Ba  Ba7  1  0.50930602  0.66439908  0.33248294  1
  Sr  Sr8  1  0.51265121  0.00025075  0.00002874  1
  Sr  Sr9  1  0.01265121  0.00002874  0.00025075  1
  Sr  Sr10  1  0.67000028  0.05004570  0.52615256  1
  Sr  Sr11  1  0.17000028  0.52615256  0.05004570  1
  Nd  Nd12  1  0.66628367  0.47630852  0.52426142  1
  Nd  Nd13  1  0.66948727  0.47729619  0.95155987  1
  Nd  Nd14  1  0.16628367  0.52426142  0.47630852  1
  Nd  Nd15  1  0.16948727  0.95155987  0.47729619  1
  Co  Co16  1  0.46489221  0.33252223  0.66613298  1
  Co  Co17  1  0.96489221  0.66613298  0.33252223  1
  Co  Co18  1  0.83883579  0.17571141  0.82619051  1
  Co  Co19  1  0.83605288  0.65211527  0.82670071  1
  Co  Co20  1  0.84149096  0.17193392  0.35008724  1
  Co  Co21  1  0.33883579  0.82619051  0.17571141  1
  Co  Co22  1  0.34149096  0.35008724  0.17193392  1
  Co  Co23  1  0.33605288  0.82670071  0.65211527  1
  O  O24  1  0.48262114  0.67181508  0.06081416  1
  O  O25  1  0.46868036  0.39549113  0.33322493  1
  O  O26  1  0.45950837  0.93342781  0.60468407  1
  O  O27  1  0.48083669  0.39144803  0.06493024  1
  O  O28  1  0.46542867  0.93488029  0.32856165  1
  O  O29  1  0.46445347  0.66558295  0.60539438  1
  O  O30  1  0.96542867  0.32856165  0.93488029  1
  O  O31  1  0.96445347  0.60539438  0.66558295  1
  O  O32  1  0.98083669  0.06493024  0.39144803  1
  O  O33  1  0.95950837  0.60468407  0.93342781  1
  O  O34  1  0.98262114  0.06081416  0.67181508  1
  O  O35  1  0.96868036  0.33322493  0.39549113  1
  O  O36  1  0.33077380  0.41636936  0.58090165  1
  O  O37  1  0.32600948  0.16819159  0.58254301  1
  O  O38  1  0.34314633  0.41549053  0.82836222  1
  O  O39  1  0.83077380  0.58090165  0.41636936  1
  O  O40  1  0.84314633  0.82836222  0.41549053  1
  O  O41  1  0.82600948  0.58254301  0.16819159  1
  O  O42  1  0.25118660  0.90227645  0.08369710  1
  O  O43  1  0.25128183  0.18370527  0.09544729  1
  O  O44  1  0.25394876  0.90472685  0.82085608  1
  O  O45  1  0.75118660  0.08369710  0.90227645  1
  O  O46  1  0.75394876  0.82085608  0.90472685  1
  O  O47  1  0.75128183  0.09544729  0.18370527  1
  O  O48  1  0.66458949  0.25224379  0.75744053  1
  O  O49  1  0.66277161  0.50614149  0.75024851  1
  O  O50  1  0.66572740  0.25568987  0.49800617  1
  O  O51  1  0.16458949  0.75744053  0.25224379  1
  O  O52  1  0.16572740  0.49800617  0.25568987  1
  O  O53  1  0.16277161  0.75024851  0.50614149  1
