# generated using pymatgen
data_Ba3YRuPtO9
_symmetry_space_group_name_H-M   'P 1'
_cell_length_a   5.96187963
_cell_length_b   5.96187231
_cell_length_c   14.97522547
_cell_angle_alpha   89.99997189
_cell_angle_beta   90.00055902
_cell_angle_gamma   60.00013502
_symmetry_Int_Tables_number   1
_chemical_formula_structural   Ba3YRuPtO9
_chemical_formula_sum   'Ba6 Y2 Ru2 Pt2 O18'
_cell_volume   460.96766851
_cell_formula_units_Z   2
loop_
 _symmetry_equiv_pos_site_id
 _symmetry_equiv_pos_as_xyz
  1  'x, y, z'
loop_
 _atom_site_type_symbol
 _atom_site_label
 _atom_site_symmetry_multiplicity
 _atom_site_fract_x
 _atom_site_fract_y
 _atom_site_fract_z
 _atom_site_occupancy
  Ba  Ba0  1  0.33333523  0.33333209  0.41035605  1
  Ba  Ba1  1  0.66666477  0.66666791  0.58964395  1
  Ba  Ba2  1  0.66665472  0.66667293  0.90064283  1
  Ba  Ba3  1  0.33334528  0.33332707  0.09935717  1
  Ba  Ba4  1  0.00000248  0.99999820  0.74344044  1
  Ba  Ba5  1  0.99999752  0.00000180  0.25655956  1
  Y  Y6  1  0.00000000  -0.00000000  0.50000000  1
  Y  Y7  1  0.00000000  -0.00000000  0.00000000  1
  Ru  Ru8  1  0.66667173  0.66666371  0.15740658  1
  Ru  Ru9  1  0.33332827  0.33333629  0.84259342  1
  Pt  Pt10  1  0.33335159  0.33332505  0.66287701  1
  Pt  Pt11  1  0.66664841  0.66667495  0.33712299  1
  O  O12  1  0.17505285  0.64988505  0.91334229  1
  O  O13  1  0.64986331  0.17506817  0.91335008  1
  O  O14  1  0.17505281  0.17506174  0.91334223  1
  O  O15  1  0.82494715  0.35011495  0.08665771  1
  O  O16  1  0.35013669  0.82493183  0.08664992  1
  O  O17  1  0.82494719  0.82493826  0.08665777  1
  O  O18  1  0.82647152  0.34700599  0.41304084  1
  O  O19  1  0.34695563  0.82652292  0.41303509  1
  O  O20  1  0.82647104  0.82652364  0.41304095  1
  O  O21  1  0.17352848  0.65299401  0.58695916  1
  O  O22  1  0.65304437  0.17347708  0.58696491  1
  O  O23  1  0.17352896  0.17347636  0.58695905  1
  O  O24  1  0.48486475  0.03028059  0.75418973  1
  O  O25  1  0.03029840  0.48485010  0.75417928  1
  O  O26  1  0.48486503  0.48485464  0.75418937  1
  O  O27  1  0.51513525  0.96971941  0.24581027  1
  O  O28  1  0.96970160  0.51514990  0.24582072  1
  O  O29  1  0.51513497  0.51514536  0.24581063  1
