# generated using pymatgen
data_CsCuRhF6
_symmetry_space_group_name_H-M   'P 1'
_cell_length_a   7.51826363
_cell_length_b   7.39627015
_cell_length_c   7.47582770
_cell_angle_alpha   90.00000000
_cell_angle_beta   60.18653956
_cell_angle_gamma   119.46467492
_symmetry_Int_Tables_number   1
_chemical_formula_structural   CsCuRhF6
_chemical_formula_sum   'Cs2 Cu2 Rh2 F12'
_cell_volume   297.12637496
_cell_formula_units_Z   2
loop_
 _symmetry_equiv_pos_site_id
 _symmetry_equiv_pos_as_xyz
  1  'x, y, z'
loop_
 _atom_site_type_symbol
 _atom_site_label
 _atom_site_symmetry_multiplicity
 _atom_site_fract_x
 _atom_site_fract_y
 _atom_site_fract_z
 _atom_site_occupancy
  Cs  Cs0  1  0.76272698  0.38136349  0.36863651  1
  Cs  Cs1  1  0.23727302  0.61863651  0.63136349  1
  Cu  Cu2  1  0.50000000  0.50000000  -0.00000000  1
  Cu  Cu3  1  0.50000000  0.00000000  -0.00000000  1
  Rh  Rh4  1  0.00000000  0.00000000  0.50000000  1
  Rh  Rh5  1  0.00000000  0.00000000  -0.00000000  1
  F  F6  1  0.84940416  0.92470208  0.32529792  1
  F  F7  1  0.62681920  0.31340960  0.93659040  1
  F  F8  1  0.24392334  0.92330962  0.92405921  1
  F  F9  1  0.24392334  0.32061373  0.33201744  1
  F  F10  1  0.24392334  0.32061373  0.92405921  1
  F  F11  1  0.24392334  0.92330962  0.33201744  1
  F  F12  1  0.15059584  0.07529792  0.67470208  1
  F  F13  1  0.37318080  0.68659040  0.06340960  1
  F  F14  1  0.75607666  0.07669038  0.07594079  1
  F  F15  1  0.75607666  0.67938627  0.66798256  1
  F  F16  1  0.75607666  0.67938627  0.07594079  1
  F  F17  1  0.75607666  0.07669038  0.66798256  1
