# generated using pymatgen
data_Al2SiO5
_symmetry_space_group_name_H-M   'P 1'
_cell_length_a   3.56651770
_cell_length_b   4.97357043
_cell_length_c   9.17111336
_cell_angle_alpha   90.00000000
_cell_angle_beta   90.00000000
_cell_angle_gamma   111.01099026
_symmetry_Int_Tables_number   1
_chemical_formula_structural   Al2SiO5
_chemical_formula_sum   'Al4 Si2 O10'
_cell_volume   151.86387189
_cell_formula_units_Z   2
loop_
 _symmetry_equiv_pos_site_id
 _symmetry_equiv_pos_as_xyz
  1  'x, y, z'
loop_
 _atom_site_type_symbol
 _atom_site_label
 _atom_site_symmetry_multiplicity
 _atom_site_fract_x
 _atom_site_fract_y
 _atom_site_fract_z
 _atom_site_occupancy
  O  O0  1  0.31271280  0.62542560  0.59002033  1
  O  O1  1  0.68728720  0.37457440  0.40997967  1
  O  O2  1  0.68728720  0.37457440  0.09002033  1
  O  O3  1  0.31271280  0.62542560  0.90997967  1
  O  O4  1  0.05501030  0.11002059  0.61775961  1
  O  O5  1  0.94498970  0.88997941  0.38224039  1
  O  O6  1  0.73979600  0.47959201  0.75000000  1
  O  O7  1  0.26020400  0.52040799  0.25000000  1
  O  O8  1  0.05501030  0.11002059  0.88224039  1
  O  O9  1  0.94498970  0.88997941  0.11775961  1
  Al  Al10  1  0.13527673  0.27055346  0.43255437  1
  Al  Al11  1  0.86472327  0.72944654  0.56744563  1
  Al  Al12  1  0.13527673  0.27055346  0.06744563  1
  Al  Al13  1  0.86472327  0.72944654  0.93255437  1
  Si  Si14  1  0.18398445  0.36796890  0.75000000  1
  Si  Si15  1  0.81601555  0.63203110  0.25000000  1
