# generated using pymatgen
data_Ba2NaGaSb3
_symmetry_space_group_name_H-M   'P 1'
_cell_length_a   10.81287675
_cell_length_b   12.46677137
_cell_length_c   14.18769349
_cell_angle_alpha   90.00000000
_cell_angle_beta   90.00000000
_cell_angle_gamma   90.00000000
_symmetry_Int_Tables_number   1
_chemical_formula_structural   Ba2NaGaSb3
_chemical_formula_sum   'Ba16 Na8 Ga8 Sb24'
_cell_volume   1912.52466657
_cell_formula_units_Z   8
loop_
 _symmetry_equiv_pos_site_id
 _symmetry_equiv_pos_as_xyz
  1  'x, y, z'
loop_
 _atom_site_type_symbol
 _atom_site_label
 _atom_site_symmetry_multiplicity
 _atom_site_fract_x
 _atom_site_fract_y
 _atom_site_fract_z
 _atom_site_occupancy
  Ba  Ba0  1  0.75042769  0.33570593  0.80762922  1
  Ba  Ba1  1  0.74957231  0.83570593  0.69237078  1
  Ba  Ba2  1  0.25042769  0.66429407  0.19237078  1
  Ba  Ba3  1  0.24957231  0.16429407  0.30762922  1
  Ba  Ba4  1  0.98090839  0.82846885  0.96869457  1
  Ba  Ba5  1  0.51909161  0.32846885  0.53130543  1
  Ba  Ba6  1  0.48090839  0.17153115  0.03130543  1
  Ba  Ba7  1  0.01909161  0.67153115  0.46869457  1
  Ba  Ba8  1  0.01973269  0.16778259  0.03501679  1
  Ba  Ba9  1  0.48026731  0.66778259  0.46498321  1
  Ba  Ba10  1  0.51973269  0.83221741  0.96498321  1
  Ba  Ba11  1  0.98026731  0.33221741  0.53501679  1
  Ba  Ba12  1  0.03280329  0.07882954  0.74422469  1
  Ba  Ba13  1  0.46719671  0.57882954  0.75577531  1
  Ba  Ba14  1  0.53280329  0.92117046  0.25577531  1
  Ba  Ba15  1  0.96719671  0.42117046  0.24422469  1
  Na  Na16  1  0.99934284  0.99735301  0.49348519  1
  Na  Na17  1  0.50065716  0.49735301  0.00651481  1
  Na  Na18  1  0.49934284  0.00264699  0.50651481  1
  Na  Na19  1  0.00065716  0.50264699  0.99348519  1
  Na  Na20  1  0.97391524  0.92367108  0.25089572  1
  Na  Na21  1  0.52608476  0.42367108  0.24910428  1
  Na  Na22  1  0.47391524  0.07632892  0.74910428  1
  Na  Na23  1  0.02608476  0.57632892  0.75089572  1
  Ga  Ga24  1  0.24998458  0.80550216  0.80788449  1
  Ga  Ga25  1  0.25001542  0.30550216  0.69211551  1
  Ga  Ga26  1  0.74998458  0.19449784  0.19211551  1
  Ga  Ga27  1  0.75001542  0.69449784  0.30788449  1
  Ga  Ga28  1  0.74664178  0.09222302  0.42174392  1
  Ga  Ga29  1  0.75335822  0.59222302  0.07825608  1
  Ga  Ga30  1  0.24664178  0.90777698  0.57825608  1
  Ga  Ga31  1  0.25335822  0.40777698  0.92174392  1
  Sb  Sb32  1  0.74878133  0.04508062  0.88320427  1
  Sb  Sb33  1  0.75121867  0.54508062  0.61679573  1
  Sb  Sb34  1  0.24878133  0.95491938  0.11679573  1
  Sb  Sb35  1  0.25121867  0.45491938  0.38320427  1
  Sb  Sb36  1  0.75118502  0.12458292  0.61285351  1
  Sb  Sb37  1  0.74881498  0.62458292  0.88714649  1
  Sb  Sb38  1  0.25118502  0.87541708  0.38714649  1
  Sb  Sb39  1  0.24881498  0.37541708  0.11285351  1
  Sb  Sb40  1  0.06147566  0.33776494  0.81768224  1
  Sb  Sb41  1  0.43852434  0.83776494  0.68231776  1
  Sb  Sb42  1  0.56147566  0.66223506  0.18231776  1
  Sb  Sb43  1  0.93852434  0.16223506  0.31768224  1
  Sb  Sb44  1  0.93841171  0.68479843  0.18188389  1
  Sb  Sb45  1  0.56158829  0.18479843  0.31811611  1
  Sb  Sb46  1  0.43841171  0.31520157  0.81811611  1
  Sb  Sb47  1  0.06158829  0.81520157  0.68188389  1
  Sb  Sb48  1  0.75311049  0.36223470  0.06251011  1
  Sb  Sb49  1  0.74688951  0.86223470  0.43748989  1
  Sb  Sb50  1  0.25311049  0.63776530  0.93748989  1
  Sb  Sb51  1  0.24688951  0.13776530  0.56251011  1
  Sb  Sb52  1  0.75335904  0.00509649  0.08341187  1
  Sb  Sb53  1  0.74664096  0.50509649  0.41658813  1
  Sb  Sb54  1  0.25335904  0.99490351  0.91658813  1
  Sb  Sb55  1  0.24664096  0.49490351  0.58341187  1
