# generated using pymatgen
data_Ba4Sr2La2Co4O15
_symmetry_space_group_name_H-M   'P 1'
_cell_length_a   6.99598007
_cell_length_b   11.85494282
_cell_length_c   11.87509980
_cell_angle_alpha   119.95810175
_cell_angle_beta   89.76000240
_cell_angle_gamma   90.50798646
_symmetry_Int_Tables_number   1
_chemical_formula_structural   Ba4Sr2La2Co4O15
_chemical_formula_sum   'Ba8 Sr4 La4 Co8 O30'
_cell_volume   853.26128984
_cell_formula_units_Z   2
loop_
 _symmetry_equiv_pos_site_id
 _symmetry_equiv_pos_as_xyz
  1  'x, y, z'
loop_
 _atom_site_type_symbol
 _atom_site_label
 _atom_site_symmetry_multiplicity
 _atom_site_fract_x
 _atom_site_fract_y
 _atom_site_fract_z
 _atom_site_occupancy
  Ba  Ba0  1  0.01664511  0.33474610  0.66714562  1
  Ba  Ba1  1  0.51652975  0.66781754  0.33329267  1
  Ba  Ba2  1  0.33302688  0.17151533  0.82675909  1
  Ba  Ba3  1  0.33712562  0.65310366  0.82761352  1
  Ba  Ba4  1  0.33392073  0.17452681  0.34872364  1
  Ba  Ba5  1  0.83723648  0.82602880  0.17256184  1
  Ba  Ba6  1  0.83286450  0.34482609  0.17327336  1
  Ba  Ba7  1  0.83468520  0.82596135  0.65170424  1
  Sr  Sr8  1  0.51734961  0.00021680  0.00044525  1
  Sr  Sr9  1  0.01751142  0.99987381  0.99966834  1
  Sr  Sr10  1  0.67427259  0.47367241  0.52348429  1
  Sr  Sr11  1  0.17458304  0.95007634  0.47645676  1
  La  La12  1  0.67411915  0.04653390  0.52458160  1
  La  La13  1  0.67079306  0.47576406  0.95299062  1
  La  La14  1  0.17373520  0.52198811  0.47543509  1
  La  La15  1  0.17079235  0.52303595  0.04735148  1
  Co  Co16  1  0.84084728  0.17202715  0.82482645  1
  Co  Co17  1  0.84144380  0.64941755  0.82168725  1
  Co  Co18  1  0.84208367  0.17316888  0.34943762  1
  Co  Co19  1  0.34175357  0.82784201  0.17824020  1
  Co  Co20  1  0.34056650  0.34728747  0.17521151  1
  Co  Co21  1  0.34260356  0.82379094  0.65092910  1
  Co  Co22  1  0.47315027  0.33349070  0.66561933  1
  Co  Co23  1  0.97246768  0.66787269  0.33463876  1
  O  O24  1  0.47449646  0.67008596  0.06426586  1
  O  O25  1  0.47060738  0.39521016  0.32675394  1
  O  O26  1  0.48469438  0.93683069  0.60809951  1
  O  O27  1  0.47269837  0.39474856  0.06318600  1
  O  O28  1  0.48178149  0.93364834  0.32640730  1
  O  O29  1  0.47454148  0.67390088  0.60505976  1
  O  O30  1  0.97302125  0.33155410  0.93691655  1
  O  O31  1  0.98147486  0.60707979  0.67367639  1
  O  O32  1  0.97304796  0.06807783  0.39467102  1
  O  O33  1  0.97430703  0.60549390  0.93548698  1
  O  O34  1  0.97089676  0.06870500  0.67325674  1
  O  O35  1  0.98425358  0.32849554  0.39115568  1
  O  O36  1  0.33225980  0.41764315  0.58550946  1
  O  O37  1  0.34618179  0.17387917  0.58768413  1
  O  O38  1  0.33601980  0.41839982  0.83366157  1
  O  O39  1  0.84594880  0.58557414  0.41216373  1
  O  O40  1  0.83294768  0.83178824  0.41441148  1
  O  O41  1  0.83585413  0.58462050  0.16646383  1
  O  O42  1  0.66611725  0.24781068  0.75533579  1
  O  O43  1  0.66714923  0.50193311  0.75531959  1
  O  O44  1  0.66675444  0.24302110  0.49291610  1
  O  O45  1  0.16736519  0.74705695  0.24439675  1
  O  O46  1  0.16622167  0.49289495  0.24491605  1
  O  O47  1  0.16620562  0.74996103  0.50732718  1
  O  O48  1  0.25651288  0.90557633  0.08873654  1
  O  O49  1  0.25777033  0.17987350  0.08558177  1
  O  O50  1  0.25584902  0.91504271  0.81815651  1
  O  O51  1  0.75753123  0.09433952  0.91438559  1
  O  O52  1  0.75604737  0.81650086  0.91086153  1
  O  O53  1  0.75713572  0.09566900  0.18115907  1
