# generated using pymatgen
data_Ba10Ce(Bi3O10)3
_symmetry_space_group_name_H-M   'P 1'
_cell_length_a   8.84802329
_cell_length_b   10.86164086
_cell_length_c   10.84960354
_cell_angle_alpha   100.01094943
_cell_angle_beta   65.67311785
_cell_angle_gamma   114.34280925
_symmetry_Int_Tables_number   1
_chemical_formula_structural   Ba10Ce(Bi3O10)3
_chemical_formula_sum   'Ba10 Ce1 Bi9 O30'
_cell_volume   865.63116909
_cell_formula_units_Z   1
loop_
 _symmetry_equiv_pos_site_id
 _symmetry_equiv_pos_as_xyz
  1  'x, y, z'
loop_
 _atom_site_type_symbol
 _atom_site_label
 _atom_site_symmetry_multiplicity
 _atom_site_fract_x
 _atom_site_fract_y
 _atom_site_fract_z
 _atom_site_occupancy
  Ba  Ba0  1  0.64574591  0.69990295  0.89756216  1
  Ba  Ba1  1  0.24831475  0.50168803  0.49872847  1
  Ba  Ba2  1  0.45323237  0.10322805  0.69601231  1
  Ba  Ba3  1  0.84759305  0.30423237  0.09987212  1
  Ba  Ba4  1  0.04899223  0.90121018  0.30020863  1
  Ba  Ba5  1  0.35425409  0.30009705  0.10243784  1
  Ba  Ba6  1  0.95100777  0.09878982  0.69979137  1
  Ba  Ba7  1  0.15240695  0.69576763  0.90012788  1
  Ba  Ba8  1  0.54676763  0.89677195  0.30398769  1
  Ba  Ba9  1  0.75168525  0.49831197  0.50127153  1
  Ce  Ce10  1  -0.00000000  -0.00000000  0.00000000  1
  Bi  Bi11  1  0.50000000  -0.00000000  0.00000000  1
  Bi  Bi12  1  0.09936636  0.79972282  0.60134545  1
  Bi  Bi13  1  0.29968990  0.39902026  0.79955805  1
  Bi  Bi14  1  0.70031010  0.60097974  0.20044195  1
  Bi  Bi15  1  0.90063364  0.20027718  0.39865455  1
  Bi  Bi16  1  0.20023501  0.60099007  0.20042307  1
  Bi  Bi17  1  0.40087402  0.20033828  0.39903585  1
  Bi  Bi18  1  0.59912598  0.79966172  0.60096415  1
  Bi  Bi19  1  0.79976499  0.39900993  0.79957693  1
  O  O20  1  0.35935607  0.78923733  0.06946827  1
  O  O21  1  0.95961834  0.59005682  0.66953598  1
  O  O22  1  0.15790145  0.18720439  0.86990767  1
  O  O23  1  0.55985080  0.38972624  0.26821029  1
  O  O24  1  0.75976548  0.99037996  0.46731941  1
  O  O25  1  0.24244958  0.01376830  0.02883306  1
  O  O26  1  0.84748435  0.81311218  0.62935364  1
  O  O27  1  0.04778061  0.41285589  0.82872740  1
  O  O28  1  0.44817862  0.61401068  0.22939996  1
  O  O29  1  0.64837905  0.21397889  0.42843705  1
  O  O30  1  0.64064393  0.21076267  0.93053173  1
  O  O31  1  0.24023452  0.00962004  0.53268059  1
  O  O32  1  0.44014920  0.61027376  0.73178971  1
  O  O33  1  0.84209855  0.81279561  0.13009233  1
  O  O34  1  0.04038166  0.40994318  0.33046402  1
  O  O35  1  0.75755042  0.98623170  0.97116694  1
  O  O36  1  0.35162095  0.78602111  0.57156295  1
  O  O37  1  0.55182138  0.38598932  0.77060004  1
  O  O38  1  0.95221939  0.58714411  0.17127260  1
  O  O39  1  0.15251565  0.18688782  0.37064636  1
  O  O40  1  0.73653855  0.53064484  0.99210321  1
  O  O41  1  0.93613522  0.12783359  0.18821257  1
  O  O42  1  0.13602740  0.72922594  0.39092339  1
  O  O43  1  0.33396783  0.32825520  0.59213850  1
  O  O44  1  0.53566568  0.92835379  0.79053288  1
  O  O45  1  0.66603217  0.67174480  0.40786150  1
  O  O46  1  0.86397260  0.27077406  0.60907661  1
  O  O47  1  0.06386478  0.87216641  0.81178743  1
  O  O48  1  0.26346145  0.46935516  0.00789679  1
  O  O49  1  0.46433432  0.07164621  0.20946712  1
