# generated using pymatgen
data_Ba(GeAu)2
_symmetry_space_group_name_H-M   'P 1'
_cell_length_a   4.73147179
_cell_length_b   4.72935135
_cell_length_c   6.29396717
_cell_angle_alpha   67.93209985
_cell_angle_beta   67.92168501
_cell_angle_gamma   90.00000000
_symmetry_Int_Tables_number   1
_chemical_formula_structural   Ba(GeAu)2
_chemical_formula_sum   'Ba1 Ge2 Au2'
_cell_volume   119.30340761
_cell_formula_units_Z   1
loop_
 _symmetry_equiv_pos_site_id
 _symmetry_equiv_pos_as_xyz
  1  'x, y, z'
loop_
 _atom_site_type_symbol
 _atom_site_label
 _atom_site_symmetry_multiplicity
 _atom_site_fract_x
 _atom_site_fract_y
 _atom_site_fract_z
 _atom_site_occupancy
  Ba  Ba0  1  -0.00000000  0.00000000  -0.00000000  1
  Ge  Ge1  1  0.37558774  0.37558774  0.24882452  1
  Ge  Ge2  1  0.62441226  0.62441226  0.75117548  1
  Au  Au3  1  0.75374489  0.25374489  0.49251022  1
  Au  Au4  1  0.24625511  0.74625511  0.50748978  1
