# generated using pymatgen
data_Ba6Pr2Co4O15
_symmetry_space_group_name_H-M   'P 1'
_cell_length_a   7.11493887
_cell_length_b   12.04128249
_cell_length_c   11.93116976
_cell_angle_alpha   120.01761491
_cell_angle_beta   89.82556924
_cell_angle_gamma   90.80361125
_symmetry_Int_Tables_number   1
_chemical_formula_structural   Ba6Pr2Co4O15
_chemical_formula_sum   'Ba12 Pr4 Co8 O30'
_cell_volume   884.97942056
_cell_formula_units_Z   2
loop_
 _symmetry_equiv_pos_site_id
 _symmetry_equiv_pos_as_xyz
  1  'x, y, z'
loop_
 _atom_site_type_symbol
 _atom_site_label
 _atom_site_symmetry_multiplicity
 _atom_site_fract_x
 _atom_site_fract_y
 _atom_site_fract_z
 _atom_site_occupancy
  Ba  Ba0  1  0.99714801  0.66262098  0.32853394  1
  Ba  Ba1  1  0.48754851  0.33400516  0.66828906  1
  Ba  Ba2  1  0.67458867  0.82212685  0.16992699  1
  Ba  Ba3  1  0.67529428  0.35290528  0.18215752  1
  Ba  Ba4  1  0.67576618  0.82006969  0.64624152  1
  Ba  Ba5  1  0.17621523  0.17446633  0.82074121  1
  Ba  Ba6  1  0.17394633  0.65011971  0.82586945  1
  Ba  Ba7  1  0.17077048  0.17863194  0.35620345  1
  Ba  Ba8  1  0.33439391  0.52050781  0.47372500  1
  Ba  Ba9  1  0.83761123  0.04979880  0.52777471  1
  Ba  Ba10  1  0.49923296  0.00367224  -0.00001801  1
  Ba  Ba11  1  0.00066633  0.00045517  0.99891988  1
  Pr  Pr12  1  0.33809167  0.95279506  0.47939920  1
  Pr  Pr13  1  0.34430523  0.52569899  0.04558258  1
  Pr  Pr14  1  0.83932122  0.47421716  0.52381528  1
  Pr  Pr15  1  0.84583467  0.47983786  0.95313952  1
  Co  Co16  1  0.17752919  0.82334922  0.17506845  1
  Co  Co17  1  0.16533137  0.35496194  0.17231173  1
  Co  Co18  1  0.17145508  0.81934351  0.64503910  1
  Co  Co19  1  0.66793587  0.18336411  0.82653310  1
  Co  Co20  1  0.67536611  0.64802604  0.82538273  1
  Co  Co21  1  0.66904188  0.17063478  0.35412246  1
  Co  Co22  1  0.54269186  0.66547348  0.33020928  1
  Co  Co23  1  0.02766739  0.33140619  0.67076287  1
  O  O24  1  0.53782051  0.33158708  0.92942717  1
  O  O25  1  0.56077843  0.60601862  0.67299907  1
  O  O26  1  0.52096294  0.06514828  0.38834053  1
  O  O27  1  0.55123501  0.60159115  0.93931154  1
  O  O28  1  0.51938173  0.07006845  0.67637179  1
  O  O29  1  0.56065417  0.32983247  0.39700405  1
  O  O30  1  0.04852552  0.66242683  0.06274158  1
  O  O31  1  0.01727383  0.39199345  0.32297459  1
  O  O32  1  0.06257871  0.93653066  0.60777386  1
  O  O33  1  0.03710315  0.39880768  0.06546826  1
  O  O34  1  0.05811665  0.92767883  0.32575159  1
  O  O35  1  0.02138661  0.67500832  0.61278248  1
  O  O36  1  0.35315377  0.74663112  0.24059954  1
  O  O37  1  0.34755255  0.49551376  0.23488801  1
  O  O38  1  0.34163537  0.75792840  0.50156908  1
  O  O39  1  0.85482342  0.26185471  0.76432960  1
  O  O40  1  0.84771388  0.50599883  0.75673180  1
  O  O41  1  0.84439721  0.25932859  0.50213336  1
  O  O42  1  0.68515328  0.58458891  0.41087806  1
  O  O43  1  0.66193853  0.82418319  0.41064695  1
  O  O44  1  0.67942275  0.58108205  0.16410077  1
  O  O45  1  0.16476553  0.40932243  0.59203426  1
  O  O46  1  0.18774170  0.17145132  0.58594660  1
  O  O47  1  0.17634446  0.42003586  0.83517479  1
  O  O48  1  0.76886653  0.09020554  0.89130450  1
  O  O49  1  0.75637577  0.81320584  0.92080449  1
  O  O50  1  0.76766486  0.09741334  0.19325091  1
  O  O51  1  0.26536335  0.89126080  0.08033993  1
  O  O52  1  0.26285572  0.19563614  0.10373078  1
  O  O53  1  0.26164039  0.89917908  0.81085902  1
