# generated using pymatgen
data_AlCr4AgS8
_symmetry_space_group_name_H-M   'P 1'
_cell_length_a   7.16088996
_cell_length_b   7.16088996
_cell_length_c   7.16088996
_cell_angle_alpha   90.00000000
_cell_angle_beta   60.00000000
_cell_angle_gamma   120.00000000
_symmetry_Int_Tables_number   1
_chemical_formula_structural   AlCr4AgS8
_chemical_formula_sum   'Al1 Cr4 Ag1 S8'
_cell_volume   259.64861021
_cell_formula_units_Z   1
loop_
 _symmetry_equiv_pos_site_id
 _symmetry_equiv_pos_as_xyz
  1  'x, y, z'
loop_
 _atom_site_type_symbol
 _atom_site_label
 _atom_site_symmetry_multiplicity
 _atom_site_fract_x
 _atom_site_fract_y
 _atom_site_fract_z
 _atom_site_occupancy
  Al  Al0  1  -0.00000000  0.00000000  0.00000000  1
  Cr  Cr1  1  0.75695512  0.37847756  0.86456732  1
  Cr  Cr2  1  0.24304488  0.37847756  0.37847756  1
  Cr  Cr3  1  0.24304488  0.86456732  0.37847756  1
  Cr  Cr4  1  0.75695512  0.37847756  0.37847756  1
  Ag  Ag5  1  0.50000000  0.75000000  0.75000000  1
  S  S6  1  0.26531266  0.13265633  0.60203102  1
  S  S7  1  0.73468734  0.13265633  0.13265633  1
  S  S8  1  0.73468734  0.60203102  0.13265633  1
  S  S9  1  0.26531266  0.13265633  0.13265633  1
  S  S10  1  0.22021985  0.61010993  0.16967022  1
  S  S11  1  0.77978015  0.61010993  0.61010993  1
  S  S12  1  0.77978015  0.16967022  0.61010993  1
  S  S13  1  0.22021985  0.61010993  0.61010993  1
