# generated using pymatgen
data_Sm3Co29(Si2B5)2
_symmetry_space_group_name_H-M   'P 1'
_cell_length_a   7.83892043
_cell_length_b   11.15799935
_cell_length_c   11.15799935
_cell_angle_alpha   90.00000000
_cell_angle_beta   90.00000000
_cell_angle_gamma   90.00000000
_symmetry_Int_Tables_number   1
_chemical_formula_structural   Sm3Co29(Si2B5)2
_chemical_formula_sum   'Sm6 Co58 Si8 B20'
_cell_volume   975.95303655
_cell_formula_units_Z   2
loop_
 _symmetry_equiv_pos_site_id
 _symmetry_equiv_pos_as_xyz
  1  'x, y, z'
loop_
 _atom_site_type_symbol
 _atom_site_label
 _atom_site_symmetry_multiplicity
 _atom_site_fract_x
 _atom_site_fract_y
 _atom_site_fract_z
 _atom_site_occupancy
  B  B0  1  0.51777711  0.93603898  0.93603898  1
  B  B1  1  0.51777711  0.56396102  0.56396102  1
  B  B2  1  0.51777711  0.93603898  0.56396102  1
  B  B3  1  0.51777711  0.56396102  0.93603898  1
  B  B4  1  0.48222289  0.43603898  0.43603898  1
  B  B5  1  0.48222289  0.06396102  0.43603898  1
  B  B6  1  0.26250066  0.00602145  0.75000000  1
  B  B7  1  0.26250066  0.49397855  0.75000000  1
  B  B8  1  0.26250066  0.75000000  0.49397855  1
  B  B9  1  0.26250066  0.75000000  0.00602145  1
  B  B10  1  0.73749934  0.25000000  0.50602145  1
  B  B11  1  0.73749934  0.99397855  0.25000000  1
  B  B12  1  0.73749934  0.50602145  0.25000000  1
  B  B13  1  0.73749934  0.25000000  0.99397855  1
  B  B14  1  0.14818699  0.75000000  0.75000000  1
  B  B15  1  0.85181301  0.25000000  0.25000000  1
  B  B16  1  0.89298856  0.75000000  0.75000000  1
  B  B17  1  0.10701144  0.25000000  0.25000000  1
  B  B18  1  0.48222289  0.43603898  0.06396102  1
  B  B19  1  0.48222289  0.06396102  0.06396102  1
  Si  Si20  1  0.82448897  0.43177963  0.75000000  1
  Si  Si21  1  0.17551103  0.25000000  0.56822037  1
  Si  Si22  1  0.17551103  0.93177963  0.25000000  1
  Si  Si23  1  0.17551103  0.56822037  0.25000000  1
  Si  Si24  1  0.17551103  0.25000000  0.93177963  1
  Si  Si25  1  0.82448897  0.75000000  0.43177963  1
  Si  Si26  1  0.82448897  0.75000000  0.06822037  1
  Si  Si27  1  0.82448897  0.06822037  0.75000000  1
  Co  Co28  1  0.33697536  0.42461544  0.58831213  1
  Co  Co29  1  0.52568859  0.75000000  0.52349129  1
  Co  Co30  1  0.52568859  0.52349129  0.75000000  1
  Co  Co31  1  0.52568859  0.97650871  0.75000000  1
  Co  Co32  1  0.97109497  0.25000000  0.08573770  1
  Co  Co33  1  0.97109497  0.41426230  0.25000000  1
  Co  Co34  1  0.97109497  0.08573770  0.25000000  1
  Co  Co35  1  0.97109497  0.25000000  0.41426230  1
  Co  Co36  1  0.02890503  0.75000000  0.91426230  1
  Co  Co37  1  0.02890503  0.75000000  0.58573770  1
  Co  Co38  1  0.02890503  0.58573770  0.75000000  1
  Co  Co39  1  0.02890503  0.91426230  0.75000000  1
  Co  Co40  1  0.25132997  0.13547844  0.13547844  1
  Co  Co41  1  0.25132997  0.36452156  0.13547844  1
  Co  Co42  1  0.25132997  0.13547844  0.36452156  1
  Co  Co43  1  0.25132997  0.36452156  0.36452156  1
  Co  Co44  1  0.74867003  0.63547844  0.86452156  1
  Co  Co45  1  0.74867003  0.86452156  0.63547844  1
  Co  Co46  1  0.74867003  0.63547844  0.63547844  1
  Co  Co47  1  0.74867003  0.86452156  0.86452156  1
  Co  Co48  1  0.69827657  0.14030648  0.14030648  1
  Co  Co49  1  0.69827657  0.35969352  0.14030648  1
  Co  Co50  1  0.69827657  0.14030648  0.35969352  1
  Co  Co51  1  0.69827657  0.35969352  0.35969352  1
  Co  Co52  1  0.30172343  0.64030648  0.85969352  1
  Co  Co53  1  0.30172343  0.85969352  0.64030648  1
  Co  Co54  1  0.30172343  0.64030648  0.64030648  1
  Co  Co55  1  0.30172343  0.85969352  0.85969352  1
  Co  Co56  1  0.33697536  0.07538456  0.58831213  1
  Co  Co57  1  0.33697536  0.91168787  0.07538456  1
  Co  Co58  1  0.33697536  0.58831213  0.42461544  1
  Co  Co59  1  0.33697536  0.42461544  0.91168787  1
  Co  Co60  1  0.66302464  0.57538456  0.41168787  1
  Co  Co61  1  0.66302464  0.92461544  0.08831213  1
  Co  Co62  1  0.66302464  0.08831213  0.57538456  1
  Co  Co63  1  0.88872813  0.25000000  0.86012170  1
  Co  Co64  1  0.66302464  0.92461544  0.41168787  1
  Co  Co65  1  0.66302464  0.08831213  0.92461544  1
  Co  Co66  1  0.66302464  0.41168787  0.57538456  1
  Co  Co67  1  0.66302464  0.57538456  0.08831213  1
  Co  Co68  1  0.52568859  0.75000000  0.97650871  1
  Co  Co69  1  0.88872813  0.63987830  0.25000000  1
  Co  Co70  1  0.33697536  0.91168787  0.42461544  1
  Co  Co71  1  0.33697536  0.58831213  0.07538456  1
  Co  Co72  1  0.88872813  0.86012170  0.25000000  1
  Co  Co73  1  0.88872813  0.25000000  0.63987830  1
  Co  Co74  1  0.53214023  0.75000000  0.75000000  1
  Co  Co75  1  0.46785977  0.25000000  0.25000000  1
  Co  Co76  1  0.11127187  0.75000000  0.36012170  1
  Co  Co77  1  0.47431141  0.25000000  0.47650871  1
  Co  Co78  1  0.47431141  0.02349129  0.25000000  1
  Co  Co79  1  0.47431141  0.47650871  0.25000000  1
  Co  Co80  1  0.47431141  0.25000000  0.02349129  1
  Co  Co81  1  0.11127187  0.36012170  0.75000000  1
  Co  Co82  1  0.11127187  0.13987830  0.75000000  1
  Co  Co83  1  0.11127187  0.75000000  0.13987830  1
  Co  Co84  1  0.66302464  0.41168787  0.92461544  1
  Co  Co85  1  0.33697536  0.07538456  0.91168787  1
  Sm  Sm86  1  0.00000000  0.50000000  0.50000000  1
  Sm  Sm87  1  0.00000000  0.00000000  0.50000000  1
  Sm  Sm88  1  0.00000000  0.50000000  0.00000000  1
  Sm  Sm89  1  0.00000000  0.00000000  0.00000000  1
  Sm  Sm90  1  0.50000000  0.75000000  0.25000000  1
  Sm  Sm91  1  0.50000000  0.25000000  0.75000000  1
