# generated using pymatgen
data_Rb3NaBe2F8
_symmetry_space_group_name_H-M   'P 1'
_cell_length_a   5.84364786
_cell_length_b   5.84364785
_cell_length_c   7.59933603
_cell_angle_alpha   90.00000000
_cell_angle_beta   90.00000000
_cell_angle_gamma   120.00000004
_symmetry_Int_Tables_number   1
_chemical_formula_structural   Rb3NaBe2F8
_chemical_formula_sum   'Rb3 Na1 Be2 F8'
_cell_volume   224.73688369
_cell_formula_units_Z   1
loop_
 _symmetry_equiv_pos_site_id
 _symmetry_equiv_pos_as_xyz
  1  'x, y, z'
loop_
 _atom_site_type_symbol
 _atom_site_label
 _atom_site_symmetry_multiplicity
 _atom_site_fract_x
 _atom_site_fract_y
 _atom_site_fract_z
 _atom_site_occupancy
  Be  Be0  1  0.33333333  0.66666667  0.74165237  1
  Be  Be1  1  0.66666667  0.33333333  0.25834763  1
  F  F2  1  0.37367376  0.18683688  0.18260317  1
  F  F3  1  0.62632624  0.81316312  0.81739683  1
  F  F4  1  0.81316312  0.18683688  0.18260317  1
  F  F5  1  0.81316312  0.62632624  0.18260317  1
  F  F6  1  0.33333333  0.66666667  0.54023704  1
  F  F7  1  0.66666667  0.33333333  0.45976296  1
  F  F8  1  0.18683688  0.81316312  0.81739683  1
  F  F9  1  0.18683688  0.37367376  0.81739683  1
  Na  Na10  1  0.00000000  0.00000000  0.00000000  1
  Rb  Rb11  1  0.33333333  0.66666667  0.18089306  1
  Rb  Rb12  1  0.00000000  0.00000000  0.50000000  1
  Rb  Rb13  1  0.66666667  0.33333333  0.81910694  1
