# generated using pymatgen
data_Sr3(BS3)2
_symmetry_space_group_name_H-M   'P 1'
_cell_length_a   6.13836615
_cell_length_b   6.13836614
_cell_length_c   15.60156687
_cell_angle_alpha   79.84397059
_cell_angle_beta   79.84397058
_cell_angle_gamma   65.79627606
_symmetry_Int_Tables_number   1
_chemical_formula_structural   Sr3(BS3)2
_chemical_formula_sum   'Sr6 B4 S12'
_cell_volume   524.22623138
_cell_formula_units_Z   2
loop_
 _symmetry_equiv_pos_site_id
 _symmetry_equiv_pos_as_xyz
  1  'x, y, z'
loop_
 _atom_site_type_symbol
 _atom_site_label
 _atom_site_symmetry_multiplicity
 _atom_site_fract_x
 _atom_site_fract_y
 _atom_site_fract_z
 _atom_site_occupancy
  B  B0  1  0.53432106  0.74303202  0.13525516  1
  B  B1  1  0.25696798  0.46567894  0.36474484  1
  B  B2  1  0.46567894  0.25696798  0.86474484  1
  B  B3  1  0.74303202  0.53432106  0.63525516  1
  S  S4  1  0.27730642  0.87250329  0.07076820  1
  S  S5  1  0.12749671  0.72269358  0.42923180  1
  S  S6  1  0.91678814  0.52649010  0.71973773  1
  S  S7  1  0.47350990  0.08321186  0.78026227  1
  S  S8  1  0.08321186  0.47350990  0.28026227  1
  S  S9  1  0.52649010  0.91678814  0.21973773  1
  S  S10  1  0.45395067  0.76764216  0.60763164  1
  S  S11  1  0.23235784  0.54604933  0.89236836  1
  S  S12  1  0.54604933  0.23235784  0.39236836  1
  S  S13  1  0.76764216  0.45395067  0.10763164  1
  S  S14  1  0.87250329  0.27730642  0.57076820  1
  S  S15  1  0.72269358  0.12749671  0.92923180  1
  Sr  Sr16  1  0.32258569  0.35215762  0.08692413  1
  Sr  Sr17  1  0.64784238  0.67741431  0.41307587  1
  Sr  Sr18  1  0.67741431  0.64784238  0.91307587  1
  Sr  Sr19  1  0.35215762  0.32258569  0.58692413  1
  Sr  Sr20  1  0.97966219  0.02033781  0.25000000  1
  Sr  Sr21  1  0.02033781  0.97966219  0.75000000  1
