# generated using pymatgen
data_Sm2Cu(SeO3)4
_symmetry_space_group_name_H-M   'P 1'
_cell_length_a   7.03748901
_cell_length_b   8.25779467
_cell_length_c   10.81800965
_cell_angle_alpha   109.94605867
_cell_angle_beta   90.00000000
_cell_angle_gamma   90.00000000
_symmetry_Int_Tables_number   1
_chemical_formula_structural   Sm2Cu(SeO3)4
_chemical_formula_sum   'Sm4 Cu2 Se8 O24'
_cell_volume   590.96748716
_cell_formula_units_Z   2
loop_
 _symmetry_equiv_pos_site_id
 _symmetry_equiv_pos_as_xyz
  1  'x, y, z'
loop_
 _atom_site_type_symbol
 _atom_site_label
 _atom_site_symmetry_multiplicity
 _atom_site_fract_x
 _atom_site_fract_y
 _atom_site_fract_z
 _atom_site_occupancy
  O  O0  1  0.65421527  0.08940268  0.55645107  1
  O  O1  1  0.15421527  0.41059732  0.44354893  1
  O  O2  1  0.34578473  0.91059732  0.44354893  1
  O  O3  1  0.84578473  0.58940268  0.55645107  1
  O  O4  1  0.88685661  0.92593124  0.65560656  1
  O  O5  1  0.38685661  0.57406876  0.34439344  1
  O  O6  1  0.11314339  0.07406876  0.34439344  1
  O  O7  1  0.61314339  0.42593124  0.65560656  1
  O  O8  1  0.49307282  0.27914582  0.39325853  1
  O  O9  1  0.99307282  0.22085418  0.60674147  1
  O  O10  1  0.22182855  0.53118082  0.70004356  1
  O  O11  1  0.72182855  0.96881918  0.29995644  1
  O  O12  1  0.77817145  0.46881918  0.29995644  1
  O  O13  1  0.27817145  0.03118082  0.70004356  1
  O  O14  1  0.11787488  0.82333364  0.84830833  1
  O  O15  1  0.61787488  0.67666636  0.15169167  1
  O  O16  1  0.88212512  0.17666636  0.15169167  1
  O  O17  1  0.38212512  0.32333364  0.84830833  1
  O  O18  1  0.10852779  0.17712714  0.94177624  1
  O  O19  1  0.60852779  0.32287286  0.05822376  1
  O  O20  1  0.89147221  0.82287286  0.05822376  1
  O  O21  1  0.39147221  0.67712714  0.94177624  1
  O  O22  1  0.50692718  0.72085418  0.60674147  1
  O  O23  1  0.00692718  0.77914582  0.39325853  1
  Cu  Cu24  1  0.50000000  0.50000000  0.00000000  1
  Cu  Cu25  1  0.00000000  0.00000000  0.00000000  1
  Se  Se26  1  0.17678782  0.86531870  0.31658569  1
  Se  Se27  1  0.67678782  0.63468130  0.68341431  1
  Se  Se28  1  0.32784052  0.12395796  0.86513540  1
  Se  Se29  1  0.82784052  0.37604204  0.13486460  1
  Se  Se30  1  0.67215948  0.87604204  0.13486460  1
  Se  Se31  1  0.17215948  0.62395796  0.86513540  1
  Se  Se32  1  0.32321218  0.36531870  0.31658569  1
  Se  Se33  1  0.82321218  0.13468130  0.68341431  1
  Sm  Sm34  1  0.33743647  0.23921160  0.58433026  1
  Sm  Sm35  1  0.83743647  0.26078840  0.41566974  1
  Sm  Sm36  1  0.66256353  0.76078840  0.41566974  1
  Sm  Sm37  1  0.16256353  0.73921160  0.58433026  1
