# generated using pymatgen
data_Rb4Re6S13
_symmetry_space_group_name_H-M   'P 1'
_cell_length_a   9.81291435
_cell_length_b   9.81291382
_cell_length_c   14.15527664
_cell_angle_alpha   94.88164119
_cell_angle_beta   94.88164094
_cell_angle_gamma   118.99264843
_symmetry_Int_Tables_number   1
_chemical_formula_structural   Rb4Re6S13
_chemical_formula_sum   'Rb8 Re12 S26'
_cell_volume   1175.36807489
_cell_formula_units_Z   2
loop_
 _symmetry_equiv_pos_site_id
 _symmetry_equiv_pos_as_xyz
  1  'x, y, z'
loop_
 _atom_site_type_symbol
 _atom_site_label
 _atom_site_symmetry_multiplicity
 _atom_site_fract_x
 _atom_site_fract_y
 _atom_site_fract_z
 _atom_site_occupancy
  Re  Re0  1  0.01299510  0.31589998  0.47860264  1
  Re  Re1  1  0.68410002  0.98700490  0.02139736  1
  Re  Re2  1  0.98700490  0.68410002  0.52139736  1
  Re  Re3  1  0.31589998  0.01299510  0.97860264  1
  Re  Re4  1  0.42784435  0.84450597  0.89175694  1
  Re  Re5  1  0.15549403  0.57215565  0.60824306  1
  Re  Re6  1  0.57215565  0.15549403  0.10824306  1
  Re  Re7  1  0.84450597  0.42784435  0.39175694  1
  Re  Re8  1  0.84533839  0.40392740  0.57707886  1
  Re  Re9  1  0.59607260  0.15466161  0.92292114  1
  Re  Re10  1  0.15466161  0.59607260  0.42292114  1
  Re  Re11  1  0.40392740  0.84533839  0.07707886  1
  Rb  Rb12  1  0.09317134  0.37148553  0.88203783  1
  Rb  Rb13  1  0.62851447  0.90682866  0.61796217  1
  Rb  Rb14  1  0.90682866  0.62851447  0.11796217  1
  Rb  Rb15  1  0.37148553  0.09317134  0.38203783  1
  Rb  Rb16  1  0.75684568  0.69663447  0.83660625  1
  Rb  Rb17  1  0.30336553  0.24315432  0.66339375  1
  Rb  Rb18  1  0.24315432  0.30336553  0.16339375  1
  Rb  Rb19  1  0.69663447  0.75684568  0.33660625  1
  S  S20  1  0.51149754  0.70196198  0.99313277  1
  S  S21  1  0.29803802  0.48850246  0.50686723  1
  S  S22  1  0.48850246  0.29803802  0.00686723  1
  S  S23  1  0.70196198  0.51149754  0.49313277  1
  S  S24  1  0.00702059  0.30629251  0.64796443  1
  S  S25  1  0.69370749  0.99297941  0.85203557  1
  S  S26  1  0.99297941  0.69370749  0.35203557  1
  S  S27  1  0.30629251  0.00702059  0.14796443  1
  S  S28  1  0.17528011  0.72772317  0.95213517  1
  S  S29  1  0.27227683  0.82471989  0.54786483  1
  S  S30  1  0.82471989  0.27227683  0.04786483  1
  S  S31  1  0.72772317  0.17528011  0.45213517  1
  S  S32  1  0.98827430  0.64683485  0.68814446  1
  S  S33  1  0.35316515  0.01172570  0.81185554  1
  S  S34  1  0.01172570  0.35316515  0.31185554  1
  S  S35  1  0.64683485  0.98827430  0.18814446  1
  S  S36  1  0.73686277  0.35607342  0.82279430  1
  S  S37  1  0.64392658  0.26313723  0.67720570  1
  S  S38  1  0.26313723  0.64392658  0.17720570  1
  S  S39  1  0.35607342  0.73686277  0.32279430  1
  S  S40  1  0.96080358  0.92511800  0.55419382  1
  S  S41  1  0.07488200  0.03919642  0.94580618  1
  S  S42  1  0.03919642  0.07488200  0.44580618  1
  S  S43  1  0.92511800  0.96080358  0.05419382  1
  S  S44  1  0.35853565  0.64146435  0.75000000  1
  S  S45  1  0.64146435  0.35853565  0.25000000  1
