# generated using pymatgen
data_Ba(GaSe2)2
_symmetry_space_group_name_H-M   'P 1'
_cell_length_a   6.58439284
_cell_length_b   6.58439284
_cell_length_c   11.60787097
_cell_angle_alpha   90.00000000
_cell_angle_beta   90.00000000
_cell_angle_gamma   122.19263301
_symmetry_Int_Tables_number   1
_chemical_formula_structural   Ba(GaSe2)2
_chemical_formula_sum   'Ba2 Ga4 Se8'
_cell_volume   425.88143937
_cell_formula_units_Z   2
loop_
 _symmetry_equiv_pos_site_id
 _symmetry_equiv_pos_as_xyz
  1  'x, y, z'
loop_
 _atom_site_type_symbol
 _atom_site_label
 _atom_site_symmetry_multiplicity
 _atom_site_fract_x
 _atom_site_fract_y
 _atom_site_fract_z
 _atom_site_occupancy
  Ga  Ga0  1  0.24214053  0.75969517  0.50000000  1
  Ga  Ga1  1  0.75785947  0.24030483  0.50000000  1
  Ga  Ga2  1  0.24030483  0.75785947  0.00000000  1
  Ga  Ga3  1  0.75969517  0.24214053  0.00000000  1
  Se  Se4  1  0.50000000  0.00000000  0.33880661  1
  Se  Se5  1  0.00000000  0.50000000  0.16119339  1
  Se  Se6  1  0.64732483  0.82449835  0.00000000  1
  Se  Se7  1  0.35267517  0.17550165  0.00000000  1
  Se  Se8  1  0.82449835  0.64732483  0.50000000  1
  Se  Se9  1  0.17550165  0.35267517  0.50000000  1
  Se  Se10  1  0.50000000  0.00000000  0.66119339  1
  Se  Se11  1  0.00000000  0.50000000  0.83880661  1
  Ba  Ba12  1  0.50000000  0.50000000  0.25000000  1
  Ba  Ba13  1  0.50000000  0.50000000  0.75000000  1
