# generated using pymatgen
data_NaSrFeF6
_symmetry_space_group_name_H-M   'P 1'
_cell_length_a   5.47359502
_cell_length_b   9.46797862
_cell_length_c   10.51844537
_cell_angle_alpha   90.00000000
_cell_angle_beta   90.00000000
_cell_angle_gamma   90.00000000
_symmetry_Int_Tables_number   1
_chemical_formula_structural   NaSrFeF6
_chemical_formula_sum   'Na4 Sr4 Fe4 F24'
_cell_volume   545.10665720
_cell_formula_units_Z   4
loop_
 _symmetry_equiv_pos_site_id
 _symmetry_equiv_pos_as_xyz
  1  'x, y, z'
loop_
 _atom_site_type_symbol
 _atom_site_label
 _atom_site_symmetry_multiplicity
 _atom_site_fract_x
 _atom_site_fract_y
 _atom_site_fract_z
 _atom_site_occupancy
  Na  Na0  1  0.04274406  0.64740690  0.08427270  1
  Na  Na1  1  0.54274406  0.85259310  0.91572730  1
  Na  Na2  1  0.45725594  0.35259310  0.58427270  1
  Na  Na3  1  0.95725594  0.14740690  0.41572730  1
  Sr  Sr4  1  0.49303986  0.81516113  0.32326951  1
  Sr  Sr5  1  0.50696014  0.31516113  0.17673049  1
  Sr  Sr6  1  0.00696014  0.18483887  0.82326951  1
  Sr  Sr7  1  0.99303986  0.68483887  0.67673049  1
  Fe  Fe8  1  0.03683706  0.00076023  0.12630268  1
  Fe  Fe9  1  0.53683706  0.49923977  0.87369732  1
  Fe  Fe10  1  0.96316294  0.50076023  0.37369732  1
  Fe  Fe11  1  0.46316294  0.99923977  0.62630268  1
  F  F12  1  0.21009176  0.62252881  0.29578865  1
  F  F13  1  0.14030026  0.49610749  0.53449353  1
  F  F14  1  0.78840511  0.64328931  0.91305287  1
  F  F15  1  0.71159489  0.35671069  0.41305287  1
  F  F16  1  0.85969974  0.99610749  0.96550647  1
  F  F17  1  0.78109563  0.65947703  0.45166418  1
  F  F18  1  0.34129835  0.66153388  0.81760295  1
  F  F19  1  0.15870165  0.33846612  0.31760295  1
  F  F20  1  0.64030026  0.00389251  0.46550647  1
  F  F21  1  0.35969974  0.50389251  0.03449353  1
  F  F22  1  0.21939205  0.02115298  0.28557290  1
  F  F23  1  0.28109563  0.84052297  0.54833582  1
  F  F24  1  0.21890437  0.15947703  0.04833582  1
  F  F25  1  0.78060795  0.52115298  0.21442710  1
  F  F26  1  0.71890437  0.34052297  0.95166418  1
  F  F27  1  0.28060795  0.97884702  0.78557290  1
  F  F28  1  0.71939205  0.47884702  0.71442710  1
  F  F29  1  0.78990824  0.12252881  0.20421135  1
  F  F30  1  0.21159489  0.14328931  0.58694713  1
  F  F31  1  0.28990824  0.37747119  0.79578865  1
  F  F32  1  0.28840511  0.85671069  0.08694713  1
  F  F33  1  0.71009176  0.87747119  0.70421135  1
  F  F34  1  0.65870165  0.16153388  0.68239705  1
  F  F35  1  0.84129835  0.83846612  0.18239705  1
