# generated using pymatgen
data_Rb3YCl6
_symmetry_space_group_name_H-M   'P 1'
_cell_length_a   8.02200905
_cell_length_b   13.07278771
_cell_length_c   13.69131986
_cell_angle_alpha   99.08563435
_cell_angle_beta   107.03523200
_cell_angle_gamma   89.99999881
_symmetry_Int_Tables_number   1
_chemical_formula_structural   Rb3YCl6
_chemical_formula_sum   'Rb12 Y4 Cl24'
_cell_volume   1353.96020139
_cell_formula_units_Z   4
loop_
 _symmetry_equiv_pos_site_id
 _symmetry_equiv_pos_as_xyz
  1  'x, y, z'
loop_
 _atom_site_type_symbol
 _atom_site_label
 _atom_site_symmetry_multiplicity
 _atom_site_fract_x
 _atom_site_fract_y
 _atom_site_fract_z
 _atom_site_occupancy
  Rb  Rb0  1  0.69487385  0.06662716  0.90061088  1
  Rb  Rb1  1  0.97526150  0.80520597  0.32626888  1
  Rb  Rb2  1  0.46869096  0.64649273  0.30689037  1
  Rb  Rb3  1  0.20573703  0.56662716  0.90061088  1
  Rb  Rb4  1  0.16180060  0.85350727  0.69310963  1
  Rb  Rb5  1  0.83819940  0.14649273  0.30689037  1
  Rb  Rb6  1  0.30512615  0.93337284  0.09938912  1
  Rb  Rb7  1  0.79426297  0.43337284  0.09938912  1
  Rb  Rb8  1  0.35100738  0.30520597  0.32626888  1
  Rb  Rb9  1  0.02473850  0.19479403  0.67373112  1
  Rb  Rb10  1  0.64899262  0.69479403  0.67373112  1
  Rb  Rb11  1  0.53130904  0.35350727  0.69310963  1
  Y  Y12  1  0.79150297  0.75000000  0.00000000  1
  Y  Y13  1  0.20849703  0.25000000  1.00000000  1
  Y  Y14  1  0.50000000  0.00000000  0.50000000  1
  Y  Y15  1  0.00000000  0.50000000  0.50000000  1
  Cl  Cl16  1  0.72528987  0.42266437  0.34036689  1
  Cl  Cl17  1  0.50524056  0.81941315  0.87986959  1
  Cl  Cl18  1  0.20922162  0.03419640  0.35974523  1
  Cl  Cl19  1  0.37462903  0.31941315  0.87986959  1
  Cl  Cl20  1  0.36433749  0.81342951  0.50152039  1
  Cl  Cl21  1  0.79077838  0.96580360  0.64025477  1
  Cl  Cl22  1  0.84947639  0.46580360  0.64025477  1
  Cl  Cl23  1  0.49475944  0.18058685  0.12013041  1
  Cl  Cl24  1  0.97690515  0.79591904  0.87817161  1
  Cl  Cl25  1  0.09873354  0.70408096  0.12182839  1
  Cl  Cl26  1  0.61507702  0.92266437  0.34036689  1
  Cl  Cl27  1  0.86281710  0.68657049  0.49847961  1
  Cl  Cl28  1  0.27471013  0.57733563  0.65963311  1
  Cl  Cl29  1  0.15052361  0.53419640  0.35974523  1
  Cl  Cl30  1  0.62537097  0.68058685  0.12013041  1
  Cl  Cl31  1  0.83606186  0.93670106  0.11199760  1
  Cl  Cl32  1  0.27593574  0.43670106  0.11199760  1
  Cl  Cl33  1  0.72406426  0.56329894  0.88800240  1
  Cl  Cl34  1  0.63566251  0.18657049  0.49847961  1
  Cl  Cl35  1  0.90126646  0.29591904  0.87817161  1
  Cl  Cl36  1  0.02309485  0.20408096  0.12182839  1
  Cl  Cl37  1  0.16393814  0.06329894  0.88800240  1
  Cl  Cl38  1  0.38492298  0.07733563  0.65963311  1
  Cl  Cl39  1  0.13718290  0.31342951  0.50152039  1
