# generated using pymatgen
data_KScAs2(HO4)2
_symmetry_space_group_name_H-M   'P 1'
_cell_length_a   6.84526997
_cell_length_b   6.84526997
_cell_length_c   9.37383461
_cell_angle_alpha   77.47950543
_cell_angle_beta   102.52049457
_cell_angle_gamma   76.60937675
_symmetry_Int_Tables_number   1
_chemical_formula_structural   KScAs2(HO4)2
_chemical_formula_sum   'K2 Sc2 As4 H4 O16'
_cell_volume   400.30903810
_cell_formula_units_Z   2
loop_
 _symmetry_equiv_pos_site_id
 _symmetry_equiv_pos_as_xyz
  1  'x, y, z'
loop_
 _atom_site_type_symbol
 _atom_site_label
 _atom_site_symmetry_multiplicity
 _atom_site_fract_x
 _atom_site_fract_y
 _atom_site_fract_z
 _atom_site_occupancy
  K  K0  1  0.00000000  0.50000000  0.50000000  1
  K  K1  1  0.50000000  0.00000000  0.00000000  1
  Sc  Sc2  1  0.86163841  0.86163841  0.75000000  1
  Sc  Sc3  1  0.13836159  0.13836159  0.25000000  1
  As  As4  1  0.87319368  0.32400013  0.85719127  1
  As  As5  1  0.32400013  0.87319368  0.64280873  1
  As  As6  1  0.12680632  0.67599987  0.14280873  1
  As  As7  1  0.67599987  0.12680632  0.35719127  1
  H  H8  1  0.69070967  0.34975097  0.03350986  1
  H  H9  1  0.34975097  0.69070967  0.46649014  1
  H  H10  1  0.30929033  0.65024903  0.96649014  1
  H  H11  1  0.65024903  0.30929033  0.53350986  1
  O  O12  1  0.91505565  0.54502152  0.76272048  1
  O  O13  1  0.54502152  0.91505565  0.73727952  1
  O  O14  1  0.08494435  0.45497848  0.23727952  1
  O  O15  1  0.45497848  0.08494435  0.26272048  1
  O  O16  1  0.81972992  0.18781384  0.72800458  1
  O  O17  1  0.18781384  0.81972992  0.77199542  1
  O  O18  1  0.18027008  0.81218616  0.27199542  1
  O  O19  1  0.81218616  0.18027008  0.22800458  1
  O  O20  1  0.08275961  0.19027187  0.01086970  1
  O  O21  1  0.19027187  0.08275961  0.48913030  1
  O  O22  1  0.91724039  0.80972813  0.98913030  1
  O  O23  1  0.80972813  0.91724039  0.51086970  1
  O  O24  1  0.64605908  0.38825675  0.91976444  1
  O  O25  1  0.38825675  0.64605908  0.58023556  1
  O  O26  1  0.35394092  0.61174325  0.08023556  1
  O  O27  1  0.61174325  0.35394092  0.41976444  1
