# generated using pymatgen
data_KGaAs2O7
_symmetry_space_group_name_H-M   'P 1'
_cell_length_a   6.38917773
_cell_length_b   6.48278397
_cell_length_c   8.35408595
_cell_angle_alpha   96.52542030
_cell_angle_beta   103.90014616
_cell_angle_gamma   103.69690262
_symmetry_Int_Tables_number   1
_chemical_formula_structural   KGaAs2O7
_chemical_formula_sum   'K2 Ga2 As4 O14'
_cell_volume   320.95941404
_cell_formula_units_Z   2
loop_
 _symmetry_equiv_pos_site_id
 _symmetry_equiv_pos_as_xyz
  1  'x, y, z'
loop_
 _atom_site_type_symbol
 _atom_site_label
 _atom_site_symmetry_multiplicity
 _atom_site_fract_x
 _atom_site_fract_y
 _atom_site_fract_z
 _atom_site_occupancy
  K  K0  1  0.00000000  0.50000000  0.50000000  1
  K  K1  1  0.00000000  0.50000000  0.00000000  1
  Ga  Ga2  1  0.37508808  0.19114602  0.72488182  1
  Ga  Ga3  1  0.62491192  0.80885398  0.27511818  1
  As  As4  1  0.82524695  0.03379133  0.68969894  1
  As  As5  1  0.48245391  0.74578881  0.83472345  1
  As  As6  1  0.17475305  0.96620867  0.31030106  1
  As  As7  1  0.51754609  0.25421119  0.16527655  1
  O  O8  1  0.23076040  0.11590689  0.14729159  1
  O  O9  1  0.30924063  0.87532122  0.72164851  1
  O  O10  1  0.57396821  0.49887440  0.28735045  1
  O  O11  1  0.90937743  0.80268227  0.21879045  1
  O  O12  1  0.69075937  0.12467878  0.27835149  1
  O  O13  1  0.76923960  0.88409311  0.85270841  1
  O  O14  1  0.33472569  0.78834512  0.33015941  1
  O  O15  1  0.44514549  0.73716722  0.02888444  1
  O  O16  1  0.42603179  0.50112560  0.71264955  1
  O  O17  1  0.20720259  0.15293458  0.47986350  1
  O  O18  1  0.79279741  0.84706542  0.52013650  1
  O  O19  1  0.09062257  0.19731773  0.78120955  1
  O  O20  1  0.55485451  0.26283278  0.97111556  1
  O  O21  1  0.66527431  0.21165488  0.66984059  1
