# generated using pymatgen
data_Na2Zr(CuS2)2
_symmetry_space_group_name_H-M   'P 1'
_cell_length_a   3.74046240
_cell_length_b   7.08947679
_cell_length_c   7.12221666
_cell_angle_alpha   111.50330377
_cell_angle_beta   105.22386994
_cell_angle_gamma   90.00000100
_symmetry_Int_Tables_number   1
_chemical_formula_structural   Na2Zr(CuS2)2
_chemical_formula_sum   'Na2 Zr1 Cu2 S4'
_cell_volume   168.57669681
_cell_formula_units_Z   1
loop_
 _symmetry_equiv_pos_site_id
 _symmetry_equiv_pos_as_xyz
  1  'x, y, z'
loop_
 _atom_site_type_symbol
 _atom_site_label
 _atom_site_symmetry_multiplicity
 _atom_site_fract_x
 _atom_site_fract_y
 _atom_site_fract_z
 _atom_site_occupancy
  Na  Na0  1  0.13852478  0.55959391  0.27704955  1
  Na  Na1  1  0.86147522  0.44040609  0.72295045  1
  Zr  Zr2  1  0.00000000  0.00000000  0.00000000  1
  Cu  Cu3  1  0.67874899  0.98638080  0.35749799  1
  Cu  Cu4  1  0.32125101  0.01361920  0.64250201  1
  S  S5  1  0.20419443  0.20115909  0.40838886  1
  S  S6  1  0.79580557  0.79884091  0.59161114  1
  S  S7  1  0.50987987  0.75121810  0.01975975  1
  S  S8  1  0.49012013  0.24878190  0.98024025  1
