# generated using pymatgen
data_GaBPbO4
_symmetry_space_group_name_H-M   'P 1'
_cell_length_a   5.98794226
_cell_length_b   7.12029656
_cell_length_c   8.39606677
_cell_angle_alpha   90.00000000
_cell_angle_beta   90.00000000
_cell_angle_gamma   90.00000000
_symmetry_Int_Tables_number   1
_chemical_formula_structural   GaBPbO4
_chemical_formula_sum   'Ga4 B4 Pb4 O16'
_cell_volume   357.97407037
_cell_formula_units_Z   4
loop_
 _symmetry_equiv_pos_site_id
 _symmetry_equiv_pos_as_xyz
  1  'x, y, z'
loop_
 _atom_site_type_symbol
 _atom_site_label
 _atom_site_symmetry_multiplicity
 _atom_site_fract_x
 _atom_site_fract_y
 _atom_site_fract_z
 _atom_site_occupancy
  Pb  Pb0  1  0.75000000  0.93606572  0.64292118  1
  Pb  Pb1  1  0.25000000  0.06393428  0.35707882  1
  Pb  Pb2  1  0.75000000  0.43606572  0.85707882  1
  Pb  Pb3  1  0.25000000  0.56393428  0.14292118  1
  Ga  Ga4  1  0.00000000  0.00000000  0.00000000  1
  Ga  Ga5  1  0.50000000  0.00000000  0.00000000  1
  Ga  Ga6  1  0.50000000  0.50000000  0.50000000  1
  Ga  Ga7  1  0.00000000  0.50000000  0.50000000  1
  O  O8  1  0.25000000  0.17944725  0.90701972  1
  O  O9  1  0.75000000  0.82055275  0.09298028  1
  O  O10  1  0.25000000  0.67944725  0.59298028  1
  O  O11  1  0.75000000  0.32055275  0.40701972  1
  O  O12  1  0.25000000  0.89951992  0.11302858  1
  O  O13  1  0.75000000  0.10048008  0.88697142  1
  O  O14  1  0.25000000  0.39951992  0.38697142  1
  O  O15  1  0.75000000  0.60048008  0.61302858  1
  O  O16  1  0.04845402  0.82845824  0.80671821  1
  O  O17  1  0.54845402  0.17154176  0.19328179  1
  O  O18  1  0.45154598  0.32845824  0.69328179  1
  O  O19  1  0.95154598  0.67154176  0.30671821  1
  O  O20  1  0.95154598  0.17154176  0.19328179  1
  O  O21  1  0.45154598  0.82845824  0.80671821  1
  O  O22  1  0.54845402  0.67154176  0.30671821  1
  O  O23  1  0.04845402  0.32845824  0.69328179  1
  B  B24  1  0.75000000  0.22225923  0.26416515  1
  B  B25  1  0.25000000  0.77774077  0.73583485  1
  B  B26  1  0.75000000  0.72225923  0.23583485  1
  B  B27  1  0.25000000  0.27774077  0.76416515  1
