# generated using pymatgen
data_SmHSO5
_symmetry_space_group_name_H-M   'P 1'
_cell_length_a   4.49364766
_cell_length_b   12.34664299
_cell_length_c   6.85414992
_cell_angle_alpha   90.00058304
_cell_angle_beta   106.47835496
_cell_angle_gamma   89.99899913
_symmetry_Int_Tables_number   1
_chemical_formula_structural   SmHSO5
_chemical_formula_sum   'Sm4 H4 S4 O20'
_cell_volume   364.65908391
_cell_formula_units_Z   4
loop_
 _symmetry_equiv_pos_site_id
 _symmetry_equiv_pos_as_xyz
  1  'x, y, z'
loop_
 _atom_site_type_symbol
 _atom_site_label
 _atom_site_symmetry_multiplicity
 _atom_site_fract_x
 _atom_site_fract_y
 _atom_site_fract_z
 _atom_site_occupancy
  Sm  Sm0  1  0.14170947  0.56317855  0.30210672  1
  Sm  Sm1  1  0.35829049  0.06317883  0.19789092  1
  Sm  Sm2  1  0.85829189  0.43682154  0.69789338  1
  Sm  Sm3  1  0.64170970  0.93682109  0.80210898  1
  H  H4  1  0.27219555  0.34214709  0.48408779  1
  H  H5  1  0.77219284  0.15785498  0.98408595  1
  H  H6  1  0.72780548  0.65785264  0.51591223  1
  H  H7  1  0.22780650  0.84214514  0.01591484  1
  S  S8  1  0.98157066  0.85348550  0.38602810  1
  S  S9  1  0.51844605  0.35349929  0.11395596  1
  S  S10  1  0.01842950  0.14651478  0.61397085  1
  S  S11  1  0.48155659  0.64650085  0.88604310  1
  O  O12  1  0.69305528  0.58522330  0.45463098  1
  O  O13  1  0.80694489  0.08522064  0.04537091  1
  O  O14  1  0.30694495  0.41477680  0.54536955  1
  O  O15  1  0.19305462  0.91477912  0.95462947  1
  O  O16  1  0.74530555  0.90171823  0.21049769  1
  O  O17  1  0.75469367  0.40171615  0.28950448  1
  O  O18  1  0.25469394  0.09828147  0.78950195  1
  O  O19  1  0.24530820  0.59828411  0.71049655  1
  O  O20  1  0.10277883  0.75257121  0.32179695  1
  O  O21  1  0.39721290  0.25256027  0.17821156  1
  O  O22  1  0.89721965  0.24742873  0.67820264  1
  O  O23  1  0.60278853  0.74743943  0.82178900  1
  O  O24  1  0.24833267  0.93347273  0.45220373  1
  O  O25  1  0.25167398  0.43346980  0.04779951  1
  O  O26  1  0.75166662  0.06652697  0.54779587  1
  O  O27  1  0.74832690  0.56653041  0.95220148  1
  O  O28  1  0.85346889  0.83185546  0.55647816  1
  O  O29  1  0.64652873  0.33185358  0.94353403  1
  O  O30  1  0.14653030  0.16814438  0.44352209  1
  O  O31  1  0.35347217  0.66814692  0.05646759  1
