# generated using pymatgen
data_Zn4Co5(TeO6)3
_symmetry_space_group_name_H-M   'P 1'
_cell_length_a   8.72651576
_cell_length_b   8.72651559
_cell_length_c   10.54631706
_cell_angle_alpha   86.38259005
_cell_angle_beta   86.38258943
_cell_angle_gamma   61.47589768
_symmetry_Int_Tables_number   1
_chemical_formula_structural   Zn4Co5(TeO6)3
_chemical_formula_sum   'Zn8 Co10 Te6 O36'
_cell_volume   703.73406050
_cell_formula_units_Z   2
loop_
 _symmetry_equiv_pos_site_id
 _symmetry_equiv_pos_as_xyz
  1  'x, y, z'
loop_
 _atom_site_type_symbol
 _atom_site_label
 _atom_site_symmetry_multiplicity
 _atom_site_fract_x
 _atom_site_fract_y
 _atom_site_fract_z
 _atom_site_occupancy
  Zn  Zn0  1  0.87014811  0.53770471  0.32484738  1
  Zn  Zn1  1  0.48207096  0.56631845  0.20455201  1
  Zn  Zn2  1  0.46229529  0.12985189  0.67515262  1
  Zn  Zn3  1  0.43368155  0.51792904  0.79544799  1
  Zn  Zn4  1  0.17463317  0.87380161  0.70454257  1
  Zn  Zn5  1  0.14602381  0.26184144  0.82486823  1
  Zn  Zn6  1  0.73815856  0.85397619  0.17513177  1
  Zn  Zn7  1  0.12619839  0.82536683  0.29545743  1
  Co  Co8  1  0.79464400  0.48616287  0.98022980  1
  Co  Co9  1  0.09451453  0.18634913  0.48019858  1
  Co  Co10  1  0.34765118  0.32170815  0.30506764  1
  Co  Co11  1  0.92993460  0.73945570  0.80509391  1
  Co  Co12  1  0.67829185  0.65234882  0.69493236  1
  Co  Co13  1  0.98716220  0.01283780  0.00000000  1
  Co  Co14  1  0.62113975  0.37885925  0.50000000  1
  Co  Co15  1  0.26054430  0.07006640  0.19490609  1
  Co  Co16  1  0.81365087  0.90548547  0.51980142  1
  Co  Co17  1  0.51383713  0.20535600  0.01977020  1
  Te  Te18  1  0.46174835  0.86298898  0.94829694  1
  Te  Te19  1  0.80417963  0.19582183  0.24990577  1
  Te  Te20  1  0.80417817  0.19582037  0.75009423  1
  Te  Te21  1  0.47130683  0.85342255  0.44824136  1
  Te  Te22  1  0.14657745  0.52869317  0.55175864  1
  Te  Te23  1  0.13701102  0.53825165  0.05170306  1
  O  O24  1  0.39463228  0.08789878  0.85525965  1
  O  O25  1  0.71427732  0.43434403  0.81166067  1
  O  O26  1  0.56258839  0.63184441  0.54537238  1
  O  O27  1  0.72894330  0.13459928  0.41339987  1
  O  O28  1  0.56565597  0.28572268  0.18833933  1
  O  O29  1  0.86540072  0.27105670  0.58660013  1
  O  O30  1  0.37689121  0.78300429  0.31225998  1
  O  O31  1  0.04106179  0.10513803  0.81403958  1
  O  O32  1  0.56723696  0.28656506  0.68590634  1
  O  O33  1  0.08068520  0.41683129  0.41938937  1
  O  O34  1  0.56079528  0.64574135  0.04995997  1
  O  O35  1  0.52763347  0.97487012  0.08060559  1
  O  O36  1  0.89398708  0.95738147  0.68833136  1
  O  O37  1  0.69238908  0.75705021  0.86022110  1
  O  O38  1  0.35425865  0.43920472  0.95004003  1
  O  O39  1  0.23136361  0.60866827  0.18777685  1
  O  O40  1  0.04745263  0.74595309  0.45004466  1
  O  O41  1  0.24294979  0.30761092  0.13977890  1
  O  O42  1  0.36815559  0.43741161  0.45462762  1
  O  O43  1  0.25404691  0.95254737  0.54995534  1
  O  O44  1  0.69619214  0.78630904  0.35526617  1
  O  O45  1  0.91592135  0.63467379  0.63980588  1
  O  O46  1  0.89486197  0.95893821  0.18596042  1
  O  O47  1  0.39133173  0.76863639  0.81222315  1
  O  O48  1  0.04568238  0.75984212  0.95462371  1
  O  O49  1  0.74292822  0.12074173  0.91332188  1
  O  O50  1  0.02512988  0.47236653  0.91939441  1
  O  O51  1  0.21699571  0.62310879  0.68774002  1
  O  O52  1  0.04261853  0.10601292  0.31166864  1
  O  O53  1  0.36532621  0.08407865  0.36019412  1
  O  O54  1  0.21369096  0.30380786  0.64473383  1
  O  O55  1  0.87925827  0.25707178  0.08667812  1
  O  O56  1  0.71343494  0.43276304  0.31409366  1
  O  O57  1  0.58316871  0.91931480  0.58061063  1
  O  O58  1  0.24015788  0.95431762  0.04537629  1
  O  O59  1  0.91210122  0.60536772  0.14474035  1
