# generated using pymatgen
data_KYGeS4
_symmetry_space_group_name_H-M   'P 1'
_cell_length_a   6.54213089
_cell_length_b   6.71187793
_cell_length_c   8.70463892
_cell_angle_alpha   90.00000000
_cell_angle_beta   107.32063651
_cell_angle_gamma   90.00000000
_symmetry_Int_Tables_number   1
_chemical_formula_structural   KYGeS4
_chemical_formula_sum   'K2 Y2 Ge2 S8'
_cell_volume   364.88824108
_cell_formula_units_Z   2
loop_
 _symmetry_equiv_pos_site_id
 _symmetry_equiv_pos_as_xyz
  1  'x, y, z'
loop_
 _atom_site_type_symbol
 _atom_site_label
 _atom_site_symmetry_multiplicity
 _atom_site_fract_x
 _atom_site_fract_y
 _atom_site_fract_z
 _atom_site_occupancy
  K  K0  1  0.26682729  0.00912900  0.06538019  1
  K  K1  1  0.73317371  0.50912900  0.93462181  1
  Y  Y2  1  0.77158370  0.49089031  0.44909764  1
  Y  Y3  1  0.22841730  0.99089231  0.55090336  1
  Ge  Ge4  1  0.22521706  0.52585597  0.32548416  1
  Ge  Ge5  1  0.77478294  0.02585497  0.67451584  1
  S  S6  1  0.43059336  0.52786092  0.16630549  1
  S  S7  1  0.97496928  0.76367303  0.28063685  1
  S  S8  1  0.01771823  0.25508483  0.29857078  1
  S  S9  1  0.56596642  0.09450494  0.42691347  1
  S  S10  1  0.43403458  0.59450494  0.57308653  1
  S  S11  1  0.98228177  0.75508383  0.70142922  1
  S  S12  1  0.02502872  0.26367403  0.71936315  1
  S  S13  1  0.56940664  0.02786192  0.83369451  1
