# generated using pymatgen
data_CaPrTi2O6
_symmetry_space_group_name_H-M   'P 1'
_cell_length_a   5.50420137
_cell_length_b   5.55026145
_cell_length_c   7.83562583
_cell_angle_alpha   90.01933062
_cell_angle_beta   90.02185984
_cell_angle_gamma   90.08984964
_symmetry_Int_Tables_number   1
_chemical_formula_structural   CaPrTi2O6
_chemical_formula_sum   'Ca2 Pr2 Ti4 O12'
_cell_volume   239.37613712
_cell_formula_units_Z   2
loop_
 _symmetry_equiv_pos_site_id
 _symmetry_equiv_pos_as_xyz
  1  'x, y, z'
loop_
 _atom_site_type_symbol
 _atom_site_label
 _atom_site_symmetry_multiplicity
 _atom_site_fract_x
 _atom_site_fract_y
 _atom_site_fract_z
 _atom_site_occupancy
  Ca  Ca0  1  0.48958790  0.45732762  0.74994569  1
  Ca  Ca1  1  0.98973545  0.04268881  0.25007104  1
  Pr  Pr2  1  0.00966568  0.95891268  0.74989103  1
  Pr  Pr3  1  0.50974531  0.54113184  0.25009895  1
  Ti  Ti4  1  0.00045009  0.49830758  0.99963786  1
  Ti  Ti5  1  0.00049001  0.49834175  0.50039538  1
  Ti  Ti6  1  0.50065475  0.00181424  0.49961599  1
  Ti  Ti7  1  0.50072648  0.00182826  0.00040255  1
  O  O8  1  0.07783059  0.47949624  0.25007757  1
  O  O9  1  0.21483702  0.21538661  0.95809776  1
  O  O10  1  0.21462610  0.21558690  0.54190874  1
  O  O11  1  0.28680915  0.71399447  0.54304988  1
  O  O12  1  0.28698645  0.71411331  0.95692154  1
  O  O13  1  0.41818680  0.98199684  0.24992288  1
  O  O14  1  0.57770291  0.02062501  0.75006609  1
  O  O15  1  0.71482308  0.28448671  0.04176100  1
  O  O16  1  0.71501316  0.28462376  0.45825926  1
  O  O17  1  0.78684622  0.78590664  0.04311724  1
  O  O18  1  0.78706935  0.78573974  0.45684313  1
  O  O19  1  0.91820750  0.51769297  0.74991541  1
