# generated using pymatgen
data_CaTiCr(PO4)3
_symmetry_space_group_name_H-M   'P 1'
_cell_length_a   8.85139989
_cell_length_b   8.85140036
_cell_length_c   8.85140003
_cell_angle_alpha   58.39114567
_cell_angle_beta   58.39114585
_cell_angle_gamma   58.39114993
_symmetry_Int_Tables_number   1
_chemical_formula_structural   CaTiCr(PO4)3
_chemical_formula_sum   'Ca2 Ti2 Cr2 P6 O24'
_cell_volume   472.30825967
_cell_formula_units_Z   2
loop_
 _symmetry_equiv_pos_site_id
 _symmetry_equiv_pos_as_xyz
  1  'x, y, z'
loop_
 _atom_site_type_symbol
 _atom_site_label
 _atom_site_symmetry_multiplicity
 _atom_site_fract_x
 _atom_site_fract_y
 _atom_site_fract_z
 _atom_site_occupancy
  Ca  Ca0  1  0.99832491  0.99832491  0.99832491  1
  Ca  Ca1  1  0.49832491  0.49832491  0.49832491  1
  Ti  Ti2  1  0.14739849  0.14739849  0.14739849  1
  Ti  Ti3  1  0.64739849  0.64739849  0.64739849  1
  Cr  Cr4  1  0.35423573  0.35423573  0.35423573  1
  Cr  Cr5  1  0.85423573  0.85423573  0.85423573  1
  P  P6  1  0.04021541  0.46145812  0.75061170  1
  P  P7  1  0.46145812  0.75061170  0.04021541  1
  P  P8  1  0.75061170  0.04021541  0.46145812  1
  P  P9  1  0.25061170  0.96145812  0.54021541  1
  P  P10  1  0.54021541  0.25061170  0.96145812  1
  P  P11  1  0.96145812  0.54021541  0.25061170  1
  O  O12  1  0.12162471  0.50874077  0.29453080  1
  O  O13  1  0.29453080  0.12162471  0.50874077  1
  O  O14  1  0.05678668  0.27222800  0.92193514  1
  O  O15  1  0.50874077  0.29453080  0.12162471  1
  O  O16  1  0.00874077  0.62162471  0.79453080  1
  O  O17  1  0.22658245  0.43617846  0.58194899  1
  O  O18  1  0.27222800  0.92193514  0.05678668  1
  O  O19  1  0.43617846  0.58194899  0.22658245  1
  O  O20  1  0.20580891  0.99957551  0.37181221  1
  O  O21  1  0.58194899  0.22658245  0.43617846  1
  O  O22  1  0.08194899  0.93617846  0.72658245  1
  O  O23  1  0.37181221  0.20580891  0.99957551  1
  O  O24  1  0.62162471  0.79453080  0.00874077  1
  O  O25  1  0.92193514  0.05678668  0.27222800  1
  O  O26  1  0.42193514  0.77222800  0.55678668  1
  O  O27  1  0.79453080  0.00874077  0.62162471  1
  O  O28  1  0.55678668  0.42193514  0.77222800  1
  O  O29  1  0.72658245  0.08194899  0.93617846  1
  O  O30  1  0.77222800  0.55678668  0.42193514  1
  O  O31  1  0.99957551  0.37181221  0.20580891  1
  O  O32  1  0.49957551  0.70580891  0.87181221  1
  O  O33  1  0.93617846  0.72658245  0.08194899  1
  O  O34  1  0.70580891  0.87181221  0.49957551  1
  O  O35  1  0.87181221  0.49957551  0.70580891  1
