# generated using pymatgen
data_CaTiMo(PO4)3
_symmetry_space_group_name_H-M   'P 1'
_cell_length_a   8.97833808
_cell_length_b   8.97833776
_cell_length_c   8.97833786
_cell_angle_alpha   58.57371818
_cell_angle_beta   58.57372165
_cell_angle_gamma   58.57372558
_symmetry_Int_Tables_number   1
_chemical_formula_structural   CaTiMo(PO4)3
_chemical_formula_sum   'Ca2 Ti2 Mo2 P6 O24'
_cell_volume   495.07697348
_cell_formula_units_Z   2
loop_
 _symmetry_equiv_pos_site_id
 _symmetry_equiv_pos_as_xyz
  1  'x, y, z'
loop_
 _atom_site_type_symbol
 _atom_site_label
 _atom_site_symmetry_multiplicity
 _atom_site_fract_x
 _atom_site_fract_y
 _atom_site_fract_z
 _atom_site_occupancy
  Ca  Ca0  1  0.99916054  0.99916054  0.99916054  1
  Ca  Ca1  1  0.49916054  0.49916054  0.49916054  1
  Ti  Ti2  1  0.14832071  0.14832071  0.14832071  1
  Ti  Ti3  1  0.64832071  0.64832071  0.64832071  1
  Mo  Mo4  1  0.35500268  0.35500268  0.35500268  1
  Mo  Mo5  1  0.85500268  0.85500268  0.85500268  1
  P  P6  1  0.03841347  0.45391265  0.75790630  1
  P  P7  1  0.45391265  0.75790630  0.03841347  1
  P  P8  1  0.75790630  0.03841347  0.45391265  1
  P  P9  1  0.25790630  0.95391265  0.53841347  1
  P  P10  1  0.53841347  0.25790630  0.95391265  1
  P  P11  1  0.95391265  0.53841347  0.25790630  1
  O  O12  1  0.10724804  0.51109242  0.30430057  1
  O  O13  1  0.30430057  0.10724804  0.51109242  1
  O  O14  1  0.05143717  0.26806408  0.92633439  1
  O  O15  1  0.51109242  0.30430057  0.10724804  1
  O  O16  1  0.01109242  0.60724804  0.80430057  1
  O  O17  1  0.22524973  0.42975163  0.59547439  1
  O  O18  1  0.26806408  0.92633439  0.05143717  1
  O  O19  1  0.42975163  0.59547439  0.22524973  1
  O  O20  1  0.20693936  0.99957174  0.37181712  1
  O  O21  1  0.59547439  0.22524973  0.42975163  1
  O  O22  1  0.09547439  0.92975163  0.72524973  1
  O  O23  1  0.37181712  0.20693936  0.99957174  1
  O  O24  1  0.60724804  0.80430057  0.01109242  1
  O  O25  1  0.92633439  0.05143717  0.26806408  1
  O  O26  1  0.42633439  0.76806408  0.55143717  1
  O  O27  1  0.80430057  0.01109242  0.60724804  1
  O  O28  1  0.55143717  0.42633439  0.76806408  1
  O  O29  1  0.72524973  0.09547439  0.92975163  1
  O  O30  1  0.76806408  0.55143717  0.42633439  1
  O  O31  1  0.99957174  0.37181712  0.20693936  1
  O  O32  1  0.49957174  0.70693936  0.87181712  1
  O  O33  1  0.92975163  0.72524973  0.09547439  1
  O  O34  1  0.70693936  0.87181712  0.49957174  1
  O  O35  1  0.87181712  0.49957174  0.70693936  1
