# generated using pymatgen
data_Yb2Co2O5
_symmetry_space_group_name_H-M   'P 1'
_cell_length_a   7.29407653
_cell_length_b   3.72892390
_cell_length_c   3.72904856
_cell_angle_alpha   90.00195304
_cell_angle_beta   89.99974539
_cell_angle_gamma   90.00012566
_symmetry_Int_Tables_number   1
_chemical_formula_structural   Yb2Co2O5
_chemical_formula_sum   'Yb2 Co2 O5'
_cell_volume   101.42660170
_cell_formula_units_Z   1
loop_
 _symmetry_equiv_pos_site_id
 _symmetry_equiv_pos_as_xyz
  1  'x, y, z'
loop_
 _atom_site_type_symbol
 _atom_site_label
 _atom_site_symmetry_multiplicity
 _atom_site_fract_x
 _atom_site_fract_y
 _atom_site_fract_z
 _atom_site_occupancy
  Yb  Yb0  1  0.99995589  0.99999814  0.99999817  1
  Yb  Yb1  1  0.49943560  0.99999878  0.00000032  1
  Co  Co2  1  0.24116802  0.49999670  0.49999762  1
  Co  Co3  1  0.75883411  0.49999721  0.50000324  1
  O  O4  1  0.20754947  0.50000077  0.00000405  1
  O  O5  1  0.79276307  0.50000126  0.00000397  1
  O  O6  1  0.20756005  0.99998684  0.49999849  1
  O  O7  1  0.79275620  0.99999602  0.50000221  1
  O  O8  1  0.49997459  0.50001929  0.49998692  1
