# generated using pymatgen
data_CaMn3P3O13
_symmetry_space_group_name_H-M   'P 1'
_cell_length_a   6.26459988
_cell_length_b   7.77863676
_cell_length_c   10.37630337
_cell_angle_alpha   99.45087017
_cell_angle_beta   90.00000000
_cell_angle_gamma   90.00000000
_symmetry_Int_Tables_number   1
_chemical_formula_structural   CaMn3P3O13
_chemical_formula_sum   'Ca2 Mn6 P6 O26'
_cell_volume   498.77460935
_cell_formula_units_Z   2
loop_
 _symmetry_equiv_pos_site_id
 _symmetry_equiv_pos_as_xyz
  1  'x, y, z'
loop_
 _atom_site_type_symbol
 _atom_site_label
 _atom_site_symmetry_multiplicity
 _atom_site_fract_x
 _atom_site_fract_y
 _atom_site_fract_z
 _atom_site_occupancy
  Ca  Ca0  1  0.75000000  0.65508254  0.19276054  1
  Ca  Ca1  1  0.25000000  0.34491746  0.80723946  1
  Mn  Mn2  1  0.25000000  0.34870113  0.20603223  1
  Mn  Mn3  1  0.75000000  0.65129887  0.79396777  1
  Mn  Mn4  1  0.25000000  0.77124334  0.43521843  1
  Mn  Mn5  1  0.50000000  -0.00000000  -0.00000000  1
  Mn  Mn6  1  0.75000000  0.22875666  0.56478157  1
  Mn  Mn7  1  -0.00000000  -0.00000000  -0.00000000  1
  P  P8  1  0.25000000  0.21037147  0.48494247  1
  P  P9  1  0.75000000  0.78962853  0.51505753  1
  P  P10  1  0.25000000  0.74232689  0.75984573  1
  P  P11  1  0.75000000  0.25767311  0.24015427  1
  P  P12  1  0.75000000  0.31618095  0.88566253  1
  P  P13  1  0.25000000  0.68381905  0.11433747  1
  O  O14  1  0.75000000  0.36005463  0.74287275  1
  O  O15  1  0.55916521  0.74991011  0.41584399  1
  O  O16  1  0.25000000  0.78844290  0.62368344  1
  O  O17  1  0.54502197  0.21161668  0.90307955  1
  O  O18  1  0.75000000  0.65125649  0.60625750  1
  O  O19  1  0.75000000  0.88240634  0.91365024  1
  O  O20  1  0.25000000  0.34874351  0.39374250  1
  O  O21  1  0.04502197  0.78838332  0.09692045  1
  O  O22  1  0.25000000  0.02647028  0.40965852  1
  O  O23  1  0.75000000  0.97352972  0.59034148  1
  O  O24  1  0.05867107  0.62408048  0.78682287  1
  O  O25  1  0.25000000  0.11759366  0.08634976  1
  O  O26  1  0.55867107  0.37591952  0.21317713  1
  O  O27  1  0.75000000  0.50179282  0.96555652  1
  O  O28  1  0.75000000  0.21155710  0.37631656  1
  O  O29  1  0.45497803  0.78838332  0.09692045  1
  O  O30  1  0.94083479  0.74991011  0.41584399  1
  O  O31  1  0.44083479  0.25008989  0.58415601  1
  O  O32  1  0.44132893  0.62408048  0.78682287  1
  O  O33  1  0.25000000  0.63994537  0.25712725  1
  O  O34  1  0.75000000  0.08871590  0.13790184  1
  O  O35  1  0.25000000  0.91128410  0.86209816  1
  O  O36  1  0.94132893  0.37591952  0.21317713  1
  O  O37  1  0.95497803  0.21161668  0.90307955  1
  O  O38  1  0.05916521  0.25008989  0.58415601  1
  O  O39  1  0.25000000  0.49820718  0.03444348  1
