# generated using pymatgen
data_CaFe3(P2O7)2
_symmetry_space_group_name_H-M   'P 1'
_cell_length_a   7.56659341
_cell_length_b   7.78143706
_cell_length_c   9.59935436
_cell_angle_alpha   90.08586414
_cell_angle_beta   111.84831771
_cell_angle_gamma   89.93052314
_symmetry_Int_Tables_number   1
_chemical_formula_structural   CaFe3(P2O7)2
_chemical_formula_sum   'Ca2 Fe6 P8 O28'
_cell_volume   524.60236978
_cell_formula_units_Z   2
loop_
 _symmetry_equiv_pos_site_id
 _symmetry_equiv_pos_as_xyz
  1  'x, y, z'
loop_
 _atom_site_type_symbol
 _atom_site_label
 _atom_site_symmetry_multiplicity
 _atom_site_fract_x
 _atom_site_fract_y
 _atom_site_fract_z
 _atom_site_occupancy
  Ca  Ca0  1  0.50000000  0.00000000  -0.00000000  1
  Ca  Ca1  1  0.50000000  0.50000000  0.50000000  1
  Fe  Fe2  1  0.18992620  0.87567974  0.52685436  1
  Fe  Fe3  1  0.80981047  0.37572056  0.97252808  1
  Fe  Fe4  1  0.81007380  0.12432026  0.47314564  1
  Fe  Fe5  1  0.19018953  0.62427944  0.02747192  1
  Fe  Fe6  1  0.00000000  0.00000000  -0.00000000  1
  Fe  Fe7  1  0.00000000  0.50000000  0.50000000  1
  P  P8  1  0.59729230  0.06396972  0.70454499  1
  P  P9  1  0.40160003  0.56416449  0.79512251  1
  P  P10  1  0.40270770  0.93603028  0.29545501  1
  P  P11  1  0.59839997  0.43583551  0.20487749  1
  P  P12  1  0.87753957  0.79761719  0.68966261  1
  P  P13  1  0.12256248  0.29659682  0.81015609  1
  P  P14  1  0.12246043  0.20238281  0.31033739  1
  P  P15  1  0.87743752  0.70340318  0.18984391  1
  O  O16  1  0.82567403  0.62612663  0.60736662  1
  O  O17  1  0.17702298  0.12564677  0.89288304  1
  O  O18  1  0.17432697  0.37387337  0.39263338  1
  O  O19  1  0.82297702  0.87435323  0.10711696  1
  O  O20  1  0.28152623  0.61341579  0.62907849  1
  O  O21  1  0.71797608  0.11295225  0.87045660  1
  O  O22  1  0.71847377  0.38658421  0.37092151  1
  O  O23  1  0.28202392  0.88704775  0.12954340  1
  O  O24  1  0.61830118  0.19311863  0.59290848  1
  O  O25  1  0.38065052  0.69321142  0.90734634  1
  O  O26  1  0.38169882  0.80688137  0.40709152  1
  O  O27  1  0.61934948  0.30678858  0.09265366  1
  O  O28  1  0.67552956  0.87987784  0.67390740  1
  O  O29  1  0.32357355  0.38048468  0.82476071  1
  O  O30  1  0.32447044  0.12012216  0.32609260  1
  O  O31  1  0.67642645  0.61951532  0.17523929  1
  O  O32  1  0.39707158  0.48090820  0.19477026  1
  O  O33  1  0.60386562  0.98096380  0.30568752  1
  O  O34  1  0.60292842  0.51909180  0.80522974  1
  O  O35  1  0.39613438  0.01903620  0.69431248  1
  O  O36  1  0.01211550  0.21141915  0.13944552  1
  O  O37  1  0.98854894  0.71297539  0.36022797  1
  O  O38  1  0.98788450  0.78858085  0.86055448  1
  O  O39  1  0.01145106  0.28702461  0.63977203  1
  O  O40  1  0.96811956  0.58020520  0.11076492  1
  O  O41  1  0.03152149  0.07930244  0.38861960  1
  O  O42  1  0.03188044  0.41979480  0.88923508  1
  O  O43  1  0.96847851  0.92069756  0.61138040  1
