# generated using pymatgen
data_EuGa
_symmetry_space_group_name_H-M   'P 1'
_cell_length_a   5.85653165
_cell_length_b   6.26082346
_cell_length_c   6.49976101
_cell_angle_alpha   68.13632645
_cell_angle_beta   78.48764129
_cell_angle_gamma   85.11066908
_symmetry_Int_Tables_number   1
_chemical_formula_structural   EuGa
_chemical_formula_sum   'Eu4 Ga4'
_cell_volume   216.71733916
_cell_formula_units_Z   4
loop_
 _symmetry_equiv_pos_site_id
 _symmetry_equiv_pos_as_xyz
  1  'x, y, z'
loop_
 _atom_site_type_symbol
 _atom_site_label
 _atom_site_symmetry_multiplicity
 _atom_site_fract_x
 _atom_site_fract_y
 _atom_site_fract_z
 _atom_site_occupancy
  Eu  Eu0  1  0.67237884  0.29939187  0.35329964  1
  Eu  Eu1  1  0.76709348  0.85108780  0.92581552  1
  Eu  Eu2  1  0.32762116  0.70060813  0.64670036  1
  Eu  Eu3  1  0.23290652  0.14891220  0.07418448  1
  Ga  Ga4  1  0.13488646  0.23864300  0.56682282  1
  Ga  Ga5  1  0.21375560  0.60871072  0.19100019  1
  Ga  Ga6  1  0.86511354  0.76135700  0.43317718  1
  Ga  Ga7  1  0.78624440  0.39128928  0.80899981  1
