# generated using pymatgen
data_BaCrF7
_symmetry_space_group_name_H-M   'P 1'
_cell_length_a   5.52278448
_cell_length_b   9.97832265
_cell_length_c   10.00099479
_cell_angle_alpha   90.00000000
_cell_angle_beta   90.00000000
_cell_angle_gamma   94.47908372
_symmetry_Int_Tables_number   1
_chemical_formula_structural   BaCrF7
_chemical_formula_sum   'Ba4 Cr4 F28'
_cell_volume   549.45285570
_cell_formula_units_Z   4
loop_
 _symmetry_equiv_pos_site_id
 _symmetry_equiv_pos_as_xyz
  1  'x, y, z'
loop_
 _atom_site_type_symbol
 _atom_site_label
 _atom_site_symmetry_multiplicity
 _atom_site_fract_x
 _atom_site_fract_y
 _atom_site_fract_z
 _atom_site_occupancy
  Ba  Ba0  1  0.25696336  0.49293457  0.29214351  1
  Ba  Ba1  1  0.74303664  0.00706543  0.79214351  1
  Ba  Ba2  1  0.74303664  0.50706543  0.70785649  1
  Ba  Ba3  1  0.25696336  0.99293457  0.20785649  1
  Cr  Cr4  1  0.18660176  0.81165341  0.61322194  1
  Cr  Cr5  1  0.81339824  0.18834759  0.38677806  1
  Cr  Cr6  1  0.18660176  0.31165341  0.88677806  1
  Cr  Cr7  1  0.81339824  0.68834659  0.11322194  1
  F  F8  1  0.09115276  0.12867095  0.44966496  1
  F  F9  1  0.34081624  0.36312965  0.03981572  1
  F  F10  1  0.46398117  0.75946678  0.69080276  1
  F  F11  1  0.53601883  0.24053322  0.30919724  1
  F  F12  1  0.89359559  0.35950905  0.45308490  1
  F  F13  1  0.25565590  0.47811062  0.80699509  1
  F  F14  1  0.00706886  0.75945716  0.76418703  1
  F  F15  1  0.10640441  0.14049095  0.95308490  1
  F  F16  1  0.34081624  0.86312965  0.46018428  1
  F  F17  1  0.53601883  0.74053322  0.19080276  1
  F  F18  1  0.09115276  0.62867095  0.05033504  1
  F  F19  1  0.90884724  0.87132905  0.55033504  1
  F  F20  1  0.99293114  0.74054284  0.26418703  1
  F  F21  1  0.40717872  0.91540875  0.96806754  1
  F  F22  1  0.10640441  0.64049095  0.54691510  1
  F  F23  1  0.89359559  0.85950905  0.04691510  1
  F  F24  1  0.99293114  0.24054284  0.23581297  1
  F  F25  1  0.90884724  0.37132905  0.94966496  1
  F  F26  1  0.59282128  0.58459125  0.46806754  1
  F  F27  1  0.65918376  0.63687035  0.96018428  1
  F  F28  1  0.59282128  0.08459125  0.03193246  1
  F  F29  1  0.00706886  0.25945716  0.73581297  1
  F  F30  1  0.40717872  0.41540875  0.53193246  1
  F  F31  1  0.74434410  0.02188938  0.30699509  1
  F  F32  1  0.74434410  0.52188938  0.19300491  1
  F  F33  1  0.25565590  0.97811062  0.69300491  1
  F  F34  1  0.65918376  0.13687035  0.53981572  1
  F  F35  1  0.46398117  0.25946778  0.80919724  1
