# generated using pymatgen
data_TaH24C8N4Cl
_symmetry_space_group_name_H-M   'P 1'
_cell_length_a   9.08014743
_cell_length_b   12.57755924
_cell_length_c   15.31154133
_cell_angle_alpha   90.00000000
_cell_angle_beta   102.07592120
_cell_angle_gamma   90.00000000
_symmetry_Int_Tables_number   1
_chemical_formula_structural   TaH24C8N4Cl
_chemical_formula_sum   'Ta4 H96 C32 N16 Cl4'
_cell_volume   1709.97537940
_cell_formula_units_Z   4
loop_
 _symmetry_equiv_pos_site_id
 _symmetry_equiv_pos_as_xyz
  1  'x, y, z'
loop_
 _atom_site_type_symbol
 _atom_site_label
 _atom_site_symmetry_multiplicity
 _atom_site_fract_x
 _atom_site_fract_y
 _atom_site_fract_z
 _atom_site_occupancy
  Ta  Ta0  1  0.18490844  0.71632319  0.37921665  1
  Ta  Ta1  1  0.68490844  0.78367681  0.87921665  1
  Ta  Ta2  1  0.81509156  0.28367681  0.62078335  1
  Ta  Ta3  1  0.31509156  0.21632319  0.12078335  1
  H  H4  1  0.80117556  0.69133971  0.21499169  1
  H  H5  1  0.30117556  0.80866029  0.71499169  1
  H  H6  1  0.19882444  0.30866029  0.78500831  1
  H  H7  1  0.69882444  0.19133971  0.28500831  1
  H  H8  1  0.86337171  0.63209275  0.32293588  1
  H  H9  1  0.36337171  0.86790725  0.82293588  1
  H  H10  1  0.13662829  0.36790725  0.67706412  1
  H  H11  1  0.63662829  0.13209275  0.17706412  1
  H  H12  1  0.89366839  0.56555363  0.22537660  1
  H  H13  1  0.39366839  0.93444637  0.72537660  1
  H  H14  1  0.10633161  0.43444637  0.77462340  1
  H  H15  1  0.60633161  0.06555363  0.27462340  1
  H  H16  1  0.06803018  0.64758996  0.13900343  1
  H  H17  1  0.56803018  0.85241004  0.63900343  1
  H  H18  1  0.93196982  0.35241004  0.86099657  1
  H  H19  1  0.43196982  0.14758996  0.36099657  1
  H  H20  1  0.17025300  0.76485317  0.18155216  1
  H  H21  1  0.67025300  0.73514683  0.68155216  1
  H  H22  1  0.82974700  0.23514683  0.81844784  1
  H  H23  1  0.32974700  0.26485317  0.31844784  1
  H  H24  1  0.97183764  0.77087674  0.13895310  1
  H  H25  1  0.47183764  0.72912326  0.63895310  1
  H  H26  1  0.02816236  0.22912326  0.86104690  1
  H  H27  1  0.52816236  0.27087674  0.36104690  1
  H  H28  1  0.58412614  0.63489998  0.38173421  1
  H  H29  1  0.08412614  0.86510002  0.88173421  1
  H  H30  1  0.41587386  0.36510002  0.61826579  1
  H  H31  1  0.91587386  0.13489998  0.11826579  1
  H  H32  1  0.49217057  0.62066376  0.47238725  1
  H  H33  1  0.99217057  0.87933624  0.97238725  1
  H  H34  1  0.50782943  0.37933624  0.52761275  1
  H  H35  1  0.00782943  0.12066376  0.02761275  1
  H  H36  1  0.61514660  0.73087088  0.46919620  1
  H  H37  1  0.11514660  0.76912912  0.96919620  1
  H  H38  1  0.38485340  0.26912912  0.53080380  1
  H  H39  1  0.88485340  0.23087088  0.03080380  1
  H  H40  1  0.53874090  0.88019897  0.37676826  1
  H  H41  1  0.03874090  0.61980103  0.87676826  1
  H  H42  1  0.46125910  0.11980103  0.62323174  1
  H  H43  1  0.96125910  0.38019897  0.12323174  1
  H  H44  1  0.37358714  0.87376203  0.28947383  1
  H  H45  1  0.87358714  0.62623797  0.78947383  1
  H  H46  1  0.62641286  0.12623797  0.71052617  1
  H  H47  1  0.12641286  0.37376203  0.21052617  1
  H  H48  1  0.53164756  0.79086520  0.28637018  1
  H  H49  1  0.03164756  0.70913480  0.78637018  1
  H  H50  1  0.46835244  0.20913480  0.71362982  1
  H  H51  1  0.96835244  0.29086520  0.21362982  1
  H  H52  1  0.20073351  0.63395581  0.62762081  1
  H  H53  1  0.70073351  0.86604419  0.12762081  1
  H  H54  1  0.79926649  0.36604419  0.37237919  1
  H  H55  1  0.29926649  0.13395581  0.87237919  1
  H  H56  1  0.27581139  0.56053665  0.54671337  1
  H  H57  1  0.77581139  0.93946335  0.04671337  1
  H  H58  1  0.72418861  0.43946335  0.45328663  1
  H  H59  1  0.22418861  0.06053665  0.95328663  1
  H  H60  1  0.08792936  0.53780629  0.56003846  1
  H  H61  1  0.58792936  0.96219371  0.06003846  1
  H  H62  1  0.91207064  0.46219371  0.43996154  1
  H  H63  1  0.41207064  0.03780629  0.93996154  1
  H  H64  1  0.91379699  0.68656614  0.53836813  1
  H  H65  1  0.41379699  0.81343386  0.03836813  1
  H  H66  1  0.08620301  0.31343386  0.46163187  1
  H  H67  1  0.58620301  0.18656614  0.96163187  1
  H  H68  1  0.94909589  0.80102609  0.47641225  1
  H  H69  1  0.44909589  0.69897391  0.97641225  1
  H  H70  1  0.05090411  0.19897391  0.52358775  1
  H  H71  1  0.55090411  0.30102609  0.02358775  1
  H  H72  1  0.04782191  0.78258833  0.58939095  1
  H  H73  1  0.54782191  0.71741167  0.08939095  1
  H  H74  1  0.95217809  0.21741167  0.41060905  1
  H  H75  1  0.45217809  0.28258833  0.91060905  1
  H  H76  1  0.27137085  0.01231301  0.42080421  1
  H  H77  1  0.77137085  0.48768699  0.92080421  1
  H  H78  1  0.72862915  0.98768699  0.57919579  1
  H  H79  1  0.22862915  0.51231301  0.07919579  1
  H  H80  1  0.31941015  0.89955307  0.49259019  1
  H  H81  1  0.81941015  0.60044693  0.99259019  1
  H  H82  1  0.68058985  0.10044693  0.50740981  1
  H  H83  1  0.18058985  0.39955307  0.00740981  1
  H  H84  1  0.15368523  0.97552178  0.49478505  1
  H  H85  1  0.65368523  0.52447822  0.99478505  1
  H  H86  1  0.84631477  0.02447822  0.50521495  1
  H  H87  1  0.34631477  0.47552178  0.00521495  1
  H  H88  1  0.95176165  0.97904695  0.36638986  1
  H  H89  1  0.45176165  0.52095305  0.86638986  1
  H  H90  1  0.04823835  0.02095305  0.63361014  1
  H  H91  1  0.54823835  0.47904695  0.13361014  1
  H  H92  1  0.94977174  0.88858880  0.27591722  1
  H  H93  1  0.44977174  0.61141120  0.77591722  1
  H  H94  1  0.05022826  0.11141120  0.72408278  1
  H  H95  1  0.55022826  0.38858880  0.22408278  1
  H  H96  1  0.07328503  0.00096193  0.29104772  1
  H  H97  1  0.57328503  0.49903807  0.79104772  1
  H  H98  1  0.92671497  0.99903807  0.70895228  1
  H  H99  1  0.42671497  0.50096193  0.20895228  1
  C  C100  1  0.89158209  0.64432352  0.25726818  1
  C  C101  1  0.39158209  0.85567648  0.75726818  1
  C  C102  1  0.10841791  0.35567648  0.74273182  1
  C  C103  1  0.60841791  0.14432352  0.24273182  1
  C  C104  1  0.06361027  0.72167136  0.17727229  1
  C  C105  1  0.56361027  0.77832864  0.67727229  1
  C  C106  1  0.93638973  0.27832864  0.82272771  1
  C  C107  1  0.43638973  0.22167136  0.32272771  1
  C  C108  1  0.52864616  0.67898717  0.42861555  1
  C  C109  1  0.02864616  0.82101283  0.92861555  1
  C  C110  1  0.47135384  0.32101283  0.57138445  1
  C  C111  1  0.97135384  0.17898717  0.07138445  1
  C  C112  1  0.46285001  0.82631927  0.33064852  1
  C  C113  1  0.96285001  0.67368073  0.83064852  1
  C  C114  1  0.53714999  0.17368073  0.66935148  1
  C  C115  1  0.03714999  0.32631927  0.16935148  1
  C  C116  1  0.17478791  0.59935094  0.55969042  1
  C  C117  1  0.67478791  0.90064906  0.05969042  1
  C  C118  1  0.82521209  0.40064906  0.44030958  1
  C  C119  1  0.32521209  0.09935094  0.94030958  1
  C  C120  1  0.00162030  0.74169316  0.52544717  1
  C  C121  1  0.50162030  0.75830684  0.02544717  1
  C  C122  1  0.99837970  0.25830684  0.47455283  1
  C  C123  1  0.49837970  0.24169316  0.97455283  1
  C  C124  1  0.22558664  0.94314670  0.45098072  1
  C  C125  1  0.72558664  0.55685330  0.95098072  1
  C  C126  1  0.77441336  0.05685330  0.54901928  1
  C  C127  1  0.27441336  0.44314670  0.04901928  1
  C  C128  1  0.02249728  0.93826377  0.32588657  1
  C  C129  1  0.52249728  0.56173623  0.82588657  1
  C  C130  1  0.97750272  0.06173623  0.67411343  1
  C  C131  1  0.47750272  0.43826377  0.17411343  1
  N  N132  1  0.03555738  0.69797614  0.26522316  1
  N  N133  1  0.53555738  0.80202386  0.76522316  1
  N  N134  1  0.96444262  0.30202386  0.73477684  1
  N  N135  1  0.46444262  0.19797614  0.23477684  1
  N  N136  1  0.40387013  0.74311218  0.38023035  1
  N  N137  1  0.90387013  0.75688782  0.88023035  1
  N  N138  1  0.59612987  0.25688782  0.61976965  1
  N  N139  1  0.09612987  0.24311218  0.11976965  1
  N  N140  1  0.11960120  0.68264218  0.49431455  1
  N  N141  1  0.61960120  0.81735782  0.99431455  1
  N  N142  1  0.88039880  0.31735782  0.50568545  1
  N  N143  1  0.38039880  0.18264218  0.00568545  1
  N  N144  1  0.13866006  0.87446126  0.38227171  1
  N  N145  1  0.63866006  0.62553874  0.88227171  1
  N  N146  1  0.86133994  0.12553874  0.61772829  1
  N  N147  1  0.36133994  0.37446126  0.11772829  1
  Cl  Cl148  1  0.24253446  0.52236709  0.37306381  1
  Cl  Cl149  1  0.74253446  0.97763291  0.87306381  1
  Cl  Cl150  1  0.75746554  0.47763291  0.62693619  1
  Cl  Cl151  1  0.25746554  0.02236709  0.12693619  1
