# generated using pymatgen
data_K2ZnS2
_symmetry_space_group_name_H-M   'P 1'
_cell_length_a   6.24888580
_cell_length_b   6.79526714
_cell_length_c   7.83797594
_cell_angle_alpha   115.68884441
_cell_angle_beta   113.49248147
_cell_angle_gamma   89.99999996
_symmetry_Int_Tables_number   1
_chemical_formula_structural   K2ZnS2
_chemical_formula_sum   'K4 Zn2 S4'
_cell_volume   268.98734001
_cell_formula_units_Z   2
loop_
 _symmetry_equiv_pos_site_id
 _symmetry_equiv_pos_as_xyz
  1  'x, y, z'
loop_
 _atom_site_type_symbol
 _atom_site_label
 _atom_site_symmetry_multiplicity
 _atom_site_fract_x
 _atom_site_fract_y
 _atom_site_fract_z
 _atom_site_occupancy
  K  K0  1  0.64588745  0.80919346  0.29177490  1
  K  K1  1  0.35411255  0.19080654  0.70822510  1
  K  K2  1  0.14588745  0.48258144  0.29177490  1
  K  K3  1  0.85411255  0.51741856  0.70822510  1
  Zn  Zn4  1  0.75000000  0.00000000  0.00000000  1
  Zn  Zn5  1  0.25000000  0.00000000  0.00000000  1
  S  S6  1  0.39809424  0.70998821  0.79618848  1
  S  S7  1  0.60190576  0.29001179  0.20381152  1
  S  S8  1  0.89809424  0.08620027  0.79618848  1
  S  S9  1  0.10190576  0.91379973  0.20381152  1
