# generated using pymatgen
data_K6ZnS4
_symmetry_space_group_name_H-M   'P 1'
_cell_length_a   7.69534901
_cell_length_b   9.88592952
_cell_length_c   9.88589797
_cell_angle_alpha   120.00048648
_cell_angle_beta   89.99982144
_cell_angle_gamma   90.00031425
_symmetry_Int_Tables_number   1
_chemical_formula_structural   K6ZnS4
_chemical_formula_sum   'K12 Zn2 S8'
_cell_volume   651.31406629
_cell_formula_units_Z   2
loop_
 _symmetry_equiv_pos_site_id
 _symmetry_equiv_pos_as_xyz
  1  'x, y, z'
loop_
 _atom_site_type_symbol
 _atom_site_label
 _atom_site_symmetry_multiplicity
 _atom_site_fract_x
 _atom_site_fract_y
 _atom_site_fract_z
 _atom_site_occupancy
  K  K0  1  0.95456642  0.14669588  0.85329716  1
  K  K1  1  0.95457538  0.70658677  0.85329240  1
  K  K2  1  0.95456417  0.14670559  0.29341617  1
  K  K3  1  0.45456943  0.85329730  0.14670631  1
  K  K4  1  0.45456643  0.29340906  0.14671284  1
  K  K5  1  0.45456148  0.85330071  0.70659341  1
  K  K6  1  0.13448030  0.52816282  0.47182796  1
  K  K7  1  0.13448911  0.94366551  0.47183121  1
  K  K8  1  0.13447712  0.52816430  0.05633832  1
  K  K9  1  0.63448718  0.47182962  0.52816703  1
  K  K10  1  0.63448109  0.05633845  0.52817166  1
  K  K11  1  0.63447955  0.47183528  0.94366558  1
  Zn  Zn12  1  0.24953568  0.33333513  0.66669716  1
  Zn  Zn13  1  0.74953843  0.66666851  0.33333388  1
  S  S14  1  0.93283248  0.33333562  0.66671517  1
  S  S15  1  0.43283711  0.66666944  0.33333490  1
  S  S16  1  0.34780007  0.19759539  0.80240888  1
  S  S17  1  0.34779515  0.60479950  0.80240319  1
  S  S18  1  0.34778676  0.19760771  0.39521298  1
  S  S19  1  0.84779094  0.80239994  0.19760322  1
  S  S20  1  0.84779372  0.39519846  0.19760108  1
  S  S21  1  0.84779201  0.80239900  0.60480151  1
