# generated using pymatgen
data_In(Cu3O4)2
_symmetry_space_group_name_H-M   'P 1'
_cell_length_a   6.53491477
_cell_length_b   6.53277934
_cell_length_c   6.53158597
_cell_angle_alpha   60.00011812
_cell_angle_beta   60.00927376
_cell_angle_gamma   59.98801209
_symmetry_Int_Tables_number   1
_chemical_formula_structural   In(Cu3O4)2
_chemical_formula_sum   'In1 Cu6 O8'
_cell_volume   197.16644917
_cell_formula_units_Z   1
loop_
 _symmetry_equiv_pos_site_id
 _symmetry_equiv_pos_as_xyz
  1  'x, y, z'
loop_
 _atom_site_type_symbol
 _atom_site_label
 _atom_site_symmetry_multiplicity
 _atom_site_fract_x
 _atom_site_fract_y
 _atom_site_fract_z
 _atom_site_occupancy
  In  In0  1  0.49999564  0.50000166  0.50000908  1
  Cu  Cu1  1  0.49997857  -0.00001957  0.50005195  1
  Cu  Cu2  1  0.49997979  0.50003012  0.99998951  1
  Cu  Cu3  1  0.99999228  0.50000058  0.50000664  1
  Cu  Cu4  1  0.99999192  0.50002729  0.00000511  1
  Cu  Cu5  1  0.00000169  0.00000006  0.50001601  1
  Cu  Cu6  1  0.49999765  -0.00001138  0.99999233  1
  O  O7  1  0.64260603  0.07227970  0.64241819  1
  O  O8  1  0.07221367  0.64251415  0.64268990  1
  O  O9  1  0.64281085  0.64245617  0.07222209  1
  O  O10  1  0.92779062  0.35749213  0.35728649  1
  O  O11  1  0.64259754  0.64263509  0.64238475  1
  O  O12  1  0.35742867  0.35732595  0.35760154  1
  O  O13  1  0.35745467  0.92776120  0.35751423  1
  O  O14  1  0.35716041  0.35750484  0.92781219  1
