# generated using pymatgen
data_KRuO3
_symmetry_space_group_name_H-M   'P 1'
_cell_length_a   3.93983775
_cell_length_b   3.93988138
_cell_length_c   3.93811243
_cell_angle_alpha   90.00014589
_cell_angle_beta   90.00011491
_cell_angle_gamma   89.99996219
_symmetry_Int_Tables_number   1
_chemical_formula_structural   KRuO3
_chemical_formula_sum   'K1 Ru1 O3'
_cell_volume   61.12932417
_cell_formula_units_Z   1
loop_
 _symmetry_equiv_pos_site_id
 _symmetry_equiv_pos_as_xyz
  1  'x, y, z'
loop_
 _atom_site_type_symbol
 _atom_site_label
 _atom_site_symmetry_multiplicity
 _atom_site_fract_x
 _atom_site_fract_y
 _atom_site_fract_z
 _atom_site_occupancy
  K  K0  1  0.00000158  0.99999970  0.00000018  1
  Ru  Ru1  1  0.49999825  0.49999861  0.49999841  1
  O  O2  1  0.49999777  0.49999846  0.99999919  1
  O  O3  1  0.49999738  0.99999889  0.49999795  1
  O  O4  1  0.99999902  0.49999834  0.49999828  1
