# generated using pymatgen
data_Rb2TiFe(PO4)3
_symmetry_space_group_name_H-M   'P 1'
_cell_length_a   10.05200854
_cell_length_b   10.05200854
_cell_length_c   10.05200854
_cell_angle_alpha   90.00000000
_cell_angle_beta   90.00000000
_cell_angle_gamma   90.00000000
_symmetry_Int_Tables_number   1
_chemical_formula_structural   Rb2TiFe(PO4)3
_chemical_formula_sum   'Rb8 Ti4 Fe4 P12 O48'
_cell_volume   1015.68384932
_cell_formula_units_Z   4
loop_
 _symmetry_equiv_pos_site_id
 _symmetry_equiv_pos_as_xyz
  1  'x, y, z'
loop_
 _atom_site_type_symbol
 _atom_site_label
 _atom_site_symmetry_multiplicity
 _atom_site_fract_x
 _atom_site_fract_y
 _atom_site_fract_z
 _atom_site_occupancy
  Rb  Rb0  1  0.06927419  0.06927419  0.06927419  1
  Rb  Rb1  1  0.20944299  0.70944299  0.79055701  1
  Rb  Rb2  1  0.29055701  0.29055701  0.29055701  1
  Rb  Rb3  1  0.43072581  0.93072581  0.56927419  1
  Rb  Rb4  1  0.56927419  0.43072581  0.93072581  1
  Rb  Rb5  1  0.70944299  0.79055701  0.20944299  1
  Rb  Rb6  1  0.79055701  0.20944299  0.70944299  1
  Rb  Rb7  1  0.93072581  0.56927419  0.43072581  1
  Ti  Ti8  1  0.14190840  0.35809160  0.64190840  1
  Ti  Ti9  1  0.35809160  0.64190840  0.14190840  1
  Ti  Ti10  1  0.64190840  0.14190840  0.35809160  1
  Ti  Ti11  1  0.85809160  0.85809160  0.85809160  1
  Fe  Fe12  1  0.08722469  0.91277531  0.41277531  1
  Fe  Fe13  1  0.41277531  0.08722469  0.91277531  1
  Fe  Fe14  1  0.58722469  0.58722469  0.58722469  1
  Fe  Fe15  1  0.91277531  0.41277531  0.08722469  1
  P  P16  1  0.04340008  0.72609624  0.12645676  1
  P  P17  1  0.12645676  0.04340008  0.72609624  1
  P  P18  1  0.22609624  0.37354324  0.95659992  1
  P  P19  1  0.27390376  0.62645676  0.45659992  1
  P  P20  1  0.37354324  0.95659992  0.22609624  1
  P  P21  1  0.45659992  0.27390376  0.62645676  1
  P  P22  1  0.54340008  0.77390376  0.87354324  1
  P  P23  1  0.62645676  0.45659992  0.27390376  1
  P  P24  1  0.72609624  0.12645676  0.04340008  1
  P  P25  1  0.77390376  0.87354324  0.54340008  1
  P  P26  1  0.87354324  0.54340008  0.77390376  1
  P  P27  1  0.95659992  0.22609624  0.37354324  1
  O  O28  1  0.99909877  0.58208621  0.14806325  1
  O  O29  1  0.01287894  0.96099823  0.79431339  1
  O  O30  1  0.01834104  0.80809576  0.25335479  1
  O  O31  1  0.03900177  0.29431339  0.48712106  1
  O  O32  1  0.08208621  0.35193675  0.00090123  1
  O  O33  1  0.08462210  0.19307005  0.73240185  1
  O  O34  1  0.14806325  0.99909877  0.58208621  1
  O  O35  1  0.19307005  0.73240185  0.08462210  1
  O  O36  1  0.19190424  0.75335479  0.48165896  1
  O  O37  1  0.20568661  0.51287894  0.53900177  1
  O  O38  1  0.23240185  0.41537790  0.80692995  1
  O  O39  1  0.24664521  0.98165896  0.30809576  1
  O  O40  1  0.25335479  0.01834104  0.80809576  1
  O  O41  1  0.26759815  0.58462210  0.30692995  1
  O  O42  1  0.29431339  0.48712106  0.03900177  1
  O  O43  1  0.30809576  0.24664521  0.98165896  1
  O  O44  1  0.30692995  0.26759815  0.58462210  1
  O  O45  1  0.35193675  0.00090123  0.08208621  1
  O  O46  1  0.41537790  0.80692995  0.23240185  1
  O  O47  1  0.41791379  0.64806325  0.50090123  1
  O  O48  1  0.46099823  0.70568661  0.98712106  1
  O  O49  1  0.48165896  0.19190424  0.75335479  1
  O  O50  1  0.48712106  0.03900177  0.29431339  1
  O  O51  1  0.50090123  0.41791379  0.64806325  1
  O  O52  1  0.49909877  0.91791379  0.85193675  1
  O  O53  1  0.51287894  0.53900177  0.20568661  1
  O  O54  1  0.51834104  0.69190424  0.74664521  1
  O  O55  1  0.53900177  0.20568661  0.51287894  1
  O  O56  1  0.58208621  0.14806325  0.99909877  1
  O  O57  1  0.58462210  0.30692995  0.26759815  1
  O  O58  1  0.64806325  0.50090123  0.41791379  1
  O  O59  1  0.69307005  0.76759815  0.91537790  1
  O  O60  1  0.69190424  0.74664521  0.51834104  1
  O  O61  1  0.70568661  0.98712106  0.46099823  1
  O  O62  1  0.73240185  0.08462210  0.19307005  1
  O  O63  1  0.74664521  0.51834104  0.69190424  1
  O  O64  1  0.75335479  0.48165896  0.19190424  1
  O  O65  1  0.76759815  0.91537790  0.69307005  1
  O  O66  1  0.79431339  0.01287894  0.96099823  1
  O  O67  1  0.80809576  0.25335479  0.01834104  1
  O  O68  1  0.80692995  0.23240185  0.41537790  1
  O  O69  1  0.85193675  0.49909877  0.91791379  1
  O  O70  1  0.91537790  0.69307005  0.76759815  1
  O  O71  1  0.91791379  0.85193675  0.49909877  1
  O  O72  1  0.96099823  0.79431339  0.01287894  1
  O  O73  1  0.98165896  0.30809576  0.24664521  1
  O  O74  1  0.98712106  0.46099823  0.70568661  1
  O  O75  1  0.00090123  0.08208621  0.35193675  1
