# generated using pymatgen
data_Sm6U3O17
_symmetry_space_group_name_H-M   'P 1'
_cell_length_a   11.55372420
_cell_length_b   13.88081618
_cell_length_c   12.77586494
_cell_angle_alpha   28.75530397
_cell_angle_beta   25.26548576
_cell_angle_gamma   46.26604929
_symmetry_Int_Tables_number   1
_chemical_formula_structural   Sm6U3O17
_chemical_formula_sum   'Sm6 U3 O17'
_cell_volume   365.69429956
_cell_formula_units_Z   1
loop_
 _symmetry_equiv_pos_site_id
 _symmetry_equiv_pos_as_xyz
  1  'x, y, z'
loop_
 _atom_site_type_symbol
 _atom_site_label
 _atom_site_symmetry_multiplicity
 _atom_site_fract_x
 _atom_site_fract_y
 _atom_site_fract_z
 _atom_site_occupancy
  Sm  Sm0  1  0.34260031  0.99703230  0.99550385  1
  Sm  Sm1  1  0.22853918  0.32680795  0.99018376  1
  Sm  Sm2  1  0.10185003  0.69246617  0.98710805  1
  Sm  Sm3  1  0.62431434  0.97420083  0.06450557  1
  Sm  Sm4  1  0.58844645  0.33985805  0.97060861  1
  Sm  Sm5  1  0.45307208  0.66963470  0.98660076  1
  U  U6  1  0.99687348  0.00020561  0.00302886  1
  U  U7  1  0.88067199  0.33333300  0.00821701  1
  U  U8  1  0.77422995  0.66646139  0.00364571  1
  O  O9  1  0.19860345  0.95848947  0.33352595  1
  O  O10  1  0.08712199  0.02654178  0.71761483  1
  O  O11  1  0.61678065  0.00035075  0.23416985  1
  O  O12  1  0.03665423  0.70817753  0.20899437  1
  O  O13  1  0.47447393  0.31675619  0.27217020  1
  O  O14  1  0.91697400  0.00577615  0.23390030  1
  O  O15  1  0.43439601  0.01573426  0.71906026  1
  O  O16  1  0.37567496  0.66089085  0.25122874  1
  O  O17  1  0.29987296  0.33465164  0.74532792  1
  O  O18  1  0.80869410  0.34990981  0.22243977  1
  O  O19  1  0.76496193  0.01332353  0.73015339  1
  O  O20  1  0.17580001  0.64012522  0.79724017  1
  O  O21  1  0.69160442  0.66631625  0.23522208  1
  O  O22  1  0.63500985  0.33333300  0.75387915  1
  O  O23  1  0.51253869  0.65334347  0.77012399  1
  O  O24  1  0.98329330  0.33201436  0.74928383  1
  O  O25  1  0.85805870  0.65093274  0.76626304  1
