# generated using pymatgen
data_Nd5Te7MoCl3O23
_symmetry_space_group_name_H-M   'P 1'
_cell_length_a   7.73096362
_cell_length_b   10.02058977
_cell_length_c   18.49143538
_cell_angle_alpha   92.71013069
_cell_angle_beta   82.95937113
_cell_angle_gamma   112.69054986
_symmetry_Int_Tables_number   1
_chemical_formula_structural   Nd5Te7MoCl3O23
_chemical_formula_sum   'Nd10 Te14 Mo2 Cl6 O46'
_cell_volume   1311.67000155
_cell_formula_units_Z   2
loop_
 _symmetry_equiv_pos_site_id
 _symmetry_equiv_pos_as_xyz
  1  'x, y, z'
loop_
 _atom_site_type_symbol
 _atom_site_label
 _atom_site_symmetry_multiplicity
 _atom_site_fract_x
 _atom_site_fract_y
 _atom_site_fract_z
 _atom_site_occupancy
  Nd  Nd0  1  0.47899323  0.22134722  0.13732387  1
  Nd  Nd1  1  0.25778845  0.77872696  0.13701291  1
  Nd  Nd2  1  0.52093851  0.77872696  0.86298709  1
  Nd  Nd3  1  0.74235399  0.22134722  0.86267613  1
  Nd  Nd4  1  0.24047109  0.48094219  0.50000000  1
  Nd  Nd5  1  0.75717604  0.51435208  0.50000000  1
  Nd  Nd6  1  0.30148488  0.48135061  0.26181599  1
  Nd  Nd7  1  0.81815568  0.51661669  0.26174567  1
  Nd  Nd8  1  0.69846101  0.51661669  0.73825433  1
  Nd  Nd9  1  0.17986573  0.48135061  0.73818401  1
  Te  Te10  1  0.04130220  0.34014767  0.10997673  1
  Te  Te11  1  0.70134009  0.66008119  0.10999137  1
  Te  Te12  1  0.95874109  0.66008119  0.89000863  1
  Te  Te13  1  0.29884546  0.34014767  0.89002327  1
  Te  Te14  1  0.36299346  0.21228484  0.35855125  1
  Te  Te15  1  0.15258860  0.78719099  0.35743054  1
  Te  Te16  1  0.63460240  0.78719099  0.64256946  1
  Te  Te17  1  0.84929138  0.21228484  0.64144875  1
  Te  Te18  1  0.83834418  0.24291558  0.38539739  1
  Te  Te19  1  0.59383396  0.75665936  0.38480682  1
  Te  Te20  1  0.16282540  0.75665936  0.61519318  1
  Te  Te21  1  0.40457140  0.24291558  0.61460261  1
  Te  Te22  1  0.00362176  0.00002846  0.23762055  1
  Te  Te23  1  0.99640670  0.00002846  0.76237945  1
  Mo  Mo24  1  0.73505232  0.00002882  0.02341692  1
  Mo  Mo25  1  0.26497650  0.00002882  0.97658308  1
  Cl  Cl26  1  0.56200949  0.99922222  0.28577410  1
  Cl  Cl27  1  0.43721274  0.99922222  0.71422590  1
  Cl  Cl28  1  0.69667957  0.39335915  1.00000000  1
  Cl  Cl29  1  0.30332954  0.60665908  0.00000000  1
  Cl  Cl30  1  0.49956032  0.99912064  0.50000000  1
  Cl  Cl31  1  0.03022051  0.06044102  0.50000000  1
  O  O32  1  0.51502961  -0.00000907  0.07755109  1
  O  O33  1  0.48496131  -0.00000907  0.92244891  1
  O  O34  1  0.93400550  0.36266082  0.46543441  1
  O  O35  1  0.57449299  0.64016246  0.46570145  1
  O  O36  1  0.06566947  0.64016246  0.53429855  1
  O  O37  1  0.42865532  0.36266082  0.53456559  1
  O  O38  1  0.97441891  0.37728194  0.30868083  1
  O  O39  1  0.59714339  0.62278506  0.30843215  1
  O  O40  1  0.02564167  0.62278506  0.69156785  1
  O  O41  1  0.40286303  0.37728194  0.69131917  1
  O  O42  1  0.79531929  0.27425981  0.15968580  1
  O  O43  1  0.52104668  0.72576764  0.15963330  1
  O  O44  1  0.20472097  0.72576764  0.84036670  1
  O  O45  1  0.47894052  0.27425981  0.84031420  1
  O  O46  1  0.10909895  0.14727723  0.30821342  1
  O  O47  1  0.96263078  0.85319164  0.30864657  1
  O  O48  1  0.89056087  0.85319164  0.69135343  1
  O  O49  1  0.03817828  0.14727723  0.69178658  1
  O  O50  1  0.10545105  0.51872373  0.16318836  1
  O  O51  1  0.58695781  0.48134442  0.16312466  1
  O  O52  1  0.89438661  0.48134442  0.83687534  1
  O  O53  1  0.41327269  0.51872373  0.83681164  1
  O  O54  1  0.18309860  0.27911727  0.16998515  1
  O  O55  1  0.90399883  0.72076047  0.17010013  1
  O  O56  1  0.81676164  0.72076047  0.82989987  1
  O  O57  1  0.09601867  0.27911727  0.83001485  1
  O  O58  1  0.29612328  0.37138355  0.38631164  1
  O  O59  1  0.92538259  0.63091329  0.38718753  1
  O  O60  1  0.70553070  0.63091329  0.61281247  1
  O  O61  1  0.07526027  0.37138355  0.61368836  1
  O  O62  1  0.69330147  0.83924439  0.96963305  1
  O  O63  1  0.85405801  0.16075050  0.96962849  1
  O  O64  1  0.30669250  0.16075050  0.03037151  1
  O  O65  1  0.14594292  0.83924439  0.03036695  1
  O  O66  1  0.64488487  0.32798731  0.39089133  1
  O  O67  1  0.31652781  0.67217750  0.39068717  1
  O  O68  1  0.35564969  0.67217750  0.60931283  1
  O  O69  1  0.68310244  0.32798731  0.60910867  1
  O  O70  1  0.88678060  0.00001380  0.08732829  1
  O  O71  1  0.11323320  0.00001380  0.91267171  1
  O  O72  1  0.48257908  0.30683171  0.26653181  1
  O  O73  1  0.17651681  0.69327792  0.26626345  1
  O  O74  1  0.51676111  0.69327792  0.73373655  1
  O  O75  1  0.82425264  0.30683171  0.73346819  1
  O  O76  1  0.23503165  0.99985889  0.18907916  1
  O  O77  1  0.76482724  0.99985889  0.81092084  1
