# generated using pymatgen
data_Nb3NiS6
_symmetry_space_group_name_H-M   'P 1'
_cell_length_a   5.79110001
_cell_length_b   5.79110001
_cell_length_c   11.85469933
_cell_angle_alpha   90.00000000
_cell_angle_beta   90.00000000
_cell_angle_gamma   120.00000829
_symmetry_Int_Tables_number   1
_chemical_formula_structural   Nb3NiS6
_chemical_formula_sum   'Nb6 Ni2 S12'
_cell_volume   344.30495150
_cell_formula_units_Z   2
loop_
 _symmetry_equiv_pos_site_id
 _symmetry_equiv_pos_as_xyz
  1  'x, y, z'
loop_
 _atom_site_type_symbol
 _atom_site_label
 _atom_site_symmetry_multiplicity
 _atom_site_fract_x
 _atom_site_fract_y
 _atom_site_fract_z
 _atom_site_occupancy
  Nb  Nb0  1  0.00000000  0.00000000  -0.00000000  1
  Nb  Nb1  1  0.00000000  0.00000000  0.50000000  1
  Nb  Nb2  1  0.66666700  0.33333300  0.49688688  1
  Nb  Nb3  1  0.33333300  0.66666700  0.99688688  1
  Nb  Nb4  1  0.33333300  0.66666700  0.50311312  1
  Nb  Nb5  1  0.66666700  0.33333300  0.00311312  1
  Ni  Ni6  1  0.66666700  0.33333300  0.75000000  1
  Ni  Ni7  1  0.33333300  0.66666700  0.25000000  1
  S  S8  1  0.66817246  0.66731068  0.86754828  1
  S  S9  1  0.99913822  0.33182754  0.86754828  1
  S  S10  1  0.33182754  0.33268932  0.36754828  1
  S  S11  1  0.00086178  0.33268932  0.13245172  1
  S  S12  1  0.33268932  0.00086178  0.86754828  1
  S  S13  1  0.00086178  0.66817246  0.36754828  1
  S  S14  1  0.66731068  0.66817246  0.13245172  1
  S  S15  1  0.99913822  0.66731068  0.63245172  1
  S  S16  1  0.66731068  0.99913822  0.36754828  1
  S  S17  1  0.33268932  0.33182754  0.63245172  1
  S  S18  1  0.33182754  0.99913822  0.13245172  1
  S  S19  1  0.66817246  0.00086178  0.63245172  1
