# generated using pymatgen
data_NaMn2Mo2H3O10
_symmetry_space_group_name_H-M   'P 1'
_cell_length_a   5.85474673
_cell_length_b   5.85474665
_cell_length_c   7.82621728
_cell_angle_alpha   68.62215606
_cell_angle_beta   68.62215669
_cell_angle_gamma   69.50494087
_symmetry_Int_Tables_number   1
_chemical_formula_structural   NaMn2Mo2H3O10
_chemical_formula_sum   'Na1 Mn2 Mo2 H3 O10'
_cell_volume   225.20270133
_cell_formula_units_Z   1
loop_
 _symmetry_equiv_pos_site_id
 _symmetry_equiv_pos_as_xyz
  1  'x, y, z'
loop_
 _atom_site_type_symbol
 _atom_site_label
 _atom_site_symmetry_multiplicity
 _atom_site_fract_x
 _atom_site_fract_y
 _atom_site_fract_z
 _atom_site_occupancy
  Na  Na0  1  0.50088957  0.49911043  0.50000000  1
  Mn  Mn1  1  0.50394138  0.99318801  0.99863187  1
  Mn  Mn2  1  0.00681199  0.49605862  0.00136813  1
  Mo  Mo3  1  0.08804957  0.08372396  0.70377506  1
  Mo  Mo4  1  0.91627604  0.91195043  0.29622494  1
  H  H5  1  0.33175961  0.31158375  0.21846165  1
  H  H6  1  0.50872985  0.49127015  0.00000000  1
  H  H7  1  0.68841625  0.66824039  0.78153835  1
  O  O8  1  0.24234343  0.24223610  0.47246320  1
  O  O9  1  0.36726691  0.34904318  0.07828958  1
  O  O10  1  0.17621395  0.16981517  0.87170452  1
  O  O11  1  0.25379764  0.81066837  0.26414105  1
  O  O12  1  0.18933163  0.74620236  0.73585895  1
  O  O13  1  0.81892545  0.24965883  0.26435488  1
  O  O14  1  0.75034117  0.18107455  0.73564512  1
  O  O15  1  0.83018483  0.82378605  0.12829548  1
  O  O16  1  0.65095682  0.63273309  0.92171042  1
  O  O17  1  0.75776390  0.75765657  0.52753680  1
