# generated using pymatgen
data_Pr2EuSe4
_symmetry_space_group_name_H-M   'P 1'
_cell_length_a   7.84517099
_cell_length_b   7.84517208
_cell_length_c   7.84517117
_cell_angle_alpha   109.47616306
_cell_angle_beta   109.47616592
_cell_angle_gamma   109.46133552
_symmetry_Int_Tables_number   1
_chemical_formula_structural   Pr2EuSe4
_chemical_formula_sum   'Pr4 Eu2 Se8'
_cell_volume   371.69387065
_cell_formula_units_Z   2
loop_
 _symmetry_equiv_pos_site_id
 _symmetry_equiv_pos_as_xyz
  1  'x, y, z'
loop_
 _atom_site_type_symbol
 _atom_site_label
 _atom_site_symmetry_multiplicity
 _atom_site_fract_x
 _atom_site_fract_y
 _atom_site_fract_z
 _atom_site_occupancy
  Pr  Pr0  1  0.12355673  0.75000000  0.87355673  1
  Pr  Pr1  1  0.25000000  0.62355673  0.37355673  1
  Pr  Pr2  1  0.37644327  0.25000000  0.62644327  1
  Pr  Pr3  1  0.75000000  0.87644327  0.12644327  1
  Eu  Eu4  1  0.62500000  0.37500000  0.25000000  1
  Eu  Eu5  1  0.87500000  0.12500000  0.75000000  1
  Se  Se6  1  0.00503646  0.85341833  0.49978329  1
  Se  Se7  1  0.00525317  0.35363504  0.50021671  1
  Se  Se8  1  0.49496354  0.99474683  0.84838188  1
  Se  Se9  1  0.14658167  0.14636496  0.15161812  1
  Se  Se10  1  0.35341833  0.50503646  0.99978329  1
  Se  Se11  1  0.64636496  0.64658167  0.65161812  1
  Se  Se12  1  0.49474683  0.99496354  0.34838188  1
  Se  Se13  1  0.85363504  0.50525317  0.00021671  1
