# generated using pymatgen
data_SmPaO4
_symmetry_space_group_name_H-M   'P 1'
_cell_length_a   7.73300580
_cell_length_b   10.20720734
_cell_length_c   6.66240960
_cell_angle_alpha   29.24343667
_cell_angle_beta   54.52511123
_cell_angle_gamma   40.74670158
_symmetry_Int_Tables_number   1
_chemical_formula_structural   SmPaO4
_chemical_formula_sum   'Sm2 Pa2 O8'
_cell_volume   162.22575286
_cell_formula_units_Z   2
loop_
 _symmetry_equiv_pos_site_id
 _symmetry_equiv_pos_as_xyz
  1  'x, y, z'
loop_
 _atom_site_type_symbol
 _atom_site_label
 _atom_site_symmetry_multiplicity
 _atom_site_fract_x
 _atom_site_fract_y
 _atom_site_fract_z
 _atom_site_occupancy
  Sm  Sm0  1  0.00000000  -0.00000000  0.00000000  1
  Sm  Sm1  1  0.75000000  0.50000000  0.00000000  1
  Pa  Pa2  1  0.50000000  -0.00000000  0.00000000  1
  Pa  Pa3  1  0.25000000  0.50000000  0.00000000  1
  O  O4  1  0.37500000  0.48379177  0.26620823  1
  O  O5  1  0.14120823  0.48379177  0.76620823  1
  O  O6  1  0.14120823  0.98379177  0.26620823  1
  O  O7  1  0.87500000  0.51620823  0.23379177  1
  O  O8  1  0.60879177  0.51620823  0.73379177  1
  O  O9  1  0.60879177  0.01620823  0.23379177  1
  O  O10  1  0.37500000  0.01620823  0.73379177  1
  O  O11  1  0.87500000  0.98379177  0.76620823  1
