# generated using pymatgen
data_KSn2(PO4)3
_symmetry_space_group_name_H-M   'P 1'
_cell_length_a   9.36446807
_cell_length_b   9.36448529
_cell_length_c   9.36449511
_cell_angle_alpha   53.86358417
_cell_angle_beta   53.86376636
_cell_angle_gamma   53.86356197
_symmetry_Int_Tables_number   1
_chemical_formula_structural   KSn2(PO4)3
_chemical_formula_sum   'K2 Sn4 P6 O24'
_cell_volume   497.40898684
_cell_formula_units_Z   2
loop_
 _symmetry_equiv_pos_site_id
 _symmetry_equiv_pos_as_xyz
  1  'x, y, z'
loop_
 _atom_site_type_symbol
 _atom_site_label
 _atom_site_symmetry_multiplicity
 _atom_site_fract_x
 _atom_site_fract_y
 _atom_site_fract_z
 _atom_site_occupancy
  K  K0  1  0.49991135  0.50000540  0.50000362  1
  K  K1  1  0.00000138  -0.00000296  0.00000094  1
  Sn  Sn2  1  0.84609175  0.84608887  0.84609245  1
  Sn  Sn3  1  0.15390739  0.15391327  0.15390946  1
  Sn  Sn4  1  0.64796526  0.64797658  0.64797405  1
  Sn  Sn5  1  0.35203339  0.35201804  0.35202187  1
  P  P6  1  0.53934820  0.24890416  0.96043093  1
  P  P7  1  0.24890052  0.96043974  0.53934533  1
  P  P8  1  0.96043423  0.53934676  0.24890895  1
  P  P9  1  0.46065268  0.75109817  0.03956451  1
  P  P10  1  0.75109994  0.03955906  0.46065534  1
  P  P11  1  0.03955955  0.46065392  0.75109440  1
  O  O12  1  0.68281783  0.04313434  0.97358921  1
  O  O13  1  0.04313549  0.97359073  0.68281593  1
  O  O14  1  0.97358957  0.68281405  0.04314036  1
  O  O15  1  0.31718124  0.95686636  0.02641213  1
  O  O16  1  0.95686539  0.02640991  0.31718325  1
  O  O17  1  0.02641049  0.31718553  0.95686093  1
  O  O18  1  0.34884402  0.28479101  0.97280534  1
  O  O19  1  0.28479132  0.97280490  0.34884390  1
  O  O20  1  0.97280541  0.34884514  0.28479077  1
  O  O21  1  0.65115608  0.71520911  0.02719506  1
  O  O22  1  0.71520898  0.02719472  0.65115647  1
  O  O23  1  0.02719755  0.65115362  0.71520763  1
  O  O24  1  0.51842445  0.27762087  0.11862576  1
  O  O25  1  0.27762559  0.11863300  0.51841595  1
  O  O26  1  0.11863817  0.51841175  0.27762435  1
  O  O27  1  0.48157652  0.72237908  0.88137257  1
  O  O28  1  0.72237395  0.88136776  0.48158490  1
  O  O29  1  0.88136029  0.48158967  0.72237536  1
  O  O30  1  0.62166582  0.39164703  0.76505183  1
  O  O31  1  0.39163681  0.76505567  0.62166853  1
  O  O32  1  0.76505170  0.62166602  0.39164932  1
  O  O33  1  0.37833168  0.60835343  0.23494570  1
  O  O34  1  0.60836228  0.23494449  0.37832966  1
  O  O35  1  0.23494374  0.37833081  0.60835325  1
