# generated using pymatgen
data_La3FeO6
_symmetry_space_group_name_H-M   'P 1'
_cell_length_a   7.58701480
_cell_length_b   7.58701480
_cell_length_c   5.73726798
_cell_angle_alpha   90.00000000
_cell_angle_beta   90.00000000
_cell_angle_gamma   76.98347198
_symmetry_Int_Tables_number   1
_chemical_formula_structural   La3FeO6
_chemical_formula_sum   'La6 Fe2 O12'
_cell_volume   321.76736121
_cell_formula_units_Z   2
loop_
 _symmetry_equiv_pos_site_id
 _symmetry_equiv_pos_as_xyz
  1  'x, y, z'
loop_
 _atom_site_type_symbol
 _atom_site_label
 _atom_site_symmetry_multiplicity
 _atom_site_fract_x
 _atom_site_fract_y
 _atom_site_fract_z
 _atom_site_occupancy
  La  La0  1  0.19850740  0.58690964  0.53565215  1
  La  La1  1  0.58690964  0.19850740  0.53565215  1
  La  La2  1  0.80149260  0.41309036  0.03565215  1
  La  La3  1  0.41309036  0.80149260  0.03565215  1
  La  La4  1  0.89505358  0.89505358  0.07266766  1
  La  La5  1  0.10494642  0.10494642  0.57266766  1
  Fe  Fe6  1  0.69190659  0.69190659  0.50035311  1
  Fe  Fe7  1  0.30809341  0.30809341  0.00035311  1
  O  O8  1  0.14796755  0.82911880  0.80105414  1
  O  O9  1  0.82911880  0.14796755  0.80105414  1
  O  O10  1  0.85203245  0.17088120  0.30105414  1
  O  O11  1  0.17088120  0.85203245  0.30105414  1
  O  O12  1  0.08621012  0.39212202  0.83193193  1
  O  O13  1  0.39212202  0.08621012  0.83193193  1
  O  O14  1  0.91378988  0.60787798  0.33193193  1
  O  O15  1  0.60787798  0.91378988  0.33193193  1
  O  O16  1  0.45590914  0.45590914  0.86907696  1
  O  O17  1  0.54409086  0.54409086  0.36907696  1
  O  O18  1  0.71437771  0.71437771  0.83074583  1
  O  O19  1  0.28562229  0.28562229  0.33074583  1
