# generated using pymatgen
data_NaMg3
_symmetry_space_group_name_H-M   'P 1'
_cell_length_a   6.60749394
_cell_length_b   6.60749307
_cell_length_c   5.37588861
_cell_angle_alpha   90.00000000
_cell_angle_beta   90.00000000
_cell_angle_gamma   119.99999936
_symmetry_Int_Tables_number   1
_chemical_formula_structural   NaMg3
_chemical_formula_sum   'Na2 Mg6'
_cell_volume   203.26115341
_cell_formula_units_Z   2
loop_
 _symmetry_equiv_pos_site_id
 _symmetry_equiv_pos_as_xyz
  1  'x, y, z'
loop_
 _atom_site_type_symbol
 _atom_site_label
 _atom_site_symmetry_multiplicity
 _atom_site_fract_x
 _atom_site_fract_y
 _atom_site_fract_z
 _atom_site_occupancy
  Na  Na0  1  0.66666700  0.33333300  0.25000100  1
  Na  Na1  1  0.33333400  0.66666700  0.75000000  1
  Mg  Mg2  1  0.16264630  0.32529259  0.25000100  1
  Mg  Mg3  1  0.16264630  0.83735470  0.25000100  1
  Mg  Mg4  1  0.67470841  0.83735470  0.25000100  1
  Mg  Mg5  1  0.32529259  0.16264730  0.75000000  1
  Mg  Mg6  1  0.83735370  0.16264730  0.75000000  1
  Mg  Mg7  1  0.83735470  0.67470741  0.75000000  1
