# generated using pymatgen
data_NiS2
_symmetry_space_group_name_H-M   'P 1'
_cell_length_a   5.34301527
_cell_length_b   5.23760495
_cell_length_c   5.25011696
_cell_angle_alpha   90.02384386
_cell_angle_beta   89.99804272
_cell_angle_gamma   46.65157284
_symmetry_Int_Tables_number   1
_chemical_formula_structural   NiS2
_chemical_formula_sum   'Ni2 S4'
_cell_volume   106.84092598
_cell_formula_units_Z   2
loop_
 _symmetry_equiv_pos_site_id
 _symmetry_equiv_pos_as_xyz
  1  'x, y, z'
loop_
 _atom_site_type_symbol
 _atom_site_label
 _atom_site_symmetry_multiplicity
 _atom_site_fract_x
 _atom_site_fract_y
 _atom_site_fract_z
 _atom_site_occupancy
  Ni  Ni0  1  0.75057734  0.49909315  0.16652099  1
  Ni  Ni1  1  0.24960067  0.50055160  0.66664773  1
  S  S2  1  0.27263957  0.64959373  0.04980282  1
  S  S3  1  0.77266473  0.64930367  0.78375861  1
  S  S4  1  0.22722451  0.35090727  0.28358889  1
  S  S5  1  0.72729217  0.35055158  0.54968096  1
