# generated using pymatgen
data_Li5Co3O8
_symmetry_space_group_name_H-M   'P 1'
_cell_length_a   4.91479400
_cell_length_b   5.69598454
_cell_length_c   5.01048161
_cell_angle_alpha   73.08051160
_cell_angle_beta   80.12362412
_cell_angle_gamma   89.68936396
_symmetry_Int_Tables_number   1
_chemical_formula_structural   Li5Co3O8
_chemical_formula_sum   'Li5 Co3 O8'
_cell_volume   132.05874513
_cell_formula_units_Z   1
loop_
 _symmetry_equiv_pos_site_id
 _symmetry_equiv_pos_as_xyz
  1  'x, y, z'
loop_
 _atom_site_type_symbol
 _atom_site_label
 _atom_site_symmetry_multiplicity
 _atom_site_fract_x
 _atom_site_fract_y
 _atom_site_fract_z
 _atom_site_occupancy
  Li  Li0  1  0.26372677  0.86997480  0.50316960  1
  Li  Li1  1  0.74360675  0.11941369  0.50279456  1
  Li  Li2  1  0.25639325  0.38058631  0.49720544  1
  Li  Li3  1  0.73627323  0.63002520  0.49683040  1
  Li  Li4  1  0.50000000  0.75000000  -0.00000000  1
  Co  Co5  1  0.00475845  0.99637005  0.00107656  1
  Co  Co6  1  0.99524155  0.50362995  0.99892344  1
  Co  Co7  1  0.50000000  0.25000000  -0.00000000  1
  O  O8  1  0.10286842  0.69660257  0.22326837  1
  O  O9  1  0.64212773  0.95393462  0.22618565  1
  O  O10  1  0.12970099  0.19813679  0.21612270  1
  O  O11  1  0.64625528  0.42902716  0.22143921  1
  O  O12  1  0.35374472  0.07097284  0.77856079  1
  O  O13  1  0.87029901  0.30186321  0.78387730  1
  O  O14  1  0.35787227  0.54606538  0.77381435  1
  O  O15  1  0.89713158  0.80339743  0.77673163  1
