# generated using pymatgen
data_Rb(WO3)3
_symmetry_space_group_name_H-M   'P 1'
_cell_length_a   7.54820446
_cell_length_b   7.54640800
_cell_length_c   7.79446141
_cell_angle_alpha   90.00017803
_cell_angle_beta   89.99966540
_cell_angle_gamma   120.21596594
_symmetry_Int_Tables_number   1
_chemical_formula_structural   Rb(WO3)3
_chemical_formula_sum   'Rb2 W6 O18'
_cell_volume   383.66434583
_cell_formula_units_Z   2
loop_
 _symmetry_equiv_pos_site_id
 _symmetry_equiv_pos_as_xyz
  1  'x, y, z'
loop_
 _atom_site_type_symbol
 _atom_site_label
 _atom_site_symmetry_multiplicity
 _atom_site_fract_x
 _atom_site_fract_y
 _atom_site_fract_z
 _atom_site_occupancy
  Rb  Rb0  1  0.99997215  0.99993204  0.50234089  1
  Rb  Rb1  1  0.99997390  0.99994239  0.00057409  1
  W  W2  1  0.99998572  0.49990662  0.25005861  1
  W  W3  1  0.50008933  0.50016815  0.25007622  1
  W  W4  1  0.50011759  0.00000747  0.75005554  1
  W  W5  1  0.00001428  0.50013734  0.75005770  1
  W  W6  1  0.49987823  0.49990230  0.75007760  1
  W  W7  1  0.49986770  0.00004837  0.25005289  1
  O  O8  1  0.50004096  0.00003421  0.49336617  1
  O  O9  1  0.49995505  0.50002253  0.00015916  1
  O  O10  1  0.00011509  0.50008298  0.99347576  1
  O  O11  1  0.99994646  0.49999007  0.50661897  1
  O  O12  1  0.50002877  0.49993603  0.49993157  1
  O  O13  1  0.49995371  0.99986309  0.00672683  1
  O  O14  1  0.78899596  0.57869910  0.75007829  1
  O  O15  1  0.21006094  0.78894385  0.25009398  1
  O  O16  1  0.42002446  0.21071566  0.24999260  1
  O  O17  1  0.21093217  0.42123720  0.74998830  1
  O  O18  1  0.21186880  0.79049056  0.74997184  1
  O  O19  1  0.78987483  0.21104003  0.24999127  1
  O  O20  1  0.78458772  0.57921828  0.24999583  1
  O  O21  1  0.58000180  0.78935166  0.25008692  1
  O  O22  1  0.21550877  0.42085163  0.25009086  1
  O  O23  1  0.78819552  0.20957914  0.75007527  1
  O  O24  1  0.41828535  0.21484005  0.75008099  1
  O  O25  1  0.58172572  0.78506124  0.74997686  1
