# generated using pymatgen
data_Cs2HfO3
_symmetry_space_group_name_H-M   'P 1'
_cell_length_a   6.50899715
_cell_length_b   7.29396029
_cell_length_c   14.53772940
_cell_angle_alpha   90.00000000
_cell_angle_beta   90.00000000
_cell_angle_gamma   116.49956009
_symmetry_Int_Tables_number   1
_chemical_formula_structural   Cs2HfO3
_chemical_formula_sum   'Cs8 Hf4 O12'
_cell_volume   617.68478308
_cell_formula_units_Z   4
loop_
 _symmetry_equiv_pos_site_id
 _symmetry_equiv_pos_as_xyz
  1  'x, y, z'
loop_
 _atom_site_type_symbol
 _atom_site_label
 _atom_site_symmetry_multiplicity
 _atom_site_fract_x
 _atom_site_fract_y
 _atom_site_fract_z
 _atom_site_occupancy
  Cs  Cs0  1  0.05228140  0.10456280  0.13407417  1
  Cs  Cs1  1  0.36710735  0.73421469  0.07103821  1
  Cs  Cs2  1  0.13289265  0.26578531  0.57103821  1
  Cs  Cs3  1  0.44771860  0.89543720  0.63407417  1
  Cs  Cs4  1  0.55228140  0.10456280  0.36592583  1
  Cs  Cs5  1  0.86710735  0.73421469  0.42896179  1
  Cs  Cs6  1  0.63289265  0.26578531  0.92896179  1
  Cs  Cs7  1  0.94771860  0.89543720  0.86592583  1
  Hf  Hf8  1  0.24009898  0.48019897  0.32753161  1
  Hf  Hf9  1  0.25990102  0.51980103  0.82753161  1
  Hf  Hf10  1  0.74009898  0.48019897  0.17246839  1
  Hf  Hf11  1  0.75990102  0.51980103  0.67246839  1
  O  O12  1  0.01700306  0.53400512  0.25000000  1
  O  O13  1  0.32887442  0.65774783  0.43302037  1
  O  O14  1  0.09869369  0.19738737  0.36449154  1
  O  O15  1  0.17112558  0.34225217  0.93302037  1
  O  O16  1  0.40130631  0.80261263  0.86449154  1
  O  O17  1  0.48299694  0.46599488  0.75000000  1
  O  O18  1  0.51700306  0.53400512  0.25000000  1
  O  O19  1  0.82887442  0.65774783  0.06697963  1
  O  O20  1  0.90130631  0.80261263  0.63550846  1
  O  O21  1  0.59869369  0.19738737  0.13550846  1
  O  O22  1  0.67112558  0.34225217  0.56697963  1
  O  O23  1  0.98299694  0.46599488  0.75000000  1
