# generated using pymatgen
data_K2HgCl4
_symmetry_space_group_name_H-M   'P 1'
_cell_length_a   7.84671712
_cell_length_b   9.05781263
_cell_length_c   11.98951334
_cell_angle_alpha   90.00000000
_cell_angle_beta   90.00000000
_cell_angle_gamma   90.00000000
_symmetry_Int_Tables_number   1
_chemical_formula_structural   K2HgCl4
_chemical_formula_sum   'K8 Hg4 Cl16'
_cell_volume   852.14379135
_cell_formula_units_Z   4
loop_
 _symmetry_equiv_pos_site_id
 _symmetry_equiv_pos_as_xyz
  1  'x, y, z'
loop_
 _atom_site_type_symbol
 _atom_site_label
 _atom_site_symmetry_multiplicity
 _atom_site_fract_x
 _atom_site_fract_y
 _atom_site_fract_z
 _atom_site_occupancy
  K  K0  1  0.09277566  0.00000000  0.68006011  1
  K  K1  1  0.90722434  -0.00000000  0.31993989  1
  K  K2  1  0.59277566  0.00000000  0.81993989  1
  K  K3  1  0.40722434  -0.00000000  0.18006011  1
  K  K4  1  0.09492222  0.50000000  0.68140688  1
  K  K5  1  0.90507778  0.50000000  0.31859312  1
  K  K6  1  0.59492222  0.50000000  0.81859312  1
  K  K7  1  0.40507778  0.50000000  0.18140688  1
  Hg  Hg8  1  0.50000000  0.74894961  0.50000000  1
  Hg  Hg9  1  0.00000000  0.25105039  -0.00000000  1
  Hg  Hg10  1  0.50000000  0.25105039  0.50000000  1
  Hg  Hg11  1  0.00000000  0.74894961  -0.00000000  1
  Cl  Cl12  1  0.72697722  0.00000000  0.55747247  1
  Cl  Cl13  1  0.27302278  0.00000000  0.44252753  1
  Cl  Cl14  1  0.22697722  -0.00000000  0.94252753  1
  Cl  Cl15  1  0.77302278  0.00000000  0.05747247  1
  Cl  Cl16  1  0.72973153  0.50000000  0.55704806  1
  Cl  Cl17  1  0.27026847  0.50000000  0.44295194  1
  Cl  Cl18  1  0.22973153  0.50000000  0.94295194  1
  Cl  Cl19  1  0.77026847  0.50000000  0.05704806  1
  Cl  Cl20  1  0.38250653  0.74886207  0.69232753  1
  Cl  Cl21  1  0.61749347  0.74886207  0.30767247  1
  Cl  Cl22  1  0.88250653  0.25113793  0.80767247  1
  Cl  Cl23  1  0.11749347  0.25113793  0.19232753  1
  Cl  Cl24  1  0.61749347  0.25113793  0.30767247  1
  Cl  Cl25  1  0.38250653  0.25113793  0.69232753  1
  Cl  Cl26  1  0.11749347  0.74886207  0.19232753  1
  Cl  Cl27  1  0.88250653  0.74886207  0.80767247  1
