# generated using pymatgen
data_K4Eu(PS4)2
_symmetry_space_group_name_H-M   'P 1'
_cell_length_a   8.91058258
_cell_length_b   9.83201763
_cell_length_c   11.35673843
_cell_angle_alpha   115.59889850
_cell_angle_beta   113.16992881
_cell_angle_gamma   90.09302619
_symmetry_Int_Tables_number   1
_chemical_formula_structural   K4Eu(PS4)2
_chemical_formula_sum   'K8 Eu2 P4 S16'
_cell_volume   807.04813173
_cell_formula_units_Z   2
loop_
 _symmetry_equiv_pos_site_id
 _symmetry_equiv_pos_as_xyz
  1  'x, y, z'
loop_
 _atom_site_type_symbol
 _atom_site_label
 _atom_site_symmetry_multiplicity
 _atom_site_fract_x
 _atom_site_fract_y
 _atom_site_fract_z
 _atom_site_occupancy
  K  K0  1  0.79711567  0.91655319  0.83414988  1
  K  K1  1  0.74208524  0.99157412  0.48601374  1
  K  K2  1  0.21127479  0.08404454  0.16880086  1
  K  K3  1  0.26112829  0.51117737  0.51697093  1
  K  K4  1  0.95736359  0.58047768  0.16135183  1
  K  K5  1  0.25812751  0.01034971  0.51921924  1
  K  K6  1  0.74266296  0.49488786  0.48469144  1
  K  K7  1  0.03991710  0.41379564  0.83090236  1
  Eu  Eu8  1  0.49939876  0.74752682  0.99863209  1
  Eu  Eu9  1  0.50245187  0.25076668  0.00043880  1
  P  P10  1  0.83298604  0.12807114  0.25465272  1
  P  P11  1  0.16800577  0.87243887  0.74368597  1
  P  P12  1  0.42307744  0.62759159  0.25738634  1
  P  P13  1  0.57396624  0.36938480  0.74097466  1
  S  S14  1  0.36956975  0.39358039  0.78757880  1
  S  S15  1  0.28234412  0.41032008  0.16025588  1
  S  S16  1  0.87720431  0.24891679  0.15836354  1
  S  S17  1  0.28377942  0.74777013  0.15966234  1
  S  S18  1  0.12598175  0.75205158  0.84135083  1
  S  S19  1  0.62874017  0.60449678  0.21224522  1
  S  S20  1  0.50633587  0.25892459  0.52336085  1
  S  S21  1  0.41962928  0.89622017  0.79203529  1
  S  S22  1  0.71258631  0.24946718  0.83949156  1
  S  S23  1  0.01787985  0.76312751  0.52560411  1
  S  S24  1  0.87595186  0.91031264  0.15831064  1
  S  S25  1  0.58151875  0.10314291  0.20653858  1
  S  S26  1  0.12443401  0.08997184  0.83828664  1
  S  S27  1  0.71390662  0.58686707  0.83641165  1
  S  S28  1  0.49317011  0.73799070  0.47576252  1
  S  S29  1  0.98133455  0.23836865  0.47277871  1
