# generated using pymatgen
data_CsTe4
_symmetry_space_group_name_H-M   'P 1'
_cell_length_a   8.17534959
_cell_length_b   7.34290684
_cell_length_c   14.27279390
_cell_angle_alpha   90.00000000
_cell_angle_beta   93.59420588
_cell_angle_gamma   90.00000000
_symmetry_Int_Tables_number   1
_chemical_formula_structural   CsTe4
_chemical_formula_sum   'Cs4 Te16'
_cell_volume   855.12239202
_cell_formula_units_Z   4
loop_
 _symmetry_equiv_pos_site_id
 _symmetry_equiv_pos_as_xyz
  1  'x, y, z'
loop_
 _atom_site_type_symbol
 _atom_site_label
 _atom_site_symmetry_multiplicity
 _atom_site_fract_x
 _atom_site_fract_y
 _atom_site_fract_z
 _atom_site_occupancy
  Cs  Cs0  1  0.14375806  0.62068049  0.85214980  1
  Cs  Cs1  1  0.14375806  0.87931951  0.35214980  1
  Cs  Cs2  1  0.85624194  0.12068049  0.64785020  1
  Cs  Cs3  1  0.85624194  0.37931951  0.14784920  1
  Te  Te4  1  0.12892346  0.10815157  0.96809375  1
  Te  Te5  1  0.12892346  0.39184843  0.46809375  1
  Te  Te6  1  0.35021642  0.01749408  0.71317544  1
  Te  Te7  1  0.37764952  0.44109235  0.62548927  1
  Te  Te8  1  0.35021642  0.48250592  0.21317544  1
  Te  Te9  1  0.37764952  0.05890765  0.12548927  1
  Te  Te10  1  0.46339014  0.80612359  0.56700985  1
  Te  Te11  1  0.53660986  0.30612359  0.93299015  1
  Te  Te12  1  0.46339014  0.69387641  0.06700985  1
  Te  Te13  1  0.53660986  0.19387641  0.43299015  1
  Te  Te14  1  0.62235048  0.94109235  0.87451073  1
  Te  Te15  1  0.64978358  0.51749408  0.78682456  1
  Te  Te16  1  0.62235048  0.55890765  0.37451073  1
  Te  Te17  1  0.64978358  0.98250592  0.28682456  1
  Te  Te18  1  0.87107654  0.60815157  0.53190625  1
  Te  Te19  1  0.87107654  0.89184843  0.03190625  1
