# generated using pymatgen
data_NiH12(BrO6)2
_symmetry_space_group_name_H-M   'P 1'
_cell_length_a   10.55924762
_cell_length_b   10.55924762
_cell_length_c   10.55924762
_cell_angle_alpha   90.00000000
_cell_angle_beta   90.00000000
_cell_angle_gamma   90.00000000
_symmetry_Int_Tables_number   1
_chemical_formula_structural   NiH12(BrO6)2
_chemical_formula_sum   'Ni4 H48 Br8 O48'
_cell_volume   1177.33193213
_cell_formula_units_Z   4
loop_
 _symmetry_equiv_pos_site_id
 _symmetry_equiv_pos_as_xyz
  1  'x, y, z'
loop_
 _atom_site_type_symbol
 _atom_site_label
 _atom_site_symmetry_multiplicity
 _atom_site_fract_x
 _atom_site_fract_y
 _atom_site_fract_z
 _atom_site_occupancy
  Ni  Ni0  1  0.50000000  0.50000000  -0.00000000  1
  Ni  Ni1  1  0.50000000  0.00000000  0.50000000  1
  Ni  Ni2  1  -0.00000000  0.50000000  0.50000000  1
  Ni  Ni3  1  -0.00000000  0.00000000  -0.00000000  1
  H  H4  1  0.25574528  0.56574860  0.04077534  1
  H  H5  1  0.74425472  0.06574860  0.45922466  1
  H  H6  1  0.24425472  0.43425140  0.54077534  1
  H  H7  1  0.75574528  0.93425140  0.95922466  1
  H  H8  1  0.04077534  0.25574528  0.56574860  1
  H  H9  1  0.45922466  0.74425472  0.06574860  1
  H  H10  1  0.54077534  0.24425472  0.43425140  1
  H  H11  1  0.95922466  0.75574528  0.93425140  1
  H  H12  1  0.56574860  0.04077534  0.25574528  1
  H  H13  1  0.06574860  0.45922466  0.74425472  1
  H  H14  1  0.43425140  0.54077534  0.24425472  1
  H  H15  1  0.93425140  0.95922466  0.75574528  1
  H  H16  1  0.74425472  0.43425140  0.95922466  1
  H  H17  1  0.25574528  0.93425140  0.54077534  1
  H  H18  1  0.75574528  0.56574860  0.45922466  1
  H  H19  1  0.24425472  0.06574860  0.04077534  1
  H  H20  1  0.95922466  0.74425472  0.43425140  1
  H  H21  1  0.54077534  0.25574528  0.93425140  1
  H  H22  1  0.45922466  0.75574528  0.56574860  1
  H  H23  1  0.04077534  0.24425472  0.06574860  1
  H  H24  1  0.43425140  0.95922466  0.74425472  1
  H  H25  1  0.93425140  0.54077534  0.25574528  1
  H  H26  1  0.56574860  0.45922466  0.75574528  1
  H  H27  1  0.06574860  0.04077534  0.24425472  1
  H  H28  1  0.26079267  0.45770833  0.93372010  1
  H  H29  1  0.73920733  0.95770833  0.56627990  1
  H  H30  1  0.23920733  0.54229167  0.43372010  1
  H  H31  1  0.76079267  0.04229167  0.06627990  1
  H  H32  1  0.93372010  0.26079267  0.45770833  1
  H  H33  1  0.56627990  0.73920733  0.95770833  1
  H  H34  1  0.43372010  0.23920733  0.54229167  1
  H  H35  1  0.06627990  0.76079267  0.04229167  1
  H  H36  1  0.45770833  0.93372010  0.26079267  1
  H  H37  1  0.95770833  0.56627990  0.73920733  1
  H  H38  1  0.54229167  0.43372010  0.23920733  1
  H  H39  1  0.04229167  0.06627990  0.76079267  1
  H  H40  1  0.73920733  0.54229167  0.06627990  1
  H  H41  1  0.26079267  0.04229167  0.43372010  1
  H  H42  1  0.76079267  0.45770833  0.56627990  1
  H  H43  1  0.23920733  0.95770833  0.93372010  1
  H  H44  1  0.06627990  0.73920733  0.54229167  1
  H  H45  1  0.43372010  0.26079267  0.04229167  1
  H  H46  1  0.56627990  0.76079267  0.45770833  1
  H  H47  1  0.93372010  0.23920733  0.95770833  1
  H  H48  1  0.54229167  0.06627990  0.73920733  1
  H  H49  1  0.04229167  0.43372010  0.26079267  1
  H  H50  1  0.45770833  0.56627990  0.76079267  1
  H  H51  1  0.95770833  0.93372010  0.23920733  1
  Br  Br52  1  0.24567121  0.75432879  0.25432879  1
  Br  Br53  1  0.75432879  0.25432879  0.24567121  1
  Br  Br54  1  0.25432879  0.24567121  0.75432879  1
  Br  Br55  1  0.74567121  0.74567121  0.74567121  1
  Br  Br56  1  0.75432879  0.24567121  0.74567121  1
  Br  Br57  1  0.24567121  0.74567121  0.75432879  1
  Br  Br58  1  0.74567121  0.75432879  0.24567121  1
  Br  Br59  1  0.25432879  0.25432879  0.25432879  1
  O  O60  1  0.16546506  0.67188740  0.14345396  1
  O  O61  1  0.83453494  0.17188740  0.35654604  1
  O  O62  1  0.33453494  0.32811260  0.64345396  1
  O  O63  1  0.66546506  0.82811260  0.85654604  1
  O  O64  1  0.14345396  0.16546506  0.67188740  1
  O  O65  1  0.35654604  0.83453494  0.17188740  1
  O  O66  1  0.64345396  0.33453494  0.32811260  1
  O  O67  1  0.85654604  0.66546506  0.82811260  1
  O  O68  1  0.67188740  0.14345396  0.16546506  1
  O  O69  1  0.17188740  0.35654604  0.83453494  1
  O  O70  1  0.32811260  0.64345396  0.33453494  1
  O  O71  1  0.82811260  0.85654604  0.66546506  1
  O  O72  1  0.83453494  0.32811260  0.85654604  1
  O  O73  1  0.16546506  0.82811260  0.64345396  1
  O  O74  1  0.66546506  0.67188740  0.35654604  1
  O  O75  1  0.33453494  0.17188740  0.14345396  1
  O  O76  1  0.85654604  0.83453494  0.32811260  1
  O  O77  1  0.64345396  0.16546506  0.82811260  1
  O  O78  1  0.35654604  0.66546506  0.67188740  1
  O  O79  1  0.14345396  0.33453494  0.17188740  1
  O  O80  1  0.32811260  0.85654604  0.83453494  1
  O  O81  1  0.82811260  0.64345396  0.16546506  1
  O  O82  1  0.67188740  0.35654604  0.66546506  1
  O  O83  1  0.17188740  0.14345396  0.33453494  1
  O  O84  1  0.30760474  0.53019631  0.97124028  1
  O  O85  1  0.69239526  0.03019631  0.52875972  1
  O  O86  1  0.19239526  0.46980369  0.47124028  1
  O  O87  1  0.80760474  0.96980369  0.02875972  1
  O  O88  1  0.97124028  0.30760474  0.53019631  1
  O  O89  1  0.52875972  0.69239526  0.03019631  1
  O  O90  1  0.47124028  0.19239526  0.46980369  1
  O  O91  1  0.02875972  0.80760474  0.96980369  1
  O  O92  1  0.53019631  0.97124028  0.30760474  1
  O  O93  1  0.03019631  0.52875972  0.69239526  1
  O  O94  1  0.46980369  0.47124028  0.19239526  1
  O  O95  1  0.96980369  0.02875972  0.80760474  1
  O  O96  1  0.69239526  0.46980369  0.02875972  1
  O  O97  1  0.30760474  0.96980369  0.47124028  1
  O  O98  1  0.80760474  0.53019631  0.52875972  1
  O  O99  1  0.19239526  0.03019631  0.97124028  1
  O  O100  1  0.02875972  0.69239526  0.46980369  1
  O  O101  1  0.47124028  0.30760474  0.96980369  1
  O  O102  1  0.52875972  0.80760474  0.53019631  1
  O  O103  1  0.97124028  0.19239526  0.03019631  1
  O  O104  1  0.46980369  0.02875972  0.69239526  1
  O  O105  1  0.96980369  0.47124028  0.30760474  1
  O  O106  1  0.53019631  0.52875972  0.80760474  1
  O  O107  1  0.03019631  0.97124028  0.19239526  1
