# generated using pymatgen
data_B9Pb8O21F
_symmetry_space_group_name_H-M   'P 1'
_cell_length_a   14.23100176
_cell_length_b   14.23098158
_cell_length_c   14.23096857
_cell_angle_alpha   40.76851190
_cell_angle_beta   40.76832383
_cell_angle_gamma   40.76835796
_symmetry_Int_Tables_number   1
_chemical_formula_structural   B9Pb8O21F
_chemical_formula_sum   'B18 Pb16 O42 F2'
_cell_volume   1108.96933375
_cell_formula_units_Z   2
loop_
 _symmetry_equiv_pos_site_id
 _symmetry_equiv_pos_as_xyz
  1  'x, y, z'
loop_
 _atom_site_type_symbol
 _atom_site_label
 _atom_site_symmetry_multiplicity
 _atom_site_fract_x
 _atom_site_fract_y
 _atom_site_fract_z
 _atom_site_occupancy
  B  B0  1  0.74999175  0.59857013  0.90146450  1
  B  B1  1  0.59856969  0.90146273  0.74999397  1
  B  B2  1  0.90146585  0.74999027  0.59856917  1
  B  B3  1  0.24999094  0.40146471  0.09857184  1
  B  B4  1  0.40146567  0.09857113  0.24999037  1
  B  B5  1  0.09856963  0.24999404  0.40146488  1
  B  B6  1  0.88577369  0.43054805  0.07758744  1
  B  B7  1  0.43054394  0.07758780  0.88577823  1
  B  B8  1  0.07758966  0.88577367  0.43054702  1
  B  B9  1  0.38577241  0.57758666  0.93054903  1
  B  B10  1  0.57758929  0.93054960  0.38577183  1
  B  B11  1  0.93054254  0.38577930  0.57759088  1
  B  B12  1  0.11420856  0.56944827  0.92245196  1
  B  B13  1  0.56945221  0.92244741  0.11420620  1
  B  B14  1  0.92245073  0.11421002  0.56944797  1
  B  B15  1  0.61421013  0.42245146  0.06944684  1
  B  B16  1  0.42245110  0.06944660  0.61421033  1
  B  B17  1  0.06945334  0.61420417  0.42244742  1
  Pb  Pb18  1  0.71011145  0.20127180  0.46912094  1
  Pb  Pb19  1  0.20127439  0.46911484  0.71011406  1
  Pb  Pb20  1  0.46911541  0.71011609  0.20126982  1
  Pb  Pb21  1  0.21011122  0.96912218  0.70127090  1
  Pb  Pb22  1  0.96911402  0.70127104  0.21011627  1
  Pb  Pb23  1  0.70127601  0.21011344  0.96911432  1
  Pb  Pb24  1  0.28992097  0.79871227  0.53088352  1
  Pb  Pb25  1  0.79870626  0.53089042  0.28991912  1
  Pb  Pb26  1  0.53088585  0.28991650  0.79871446  1
  Pb  Pb27  1  0.78992149  0.03088345  0.29871133  1
  Pb  Pb28  1  0.03088747  0.29871316  0.78991685  1
  Pb  Pb29  1  0.29870463  0.78992012  0.03088970  1
  Pb  Pb30  1  0.16354907  0.16355786  0.16355776  1
  Pb  Pb31  1  0.66354859  0.66355760  0.66355785  1
  Pb  Pb32  1  0.83645550  0.83644409  0.83644319  1
  Pb  Pb33  1  0.33645684  0.33644183  0.33644284  1
  O  O34  1  0.84730368  0.38684544  0.22720665  1
  O  O35  1  0.38684359  0.22720872  0.84730215  1
  O  O36  1  0.22720244  0.84730752  0.38684625  1
  O  O37  1  0.34730333  0.72720526  0.88684536  1
  O  O38  1  0.72720177  0.88684685  0.34730735  1
  O  O39  1  0.88684184  0.34730318  0.72721207  1
  O  O40  1  0.15274649  0.61310930  0.77283037  1
  O  O41  1  0.61311101  0.77283086  0.15274495  1
  O  O42  1  0.77283392  0.15274420  0.61310825  1
  O  O43  1  0.65274839  0.27283241  0.11310753  1
  O  O44  1  0.27283552  0.11310765  0.65274382  1
  O  O45  1  0.11311173  0.65274623  0.27282734  1
  O  O46  1  0.76398187  0.54733892  0.03122641  1
  O  O47  1  0.54733907  0.03122387  0.76398445  1
  O  O48  1  0.03122619  0.76398214  0.54733789  1
  O  O49  1  0.26398276  0.53122774  0.04733796  1
  O  O50  1  0.53122774  0.04733971  0.26398178  1
  O  O51  1  0.04734096  0.26398164  0.53122452  1
  O  O52  1  0.23600894  0.45259855  0.96888338  1
  O  O53  1  0.45260010  0.96888588  0.23600520  1
  O  O54  1  0.96888387  0.23600659  0.45260151  1
  O  O55  1  0.73600777  0.46888444  0.95259764  1
  O  O56  1  0.46888445  0.95259837  0.73600735  1
  O  O57  1  0.95259904  0.73600659  0.46888702  1
  O  O58  1  0.60682223  0.75000066  0.89322597  1
  O  O59  1  0.75000609  0.89322338  0.60681734  1
  O  O60  1  0.89322767  0.60681916  0.75000115  1
  O  O61  1  0.10681838  0.39322574  0.25000385  1
  O  O62  1  0.39322426  0.25000316  0.10681996  1
  O  O63  1  0.25000030  0.10681848  0.39322843  1
  O  O64  1  0.04015173  0.35390420  0.98741252  1
  O  O65  1  0.35390114  0.98741608  0.04015515  1
  O  O66  1  0.98740884  0.04015604  0.35390242  1
  O  O67  1  0.54014924  0.48741295  0.85390465  1
  O  O68  1  0.48740937  0.85390298  0.54015441  1
  O  O69  1  0.85390008  0.54015635  0.48741653  1
  O  O70  1  0.95982002  0.64609805  0.01261720  1
  O  O71  1  0.64610080  0.01261443  0.95981574  1
  O  O72  1  0.01261928  0.95981824  0.64609873  1
  O  O73  1  0.45982067  0.51261689  0.14609787  1
  O  O74  1  0.51261924  0.14609766  0.45982042  1
  O  O75  1  0.14610106  0.45981633  0.51261292  1
  F  F76  1  0.50000095  0.50000300  0.50000263  1
  F  F77  1  0.00000186  0.00000148  0.00000208  1
