# generated using pymatgen
data_CsVSO6
_symmetry_space_group_name_H-M   'P 1'
_cell_length_a   6.69102616
_cell_length_b   10.87124068
_cell_length_c   17.87611422
_cell_angle_alpha   90.00000000
_cell_angle_beta   90.00000000
_cell_angle_gamma   90.00000000
_symmetry_Int_Tables_number   1
_chemical_formula_structural   CsVSO6
_chemical_formula_sum   'Cs8 V8 S8 O48'
_cell_volume   1300.30418269
_cell_formula_units_Z   8
loop_
 _symmetry_equiv_pos_site_id
 _symmetry_equiv_pos_as_xyz
  1  'x, y, z'
loop_
 _atom_site_type_symbol
 _atom_site_label
 _atom_site_symmetry_multiplicity
 _atom_site_fract_x
 _atom_site_fract_y
 _atom_site_fract_z
 _atom_site_occupancy
  Cs  Cs0  1  0.74955564  0.47879258  0.41084657  1
  Cs  Cs1  1  0.25044436  0.97879258  0.08915343  1
  Cs  Cs2  1  0.24955564  0.47879258  0.08915343  1
  Cs  Cs3  1  0.25044436  0.52120742  0.58915343  1
  Cs  Cs4  1  0.24955564  0.02120742  0.58915343  1
  Cs  Cs5  1  0.75044436  0.97879258  0.41084657  1
  Cs  Cs6  1  0.74955564  0.02120742  0.91084657  1
  Cs  Cs7  1  0.75044436  0.52120742  0.91084657  1
  V  V8  1  0.99451881  0.72419976  0.24824060  1
  V  V9  1  0.49451881  0.72419976  0.25175940  1
  V  V10  1  0.00548119  0.27580024  0.75175940  1
  V  V11  1  0.49451881  0.77580024  0.75175940  1
  V  V12  1  0.50548119  0.22419976  0.24824060  1
  V  V13  1  0.99451881  0.77580024  0.74824060  1
  V  V14  1  0.50548119  0.27580024  0.74824060  1
  V  V15  1  0.00548119  0.22419976  0.25175940  1
  S  S16  1  0.26145529  0.22068602  0.40300952  1
  S  S17  1  0.23854471  0.77931398  0.90300952  1
  S  S18  1  0.73854471  0.77931398  0.59699048  1
  S  S19  1  0.76145529  0.22068602  0.09699048  1
  S  S20  1  0.76145529  0.27931398  0.59699048  1
  S  S21  1  0.73854471  0.72068602  0.09699048  1
  S  S22  1  0.23854471  0.72068602  0.40300952  1
  S  S23  1  0.26145529  0.27931398  0.90300952  1
  O  O24  1  0.42281167  0.73968406  0.85704043  1
  O  O25  1  0.75711850  0.28148191  0.27308370  1
  O  O26  1  0.74288150  0.71851809  0.77308370  1
  O  O27  1  0.23354431  0.70633005  0.97072021  1
  O  O28  1  0.94526477  0.24460320  0.64444596  1
  O  O29  1  0.26645569  0.29366995  0.47072021  1
  O  O30  1  0.25711850  0.21851809  0.72691630  1
  O  O31  1  0.73354431  0.79366995  0.02927979  1
  O  O32  1  0.25728162  0.08769407  0.41394689  1
  O  O33  1  0.73354431  0.70633005  0.52927979  1
  O  O34  1  0.50260300  0.42480535  0.74677498  1
  O  O35  1  0.24288150  0.78148191  0.22691630  1
  O  O36  1  0.92281167  0.73968406  0.64295957  1
  O  O37  1  0.00260300  0.42480535  0.75322502  1
  O  O38  1  0.05473523  0.75539680  0.35555404  1
  O  O39  1  0.50260300  0.07519465  0.24677498  1
  O  O40  1  0.07718833  0.26031594  0.35704043  1
  O  O41  1  0.74271838  0.58769407  0.08605311  1
  O  O42  1  0.24288150  0.71851809  0.72691630  1
  O  O43  1  0.74288150  0.78148191  0.27308370  1
  O  O44  1  0.57718833  0.23968406  0.64295957  1
  O  O45  1  0.00260300  0.07519465  0.25322502  1
  O  O46  1  0.44526477  0.24460320  0.85555404  1
  O  O47  1  0.26645569  0.20633005  0.97072021  1
  O  O48  1  0.07718833  0.23968406  0.85704043  1
  O  O49  1  0.23354431  0.79366995  0.47072021  1
  O  O50  1  0.92281167  0.76031594  0.14295957  1
  O  O51  1  0.75728162  0.41230593  0.58605311  1
  O  O52  1  0.55473523  0.75539680  0.14444596  1
  O  O53  1  0.25728162  0.41230593  0.91394689  1
  O  O54  1  0.76645569  0.20633005  0.52927979  1
  O  O55  1  0.94526477  0.25539680  0.14444596  1
  O  O56  1  0.49739700  0.92480535  0.75322502  1
  O  O57  1  0.74271838  0.91230593  0.58605311  1
  O  O58  1  0.99739700  0.92480535  0.74677498  1
  O  O59  1  0.42281167  0.76031594  0.35704043  1
  O  O60  1  0.99739700  0.57519465  0.24677498  1
  O  O61  1  0.24271838  0.91230593  0.91394689  1
  O  O62  1  0.75728162  0.08769407  0.08605311  1
  O  O63  1  0.44526477  0.25539680  0.35555404  1
  O  O64  1  0.25711850  0.28148191  0.22691630  1
  O  O65  1  0.55473523  0.74460320  0.64444596  1
  O  O66  1  0.05473523  0.74460320  0.85555404  1
  O  O67  1  0.75711850  0.21851809  0.77308370  1
  O  O68  1  0.57718833  0.26031594  0.14295957  1
  O  O69  1  0.76645569  0.29366995  0.02927979  1
  O  O70  1  0.24271838  0.58769407  0.41394689  1
  O  O71  1  0.49739700  0.57519465  0.25322502  1
