# generated using pymatgen
data_Eu2HoTaO6
_symmetry_space_group_name_H-M   'P 1'
_cell_length_a   5.79286990
_cell_length_b   5.90178894
_cell_length_c   8.24847579
_cell_angle_alpha   90.00000000
_cell_angle_beta   89.88152283
_cell_angle_gamma   90.00000000
_symmetry_Int_Tables_number   1
_chemical_formula_structural   Eu2HoTaO6
_chemical_formula_sum   'Eu4 Ho2 Ta2 O12'
_cell_volume   282.00072502
_cell_formula_units_Z   2
loop_
 _symmetry_equiv_pos_site_id
 _symmetry_equiv_pos_as_xyz
  1  'x, y, z'
loop_
 _atom_site_type_symbol
 _atom_site_label
 _atom_site_symmetry_multiplicity
 _atom_site_fract_x
 _atom_site_fract_y
 _atom_site_fract_z
 _atom_site_occupancy
  Eu  Eu0  1  0.51291026  0.45718441  0.24941740  1
  Eu  Eu1  1  0.01291026  0.04281559  0.74941740  1
  Eu  Eu2  1  0.48708974  0.54281559  0.75058260  1
  Eu  Eu3  1  0.98708974  0.95718441  0.25058260  1
  Ho  Ho4  1  -0.00000000  0.50000000  0.50000000  1
  Ho  Ho5  1  0.50000000  0.00000000  -0.00000000  1
  Ta  Ta6  1  -0.00000000  0.50000000  -0.00000000  1
  Ta  Ta7  1  0.50000000  -0.00000000  0.50000000  1
  O  O8  1  0.40726749  0.02816307  0.26455851  1
  O  O9  1  0.90726749  0.47183693  0.76455851  1
  O  O10  1  0.59273251  0.97183693  0.73544149  1
  O  O11  1  0.09273251  0.52816307  0.23544149  1
  O  O12  1  0.22247721  0.80435866  0.54678304  1
  O  O13  1  0.72247721  0.69564134  0.04678304  1
  O  O14  1  0.77752279  0.19564134  0.45321696  1
  O  O15  1  0.27752279  0.30435866  0.95321696  1
  O  O16  1  0.19161628  0.77804264  0.94824067  1
  O  O17  1  0.69161628  0.72195736  0.44824067  1
  O  O18  1  0.80838372  0.22195736  0.05175933  1
  O  O19  1  0.30838372  0.27804264  0.55175933  1
