# generated using pymatgen
data_DyHo3
_symmetry_space_group_name_H-M   'P 1'
_cell_length_a   7.19656883
_cell_length_b   7.19656794
_cell_length_c   5.64891897
_cell_angle_alpha   90.00000000
_cell_angle_beta   90.00000000
_cell_angle_gamma   119.99999860
_symmetry_Int_Tables_number   1
_chemical_formula_structural   DyHo3
_chemical_formula_sum   'Dy2 Ho6'
_cell_volume   253.36516037
_cell_formula_units_Z   2
loop_
 _symmetry_equiv_pos_site_id
 _symmetry_equiv_pos_as_xyz
  1  'x, y, z'
loop_
 _atom_site_type_symbol
 _atom_site_label
 _atom_site_symmetry_multiplicity
 _atom_site_fract_x
 _atom_site_fract_y
 _atom_site_fract_z
 _atom_site_occupancy
  Dy  Dy0  1  0.33333400  0.66666800  0.75000200  1
  Dy  Dy1  1  0.66666500  0.33333200  0.25000100  1
  Ho  Ho2  1  0.16635913  0.33271926  0.25000100  1
  Ho  Ho3  1  0.66728074  0.83364187  0.25000100  1
  Ho  Ho4  1  0.16635913  0.83364187  0.25000100  1
  Ho  Ho5  1  0.83364087  0.66728074  0.75000200  1
  Ho  Ho6  1  0.33271826  0.16635913  0.75000200  1
  Ho  Ho7  1  0.83364087  0.16635913  0.75000200  1
