# generated using pymatgen
data_AcSnPd2
_symmetry_space_group_name_H-M   'P 1'
_cell_length_a   5.09042970
_cell_length_b   5.08871019
_cell_length_c   5.08980468
_cell_angle_alpha   59.99395336
_cell_angle_beta   60.00476574
_cell_angle_gamma   59.99549343
_symmetry_Int_Tables_number   1
_chemical_formula_structural   AcSnPd2
_chemical_formula_sum   'Ac1 Sn1 Pd2'
_cell_volume   93.22433115
_cell_formula_units_Z   1
loop_
 _symmetry_equiv_pos_site_id
 _symmetry_equiv_pos_as_xyz
  1  'x, y, z'
loop_
 _atom_site_type_symbol
 _atom_site_label
 _atom_site_symmetry_multiplicity
 _atom_site_fract_x
 _atom_site_fract_y
 _atom_site_fract_z
 _atom_site_occupancy
  Ac  Ac0  1  0.25000022  0.25000022  0.25000377  1
  Sn  Sn1  1  0.74999798  0.74999869  0.74999814  1
  Pd  Pd2  1  -0.00001850  0.00003523  0.99998885  1
  Pd  Pd3  1  0.50002130  0.49996686  0.50001024  1
