# generated using pymatgen
data_ErLuCu2
_symmetry_space_group_name_H-M   'P 1'
_cell_length_a   4.83247098
_cell_length_b   4.83250376
_cell_length_c   4.83344513
_cell_angle_alpha   59.97983604
_cell_angle_beta   59.97027093
_cell_angle_gamma   59.97030554
_symmetry_Int_Tables_number   1
_chemical_formula_structural   ErLuCu2
_chemical_formula_sum   'Er1 Lu1 Cu2'
_cell_volume   79.76675037
_cell_formula_units_Z   1
loop_
 _symmetry_equiv_pos_site_id
 _symmetry_equiv_pos_as_xyz
  1  'x, y, z'
loop_
 _atom_site_type_symbol
 _atom_site_label
 _atom_site_symmetry_multiplicity
 _atom_site_fract_x
 _atom_site_fract_y
 _atom_site_fract_z
 _atom_site_occupancy
  Er  Er0  1  0.24998995  0.24999432  0.25001495  1
  Lu  Lu1  1  0.74999502  0.74999036  0.75000979  1
  Cu  Cu2  1  0.50049885  0.50051264  0.50047695  1
  Cu  Cu3  1  0.99951418  0.99950068  0.99949631  1
