# generated using pymatgen
data_Er4Ga21Ni10
_symmetry_space_group_name_H-M   'P 1'
_cell_length_a   10.64446038
_cell_length_b   10.64446038
_cell_length_c   15.54388409
_cell_angle_alpha   55.50050961
_cell_angle_beta   124.49949039
_cell_angle_gamma   158.01054850
_symmetry_Int_Tables_number   1
_chemical_formula_structural   Er4Ga21Ni10
_chemical_formula_sum   'Er4 Ga21 Ni10'
_cell_volume   538.60975353
_cell_formula_units_Z   1
loop_
 _symmetry_equiv_pos_site_id
 _symmetry_equiv_pos_as_xyz
  1  'x, y, z'
loop_
 _atom_site_type_symbol
 _atom_site_label
 _atom_site_symmetry_multiplicity
 _atom_site_fract_x
 _atom_site_fract_y
 _atom_site_fract_z
 _atom_site_occupancy
  Er  Er0  1  0.22948178  0.77051722  0.32393446  1
  Er  Er1  1  0.77051822  0.22948078  0.67606654  1
  Er  Er2  1  0.87953160  0.12046740  0.16683697  1
  Er  Er3  1  0.12046740  0.87953160  0.83316403  1
  Ga  Ga4  1  0.60155256  0.39844644  0.49686144  1
  Ga  Ga5  1  0.39844744  0.60155156  0.50313956  1
  Ga  Ga6  1  0.61443372  0.38556528  0.20486405  1
  Ga  Ga7  1  0.38556528  0.61443372  0.79513595  1
  Ga  Ga8  1  0.75184972  0.24814928  0.20615544  1
  Ga  Ga9  1  0.24814928  0.75184972  0.79384556  1
  Ga  Ga10  1  0.99310054  0.00689846  0.40903923  1
  Ga  Ga11  1  0.00689846  0.99310054  0.59096177  1
  Ga  Ga12  1  0.37276283  0.62723617  0.30551521  1
  Ga  Ga13  1  0.62723617  0.37276283  0.69448379  1
  Ga  Ga14  1  0.06423160  0.93576740  0.29467121  1
  Ga  Ga15  1  0.93576840  0.06423060  0.70532879  1
  Ga  Ga16  1  0.45977099  0.54022801  0.13165323  1
  Ga  Ga17  1  0.54022801  0.45977099  0.86834577  1
  Ga  Ga18  1  0.11825161  0.88174739  0.05514656  1
  Ga  Ga19  1  0.88174839  0.11825061  0.94485444  1
  Ga  Ga20  1  0.50000000  0.50000000  0.00000000  1
  Ga  Ga21  1  0.70240269  0.29759631  0.00282254  1
  Ga  Ga22  1  0.29759531  0.70240369  0.99717746  1
  Ga  Ga23  1  0.20050004  0.79949896  0.50196331  1
  Ga  Ga24  1  0.79949896  0.20050004  0.49803769  1
  Ni  Ni25  1  0.02444354  0.97555546  0.10613668  1
  Ni  Ni26  1  0.97555546  0.02444354  0.89386332  1
  Ni  Ni27  1  0.65261660  0.34738240  0.38828271  1
  Ni  Ni28  1  0.34738140  0.65261760  0.61171629  1
  Ni  Ni29  1  0.25114560  0.74885340  0.11549453  1
  Ni  Ni30  1  0.74885340  0.25114560  0.88450547  1
  Ni  Ni31  1  0.86717993  0.13281907  0.39767371  1
  Ni  Ni32  1  0.13281807  0.86718093  0.60232629  1
  Ni  Ni33  1  0.49677600  0.50322300  0.31368787  1
  Ni  Ni34  1  0.50322400  0.49677500  0.68631213  1
