# generated using pymatgen
data_Ho2ReC2
_symmetry_space_group_name_H-M   'P 1'
_cell_length_a   6.55956667
_cell_length_b   5.09909543
_cell_length_c   9.81676370
_cell_angle_alpha   90.00000000
_cell_angle_beta   90.00000000
_cell_angle_gamma   90.00000000
_symmetry_Int_Tables_number   1
_chemical_formula_structural   Ho2ReC2
_chemical_formula_sum   'Ho8 Re4 C8'
_cell_volume   328.34970284
_cell_formula_units_Z   4
loop_
 _symmetry_equiv_pos_site_id
 _symmetry_equiv_pos_as_xyz
  1  'x, y, z'
loop_
 _atom_site_type_symbol
 _atom_site_label
 _atom_site_symmetry_multiplicity
 _atom_site_fract_x
 _atom_site_fract_y
 _atom_site_fract_z
 _atom_site_occupancy
  Ho  Ho0  1  0.46733665  0.25000000  0.78364305  1
  Ho  Ho1  1  0.03266535  0.75000000  0.28364305  1
  Ho  Ho2  1  0.96733565  0.25000000  0.71635695  1
  Ho  Ho3  1  0.53266335  0.75000000  0.21635695  1
  Ho  Ho4  1  0.82084627  0.25000000  0.05640672  1
  Ho  Ho5  1  0.67915473  0.75000000  0.55640672  1
  Ho  Ho6  1  0.32084627  0.25000000  0.44359328  1
  Ho  Ho7  1  0.17915373  0.75000000  0.94359328  1
  Re  Re8  1  0.28013935  0.25000000  0.13293668  1
  Re  Re9  1  0.21986065  0.75000000  0.63293668  1
  Re  Re10  1  0.78013935  0.25000000  0.36706332  1
  Re  Re11  1  0.71985965  0.75000000  0.86706332  1
  C  C12  1  0.17572711  0.25000000  0.94854615  1
  C  C13  1  0.82427389  0.75000000  0.05145385  1
  C  C14  1  0.67572611  0.25000000  0.55145385  1
  C  C15  1  0.32427289  0.75000000  0.44854615  1
  C  C16  1  0.04696331  0.25000000  0.25905063  1
  C  C17  1  0.45303769  0.75000000  0.75905163  1
  C  C18  1  0.54696131  0.25000000  0.24094937  1
  C  C19  1  0.95303769  0.75000000  0.74094937  1
