# generated using pymatgen
data_K
_symmetry_space_group_name_H-M   'P 1'
_cell_length_a   11.43513127
_cell_length_b   11.43513127
_cell_length_c   11.43513127
_cell_angle_alpha   90.00000000
_cell_angle_beta   90.00000000
_cell_angle_gamma   90.00000000
_symmetry_Int_Tables_number   1
_chemical_formula_structural   K
_chemical_formula_sum   K20
_cell_volume   1495.28323276
_cell_formula_units_Z   20
loop_
 _symmetry_equiv_pos_site_id
 _symmetry_equiv_pos_as_xyz
  1  'x, y, z'
loop_
 _atom_site_type_symbol
 _atom_site_label
 _atom_site_symmetry_multiplicity
 _atom_site_fract_x
 _atom_site_fract_y
 _atom_site_fract_z
 _atom_site_occupancy
  K  K0  1  0.87500000  0.70274294  0.04725806  1
  K  K1  1  0.06213321  0.06213321  0.06213321  1
  K  K2  1  0.20274294  0.45274194  0.12500000  1
  K  K3  1  0.81213421  0.31213321  0.18786679  1
  K  K4  1  0.45274194  0.12500000  0.20274294  1
  K  K5  1  0.54725706  0.62500000  0.29725706  1
  K  K6  1  0.18786679  0.81213421  0.31213321  1
  K  K7  1  0.79725806  0.95274194  0.37500000  1
  K  K8  1  0.93786679  0.56213321  0.43786679  1
  K  K9  1  0.12500000  0.20274294  0.45274194  1
  K  K10  1  0.62500000  0.29725706  0.54725706  1
  K  K11  1  0.43786679  0.93786679  0.56213321  1
  K  K12  1  0.29725706  0.54725706  0.62500000  1
  K  K13  1  0.68786679  0.68786679  0.68786679  1
  K  K14  1  0.04725806  0.87500000  0.70274294  1
  K  K15  1  0.95274194  0.37500000  0.79725806  1
  K  K16  1  0.31213321  0.18786679  0.81213421  1
  K  K17  1  0.70274294  0.04725806  0.87500000  1
  K  K18  1  0.56213321  0.43786679  0.93786679  1
  K  K19  1  0.37500000  0.79725806  0.95274194  1
