# generated using pymatgen
data_HoLu3
_symmetry_space_group_name_H-M   'P 1'
_cell_length_a   7.06929746
_cell_length_b   7.06939536
_cell_length_c   5.52314786
_cell_angle_alpha   90.00040692
_cell_angle_beta   90.00533355
_cell_angle_gamma   119.99651893
_symmetry_Int_Tables_number   1
_chemical_formula_structural   HoLu3
_chemical_formula_sum   'Ho2 Lu6'
_cell_volume   239.05127176
_cell_formula_units_Z   2
loop_
 _symmetry_equiv_pos_site_id
 _symmetry_equiv_pos_as_xyz
  1  'x, y, z'
loop_
 _atom_site_type_symbol
 _atom_site_label
 _atom_site_symmetry_multiplicity
 _atom_site_fract_x
 _atom_site_fract_y
 _atom_site_fract_z
 _atom_site_occupancy
  Ho  Ho0  1  0.33333021  0.66662289  0.74992012  1
  Ho  Ho1  1  0.66665652  0.33339116  0.25008300  1
  Lu  Lu2  1  0.16623742  0.33246528  0.24999396  1
  Lu  Lu3  1  0.66749583  0.83372455  0.24993838  1
  Lu  Lu4  1  0.16627038  0.83380045  0.25000051  1
  Lu  Lu5  1  0.83379577  0.66757489  0.74998845  1
  Lu  Lu6  1  0.33244425  0.16622479  0.75002537  1
  Lu  Lu7  1  0.83377061  0.16619697  0.75004621  1
