# generated using pymatgen
data_Ni3Au
_symmetry_space_group_name_H-M   'P 1'
_cell_length_a   5.23849312
_cell_length_b   5.23849306
_cell_length_c   4.25418747
_cell_angle_alpha   90.00000000
_cell_angle_beta   90.00000000
_cell_angle_gamma   120.00000696
_symmetry_Int_Tables_number   1
_chemical_formula_structural   Ni3Au
_chemical_formula_sum   'Ni6 Au2'
_cell_volume   101.10205326
_cell_formula_units_Z   2
loop_
 _symmetry_equiv_pos_site_id
 _symmetry_equiv_pos_as_xyz
  1  'x, y, z'
loop_
 _atom_site_type_symbol
 _atom_site_label
 _atom_site_symmetry_multiplicity
 _atom_site_fract_x
 _atom_site_fract_y
 _atom_site_fract_z
 _atom_site_occupancy
  Ni  Ni0  1  0.15875416  0.31750731  0.25000000  1
  Ni  Ni1  1  0.68249169  0.84124684  0.25000000  1
  Ni  Ni2  1  0.15875316  0.84124684  0.25000000  1
  Ni  Ni3  1  0.84124684  0.68249269  0.74999900  1
  Ni  Ni4  1  0.31750631  0.15875316  0.74999900  1
  Ni  Ni5  1  0.84124584  0.15875316  0.74999900  1
  Au  Au6  1  0.33333400  0.66666700  0.74999900  1
  Au  Au7  1  0.66666600  0.33333100  0.25000000  1
