# generated using pymatgen
data_SmGe3
_symmetry_space_group_name_H-M   'P 1'
_cell_length_a   6.12356835
_cell_length_b   6.12356835
_cell_length_c   5.21606384
_cell_angle_alpha   90.00000000
_cell_angle_beta   90.00000000
_cell_angle_gamma   119.99999465
_symmetry_Int_Tables_number   1
_chemical_formula_structural   SmGe3
_chemical_formula_sum   'Sm2 Ge6'
_cell_volume   169.38802048
_cell_formula_units_Z   2
loop_
 _symmetry_equiv_pos_site_id
 _symmetry_equiv_pos_as_xyz
  1  'x, y, z'
loop_
 _atom_site_type_symbol
 _atom_site_label
 _atom_site_symmetry_multiplicity
 _atom_site_fract_x
 _atom_site_fract_y
 _atom_site_fract_z
 _atom_site_occupancy
  Sm  Sm0  1  0.33333400  0.66666900  0.75000000  1
  Sm  Sm1  1  0.66666600  0.33333300  0.25000100  1
  Ge  Ge2  1  0.14828923  0.29657845  0.25000100  1
  Ge  Ge3  1  0.70342255  0.85171177  0.25000100  1
  Ge  Ge4  1  0.14828923  0.85171177  0.25000100  1
  Ge  Ge5  1  0.85170977  0.70342155  0.75000000  1
  Ge  Ge6  1  0.29657945  0.14829023  0.75000000  1
  Ge  Ge7  1  0.85171177  0.14829023  0.75000000  1
