# generated using pymatgen
data_NdHg3
_symmetry_space_group_name_H-M   'P 1'
_cell_length_a   6.78572213
_cell_length_b   6.78572313
_cell_length_c   5.10823186
_cell_angle_alpha   90.00000000
_cell_angle_beta   90.00000000
_cell_angle_gamma   120.00000032
_symmetry_Int_Tables_number   1
_chemical_formula_structural   NdHg3
_chemical_formula_sum   'Nd2 Hg6'
_cell_volume   203.70113041
_cell_formula_units_Z   2
loop_
 _symmetry_equiv_pos_site_id
 _symmetry_equiv_pos_as_xyz
  1  'x, y, z'
loop_
 _atom_site_type_symbol
 _atom_site_label
 _atom_site_symmetry_multiplicity
 _atom_site_fract_x
 _atom_site_fract_y
 _atom_site_fract_z
 _atom_site_occupancy
  Nd  Nd0  1  0.33333300  0.66666700  0.75000000  1
  Nd  Nd1  1  0.66666800  0.33333300  0.25000000  1
  Hg  Hg2  1  0.83591194  0.16408506  0.75000000  1
  Hg  Hg3  1  0.32817413  0.16408506  0.75000000  1
  Hg  Hg4  1  0.83591294  0.67182587  0.75000000  1
  Hg  Hg5  1  0.16408806  0.83591494  0.25000000  1
  Hg  Hg6  1  0.67182687  0.83591494  0.25000000  1
  Hg  Hg7  1  0.16408706  0.32817413  0.25000000  1
