# generated using pymatgen
data_Rb2Ga2Ge3O10
_symmetry_space_group_name_H-M   'P 1'
_cell_length_a   9.95395696
_cell_length_b   9.95528328
_cell_length_c   9.52974728
_cell_angle_alpha   97.43366219
_cell_angle_beta   96.39335533
_cell_angle_gamma   140.33278212
_symmetry_Int_Tables_number   1
_chemical_formula_structural   Rb2Ga2Ge3O10
_chemical_formula_sum   'Rb4 Ga4 Ge6 O20'
_cell_volume   563.56446051
_cell_formula_units_Z   2
loop_
 _symmetry_equiv_pos_site_id
 _symmetry_equiv_pos_as_xyz
  1  'x, y, z'
loop_
 _atom_site_type_symbol
 _atom_site_label
 _atom_site_symmetry_multiplicity
 _atom_site_fract_x
 _atom_site_fract_y
 _atom_site_fract_z
 _atom_site_occupancy
  Rb  Rb0  1  0.15051264  0.01931787  0.39241082  1
  Rb  Rb1  1  0.62701969  0.75800379  0.60761032  1
  Rb  Rb2  1  0.00738468  0.38563880  0.10943079  1
  Rb  Rb3  1  0.27669890  0.89867086  0.89068761  1
  Ga  Ga4  1  0.56044703  0.02303116  0.29232586  1
  Ga  Ga5  1  0.73110806  0.26859551  0.70761099  1
  Ga  Ga6  1  0.52567003  0.46061899  0.20024123  1
  Ga  Ga7  1  0.26022388  0.32523317  0.79974495  1
  Ge  Ge8  1  0.57761115  0.77075898  0.07837333  1
  Ge  Ge9  1  0.69271927  0.49965812  0.92165240  1
  Ge  Ge10  1  0.26503893  0.76491141  0.50010707  1
  Ge  Ge11  1  0.00829315  0.00843656  0.00004505  1
  Ge  Ge12  1  0.01286622  0.31068051  0.54999759  1
  Ge  Ge13  1  0.76063631  0.46271068  0.44988839  1
  O  O14  1  0.69306876  0.28910737  0.28683323  1
  O  O15  1  0.00264862  0.40664739  0.71299890  1
  O  O16  1  0.74313285  0.05919128  0.42599513  1
  O  O17  1  0.63304022  0.31700294  0.57379207  1
  O  O18  1  0.16977489  0.51633718  0.45730946  1
  O  O19  1  0.05906645  0.71216091  0.54285296  1
  O  O20  1  0.29427939  0.83351341  0.33503120  1
  O  O21  1  0.49900501  0.95971759  0.66506807  1
  O  O22  1  0.50991091  0.89094662  0.10117728  1
  O  O23  1  0.79061656  0.40968748  0.89875238  1
  O  O24  1  0.66202050  0.54636117  0.40249564  1
  O  O25  1  0.14344528  0.25896308  0.59745302  1
  O  O26  1  0.46524876  0.59606613  0.18848265  1
  O  O27  1  0.40768832  0.27681410  0.81153601  1
  O  O28  1  0.74351213  0.58989730  0.11413038  1
  O  O29  1  0.47555677  0.62913217  0.88587583  1
  O  O30  1  0.87738600  0.99384127  0.12500419  1
  O  O31  1  0.86877344  0.75261613  0.87500648  1
  O  O32  1  0.26234604  0.15110307  0.11938421  1
  O  O33  1  0.03166115  0.14303002  0.88069952  1
