# generated using pymatgen
data_Al12Ru
_symmetry_space_group_name_H-M   'P 1'
_cell_length_a   9.49450249
_cell_length_b   9.49450249
_cell_length_c   9.49450249
_cell_angle_alpha   90.00000000
_cell_angle_beta   90.00000000
_cell_angle_gamma   90.00000000
_symmetry_Int_Tables_number   1
_chemical_formula_structural   Al12Ru
_chemical_formula_sum   'Al48 Ru4'
_cell_volume   855.88741035
_cell_formula_units_Z   4
loop_
 _symmetry_equiv_pos_site_id
 _symmetry_equiv_pos_as_xyz
  1  'x, y, z'
loop_
 _atom_site_type_symbol
 _atom_site_label
 _atom_site_symmetry_multiplicity
 _atom_site_fract_x
 _atom_site_fract_y
 _atom_site_fract_z
 _atom_site_occupancy
  Al  Al0  1  0.44658480  0.19714519  0.80285481  1
  Al  Al1  1  0.19714519  0.19714519  0.55341520  1
  Al  Al2  1  0.19714519  0.44658480  0.80285481  1
  Al  Al3  1  0.44658480  0.80285481  0.19714519  1
  Al  Al4  1  0.19714519  0.80285481  0.44658480  1
  Al  Al5  1  0.19714519  0.55341520  0.19714519  1
  Al  Al6  1  0.55341520  0.19714519  0.19714519  1
  Al  Al7  1  0.80285481  0.19714519  0.44658480  1
  Al  Al8  1  0.80285481  0.44658480  0.19714519  1
  Al  Al9  1  0.55341520  0.80285481  0.80285481  1
  Al  Al10  1  0.80285481  0.80285481  0.55341520  1
  Al  Al11  1  0.80285481  0.55341520  0.80285481  1
  Al  Al12  1  0.15305517  0.15305517  0.84694483  1
  Al  Al13  1  0.15305517  0.84694483  0.15305517  1
  Al  Al14  1  0.84694483  0.15305517  0.15305517  1
  Al  Al15  1  0.84694483  0.84694483  0.84694483  1
  Al  Al16  1  0.39895774  0.39895774  0.60104226  1
  Al  Al17  1  0.39895774  0.60104226  0.39895774  1
  Al  Al18  1  0.60104226  0.39895774  0.39895774  1
  Al  Al19  1  0.60104226  0.60104226  0.60104226  1
  Al  Al20  1  0.66982943  0.66982943  0.33017057  1
  Al  Al21  1  0.66982943  0.33017057  0.66982943  1
  Al  Al22  1  0.33017057  0.66982943  0.66982943  1
  Al  Al23  1  0.33017057  0.33017057  0.33017057  1
  Al  Al24  1  -0.00000000  0.00000000  0.35212693  1
  Al  Al25  1  -0.00000000  0.64787307  -0.00000000  1
  Al  Al26  1  0.64787307  0.00000000  -0.00000000  1
  Al  Al27  1  -0.00000000  0.00000000  0.64787307  1
  Al  Al28  1  -0.00000000  0.35212693  -0.00000000  1
  Al  Al29  1  0.35212693  0.00000000  -0.00000000  1
  Al  Al30  1  0.50000000  0.50000000  0.86165569  1
  Al  Al31  1  0.50000000  0.13834431  0.50000000  1
  Al  Al32  1  0.13834431  0.50000000  0.50000000  1
  Al  Al33  1  0.50000000  0.50000000  0.13834431  1
  Al  Al34  1  0.50000000  0.86165569  0.50000000  1
  Al  Al35  1  0.86165569  0.50000000  0.50000000  1
  Al  Al36  1  0.95597814  0.69562182  0.30437818  1
  Al  Al37  1  0.69562182  0.69562182  0.04402186  1
  Al  Al38  1  0.69562182  0.95597814  0.30437818  1
  Al  Al39  1  0.95597814  0.30437818  0.69562182  1
  Al  Al40  1  0.69562182  0.30437818  0.95597814  1
  Al  Al41  1  0.69562182  0.04402186  0.69562182  1
  Al  Al42  1  0.04402186  0.69562182  0.69562182  1
  Al  Al43  1  0.30437818  0.69562182  0.95597814  1
  Al  Al44  1  0.30437818  0.95597814  0.69562182  1
  Al  Al45  1  0.04402186  0.30437818  0.30437818  1
  Al  Al46  1  0.30437818  0.30437818  0.04402186  1
  Al  Al47  1  0.30437818  0.04402186  0.30437818  1
  Ru  Ru48  1  0.88301040  0.88301040  0.11698960  1
  Ru  Ru49  1  0.88301040  0.11698960  0.88301040  1
  Ru  Ru50  1  0.11698960  0.88301040  0.88301040  1
  Ru  Ru51  1  0.11698960  0.11698960  0.11698960  1
