# generated using pymatgen
data_Eu5Sn3H
_symmetry_space_group_name_H-M   'P 1'
_cell_length_a   8.39427134
_cell_length_b   8.39427134
_cell_length_c   9.65630234
_cell_angle_alpha   115.76317862
_cell_angle_beta   115.76317862
_cell_angle_gamma   90.00000000
_symmetry_Int_Tables_number   1
_chemical_formula_structural   Eu5Sn3H
_chemical_formula_sum   'Eu10 Sn6 H2'
_cell_volume   536.69309108
_cell_formula_units_Z   2
loop_
 _symmetry_equiv_pos_site_id
 _symmetry_equiv_pos_as_xyz
  1  'x, y, z'
loop_
 _atom_site_type_symbol
 _atom_site_label
 _atom_site_symmetry_multiplicity
 _atom_site_fract_x
 _atom_site_fract_y
 _atom_site_fract_z
 _atom_site_occupancy
  Eu  Eu0  1  0.50000000  0.50000000  -0.00000000  1
  Eu  Eu1  1  -0.00000000  0.00000000  -0.00000000  1
  Eu  Eu2  1  0.01357479  0.51357479  0.69750306  1
  Eu  Eu3  1  0.68392826  0.18392826  0.69750306  1
  Eu  Eu4  1  0.18392826  0.01357479  0.69750306  1
  Eu  Eu5  1  0.51357479  0.68392826  0.69750306  1
  Eu  Eu6  1  0.98642521  0.48642521  0.30249694  1
  Eu  Eu7  1  0.31607174  0.81607174  0.30249694  1
  Eu  Eu8  1  0.81607174  0.98642521  0.30249694  1
  Eu  Eu9  1  0.48642521  0.31607174  0.30249694  1
  Sn  Sn10  1  0.25000000  0.25000000  0.50000000  1
  Sn  Sn11  1  0.75000000  0.75000000  0.50000000  1
  Sn  Sn12  1  0.37588398  0.87588398  1.00000000  1
  Sn  Sn13  1  0.62411602  0.12411602  0.00000000  1
  Sn  Sn14  1  0.12411602  0.37588398  -0.00000000  1
  Sn  Sn15  1  0.87588398  0.62411602  -0.00000000  1
  H  H16  1  0.75000000  0.25000000  0.50000000  1
  H  H17  1  0.25000000  0.75000000  0.50000000  1
