# generated using pymatgen
data_TaNiP2
_symmetry_space_group_name_H-M   'P 1'
_cell_length_a   3.34778283
_cell_length_b   5.41713709
_cell_length_c   12.15044881
_cell_angle_alpha   90.00000000
_cell_angle_beta   90.00000000
_cell_angle_gamma   90.00000000
_symmetry_Int_Tables_number   1
_chemical_formula_structural   TaNiP2
_chemical_formula_sum   'Ta4 Ni4 P8'
_cell_volume   220.35323158
_cell_formula_units_Z   4
loop_
 _symmetry_equiv_pos_site_id
 _symmetry_equiv_pos_as_xyz
  1  'x, y, z'
loop_
 _atom_site_type_symbol
 _atom_site_label
 _atom_site_symmetry_multiplicity
 _atom_site_fract_x
 _atom_site_fract_y
 _atom_site_fract_z
 _atom_site_occupancy
  Ta  Ta0  1  0.75000000  0.48470409  0.67045300  1
  Ta  Ta1  1  0.75000000  0.98470409  0.82954700  1
  Ta  Ta2  1  0.25000000  0.51529591  0.32954700  1
  Ta  Ta3  1  0.25000000  0.01529591  0.17045300  1
  Ni  Ni4  1  0.75000000  0.47827223  0.91478954  1
  Ni  Ni5  1  0.75000000  0.97827223  0.58521046  1
  Ni  Ni6  1  0.25000000  0.52172777  0.08521046  1
  Ni  Ni7  1  0.25000000  0.02172777  0.41478954  1
  P  P8  1  0.75000000  0.36159017  0.19046783  1
  P  P9  1  0.75000000  0.86159017  0.30953217  1
  P  P10  1  0.25000000  0.63840983  0.80953217  1
  P  P11  1  0.25000000  0.13840983  0.69046783  1
  P  P12  1  0.75000000  0.31001373  0.46437445  1
  P  P13  1  0.75000000  0.81001373  0.03562555  1
  P  P14  1  0.25000000  0.68998627  0.53562555  1
  P  P15  1  0.25000000  0.18998627  0.96437445  1
