# generated using pymatgen
data_Er2Ni7
_symmetry_space_group_name_H-M   'P 1'
_cell_length_a   4.91202450
_cell_length_b   4.91202450
_cell_length_c   12.32794224
_cell_angle_alpha   78.50846052
_cell_angle_beta   78.50846052
_cell_angle_gamma   59.99999845
_symmetry_Int_Tables_number   1
_chemical_formula_structural   Er2Ni7
_chemical_formula_sum   'Er4 Ni14'
_cell_volume   250.68920220
_cell_formula_units_Z   2
loop_
 _symmetry_equiv_pos_site_id
 _symmetry_equiv_pos_as_xyz
  1  'x, y, z'
loop_
 _atom_site_type_symbol
 _atom_site_label
 _atom_site_symmetry_multiplicity
 _atom_site_fract_x
 _atom_site_fract_y
 _atom_site_fract_z
 _atom_site_occupancy
  Er  Er0  1  0.05068806  0.05068806  0.84793582  1
  Er  Er1  1  0.94931194  0.94931194  0.15206418  1
  Er  Er2  1  0.14731109  0.14731109  0.55806674  1
  Er  Er3  1  0.85268891  0.85268891  0.44193326  1
  Ni  Ni4  1  0.50000000  0.50000000  0.50000000  1
  Ni  Ni5  1  0.27816925  0.27816925  0.16549225  1
  Ni  Ni6  1  0.72183075  0.72183075  0.83450775  1
  Ni  Ni7  1  0.38840077  0.38840077  0.83479768  1
  Ni  Ni8  1  0.61159923  0.61159923  0.16520232  1
  Ni  Ni9  1  0.50000000  0.50000000  -0.00000000  1
  Ni  Ni10  1  0.50000000  0.00000000  -0.00000000  1
  Ni  Ni11  1  0.00000000  0.50000000  -0.00000000  1
  Ni  Ni12  1  0.10868072  0.61054968  0.67021992  1
  Ni  Ni13  1  0.61054968  0.61054968  0.67021992  1
  Ni  Ni14  1  0.61054968  0.10868072  0.67021992  1
  Ni  Ni15  1  0.89131928  0.38945032  0.32978008  1
  Ni  Ni16  1  0.38945032  0.38945032  0.32978008  1
  Ni  Ni17  1  0.38945032  0.89131928  0.32978008  1
