# generated using pymatgen
data_La5PPb3
_symmetry_space_group_name_H-M   'P 1'
_cell_length_a   7.32127129
_cell_length_b   9.67021915
_cell_length_c   9.66084570
_cell_angle_alpha   120.03210425
_cell_angle_beta   90.00000000
_cell_angle_gamma   90.00000000
_symmetry_Int_Tables_number   1
_chemical_formula_structural   La5PPb3
_chemical_formula_sum   'La10 P2 Pb6'
_cell_volume   592.14491910
_cell_formula_units_Z   2
loop_
 _symmetry_equiv_pos_site_id
 _symmetry_equiv_pos_as_xyz
  1  'x, y, z'
loop_
 _atom_site_type_symbol
 _atom_site_label
 _atom_site_symmetry_multiplicity
 _atom_site_fract_x
 _atom_site_fract_y
 _atom_site_fract_z
 _atom_site_occupancy
  La  La0  1  0.75001658  0.23616793  1.00000000  1
  La  La1  1  0.75000004  0.76379190  0.76377215  1
  La  La2  1  0.75000004  0.00001975  0.23622785  1
  La  La3  1  0.25001658  0.76383207  0.00000000  1
  La  La4  1  0.25000004  0.23620810  0.23622785  1
  La  La5  1  0.25000004  0.99998025  0.76377215  1
  La  La6  1  0.49999908  0.33330665  0.66668854  1
  La  La7  1  0.49999908  0.66661811  0.33331146  1
  La  La8  1  0.99999908  0.66669335  0.33331146  1
  La  La9  1  0.99999908  0.33338189  0.66668854  1
  P  P10  1  0.49999840  -0.00000007  0.00000000  1
  P  P11  1  -0.00000160  0.00000007  -0.00000000  1
  Pb  Pb12  1  0.74999690  0.59808320  1.00000000  1
  Pb  Pb13  1  0.74999494  0.40198289  0.40199755  1
  Pb  Pb14  1  0.74999494  0.99998534  0.59800245  1
  Pb  Pb15  1  0.24999690  0.40191680  0.00000000  1
  Pb  Pb16  1  0.24999494  0.59801711  0.59800245  1
  Pb  Pb17  1  0.24999494  0.00001466  0.40199755  1
