# generated using pymatgen
data_Dy5Ir3
_symmetry_space_group_name_H-M   'P 1'
_cell_length_a   6.23142260
_cell_length_b   8.32625947
_cell_length_c   8.33009244
_cell_angle_alpha   119.98478068
_cell_angle_beta   90.00000000
_cell_angle_gamma   90.00000000
_symmetry_Int_Tables_number   1
_chemical_formula_structural   Dy5Ir3
_chemical_formula_sum   'Dy10 Ir6'
_cell_volume   374.35546795
_cell_formula_units_Z   2
loop_
 _symmetry_equiv_pos_site_id
 _symmetry_equiv_pos_as_xyz
  1  'x, y, z'
loop_
 _atom_site_type_symbol
 _atom_site_label
 _atom_site_symmetry_multiplicity
 _atom_site_fract_x
 _atom_site_fract_y
 _atom_site_fract_z
 _atom_site_occupancy
  Dy  Dy0  1  0.49999965  0.33332736  0.66668786  1
  Dy  Dy1  1  0.49999965  0.66663950  0.33331214  1
  Dy  Dy2  1  0.99999965  0.66667264  0.33331214  1
  Dy  Dy3  1  0.99999965  0.33336050  0.66668786  1
  Dy  Dy4  1  0.75001425  0.25910300  0.00000000  1
  Dy  Dy5  1  0.74999393  0.74080783  0.74079456  1
  Dy  Dy6  1  0.74999393  0.00001328  0.25920544  1
  Dy  Dy7  1  0.25001425  0.74089700  1.00000000  1
  Dy  Dy8  1  0.24999393  0.25919217  0.25920544  1
  Dy  Dy9  1  0.24999393  -0.00001328  0.74079456  1
  Ir  Ir10  1  0.74999649  0.60948034  0.00000000  1
  Ir  Ir11  1  0.75000104  0.39050271  0.39048712  1
  Ir  Ir12  1  0.75000104  0.00001559  0.60951288  1
  Ir  Ir13  1  0.24999649  0.39051966  1.00000000  1
  Ir  Ir14  1  0.25000104  0.60949729  0.60951288  1
  Ir  Ir15  1  0.25000104  0.99998441  0.39048712  1
