# generated using pymatgen
data_ScCrC2
_symmetry_space_group_name_H-M   'P 1'
_cell_length_a   3.24631988
_cell_length_b   5.66094792
_cell_length_c   9.03725198
_cell_angle_alpha   90.00000000
_cell_angle_beta   90.00000000
_cell_angle_gamma   90.00000000
_symmetry_Int_Tables_number   1
_chemical_formula_structural   ScCrC2
_chemical_formula_sum   'Sc4 Cr4 C8'
_cell_volume   166.07981882
_cell_formula_units_Z   4
loop_
 _symmetry_equiv_pos_site_id
 _symmetry_equiv_pos_as_xyz
  1  'x, y, z'
loop_
 _atom_site_type_symbol
 _atom_site_label
 _atom_site_symmetry_multiplicity
 _atom_site_fract_x
 _atom_site_fract_y
 _atom_site_fract_z
 _atom_site_occupancy
  Sc  Sc0  1  0.25000000  0.74787409  0.49906027  1
  Sc  Sc1  1  0.25000000  0.74787409  0.00093973  1
  Sc  Sc2  1  0.75000000  0.25212591  0.50093973  1
  Sc  Sc3  1  0.75000000  0.25212591  0.99906027  1
  Cr  Cr4  1  0.25000000  0.07811161  0.75000000  1
  Cr  Cr5  1  0.75000000  0.92188839  0.25000000  1
  Cr  Cr6  1  0.25000000  0.40843957  0.25000000  1
  Cr  Cr7  1  0.75000000  0.59156043  0.75000000  1
  C  C8  1  0.25000000  0.41492148  0.83333061  1
  C  C9  1  0.25000000  0.41492148  0.66666939  1
  C  C10  1  0.75000000  0.58507852  0.16666939  1
  C  C11  1  0.75000000  0.58507852  0.33333061  1
  C  C12  1  0.25000000  0.08194654  0.33552741  1
  C  C13  1  0.25000000  0.08194654  0.16447259  1
  C  C14  1  0.75000000  0.91805346  0.66447259  1
  C  C15  1  0.75000000  0.91805346  0.83552741  1
