# generated using pymatgen
data_Lu3Ge3Ru2
_symmetry_space_group_name_H-M   'P 1'
_cell_length_a   4.23296012
_cell_length_b   5.72117757
_cell_length_c   13.73413377
_cell_angle_alpha   90.00000000
_cell_angle_beta   90.00000000
_cell_angle_gamma   111.71177814
_symmetry_Int_Tables_number   1
_chemical_formula_structural   Lu3Ge3Ru2
_chemical_formula_sum   'Lu6 Ge6 Ru4'
_cell_volume   309.01034857
_cell_formula_units_Z   2
loop_
 _symmetry_equiv_pos_site_id
 _symmetry_equiv_pos_as_xyz
  1  'x, y, z'
loop_
 _atom_site_type_symbol
 _atom_site_label
 _atom_site_symmetry_multiplicity
 _atom_site_fract_x
 _atom_site_fract_y
 _atom_site_fract_z
 _atom_site_occupancy
  Lu  Lu0  1  0.07719847  0.15439695  0.38640029  1
  Lu  Lu1  1  0.92280153  0.84560305  0.61359971  1
  Lu  Lu2  1  0.07719847  0.15439695  0.11359971  1
  Lu  Lu3  1  0.92280153  0.84560305  0.88640029  1
  Lu  Lu4  1  0.35354199  0.70708399  0.25000000  1
  Lu  Lu5  1  0.64645801  0.29291601  0.75000000  1
  Ge  Ge6  1  0.38635330  0.77270660  0.45924853  1
  Ge  Ge7  1  0.61364670  0.22729340  0.54075147  1
  Ge  Ge8  1  0.38635330  0.77270660  0.04075147  1
  Ge  Ge9  1  0.61364670  0.22729340  0.95924853  1
  Ge  Ge10  1  0.65955034  0.31910069  0.25000000  1
  Ge  Ge11  1  0.34044966  0.68089931  0.75000000  1
  Ru  Ru12  1  0.21248796  0.42497592  0.91625529  1
  Ru  Ru13  1  0.78751204  0.57502408  0.08374471  1
  Ru  Ru14  1  0.21248796  0.42497592  0.58374471  1
  Ru  Ru15  1  0.78751204  0.57502408  0.41625529  1
