# generated using pymatgen
data_Tm3Ni13B2
_symmetry_space_group_name_H-M   'P 1'
_cell_length_a   4.92048559
_cell_length_b   4.92092121
_cell_length_c   10.93280102
_cell_angle_alpha   90.00226123
_cell_angle_beta   89.99891539
_cell_angle_gamma   120.01643058
_symmetry_Int_Tables_number   1
_chemical_formula_structural   Tm3Ni13B2
_chemical_formula_sum   'Tm3 Ni13 B2'
_cell_volume   229.21578556
_cell_formula_units_Z   1
loop_
 _symmetry_equiv_pos_site_id
 _symmetry_equiv_pos_as_xyz
  1  'x, y, z'
loop_
 _atom_site_type_symbol
 _atom_site_label
 _atom_site_symmetry_multiplicity
 _atom_site_fract_x
 _atom_site_fract_y
 _atom_site_fract_z
 _atom_site_occupancy
  Tm  Tm0  1  0.99998996  0.00000183  0.99996492  1
  Tm  Tm1  1  0.99998037  0.00000119  0.32620242  1
  Tm  Tm2  1  0.00001913  0.99999968  0.67383823  1
  Ni  Ni3  1  0.50000841  0.00002039  0.50001479  1
  Ni  Ni4  1  0.50001025  0.49999026  0.50001595  1
  Ni  Ni5  1  0.99997679  0.49998656  0.50001444  1
  Ni  Ni6  1  0.33333311  0.66674508  0.31977162  1
  Ni  Ni7  1  0.66663033  0.33325281  0.31975588  1
  Ni  Ni8  1  0.66667037  0.33325925  0.68030903  1
  Ni  Ni9  1  0.33336256  0.66673961  0.68026042  1
  Ni  Ni10  1  0.49998646  0.00001274  0.13386510  1
  Ni  Ni11  1  0.49999651  0.49998788  0.13387131  1
  Ni  Ni12  1  0.99996493  0.49998943  0.13387144  1
  Ni  Ni13  1  0.49999869  0.00000616  0.86609547  1
  Ni  Ni14  1  0.49999232  0.49999988  0.86609578  1
  Ni  Ni15  1  0.99999874  0.50000531  0.86609930  1
  B  B16  1  0.33331864  0.66668879  0.99997215  1
  B  B17  1  0.66666243  0.33331314  0.99998176  1
