# generated using pymatgen
data_Sr2DyRuO6
_symmetry_space_group_name_H-M   'P 1'
_cell_length_a   5.84599571
_cell_length_b   5.85389628
_cell_length_c   8.26036337
_cell_angle_alpha   90.00000000
_cell_angle_beta   90.27270900
_cell_angle_gamma   90.00000000
_symmetry_Int_Tables_number   1
_chemical_formula_structural   Sr2DyRuO6
_chemical_formula_sum   'Sr4 Dy2 Ru2 O12'
_cell_volume   282.68173499
_cell_formula_units_Z   2
loop_
 _symmetry_equiv_pos_site_id
 _symmetry_equiv_pos_as_xyz
  1  'x, y, z'
loop_
 _atom_site_type_symbol
 _atom_site_label
 _atom_site_symmetry_multiplicity
 _atom_site_fract_x
 _atom_site_fract_y
 _atom_site_fract_z
 _atom_site_occupancy
  Sr  Sr0  1  0.99421214  0.03161228  0.25137739  1
  Sr  Sr1  1  0.49421214  0.46838772  0.75137739  1
  Sr  Sr2  1  0.00578786  0.96838772  0.74862261  1
  Sr  Sr3  1  0.50578786  0.53161228  0.24862261  1
  Dy  Dy4  1  0.50000000  0.00000000  0.50000000  1
  Dy  Dy5  1  0.00000000  0.50000000  0.00000000  1
  Ru  Ru6  1  0.00000000  0.50000000  0.50000000  1
  Ru  Ru7  1  0.50000000  0.00000000  0.00000000  1
  O  O8  1  0.26872082  0.70072165  0.53897294  1
  O  O9  1  0.76872082  0.79927835  0.03897294  1
  O  O10  1  0.73127918  0.29927835  0.46102706  1
  O  O11  1  0.23127918  0.20072165  0.96102706  1
  O  O12  1  0.19711000  0.22761740  0.53934706  1
  O  O13  1  0.69711000  0.27238260  0.03934706  1
  O  O14  1  0.80289000  0.77238260  0.46065294  1
  O  O15  1  0.30289000  0.72761740  0.96065294  1
  O  O16  1  0.07440229  0.48217131  0.26571945  1
  O  O17  1  0.57440229  0.01782869  0.76571945  1
  O  O18  1  0.92559771  0.51782869  0.73428055  1
  O  O19  1  0.42559771  0.98217131  0.23428055  1
