# generated using pymatgen
data_YAgSe2
_symmetry_space_group_name_H-M   'P 1'
_cell_length_a   4.28659861
_cell_length_b   6.85578190
_cell_length_c   13.86607355
_cell_angle_alpha   90.00000000
_cell_angle_beta   90.00000000
_cell_angle_gamma   90.00000000
_symmetry_Int_Tables_number   1
_chemical_formula_structural   YAgSe2
_chemical_formula_sum   'Y4 Ag4 Se8'
_cell_volume   407.49596376
_cell_formula_units_Z   4
loop_
 _symmetry_equiv_pos_site_id
 _symmetry_equiv_pos_as_xyz
  1  'x, y, z'
loop_
 _atom_site_type_symbol
 _atom_site_label
 _atom_site_symmetry_multiplicity
 _atom_site_fract_x
 _atom_site_fract_y
 _atom_site_fract_z
 _atom_site_occupancy
  Y  Y0  1  0.27116590  0.70889142  0.62804607  1
  Y  Y1  1  0.77116590  0.79110858  0.37195393  1
  Y  Y2  1  0.72883410  0.20889142  0.87195393  1
  Y  Y3  1  0.22883410  0.29110858  0.12804607  1
  Ag  Ag4  1  0.49795540  0.70439729  0.87581759  1
  Ag  Ag5  1  0.99795540  0.79560271  0.12418241  1
  Ag  Ag6  1  0.50204460  0.20439729  0.62418241  1
  Ag  Ag7  1  0.00204460  0.29560271  0.37581759  1
  Se  Se8  1  0.76957289  0.91092944  0.72688410  1
  Se  Se9  1  0.26957289  0.58907056  0.27311590  1
  Se  Se10  1  0.23042711  0.41092944  0.77311590  1
  Se  Se11  1  0.73042711  0.08907056  0.22688410  1
  Se  Se12  1  0.76544335  0.51177727  0.52706722  1
  Se  Se13  1  0.26544335  0.98822273  0.47293278  1
  Se  Se14  1  0.23455665  0.01177727  0.97293278  1
  Se  Se15  1  0.73455665  0.48822273  0.02706722  1
