# generated using pymatgen
data_Ho5BiAu2
_symmetry_space_group_name_H-M   'P 1'
_cell_length_a   8.14717540
_cell_length_b   8.14717540
_cell_length_c   8.69635598
_cell_angle_alpha   117.93208316
_cell_angle_beta   117.93208316
_cell_angle_gamma   90.00000000
_symmetry_Int_Tables_number   1
_chemical_formula_structural   Ho5BiAu2
_chemical_formula_sum   'Ho10 Bi2 Au4'
_cell_volume   432.40782423
_cell_formula_units_Z   2
loop_
 _symmetry_equiv_pos_site_id
 _symmetry_equiv_pos_as_xyz
  1  'x, y, z'
loop_
 _atom_site_type_symbol
 _atom_site_label
 _atom_site_symmetry_multiplicity
 _atom_site_fract_x
 _atom_site_fract_y
 _atom_site_fract_z
 _atom_site_occupancy
  Ho  Ho0  1  0.50000000  0.50000000  -0.00000000  1
  Ho  Ho1  1  -0.00000000  -0.00000000  -0.00000000  1
  Ho  Ho2  1  0.98527677  0.79491059  0.28018736  1
  Ho  Ho3  1  0.29491059  0.48527677  0.28018736  1
  Ho  Ho4  1  0.79491059  0.29491059  0.28018736  1
  Ho  Ho5  1  0.48527677  0.98527677  0.28018736  1
  Ho  Ho6  1  0.01472323  0.20508941  0.71981264  1
  Ho  Ho7  1  0.70508941  0.51472323  0.71981264  1
  Ho  Ho8  1  0.20508941  0.70508941  0.71981264  1
  Ho  Ho9  1  0.51472323  0.01472323  0.71981264  1
  Bi  Bi10  1  0.75000000  0.75000000  0.50000000  1
  Bi  Bi11  1  0.25000000  0.25000000  0.50000000  1
  Au  Au12  1  0.36213429  0.13786571  -0.00000000  1
  Au  Au13  1  0.63786571  0.86213429  -0.00000000  1
  Au  Au14  1  0.13786571  0.63786571  0.00000000  1
  Au  Au15  1  0.86213429  0.36213429  1.00000000  1
