# generated using pymatgen
data_Li2CdGeS4
_symmetry_space_group_name_H-M   'P 1'
_cell_length_a   6.46486433
_cell_length_b   6.90565445
_cell_length_c   7.85241481
_cell_angle_alpha   90.00000000
_cell_angle_beta   90.00000000
_cell_angle_gamma   90.00000000
_symmetry_Int_Tables_number   1
_chemical_formula_structural   Li2CdGeS4
_chemical_formula_sum   'Li4 Cd2 Ge2 S8'
_cell_volume   350.56414223
_cell_formula_units_Z   2
loop_
 _symmetry_equiv_pos_site_id
 _symmetry_equiv_pos_as_xyz
  1  'x, y, z'
loop_
 _atom_site_type_symbol
 _atom_site_label
 _atom_site_symmetry_multiplicity
 _atom_site_fract_x
 _atom_site_fract_y
 _atom_site_fract_z
 _atom_site_occupancy
  Li  Li0  1  0.62419704  0.66937236  0.74548374  1
  Li  Li1  1  0.62419704  0.66937236  0.25451626  1
  Li  Li2  1  0.12419704  0.33062764  0.75451626  1
  Li  Li3  1  0.12419704  0.33062764  0.24548374  1
  Cd  Cd4  1  0.12769198  0.85225959  0.50000000  1
  Cd  Cd5  1  0.62769198  0.14774041  0.00000000  1
  Ge  Ge6  1  0.12460803  0.82575573  0.00000000  1
  Ge  Ge7  1  0.62460803  0.17424427  0.50000000  1
  S  S8  1  0.72676768  0.86428943  0.50000000  1
  S  S9  1  0.22676768  0.13571057  0.00000000  1
  S  S10  1  0.24662077  0.66683931  0.77132828  1
  S  S11  1  0.24662077  0.66683931  0.22867172  1
  S  S12  1  0.74662077  0.33316069  0.72867172  1
  S  S13  1  0.74662077  0.33316069  0.27132828  1
  S  S14  1  0.77816670  0.80495761  0.00000000  1
  S  S15  1  0.27816670  0.19504239  0.50000000  1
