# generated using pymatgen
data_MgHOF
_symmetry_space_group_name_H-M   'P 1'
_cell_length_a   3.12726836
_cell_length_b   4.72566454
_cell_length_c   10.21859062
_cell_angle_alpha   90.00000000
_cell_angle_beta   90.00000000
_cell_angle_gamma   90.00000000
_symmetry_Int_Tables_number   1
_chemical_formula_structural   MgHOF
_chemical_formula_sum   'Mg4 H4 O4 F4'
_cell_volume   151.01463621
_cell_formula_units_Z   4
loop_
 _symmetry_equiv_pos_site_id
 _symmetry_equiv_pos_as_xyz
  1  'x, y, z'
loop_
 _atom_site_type_symbol
 _atom_site_label
 _atom_site_symmetry_multiplicity
 _atom_site_fract_x
 _atom_site_fract_y
 _atom_site_fract_z
 _atom_site_occupancy
  Mg  Mg0  1  0.75000000  0.98860954  0.63183151  1
  Mg  Mg1  1  0.75000000  0.51139046  0.13183151  1
  Mg  Mg2  1  0.25000000  0.01139046  0.36816849  1
  Mg  Mg3  1  0.25000000  0.48860954  0.86816849  1
  H  H4  1  0.75000000  0.58852232  0.42908341  1
  H  H5  1  0.75000000  0.91147768  0.92908341  1
  H  H6  1  0.25000000  0.41147768  0.57091659  1
  H  H7  1  0.25000000  0.08852232  0.07091659  1
  O  O8  1  0.75000000  0.71140954  0.95036925  1
  O  O9  1  0.75000000  0.78859046  0.45036925  1
  O  O10  1  0.25000000  0.28859046  0.04963075  1
  O  O11  1  0.25000000  0.21140954  0.54963075  1
  F  F12  1  0.25000000  0.74828446  0.70705759  1
  F  F13  1  0.25000000  0.75171554  0.20705759  1
  F  F14  1  0.75000000  0.25171554  0.29294241  1
  F  F15  1  0.75000000  0.24828446  0.79294241  1
