# generated using pymatgen
data_Ho3GaS6
_symmetry_space_group_name_H-M   'P 1'
_cell_length_a   6.46153590
_cell_length_b   8.51617687
_cell_length_c   8.51617687
_cell_angle_alpha   102.50357565
_cell_angle_beta   90.00000000
_cell_angle_gamma   90.00000000
_symmetry_Int_Tables_number   1
_chemical_formula_structural   Ho3GaS6
_chemical_formula_sum   'Ho6 Ga2 S12'
_cell_volume   457.51002010
_cell_formula_units_Z   2
loop_
 _symmetry_equiv_pos_site_id
 _symmetry_equiv_pos_as_xyz
  1  'x, y, z'
loop_
 _atom_site_type_symbol
 _atom_site_label
 _atom_site_symmetry_multiplicity
 _atom_site_fract_x
 _atom_site_fract_y
 _atom_site_fract_z
 _atom_site_occupancy
  Ho  Ho0  1  0.27712379  0.91505530  0.71525020  1
  Ho  Ho1  1  0.27712379  0.28474980  0.08494470  1
  Ho  Ho2  1  0.77712379  0.08494470  0.28474980  1
  Ho  Ho3  1  0.77712379  0.71525020  0.91505530  1
  Ho  Ho4  1  0.35667385  0.40163205  0.59836795  1
  Ho  Ho5  1  0.85667385  0.59836795  0.40163205  1
  Ga  Ga6  1  0.73959329  0.20173063  0.79826937  1
  Ga  Ga7  1  0.23959329  0.79826937  0.20173063  1
  S  S8  1  0.05707770  0.89831872  0.43348197  1
  S  S9  1  0.05707770  0.56651803  0.10168128  1
  S  S10  1  0.55707770  0.10168128  0.56651803  1
  S  S11  1  0.55707770  0.43348197  0.89831872  1
  S  S12  1  0.06700528  0.31074750  0.36430396  1
  S  S13  1  0.06700528  0.63569604  0.68925250  1
  S  S14  1  0.56700528  0.68925250  0.63569604  1
  S  S15  1  0.56700528  0.36430396  0.31074750  1
  S  S16  1  0.09158473  0.21764272  0.78235728  1
  S  S17  1  0.59158473  0.78235728  0.21764272  1
  S  S18  1  0.09473458  0.95950572  0.04049428  1
  S  S19  1  0.59473458  0.04049428  0.95950572  1
