# generated using pymatgen
data_Mg2CrB2Ir5
_symmetry_space_group_name_H-M   'P 1'
_cell_length_a   2.90846926
_cell_length_b   9.51560812
_cell_length_c   9.51560812
_cell_angle_alpha   90.00000000
_cell_angle_beta   90.00000000
_cell_angle_gamma   90.00000000
_symmetry_Int_Tables_number   1
_chemical_formula_structural   Mg2CrB2Ir5
_chemical_formula_sum   'Mg4 Cr2 B4 Ir10'
_cell_volume   263.35257826
_cell_formula_units_Z   2
loop_
 _symmetry_equiv_pos_site_id
 _symmetry_equiv_pos_as_xyz
  1  'x, y, z'
loop_
 _atom_site_type_symbol
 _atom_site_label
 _atom_site_symmetry_multiplicity
 _atom_site_fract_x
 _atom_site_fract_y
 _atom_site_fract_z
 _atom_site_occupancy
  Mg  Mg0  1  -0.00000000  0.32464998  0.82464998  1
  Mg  Mg1  1  0.00000000  0.67535002  0.17535002  1
  Mg  Mg2  1  0.00000000  0.17535002  0.32464998  1
  Mg  Mg3  1  -0.00000000  0.82464998  0.67535002  1
  Cr  Cr4  1  0.00000000  0.50000000  0.50000000  1
  Cr  Cr5  1  0.00000000  0.00000000  -0.00000000  1
  B  B6  1  -0.00000000  0.12520482  0.62520482  1
  B  B7  1  0.00000000  0.87479518  0.37479518  1
  B  B8  1  0.00000000  0.37479518  0.12520482  1
  B  B9  1  -0.00000000  0.62520482  0.87479518  1
  Ir  Ir10  1  0.50000000  0.00000000  0.50000000  1
  Ir  Ir11  1  0.50000000  0.50000000  -0.00000000  1
  Ir  Ir12  1  0.50000000  0.57292447  0.71327991  1
  Ir  Ir13  1  0.50000000  0.42707553  0.28672009  1
  Ir  Ir14  1  0.50000000  0.92707553  0.21327991  1
  Ir  Ir15  1  0.50000000  0.07292447  0.78672009  1
  Ir  Ir16  1  0.50000000  0.71327991  0.42707553  1
  Ir  Ir17  1  0.50000000  0.28672009  0.57292447  1
  Ir  Ir18  1  0.50000000  0.21327991  0.07292447  1
  Ir  Ir19  1  0.50000000  0.78672009  0.92707553  1
