# generated using pymatgen
data_Pr(BIr)4
_symmetry_space_group_name_H-M   'P 1'
_cell_length_a   3.98818848
_cell_length_b   7.72200170
_cell_length_c   7.72200170
_cell_angle_alpha   90.00000000
_cell_angle_beta   90.00000000
_cell_angle_gamma   90.00000000
_symmetry_Int_Tables_number   1
_chemical_formula_structural   Pr(BIr)4
_chemical_formula_sum   'Pr2 B8 Ir8'
_cell_volume   237.81292823
_cell_formula_units_Z   2
loop_
 _symmetry_equiv_pos_site_id
 _symmetry_equiv_pos_as_xyz
  1  'x, y, z'
loop_
 _atom_site_type_symbol
 _atom_site_label
 _atom_site_symmetry_multiplicity
 _atom_site_fract_x
 _atom_site_fract_y
 _atom_site_fract_z
 _atom_site_occupancy
  Pr  Pr0  1  0.25000000  0.25000000  0.25000000  1
  Pr  Pr1  1  0.75000000  0.75000000  0.75000000  1
  B  B2  1  0.35786546  0.90852291  0.02950547  1
  B  B3  1  0.35786546  0.59147709  0.47049453  1
  B  B4  1  0.85786546  0.52950547  0.09147709  1
  B  B5  1  0.85786546  0.97049453  0.40852291  1
  B  B6  1  0.64213454  0.09147709  0.97049453  1
  B  B7  1  0.64213454  0.40852291  0.52950547  1
  B  B8  1  0.14213454  0.47049453  0.90852291  1
  B  B9  1  0.14213454  0.02950547  0.59147709  1
  Ir  Ir10  1  0.14173483  0.40896000  0.64076448  1
  Ir  Ir11  1  0.14173483  0.09104000  0.85923552  1
  Ir  Ir12  1  0.64173483  0.14076448  0.59104000  1
  Ir  Ir13  1  0.64173483  0.35923552  0.90896000  1
  Ir  Ir14  1  0.85826517  0.59104000  0.35923552  1
  Ir  Ir15  1  0.85826517  0.90896000  0.14076448  1
  Ir  Ir16  1  0.35826517  0.85923552  0.40896000  1
  Ir  Ir17  1  0.35826517  0.64076448  0.09104000  1
