# generated using pymatgen
data_Eu(BOs)4
_symmetry_space_group_name_H-M   'P 1'
_cell_length_a   4.03560575
_cell_length_b   7.58663813
_cell_length_c   7.58663813
_cell_angle_alpha   90.00000000
_cell_angle_beta   90.00000000
_cell_angle_gamma   90.00000000
_symmetry_Int_Tables_number   1
_chemical_formula_structural   Eu(BOs)4
_chemical_formula_sum   'Eu2 B8 Os8'
_cell_volume   232.27767540
_cell_formula_units_Z   2
loop_
 _symmetry_equiv_pos_site_id
 _symmetry_equiv_pos_as_xyz
  1  'x, y, z'
loop_
 _atom_site_type_symbol
 _atom_site_label
 _atom_site_symmetry_multiplicity
 _atom_site_fract_x
 _atom_site_fract_y
 _atom_site_fract_z
 _atom_site_occupancy
  Eu  Eu0  1  0.25000000  0.25000000  0.25000000  1
  Eu  Eu1  1  0.75000000  0.75000000  0.75000000  1
  B  B2  1  0.36323235  0.91648867  0.03738556  1
  B  B3  1  0.36323235  0.58351133  0.46261444  1
  B  B4  1  0.86323235  0.53738556  0.08351133  1
  B  B5  1  0.86323235  0.96261444  0.41648867  1
  B  B6  1  0.63676765  0.08351133  0.96261444  1
  B  B7  1  0.63676765  0.41648867  0.53738556  1
  B  B8  1  0.13676765  0.46261444  0.91648867  1
  B  B9  1  0.13676765  0.03738556  0.58351133  1
  Os  Os10  1  0.13493507  0.39426060  0.64052132  1
  Os  Os11  1  0.13493507  0.10573940  0.85947868  1
  Os  Os12  1  0.63493507  0.14052132  0.60573940  1
  Os  Os13  1  0.63493507  0.35947868  0.89426060  1
  Os  Os14  1  0.86506493  0.60573940  0.35947868  1
  Os  Os15  1  0.86506493  0.89426060  0.14052132  1
  Os  Os16  1  0.36506493  0.85947868  0.39426060  1
  Os  Os17  1  0.36506493  0.64052132  0.10573940  1
