# generated using pymatgen
data_Tm5Sn3
_symmetry_space_group_name_H-M   'P 1'
_cell_length_a   6.46267765
_cell_length_b   8.83716641
_cell_length_c   8.83990130
_cell_angle_alpha   119.98976476
_cell_angle_beta   90.00000000
_cell_angle_gamma   90.00000000
_symmetry_Int_Tables_number   1
_chemical_formula_structural   Tm5Sn3
_chemical_formula_sum   'Tm10 Sn6'
_cell_volume   437.26866661
_cell_formula_units_Z   2
loop_
 _symmetry_equiv_pos_site_id
 _symmetry_equiv_pos_as_xyz
  1  'x, y, z'
loop_
 _atom_site_type_symbol
 _atom_site_label
 _atom_site_symmetry_multiplicity
 _atom_site_fract_x
 _atom_site_fract_y
 _atom_site_fract_z
 _atom_site_occupancy
  Tm  Tm0  1  0.50000010  0.33336803  0.66676085  1
  Tm  Tm1  1  0.50000010  0.66660718  0.33323915  1
  Tm  Tm2  1  0.00000010  0.66663197  0.33323915  1
  Tm  Tm3  1  0.00000010  0.33339282  0.66676085  1
  Tm  Tm4  1  0.75000329  0.23934034  0.00000000  1
  Tm  Tm5  1  0.74999802  0.76057864  0.76066305  1
  Tm  Tm6  1  0.74999802  0.99991559  0.23933695  1
  Tm  Tm7  1  0.25000329  0.76065966  1.00000000  1
  Tm  Tm8  1  0.24999802  0.23942136  0.23933695  1
  Tm  Tm9  1  0.24999802  0.00008441  0.76066305  1
  Sn  Sn10  1  0.74999669  0.60530497  1.00000000  1
  Sn  Sn11  1  0.75000188  0.39459576  0.39456023  1
  Sn  Sn12  1  0.75000188  0.00003553  0.60543977  1
  Sn  Sn13  1  0.24999669  0.39469503  0.00000000  1
  Sn  Sn14  1  0.25000188  0.60540424  0.60543977  1
  Sn  Sn15  1  0.25000188  0.99996447  0.39456023  1
