# generated using pymatgen
data_Ta2Be17
_symmetry_space_group_name_H-M   'P 1'
_cell_length_a   5.55553073
_cell_length_b   5.55553073
_cell_length_c   5.55553117
_cell_angle_alpha   82.88538966
_cell_angle_beta   82.88538966
_cell_angle_gamma   82.88539183
_symmetry_Int_Tables_number   1
_chemical_formula_structural   Ta2Be17
_chemical_formula_sum   'Ta2 Be17'
_cell_volume   167.80681140
_cell_formula_units_Z   1
loop_
 _symmetry_equiv_pos_site_id
 _symmetry_equiv_pos_as_xyz
  1  'x, y, z'
loop_
 _atom_site_type_symbol
 _atom_site_label
 _atom_site_symmetry_multiplicity
 _atom_site_fract_x
 _atom_site_fract_y
 _atom_site_fract_z
 _atom_site_occupancy
  Ta  Ta0  1  0.84050731  0.84050731  0.84050731  1
  Ta  Ta1  1  0.15949269  0.15949269  0.15949269  1
  Be  Be2  1  0.59916552  0.59916552  0.59916552  1
  Be  Be3  1  0.40083448  0.40083448  0.40083448  1
  Be  Be4  1  0.50000000  0.50000000  -0.00000000  1
  Be  Be5  1  0.50000000  0.00000000  0.50000000  1
  Be  Be6  1  -0.00000000  0.50000000  0.50000000  1
  Be  Be7  1  0.50000000  0.20468240  0.79531760  1
  Be  Be8  1  0.20468240  0.79531760  0.50000000  1
  Be  Be9  1  0.79531760  0.50000000  0.20468240  1
  Be  Be10  1  0.50000000  0.79531760  0.20468240  1
  Be  Be11  1  0.79531760  0.20468240  0.50000000  1
  Be  Be12  1  0.20468240  0.50000000  0.79531760  1
  Be  Be13  1  0.33793310  0.84654891  0.84654891  1
  Be  Be14  1  0.84654891  0.84654891  0.33793310  1
  Be  Be15  1  0.84654891  0.33793310  0.84654891  1
  Be  Be16  1  0.66206690  0.15345109  0.15345109  1
  Be  Be17  1  0.15345109  0.15345109  0.66206690  1
  Be  Be18  1  0.15345109  0.66206690  0.15345109  1
