# generated using pymatgen
data_Zr5GaPb3
_symmetry_space_group_name_H-M   'P 1'
_cell_length_a   5.99549077
_cell_length_b   8.83275316
_cell_length_c   8.83854809
_cell_angle_alpha   119.97831903
_cell_angle_beta   90.00000000
_cell_angle_gamma   90.00000000
_symmetry_Int_Tables_number   1
_chemical_formula_structural   Zr5GaPb3
_chemical_formula_sum   'Zr10 Ga2 Pb6'
_cell_volume   405.44059745
_cell_formula_units_Z   2
loop_
 _symmetry_equiv_pos_site_id
 _symmetry_equiv_pos_as_xyz
  1  'x, y, z'
loop_
 _atom_site_type_symbol
 _atom_site_label
 _atom_site_symmetry_multiplicity
 _atom_site_fract_x
 _atom_site_fract_y
 _atom_site_fract_z
 _atom_site_occupancy
  Zr  Zr0  1  0.50024817  0.33334180  0.66656034  1
  Zr  Zr1  1  0.50024817  0.66678146  0.33343966  1
  Zr  Zr2  1  0.00024817  0.66665820  0.33343966  1
  Zr  Zr3  1  0.00024817  0.33321854  0.66656034  1
  Zr  Zr4  1  0.74968708  0.26226838  1.00000000  1
  Zr  Zr5  1  0.74987606  0.73776073  0.73782601  1
  Zr  Zr6  1  0.74987606  0.99993472  0.26217399  1
  Zr  Zr7  1  0.24968708  0.73773162  0.00000000  1
  Zr  Zr8  1  0.24987606  0.26223927  0.26217399  1
  Zr  Zr9  1  0.24987606  0.00006528  0.73782601  1
  Ga  Ga10  1  0.50000744  0.99989297  1.00000000  1
  Ga  Ga11  1  0.00000744  0.00010703  0.00000000  1
  Pb  Pb12  1  0.75011059  0.61256403  1.00000000  1
  Pb  Pb13  1  0.74997322  0.38709687  0.38707896  1
  Pb  Pb14  1  0.74997322  0.00001791  0.61292104  1
  Pb  Pb15  1  0.25011059  0.38743597  0.00000000  1
  Pb  Pb16  1  0.24997322  0.61290313  0.61292104  1
  Pb  Pb17  1  0.24997322  0.99998209  0.38707896  1
