# generated using pymatgen
data_Y3GaS6
_symmetry_space_group_name_H-M   'P 1'
_cell_length_a   6.49132758
_cell_length_b   8.56234119
_cell_length_c   8.56234119
_cell_angle_alpha   102.39601463
_cell_angle_beta   90.00000000
_cell_angle_gamma   90.00000000
_symmetry_Int_Tables_number   1
_chemical_formula_structural   Y3GaS6
_chemical_formula_sum   'Y6 Ga2 S12'
_cell_volume   464.80852723
_cell_formula_units_Z   2
loop_
 _symmetry_equiv_pos_site_id
 _symmetry_equiv_pos_as_xyz
  1  'x, y, z'
loop_
 _atom_site_type_symbol
 _atom_site_label
 _atom_site_symmetry_multiplicity
 _atom_site_fract_x
 _atom_site_fract_y
 _atom_site_fract_z
 _atom_site_occupancy
  Y  Y0  1  0.27565931  0.91471460  0.71580748  1
  Y  Y1  1  0.27565931  0.28419252  0.08528540  1
  Y  Y2  1  0.77565931  0.08528540  0.28419252  1
  Y  Y3  1  0.77565931  0.71580748  0.91471460  1
  Y  Y4  1  0.35886309  0.40088068  0.59911932  1
  Y  Y5  1  0.85886309  0.59911932  0.40088068  1
  Ga  Ga6  1  0.73850529  0.20136025  0.79863975  1
  Ga  Ga7  1  0.23850529  0.79863975  0.20136025  1
  S  S8  1  0.05897977  0.89887004  0.43225168  1
  S  S9  1  0.05897977  0.56774832  0.10112996  1
  S  S10  1  0.55897977  0.10112996  0.56774832  1
  S  S11  1  0.55897977  0.43225168  0.89887004  1
  S  S12  1  0.06652540  0.31018949  0.36585995  1
  S  S13  1  0.06652540  0.63414005  0.68981051  1
  S  S14  1  0.56652540  0.68981051  0.63414005  1
  S  S15  1  0.56652540  0.36585995  0.31018949  1
  S  S16  1  0.08964887  0.21770217  0.78229783  1
  S  S17  1  0.58964887  0.78229783  0.21770217  1
  S  S18  1  0.09565379  0.95966192  0.04033808  1
  S  S19  1  0.59565379  0.04033808  0.95966192  1
