# generated using pymatgen
data_Si5Ir4
_symmetry_space_group_name_H-M   'P 1'
_cell_length_a   3.65278657
_cell_length_b   5.94335285
_cell_length_c   12.45142502
_cell_angle_alpha   100.03415033
_cell_angle_beta   90.00000000
_cell_angle_gamma   90.00000000
_symmetry_Int_Tables_number   1
_chemical_formula_structural   Si5Ir4
_chemical_formula_sum   'Si10 Ir8'
_cell_volume   266.18317830
_cell_formula_units_Z   2
loop_
 _symmetry_equiv_pos_site_id
 _symmetry_equiv_pos_as_xyz
  1  'x, y, z'
loop_
 _atom_site_type_symbol
 _atom_site_label
 _atom_site_symmetry_multiplicity
 _atom_site_fract_x
 _atom_site_fract_y
 _atom_site_fract_z
 _atom_site_occupancy
  Si  Si0  1  0.25000000  0.64283812  0.63708043  1
  Si  Si1  1  0.75000000  0.35716188  0.36291957  1
  Si  Si2  1  0.25000000  0.89046176  0.42415300  1
  Si  Si3  1  0.75000000  0.10953824  0.57584700  1
  Si  Si4  1  0.25000000  0.47220197  0.22462215  1
  Si  Si5  1  0.75000000  0.52779803  0.77537785  1
  Si  Si6  1  0.75000000  0.97829735  0.14098959  1
  Si  Si7  1  0.25000000  0.02170265  0.85901041  1
  Si  Si8  1  0.25000000  0.49130692  0.92161299  1
  Si  Si9  1  0.75000000  0.50869308  0.07838701  1
  Ir  Ir10  1  0.25000000  0.21876586  0.04926817  1
  Ir  Ir11  1  0.75000000  0.78123414  0.95073183  1
  Ir  Ir12  1  0.25000000  0.10745962  0.27365693  1
  Ir  Ir13  1  0.75000000  0.89254038  0.72634307  1
  Ir  Ir14  1  0.25000000  0.30017905  0.50153780  1
  Ir  Ir15  1  0.75000000  0.69982095  0.49846220  1
  Ir  Ir16  1  0.25000000  0.28983516  0.73121334  1
  Ir  Ir17  1  0.75000000  0.71016484  0.26878666  1
