# generated using pymatgen
data_NaCa2IO6
_symmetry_space_group_name_H-M   'P 1'
_cell_length_a   5.59378347
_cell_length_b   5.85326549
_cell_length_c   8.07552959
_cell_angle_alpha   90.00000000
_cell_angle_beta   90.68570981
_cell_angle_gamma   90.00000000
_symmetry_Int_Tables_number   1
_chemical_formula_structural   NaCa2IO6
_chemical_formula_sum   'Na2 Ca4 I2 O12'
_cell_volume   264.38924501
_cell_formula_units_Z   2
loop_
 _symmetry_equiv_pos_site_id
 _symmetry_equiv_pos_as_xyz
  1  'x, y, z'
loop_
 _atom_site_type_symbol
 _atom_site_label
 _atom_site_symmetry_multiplicity
 _atom_site_fract_x
 _atom_site_fract_y
 _atom_site_fract_z
 _atom_site_occupancy
  Na  Na0  1  0.50000000  0.50000000  0.00000000  1
  Na  Na1  1  -0.00000000  0.00000000  0.50000000  1
  Ca  Ca2  1  0.48295303  0.94386175  0.75660554  1
  Ca  Ca3  1  0.01704697  0.44386175  0.74339446  1
  Ca  Ca4  1  0.51704697  0.05613825  0.24339446  1
  Ca  Ca5  1  0.98295303  0.55613825  0.25660554  1
  I  I6  1  0.50000000  0.50000000  0.50000000  1
  I  I7  1  -0.00000000  0.00000000  0.00000000  1
  O  O8  1  0.33597551  0.23203388  0.57401291  1
  O  O9  1  0.16402449  0.73203388  0.92598709  1
  O  O10  1  0.66402449  0.76796612  0.42598709  1
  O  O11  1  0.83597551  0.26796612  0.07401291  1
  O  O12  1  0.61444227  0.55878137  0.71906596  1
  O  O13  1  0.88555773  0.05878137  0.78093404  1
  O  O14  1  0.38555773  0.44121863  0.28093404  1
  O  O15  1  0.11444227  0.94121863  0.21906596  1
  O  O16  1  0.22308962  0.67546973  0.54673322  1
  O  O17  1  0.27691038  0.17546973  0.95326678  1
  O  O18  1  0.77691038  0.32453027  0.45326678  1
  O  O19  1  0.72308962  0.82453027  0.04673322  1
