# generated using pymatgen
data_Nd5CuBi3
_symmetry_space_group_name_H-M   'P 1'
_cell_length_a   6.59580650
_cell_length_b   9.61984120
_cell_length_c   9.61556918
_cell_angle_alpha   120.01469479
_cell_angle_beta   90.00000000
_cell_angle_gamma   90.00000000
_symmetry_Int_Tables_number   1
_chemical_formula_structural   Nd5CuBi3
_chemical_formula_sum   'Nd10 Cu2 Bi6'
_cell_volume   528.29574243
_cell_formula_units_Z   2
loop_
 _symmetry_equiv_pos_site_id
 _symmetry_equiv_pos_as_xyz
  1  'x, y, z'
loop_
 _atom_site_type_symbol
 _atom_site_label
 _atom_site_symmetry_multiplicity
 _atom_site_fract_x
 _atom_site_fract_y
 _atom_site_fract_z
 _atom_site_occupancy
  Nd  Nd0  1  0.50000074  0.33331996  0.66667683  1
  Nd  Nd1  1  0.50000074  0.66664313  0.33332317  1
  Nd  Nd2  1  0.00000074  0.66668004  0.33332317  1
  Nd  Nd3  1  0.00000074  0.33335687  0.66667683  1
  Nd  Nd4  1  0.74999971  0.25824444  1.00000000  1
  Nd  Nd5  1  0.74999791  0.74178982  0.74178173  1
  Nd  Nd6  1  0.74999791  0.00000809  0.25821827  1
  Nd  Nd7  1  0.24999971  0.74175556  0.00000000  1
  Nd  Nd8  1  0.24999791  0.25821018  0.25821827  1
  Nd  Nd9  1  0.24999791  0.99999191  0.74178173  1
  Cu  Cu10  1  0.50000092  0.99999787  -0.00000000  1
  Cu  Cu11  1  0.00000092  0.00000213  0.00000000  1
  Bi  Bi12  1  0.74999690  0.61446978  0.00000000  1
  Bi  Bi13  1  0.75000260  0.38552996  0.38554336  1
  Bi  Bi14  1  0.75000260  0.99998659  0.61445664  1
  Bi  Bi15  1  0.24999690  0.38553022  1.00000000  1
  Bi  Bi16  1  0.25000260  0.61447004  0.61445664  1
  Bi  Bi17  1  0.25000260  0.00001341  0.38554336  1
