# generated using pymatgen
data_Nd(LuS2)3
_symmetry_space_group_name_H-M   'P 1'
_cell_length_a   3.93436613
_cell_length_b   11.18301650
_cell_length_c   10.98481281
_cell_angle_alpha   109.05263949
_cell_angle_beta   90.00000000
_cell_angle_gamma   90.00000000
_symmetry_Int_Tables_number   1
_chemical_formula_structural   Nd(LuS2)3
_chemical_formula_sum   'Nd2 Lu6 S12'
_cell_volume   456.83447721
_cell_formula_units_Z   2
loop_
 _symmetry_equiv_pos_site_id
 _symmetry_equiv_pos_as_xyz
  1  'x, y, z'
loop_
 _atom_site_type_symbol
 _atom_site_label
 _atom_site_symmetry_multiplicity
 _atom_site_fract_x
 _atom_site_fract_y
 _atom_site_fract_z
 _atom_site_occupancy
  Nd  Nd0  1  0.25000000  0.19547846  0.55036779  1
  Nd  Nd1  1  0.75000000  0.80452154  0.44963221  1
  Lu  Lu2  1  0.25000000  0.00013761  0.17953476  1
  Lu  Lu3  1  0.75000000  -0.00013761  0.82046524  1
  Lu  Lu4  1  0.25000000  0.33401001  0.94323406  1
  Lu  Lu5  1  0.75000000  0.66598999  0.05676594  1
  Lu  Lu6  1  0.25000000  0.58681383  0.66075366  1
  Lu  Lu7  1  0.75000000  0.41318617  0.33924634  1
  S  S8  1  0.25000000  0.11186536  0.97824010  1
  S  S9  1  0.75000000  0.88813464  0.02175990  1
  S  S10  1  0.25000000  0.25122488  0.30262587  1
  S  S11  1  0.75000000  0.74877512  0.69737413  1
  S  S12  1  0.25000000  0.55764344  0.89257862  1
  S  S13  1  0.75000000  0.44235656  0.10742138  1
  S  S14  1  0.25000000  0.59330246  0.41936690  1
  S  S15  1  0.75000000  0.40669754  0.58063310  1
  S  S16  1  0.25000000  0.76996448  0.23127063  1
  S  S17  1  0.75000000  0.23003552  0.76872937  1
  S  S18  1  0.25000000  0.96380151  0.62002153  1
  S  S19  1  0.75000000  0.03619849  0.37997847  1
