# generated using pymatgen
data_YGePd
_symmetry_space_group_name_H-M   'P 1'
_cell_length_a   4.41542708
_cell_length_b   7.65707080
_cell_length_c   11.47045301
_cell_angle_alpha   109.49798377
_cell_angle_beta   101.09694018
_cell_angle_gamma   90.00000000
_symmetry_Int_Tables_number   1
_chemical_formula_structural   YGePd
_chemical_formula_sum   'Y6 Ge6 Pd6'
_cell_volume   357.86660866
_cell_formula_units_Z   6
loop_
 _symmetry_equiv_pos_site_id
 _symmetry_equiv_pos_as_xyz
  1  'x, y, z'
loop_
 _atom_site_type_symbol
 _atom_site_label
 _atom_site_symmetry_multiplicity
 _atom_site_fract_x
 _atom_site_fract_y
 _atom_site_fract_z
 _atom_site_occupancy
  Y  Y0  1  -0.00000000  0.46606240  -0.00000000  1
  Y  Y1  1  0.33351745  0.79795838  0.66703489  1
  Y  Y2  1  0.66648255  0.13092349  0.33296511  1
  Y  Y3  1  0.50000000  0.04834712  0.00000000  1
  Y  Y4  1  0.16734578  0.71019735  0.33469156  1
  Y  Y5  1  0.83265422  0.37550578  0.66530844  1
  Ge  Ge6  1  0.06503064  0.91109564  0.13006127  1
  Ge  Ge7  1  0.93496936  0.78103437  0.86993873  1
  Ge  Ge8  1  0.23474814  0.39677758  0.46949629  1
  Ge  Ge9  1  0.76525186  0.92728129  0.53050371  1
  Ge  Ge10  1  0.40612106  0.25053101  0.81224212  1
  Ge  Ge11  1  0.59387894  0.43828888  0.18775788  1
  Pd  Pd12  1  0.10416471  0.27803634  0.20832941  1
  Pd  Pd13  1  0.89583529  0.06970693  0.79167059  1
  Pd  Pd14  1  0.26708582  0.10007144  0.53417164  1
  Pd  Pd15  1  0.73291418  0.56589980  0.46582836  1
  Pd  Pd16  1  0.42807475  0.60486585  0.85614951  1
  Pd  Pd17  1  0.57192525  0.74871634  0.14385049  1
