# generated using pymatgen
data_PrAlPd2
_symmetry_space_group_name_H-M   'P 1'
_cell_length_a   5.92371212
_cell_length_b   7.09761060
_cell_length_c   7.60544510
_cell_angle_alpha   90.00000000
_cell_angle_beta   90.00000000
_cell_angle_gamma   90.00000000
_symmetry_Int_Tables_number   1
_chemical_formula_structural   PrAlPd2
_chemical_formula_sum   'Pr4 Al4 Pd8'
_cell_volume   319.76486958
_cell_formula_units_Z   4
loop_
 _symmetry_equiv_pos_site_id
 _symmetry_equiv_pos_as_xyz
  1  'x, y, z'
loop_
 _atom_site_type_symbol
 _atom_site_label
 _atom_site_symmetry_multiplicity
 _atom_site_fract_x
 _atom_site_fract_y
 _atom_site_fract_z
 _atom_site_occupancy
  Pr  Pr0  1  0.15343516  0.75000000  0.46794468  1
  Pr  Pr1  1  0.34656484  0.75000000  0.96794468  1
  Pr  Pr2  1  0.84656484  0.25000000  0.53205532  1
  Pr  Pr3  1  0.65343516  0.25000000  0.03205532  1
  Al  Al4  1  0.84663786  0.75000000  0.11876164  1
  Al  Al5  1  0.65336214  0.75000000  0.61876164  1
  Al  Al6  1  0.15336214  0.25000000  0.88123836  1
  Al  Al7  1  0.34663786  0.25000000  0.38123836  1
  Pd  Pd8  1  0.58785050  0.94664696  0.32359057  1
  Pd  Pd9  1  0.91214950  0.55335304  0.82359057  1
  Pd  Pd10  1  0.41214950  0.44664696  0.67640943  1
  Pd  Pd11  1  0.08785050  0.05335304  0.17640943  1
  Pd  Pd12  1  0.41214950  0.05335304  0.67640943  1
  Pd  Pd13  1  0.08785050  0.44664696  0.17640943  1
  Pd  Pd14  1  0.58785050  0.55335304  0.32359057  1
  Pd  Pd15  1  0.91214950  0.94664696  0.82359057  1
