# generated using pymatgen
data_Zr5ZnSn3
_symmetry_space_group_name_H-M   'P 1'
_cell_length_a   5.90465587
_cell_length_b   8.72182722
_cell_length_c   8.72113511
_cell_angle_alpha   120.00262094
_cell_angle_beta   90.00000000
_cell_angle_gamma   90.00000000
_symmetry_Int_Tables_number   1
_chemical_formula_structural   Zr5ZnSn3
_chemical_formula_sum   'Zr10 Zn2 Sn6'
_cell_volume   388.95042168
_cell_formula_units_Z   2
loop_
 _symmetry_equiv_pos_site_id
 _symmetry_equiv_pos_as_xyz
  1  'x, y, z'
loop_
 _atom_site_type_symbol
 _atom_site_label
 _atom_site_symmetry_multiplicity
 _atom_site_fract_x
 _atom_site_fract_y
 _atom_site_fract_z
 _atom_site_occupancy
  Zr  Zr0  1  0.50000027  0.33331947  0.66666868  1
  Zr  Zr1  1  0.50000027  0.66665079  0.33333132  1
  Zr  Zr2  1  0.00000027  0.66668053  0.33333132  1
  Zr  Zr3  1  0.00000027  0.33334921  0.66666868  1
  Zr  Zr4  1  0.74999454  0.26859518  0.00000000  1
  Zr  Zr5  1  0.75000304  0.73139683  0.73138628  1
  Zr  Zr6  1  0.75000304  0.00001055  0.26861372  1
  Zr  Zr7  1  0.24999454  0.73140482  1.00000000  1
  Zr  Zr8  1  0.25000304  0.26860317  0.26861372  1
  Zr  Zr9  1  0.25000304  0.99998945  0.73138628  1
  Zn  Zn10  1  0.49999907  0.99999779  -0.00000000  1
  Zn  Zn11  1  0.99999907  0.00000221  0.00000000  1
  Sn  Sn12  1  0.74999514  0.61601468  1.00000000  1
  Sn  Sn13  1  0.75000231  0.38398852  0.38399627  1
  Sn  Sn14  1  0.75000231  0.99999225  0.61600373  1
  Sn  Sn15  1  0.24999514  0.38398532  0.00000000  1
  Sn  Sn16  1  0.25000231  0.61601148  0.61600373  1
  Sn  Sn17  1  0.25000231  0.00000775  0.38399627  1
