# generated using pymatgen
data_DyB2Ru
_symmetry_space_group_name_H-M   'P 1'
_cell_length_a   5.33574441
_cell_length_b   5.91799146
_cell_length_c   6.36608101
_cell_angle_alpha   90.00000000
_cell_angle_beta   90.00000000
_cell_angle_gamma   90.00000000
_symmetry_Int_Tables_number   1
_chemical_formula_structural   DyB2Ru
_chemical_formula_sum   'Dy4 B8 Ru4'
_cell_volume   201.02103884
_cell_formula_units_Z   4
loop_
 _symmetry_equiv_pos_site_id
 _symmetry_equiv_pos_as_xyz
  1  'x, y, z'
loop_
 _atom_site_type_symbol
 _atom_site_label
 _atom_site_symmetry_multiplicity
 _atom_site_fract_x
 _atom_site_fract_y
 _atom_site_fract_z
 _atom_site_occupancy
  Dy  Dy0  1  0.75000000  0.48975855  0.16265601  1
  Dy  Dy1  1  0.75000000  0.98975855  0.33734399  1
  Dy  Dy2  1  0.25000000  0.51024145  0.83734399  1
  Dy  Dy3  1  0.25000000  0.01024145  0.66265601  1
  B  B4  1  0.91563050  0.13047470  0.96138984  1
  B  B5  1  0.58436950  0.63047470  0.53861016  1
  B  B6  1  0.41563050  0.86952530  0.03861016  1
  B  B7  1  0.08436950  0.36952530  0.46138984  1
  B  B8  1  0.08436950  0.86952530  0.03861016  1
  B  B9  1  0.41563050  0.36952530  0.46138984  1
  B  B10  1  0.58436950  0.13047470  0.96138984  1
  B  B11  1  0.91563050  0.63047470  0.53861016  1
  Ru  Ru12  1  0.75000000  0.31817075  0.68177781  1
  Ru  Ru13  1  0.75000000  0.81817075  0.81822219  1
  Ru  Ru14  1  0.25000000  0.68182925  0.31822219  1
  Ru  Ru15  1  0.25000000  0.18182925  0.18177781  1
