# generated using pymatgen
data_Cd4BiB3O10
_symmetry_space_group_name_H-M   'P 1'
_cell_length_a   3.56694036
_cell_length_b   8.12875711
_cell_length_c   8.99139255
_cell_angle_alpha   63.12600349
_cell_angle_beta   85.36945186
_cell_angle_gamma   79.71205196
_symmetry_Int_Tables_number   1
_chemical_formula_structural   Cd4BiB3O10
_chemical_formula_sum   'Cd4 Bi1 B3 O10'
_cell_volume   228.80952817
_cell_formula_units_Z   1
loop_
 _symmetry_equiv_pos_site_id
 _symmetry_equiv_pos_as_xyz
  1  'x, y, z'
loop_
 _atom_site_type_symbol
 _atom_site_label
 _atom_site_symmetry_multiplicity
 _atom_site_fract_x
 _atom_site_fract_y
 _atom_site_fract_z
 _atom_site_occupancy
  Cd  Cd0  1  0.16745363  0.96823643  0.23023419  1
  Cd  Cd1  1  0.16745363  0.19847062  0.76976581  1
  Cd  Cd2  1  0.84981220  0.52818548  0.35672786  1
  Cd  Cd3  1  0.84981220  0.88491334  0.64327214  1
  Bi  Bi4  1  0.50015559  0.43952478  0.00000000  1
  B  B5  1  0.41777841  0.58673342  0.60125477  1
  B  B6  1  0.41777841  0.18798820  0.39874523  1
  B  B7  1  0.78781002  0.82087546  0.00000000  1
  O  O8  1  0.41512536  0.37943626  0.29423451  1
  O  O9  1  0.41512536  0.67367077  0.70576549  1
  O  O10  1  0.21542111  0.67612784  0.45417555  1
  O  O11  1  0.21542111  0.13030339  0.54582445  1
  O  O12  1  0.61399458  0.05593110  0.35192217  1
  O  O13  1  0.61399458  0.40785327  0.64807783  1
  O  O14  1  0.73476140  0.82942445  0.15092468  1
  O  O15  1  0.73476140  0.98034912  0.84907532  1
  O  O16  1  0.89789550  0.64838326  1.00000000  1
  O  O17  1  0.07854551  0.25480281  0.00000000  1
