# generated using pymatgen
data_Yb2CuTe2(SO7)2
_symmetry_space_group_name_H-M   'P 1'
_cell_length_a   5.35168131
_cell_length_b   8.24567066
_cell_length_c   8.38385199
_cell_angle_alpha   115.93966493
_cell_angle_beta   106.05652692
_cell_angle_gamma   95.08006597
_symmetry_Int_Tables_number   1
_chemical_formula_structural   Yb2CuTe2(SO7)2
_chemical_formula_sum   'Yb2 Cu1 Te2 S2 O14'
_cell_volume   310.17345811
_cell_formula_units_Z   1
loop_
 _symmetry_equiv_pos_site_id
 _symmetry_equiv_pos_as_xyz
  1  'x, y, z'
loop_
 _atom_site_type_symbol
 _atom_site_label
 _atom_site_symmetry_multiplicity
 _atom_site_fract_x
 _atom_site_fract_y
 _atom_site_fract_z
 _atom_site_occupancy
  Yb  Yb0  1  0.16616654  0.23187125  0.52731336  1
  Yb  Yb1  1  0.83383346  0.76812875  0.47268664  1
  Cu  Cu2  1  0.50000000  0.50000000  0.00000000  1
  Te  Te3  1  0.11309621  0.76250444  0.13700028  1
  Te  Te4  1  0.88690379  0.23749556  0.86299972  1
  S  S5  1  0.58614416  0.26889738  0.26705311  1
  S  S6  1  0.41385584  0.73110262  0.73294689  1
  O  O7  1  0.38114546  0.17498314  0.30732434  1
  O  O8  1  0.61885454  0.82501686  0.69267566  1
  O  O9  1  0.30343506  0.53390751  0.58742388  1
  O  O10  1  0.69656494  0.46609249  0.41257612  1
  O  O11  1  0.80815830  0.17329234  0.26095269  1
  O  O12  1  0.19184170  0.82670766  0.73904731  1
  O  O13  1  0.45319412  0.25693491  0.07705172  1
  O  O14  1  0.54680588  0.74306509  0.92294828  1
  O  O15  1  0.86878688  0.56847787  0.13916548  1
  O  O16  1  0.13121312  0.43152213  0.86083452  1
  O  O17  1  0.43188416  0.67743052  0.21034033  1
  O  O18  1  0.56811584  0.32256948  0.78965967  1
  O  O19  1  0.13901551  0.91401120  0.38594739  1
  O  O20  1  0.86098449  0.08598880  0.61405261  1
