# generated using pymatgen
data_Na2TeS3
_symmetry_space_group_name_H-M   'P 1'
_cell_length_a   5.85926923
_cell_length_b   8.51985442
_cell_length_c   12.36641662
_cell_angle_alpha   90.00000000
_cell_angle_beta   90.00000000
_cell_angle_gamma   92.12440552
_symmetry_Int_Tables_number   1
_chemical_formula_structural   Na2TeS3
_chemical_formula_sum   'Na8 Te4 S12'
_cell_volume   616.90871605
_cell_formula_units_Z   4
loop_
 _symmetry_equiv_pos_site_id
 _symmetry_equiv_pos_as_xyz
  1  'x, y, z'
loop_
 _atom_site_type_symbol
 _atom_site_label
 _atom_site_symmetry_multiplicity
 _atom_site_fract_x
 _atom_site_fract_y
 _atom_site_fract_z
 _atom_site_occupancy
  Na  Na0  1  0.26005031  0.37566632  0.26020296  1
  Na  Na1  1  0.73994969  0.12433368  0.76020296  1
  Na  Na2  1  0.73994969  0.62433368  0.73979704  1
  Na  Na3  1  0.26005031  0.87566632  0.23979704  1
  Na  Na4  1  0.75414254  0.13577366  0.41665007  1
  Na  Na5  1  0.24585746  0.36422634  0.91665007  1
  Na  Na6  1  0.24585746  0.86422634  0.58334993  1
  Na  Na7  1  0.75414254  0.63577366  0.08334993  1
  Te  Te8  1  0.29167443  0.31509502  0.58800236  1
  Te  Te9  1  0.70832557  0.18490498  0.08800236  1
  Te  Te10  1  0.70832557  0.68490498  0.41199764  1
  Te  Te11  1  0.29167443  0.81509502  0.91199764  1
  S  S12  1  0.69477538  0.36098644  0.59308075  1
  S  S13  1  0.30522462  0.13901356  0.09308075  1
  S  S14  1  0.30522462  0.63901356  0.40691925  1
  S  S15  1  0.69477538  0.86098644  0.90691925  1
  S  S16  1  0.23877367  0.13161876  0.73357647  1
  S  S17  1  0.76122633  0.36838124  0.23357647  1
  S  S18  1  0.76122633  0.86838124  0.26642353  1
  S  S19  1  0.23877367  0.63161876  0.76642353  1
  S  S20  1  0.25176400  0.14701501  0.43568701  1
  S  S21  1  0.74823600  0.35298499  0.93568701  1
  S  S22  1  0.74823600  0.85298499  0.56431299  1
  S  S23  1  0.25176400  0.64701501  0.06431299  1
