# generated using pymatgen
data_CsHf2Br9
_symmetry_space_group_name_H-M   'P 1'
_cell_length_a   7.09412509
_cell_length_b   10.40261349
_cell_length_c   13.32919939
_cell_angle_alpha   111.40428564
_cell_angle_beta   90.00000000
_cell_angle_gamma   90.00000000
_symmetry_Int_Tables_number   1
_chemical_formula_structural   CsHf2Br9
_chemical_formula_sum   'Cs2 Hf4 Br18'
_cell_volume   915.81626952
_cell_formula_units_Z   2
loop_
 _symmetry_equiv_pos_site_id
 _symmetry_equiv_pos_as_xyz
  1  'x, y, z'
loop_
 _atom_site_type_symbol
 _atom_site_label
 _atom_site_symmetry_multiplicity
 _atom_site_fract_x
 _atom_site_fract_y
 _atom_site_fract_z
 _atom_site_occupancy
  Cs  Cs0  1  0.40749592  0.75000000  0.25000000  1
  Cs  Cs1  1  0.59250408  0.25000000  0.75000000  1
  Hf  Hf2  1  0.74588942  0.30689246  0.13338984  1
  Hf  Hf3  1  0.25411058  0.69310754  0.86661016  1
  Hf  Hf4  1  0.74588942  0.19310754  0.36661016  1
  Hf  Hf5  1  0.25411058  0.80689246  0.63338984  1
  Br  Br6  1  0.89871258  0.16297449  0.95847888  1
  Br  Br7  1  0.10128742  0.83702551  0.04152112  1
  Br  Br8  1  0.89871258  0.33702551  0.54152112  1
  Br  Br9  1  0.10128742  0.66297449  0.45847888  1
  Br  Br10  1  0.89158922  0.53801601  0.15445640  1
  Br  Br11  1  0.10841078  0.46198399  0.84554360  1
  Br  Br12  1  0.89158922  0.96198399  0.34554360  1
  Br  Br13  1  0.10841078  0.03801601  0.65445640  1
  Br  Br14  1  0.03108101  0.25000000  0.25000000  1
  Br  Br15  1  0.96891899  0.75000000  0.75000000  1
  Br  Br16  1  0.59820819  0.07629406  0.15989674  1
  Br  Br17  1  0.40179181  0.92370594  0.84010326  1
  Br  Br18  1  0.59820819  0.42370594  0.34010326  1
  Br  Br19  1  0.40179181  0.57629406  0.65989674  1
  Br  Br20  1  0.43269966  0.34837341  0.05749999  1
  Br  Br21  1  0.56730034  0.65162659  0.94250001  1
  Br  Br22  1  0.43269966  0.15162659  0.44250001  1
  Br  Br23  1  0.56730034  0.84837341  0.55749999  1
