# generated using pymatgen
data_Yb3Sn5
_symmetry_space_group_name_H-M   'P 1'
_cell_length_a   6.54106435
_cell_length_b   6.54106435
_cell_length_c   10.51026726
_cell_angle_alpha   90.00000000
_cell_angle_beta   90.00000000
_cell_angle_gamma   101.76470155
_symmetry_Int_Tables_number   1
_chemical_formula_structural   Yb3Sn5
_chemical_formula_sum   'Yb6 Sn10'
_cell_volume   440.24078288
_cell_formula_units_Z   2
loop_
 _symmetry_equiv_pos_site_id
 _symmetry_equiv_pos_as_xyz
  1  'x, y, z'
loop_
 _atom_site_type_symbol
 _atom_site_label
 _atom_site_symmetry_multiplicity
 _atom_site_fract_x
 _atom_site_fract_y
 _atom_site_fract_z
 _atom_site_occupancy
  Yb  Yb0  1  0.12386108  0.12386108  0.25000000  1
  Yb  Yb1  1  0.87613892  0.87613892  0.75000000  1
  Yb  Yb2  1  0.70599225  0.29400775  0.50000000  1
  Yb  Yb3  1  0.70599225  0.29400775  0.00000000  1
  Yb  Yb4  1  0.29400775  0.70599225  0.50000000  1
  Yb  Yb5  1  0.29400775  0.70599225  -0.00000000  1
  Sn  Sn6  1  0.57099580  0.99823694  0.25000000  1
  Sn  Sn7  1  0.00176306  0.42900420  0.75000000  1
  Sn  Sn8  1  0.42900420  0.00176306  0.75000000  1
  Sn  Sn9  1  0.99823694  0.57099580  0.25000000  1
  Sn  Sn10  1  0.80487207  0.80487207  0.04487988  1
  Sn  Sn11  1  0.19512793  0.19512793  0.95512012  1
  Sn  Sn12  1  0.80487207  0.80487207  0.45512012  1
  Sn  Sn13  1  0.19512793  0.19512793  0.54487988  1
  Sn  Sn14  1  0.51832410  0.51832410  0.25000000  1
  Sn  Sn15  1  0.48167590  0.48167590  0.75000000  1
