# generated using pymatgen
data_HoB4Os
_symmetry_space_group_name_H-M   'P 1'
_cell_length_a   3.56446777
_cell_length_b   5.96245568
_cell_length_c   11.53036826
_cell_angle_alpha   90.00000000
_cell_angle_beta   90.00000000
_cell_angle_gamma   90.00000000
_symmetry_Int_Tables_number   1
_chemical_formula_structural   HoB4Os
_chemical_formula_sum   'Ho4 B16 Os4'
_cell_volume   245.05469872
_cell_formula_units_Z   4
loop_
 _symmetry_equiv_pos_site_id
 _symmetry_equiv_pos_as_xyz
  1  'x, y, z'
loop_
 _atom_site_type_symbol
 _atom_site_label
 _atom_site_symmetry_multiplicity
 _atom_site_fract_x
 _atom_site_fract_y
 _atom_site_fract_z
 _atom_site_occupancy
  Ho  Ho0  1  -0.00000000  0.62810920  0.34974360  1
  Ho  Ho1  1  0.00000000  0.37189080  0.65025640  1
  Ho  Ho2  1  -0.00000000  0.12810920  0.15025640  1
  Ho  Ho3  1  0.00000000  0.87189080  0.84974360  1
  B  B4  1  0.50000000  0.78905303  0.18594159  1
  B  B5  1  0.50000000  0.21094697  0.81405841  1
  B  B6  1  0.50000000  0.28905303  0.31405841  1
  B  B7  1  0.50000000  0.71094697  0.68594159  1
  B  B8  1  0.50000000  0.86402788  0.02999614  1
  B  B9  1  0.50000000  0.13597212  0.97000386  1
  B  B10  1  0.50000000  0.36402788  0.47000386  1
  B  B11  1  0.50000000  0.63597212  0.52999614  1
  B  B12  1  0.50000000  0.88719545  0.45320597  1
  B  B13  1  0.50000000  0.11280455  0.54679403  1
  B  B14  1  0.50000000  0.38719545  0.04679403  1
  B  B15  1  0.50000000  0.61280455  0.95320597  1
  B  B16  1  0.50000000  0.97469314  0.30854819  1
  B  B17  1  0.50000000  0.02530686  0.69145181  1
  B  B18  1  0.50000000  0.47469314  0.19145181  1
  B  B19  1  0.50000000  0.52530686  0.80854819  1
  Os  Os20  1  0.00000000  0.64134338  0.09350881  1
  Os  Os21  1  -0.00000000  0.35865662  0.90649119  1
  Os  Os22  1  0.00000000  0.14134338  0.40649119  1
  Os  Os23  1  0.00000000  0.85865662  0.59350881  1
