# generated using pymatgen
data_Ce2(ReB2)3
_symmetry_space_group_name_H-M   'P 1'
_cell_length_a   6.28672224
_cell_length_b   6.28672224
_cell_length_c   7.52225618
_cell_angle_alpha   90.60045249
_cell_angle_beta   90.60045249
_cell_angle_gamma   114.57331960
_symmetry_Int_Tables_number   1
_chemical_formula_structural   Ce2(ReB2)3
_chemical_formula_sum   'Ce4 Re6 B12'
_cell_volume   270.32375161
_cell_formula_units_Z   2
loop_
 _symmetry_equiv_pos_site_id
 _symmetry_equiv_pos_as_xyz
  1  'x, y, z'
loop_
 _atom_site_type_symbol
 _atom_site_label
 _atom_site_symmetry_multiplicity
 _atom_site_fract_x
 _atom_site_fract_y
 _atom_site_fract_z
 _atom_site_occupancy
  Ce  Ce0  1  0.09521947  0.44507715  0.33054387  1
  Ce  Ce1  1  0.55492285  0.90478053  0.16945613  1
  Ce  Ce2  1  0.90478053  0.55492285  0.66945613  1
  Ce  Ce3  1  0.44507715  0.09521947  0.83054387  1
  Re  Re4  1  0.58932445  0.41067555  0.25000000  1
  Re  Re5  1  0.41067555  0.58932445  0.75000000  1
  Re  Re6  1  0.99020248  0.80676132  0.08741906  1
  Re  Re7  1  0.19323868  0.00979752  0.41258094  1
  Re  Re8  1  0.00979752  0.19323868  0.91258094  1
  Re  Re9  1  0.80676132  0.99020248  0.58741906  1
  B  B10  1  0.24726158  0.15605990  0.13467631  1
  B  B11  1  0.84394010  0.75273842  0.36532369  1
  B  B12  1  0.75273842  0.84394010  0.86532369  1
  B  B13  1  0.15605990  0.24726158  0.63467631  1
  B  B14  1  0.58505226  0.15915672  0.48219827  1
  B  B15  1  0.84084328  0.41494774  0.01780173  1
  B  B16  1  0.41494774  0.84084328  0.51780173  1
  B  B17  1  0.15915672  0.58505226  0.98219827  1
  B  B18  1  0.44513329  0.35004883  0.53570022  1
  B  B19  1  0.64995117  0.55486671  0.96429978  1
  B  B20  1  0.55486671  0.64995117  0.46429978  1
  B  B21  1  0.35004883  0.44513329  0.03570022  1
