# generated using pymatgen
data_CaMnWO6
_symmetry_space_group_name_H-M   'P 1'
_cell_length_a   5.31895484
_cell_length_b   5.39567789
_cell_length_c   7.57849823
_cell_angle_alpha   90.00000000
_cell_angle_beta   90.01313838
_cell_angle_gamma   90.00000000
_symmetry_Int_Tables_number   1
_chemical_formula_structural   CaMnWO6
_chemical_formula_sum   'Ca2 Mn2 W2 O12'
_cell_volume   217.49809664
_cell_formula_units_Z   2
loop_
 _symmetry_equiv_pos_site_id
 _symmetry_equiv_pos_as_xyz
  1  'x, y, z'
loop_
 _atom_site_type_symbol
 _atom_site_label
 _atom_site_symmetry_multiplicity
 _atom_site_fract_x
 _atom_site_fract_y
 _atom_site_fract_z
 _atom_site_occupancy
  Ca  Ca0  1  0.51071741  0.54549602  0.24945059  1
  Ca  Ca1  1  0.01071841  0.95450598  0.74945059  1
  Mn  Mn2  1  0.50266886  0.00105262  0.00009340  1
  Mn  Mn3  1  0.00266986  0.49894638  0.50009340  1
  W  W4  1  0.50211512  0.00987830  0.49933663  1
  W  W5  1  0.00211512  0.49012070  0.99933763  1
  O  O6  1  0.71273488  0.29276953  0.46173564  1
  O  O7  1  0.78166076  0.77933787  0.03121326  1
  O  O8  1  0.28165976  0.72066313  0.53121326  1
  O  O9  1  0.21273588  0.20722947  0.96173564  1
  O  O10  1  0.20933295  0.21394557  0.53691411  1
  O  O11  1  0.28379845  0.71734392  0.96929391  1
  O  O12  1  0.78379945  0.78265508  0.46929391  1
  O  O13  1  0.70933195  0.28605543  0.03691411  1
  O  O14  1  0.07247888  0.49057306  0.25037807  1
  O  O15  1  0.43862269  0.99064611  0.24827838  1
  O  O16  1  0.57247888  0.00942594  0.75037907  1
  O  O17  1  0.93862269  0.50935489  0.74827938  1
