# generated using pymatgen
data_Yb3Pd
_symmetry_space_group_name_H-M   'P 1'
_cell_length_a   6.51389219
_cell_length_b   7.56953934
_cell_length_c   9.69412489
_cell_angle_alpha   90.00000000
_cell_angle_beta   90.00000000
_cell_angle_gamma   90.00000000
_symmetry_Int_Tables_number   1
_chemical_formula_structural   Yb3Pd
_chemical_formula_sum   'Yb12 Pd4'
_cell_volume   477.98979792
_cell_formula_units_Z   4
loop_
 _symmetry_equiv_pos_site_id
 _symmetry_equiv_pos_as_xyz
  1  'x, y, z'
loop_
 _atom_site_type_symbol
 _atom_site_label
 _atom_site_symmetry_multiplicity
 _atom_site_fract_x
 _atom_site_fract_y
 _atom_site_fract_z
 _atom_site_occupancy
  Yb  Yb0  1  0.33658771  0.67224295  0.06656488  1
  Yb  Yb1  1  0.16341229  0.17224295  0.43343512  1
  Yb  Yb2  1  0.66341229  0.32775705  0.56656488  1
  Yb  Yb3  1  0.83658771  0.82775705  0.93343512  1
  Yb  Yb4  1  0.66341229  0.32775705  0.93343512  1
  Yb  Yb5  1  0.83658771  0.82775705  0.56656488  1
  Yb  Yb6  1  0.33658771  0.67224295  0.43343512  1
  Yb  Yb7  1  0.16341229  0.17224295  0.06656488  1
  Yb  Yb8  1  0.85937804  0.54010588  0.25000000  1
  Yb  Yb9  1  0.64062196  0.04010588  0.25000000  1
  Yb  Yb10  1  0.14062196  0.45989412  0.75000000  1
  Yb  Yb11  1  0.35937804  0.95989412  0.75000000  1
  Pd  Pd12  1  0.04878529  0.88037834  0.25000000  1
  Pd  Pd13  1  0.45121471  0.38037834  0.25000000  1
  Pd  Pd14  1  0.95121471  0.11962166  0.75000000  1
  Pd  Pd15  1  0.54878529  0.61962166  0.75000000  1
