# generated using pymatgen
data_SrCdAs2O7
_symmetry_space_group_name_H-M   'P 1'
_cell_length_a   5.89847473
_cell_length_b   7.28390137
_cell_length_c   7.62675402
_cell_angle_alpha   101.16601126
_cell_angle_beta   90.36449285
_cell_angle_gamma   98.71689255
_symmetry_Int_Tables_number   1
_chemical_formula_structural   SrCdAs2O7
_chemical_formula_sum   'Sr2 Cd2 As4 O14'
_cell_volume   317.54356905
_cell_formula_units_Z   2
loop_
 _symmetry_equiv_pos_site_id
 _symmetry_equiv_pos_as_xyz
  1  'x, y, z'
loop_
 _atom_site_type_symbol
 _atom_site_label
 _atom_site_symmetry_multiplicity
 _atom_site_fract_x
 _atom_site_fract_y
 _atom_site_fract_z
 _atom_site_occupancy
  Sr  Sr0  1  0.69034410  0.27475005  0.93572006  1
  Sr  Sr1  1  0.30965590  0.72524995  0.06427994  1
  Cd  Cd2  1  0.31550139  0.83232498  0.60085190  1
  Cd  Cd3  1  0.68449861  0.16767502  0.39914810  1
  As  As4  1  0.81727617  0.77883296  0.82064018  1
  As  As5  1  0.18272383  0.22116704  0.17935982  1
  As  As6  1  0.79237997  0.66908471  0.38622212  1
  As  As7  1  0.20762003  0.33091529  0.61377788  1
  O  O8  1  0.93448146  0.22518239  0.64122946  1
  O  O9  1  0.06551854  0.77481761  0.35877054  1
  O  O10  1  0.76759990  0.63445550  0.97019106  1
  O  O11  1  0.23240010  0.36554450  0.02980894  1
  O  O12  1  0.78695875  0.61851359  0.60751540  1
  O  O13  1  0.21304125  0.38148641  0.39248460  1
  O  O14  1  0.60575242  0.91696593  0.82340295  1
  O  O15  1  0.39424758  0.08303407  0.17659705  1
  O  O16  1  0.58843140  0.81550239  0.37556061  1
  O  O17  1  0.41156860  0.18449761  0.62443939  1
  O  O18  1  0.28596871  0.55367186  0.73207127  1
  O  O19  1  0.71403129  0.44632814  0.26792873  1
  O  O20  1  0.09159060  0.89696005  0.83968588  1
  O  O21  1  0.90840940  0.10303995  0.16031412  1
