# generated using pymatgen
data_Sm2Al3Ge4
_symmetry_space_group_name_H-M   'P 1'
_cell_length_a   6.06420202
_cell_length_b   7.96798389
_cell_length_c   8.07664764
_cell_angle_alpha   90.00000000
_cell_angle_beta   112.05001318
_cell_angle_gamma   90.00000000
_symmetry_Int_Tables_number   1
_chemical_formula_structural   Sm2Al3Ge4
_chemical_formula_sum   'Sm4 Al6 Ge8'
_cell_volume   361.71435859
_cell_formula_units_Z   2
loop_
 _symmetry_equiv_pos_site_id
 _symmetry_equiv_pos_as_xyz
  1  'x, y, z'
loop_
 _atom_site_type_symbol
 _atom_site_label
 _atom_site_symmetry_multiplicity
 _atom_site_fract_x
 _atom_site_fract_y
 _atom_site_fract_z
 _atom_site_occupancy
  Sm  Sm0  1  0.61393109  0.08261190  0.22786217  1
  Sm  Sm1  1  0.38606891  0.91738810  0.77213783  1
  Sm  Sm2  1  0.88606891  0.58261190  0.77213783  1
  Sm  Sm3  1  0.11393109  0.41738810  0.22786217  1
  Al  Al4  1  0.50000000  0.50000000  0.00000000  1
  Al  Al5  1  0.00000000  0.00000000  0.00000000  1
  Al  Al6  1  0.03329187  0.25000000  0.56658374  1
  Al  Al7  1  0.46670813  0.75000000  0.43341626  1
  Al  Al8  1  0.96670813  0.75000000  0.43341626  1
  Al  Al9  1  0.53329187  0.25000000  0.56658374  1
  Ge  Ge10  1  0.20268443  0.25000000  0.90536885  1
  Ge  Ge11  1  0.29731557  0.75000000  0.09463115  1
  Ge  Ge12  1  0.79731557  0.75000000  0.09463115  1
  Ge  Ge13  1  0.70268443  0.25000000  0.90536885  1
  Ge  Ge14  1  0.68512799  0.44910841  0.37025599  1
  Ge  Ge15  1  0.31487201  0.55089159  0.62974401  1
  Ge  Ge16  1  0.81487201  0.94910841  0.62974401  1
  Ge  Ge17  1  0.18512799  0.05089159  0.37025599  1
