# generated using pymatgen
data_YbFe4(CuO4)3
_symmetry_space_group_name_H-M   'P 1'
_cell_length_a   6.42700563
_cell_length_b   6.42700563
_cell_length_c   6.42700563
_cell_angle_alpha   109.47122063
_cell_angle_beta   109.47122063
_cell_angle_gamma   109.47122063
_symmetry_Int_Tables_number   1
_chemical_formula_structural   YbFe4(CuO4)3
_chemical_formula_sum   'Yb1 Fe4 Cu3 O12'
_cell_volume   204.36388499
_cell_formula_units_Z   1
loop_
 _symmetry_equiv_pos_site_id
 _symmetry_equiv_pos_as_xyz
  1  'x, y, z'
loop_
 _atom_site_type_symbol
 _atom_site_label
 _atom_site_symmetry_multiplicity
 _atom_site_fract_x
 _atom_site_fract_y
 _atom_site_fract_z
 _atom_site_occupancy
  Yb  Yb0  1  0.50000000  0.50000000  0.50000000  1
  Fe  Fe1  1  0.50000000  0.50000000  0.00000000  1
  Fe  Fe2  1  0.00000000  0.50000000  0.50000000  1
  Fe  Fe3  1  0.50000000  -0.00000000  0.50000000  1
  Fe  Fe4  1  0.00000000  -0.00000000  0.00000000  1
  Cu  Cu5  1  0.00000000  0.50000000  0.00000000  1
  Cu  Cu6  1  0.50000000  -0.00000000  0.00000000  1
  Cu  Cu7  1  0.00000000  -0.00000000  0.50000000  1
  O  O8  1  0.81077358  0.64308340  0.33230982  1
  O  O9  1  0.18922642  0.35691660  0.66769018  1
  O  O10  1  0.18922642  0.02153624  0.33230982  1
  O  O11  1  0.81077358  0.97846376  0.66769018  1
  O  O12  1  0.64308340  0.33230982  0.81077358  1
  O  O13  1  0.35691660  0.66769018  0.18922642  1
  O  O14  1  0.02153624  0.33230982  0.18922642  1
  O  O15  1  0.97846376  0.66769018  0.81077358  1
  O  O16  1  0.33230982  0.81077358  0.64308340  1
  O  O17  1  0.66769018  0.18922642  0.35691660  1
  O  O18  1  0.33230982  0.18922642  0.02153624  1
  O  O19  1  0.66769018  0.81077358  0.97846376  1
