# generated using pymatgen
data_Dy4Ni13C4
_symmetry_space_group_name_H-M   'P 1'
_cell_length_a   3.86256943
_cell_length_b   8.38430413
_cell_length_c   8.38430413
_cell_angle_alpha   91.37812826
_cell_angle_beta   90.00000000
_cell_angle_gamma   90.00000000
_symmetry_Int_Tables_number   1
_chemical_formula_structural   Dy4Ni13C4
_chemical_formula_sum   'Dy4 Ni13 C4'
_cell_volume   271.44678689
_cell_formula_units_Z   1
loop_
 _symmetry_equiv_pos_site_id
 _symmetry_equiv_pos_as_xyz
  1  'x, y, z'
loop_
 _atom_site_type_symbol
 _atom_site_label
 _atom_site_symmetry_multiplicity
 _atom_site_fract_x
 _atom_site_fract_y
 _atom_site_fract_z
 _atom_site_occupancy
  Dy  Dy0  1  0.50000000  0.18812559  0.81187441  1
  Dy  Dy1  1  0.50000000  0.81187441  0.18812559  1
  Dy  Dy2  1  0.50000000  0.65157905  0.65157905  1
  Dy  Dy3  1  0.50000000  0.34842095  0.34842095  1
  Ni  Ni4  1  0.50000000  0.00000000  0.50000000  1
  Ni  Ni5  1  0.50000000  0.50000000  -0.00000000  1
  Ni  Ni6  1  0.00000000  0.00000000  -0.00000000  1
  Ni  Ni7  1  0.00000000  0.78414934  0.43097299  1
  Ni  Ni8  1  -0.00000000  0.21585066  0.56902701  1
  Ni  Ni9  1  -0.00000000  0.56902701  0.21585066  1
  Ni  Ni10  1  0.00000000  0.43097299  0.78414934  1
  Ni  Ni11  1  0.00000000  0.92551193  0.70852147  1
  Ni  Ni12  1  0.00000000  0.07448807  0.29147853  1
  Ni  Ni13  1  0.00000000  0.29147853  0.07448807  1
  Ni  Ni14  1  0.00000000  0.70852147  0.92551193  1
  Ni  Ni15  1  0.50000000  0.87634803  0.87634803  1
  Ni  Ni16  1  0.50000000  0.12365197  0.12365197  1
  C  C17  1  0.00000000  0.55681791  0.44318209  1
  C  C18  1  0.00000000  0.44318209  0.55681791  1
  C  C19  1  0.00000000  0.00000000  0.50000000  1
  C  C20  1  0.00000000  0.50000000  -0.00000000  1
