# generated using pymatgen
data_SrGdCuSe3
_symmetry_space_group_name_H-M   'P 1'
_cell_length_a   4.14052182
_cell_length_b   10.77981117
_cell_length_c   13.60802949
_cell_angle_alpha   90.00000000
_cell_angle_beta   90.00000000
_cell_angle_gamma   90.00000000
_symmetry_Int_Tables_number   1
_chemical_formula_structural   SrGdCuSe3
_chemical_formula_sum   'Sr4 Gd4 Cu4 Se12'
_cell_volume   607.38137837
_cell_formula_units_Z   4
loop_
 _symmetry_equiv_pos_site_id
 _symmetry_equiv_pos_as_xyz
  1  'x, y, z'
loop_
 _atom_site_type_symbol
 _atom_site_label
 _atom_site_symmetry_multiplicity
 _atom_site_fract_x
 _atom_site_fract_y
 _atom_site_fract_z
 _atom_site_occupancy
  Sr  Sr0  1  0.75000000  0.23083269  0.50048877  1
  Sr  Sr1  1  0.75000000  0.73083269  0.99951123  1
  Sr  Sr2  1  0.25000000  0.76916731  0.49951123  1
  Sr  Sr3  1  0.25000000  0.26916731  0.00048877  1
  Gd  Gd4  1  0.75000000  0.48743165  0.74396438  1
  Gd  Gd5  1  0.75000000  0.98743165  0.75603562  1
  Gd  Gd6  1  0.25000000  0.51256835  0.25603562  1
  Gd  Gd7  1  0.25000000  0.01256835  0.24396438  1
  Cu  Cu8  1  0.75000000  0.26002847  0.22159793  1
  Cu  Cu9  1  0.75000000  0.76002847  0.27840207  1
  Cu  Cu10  1  0.25000000  0.73997153  0.77840207  1
  Cu  Cu11  1  0.25000000  0.23997153  0.72159793  1
  Se  Se12  1  0.75000000  0.24022751  0.82896578  1
  Se  Se13  1  0.75000000  0.74022751  0.67103422  1
  Se  Se14  1  0.25000000  0.75977249  0.17103422  1
  Se  Se15  1  0.25000000  0.25977249  0.32896578  1
  Se  Se16  1  0.75000000  0.44604842  0.11365158  1
  Se  Se17  1  0.75000000  0.94604842  0.38634842  1
  Se  Se18  1  0.25000000  0.55395158  0.88634842  1
  Se  Se19  1  0.25000000  0.05395158  0.61365158  1
  Se  Se20  1  0.75000000  0.08360081  0.10609638  1
  Se  Se21  1  0.75000000  0.58360081  0.39390362  1
  Se  Se22  1  0.25000000  0.91639919  0.89390362  1
  Se  Se23  1  0.25000000  0.41639919  0.60609638  1
