# generated using pymatgen
data_Ca2Cr2(SiO4)3
_symmetry_space_group_name_H-M   'P 1'
_cell_length_a   10.39382561
_cell_length_b   10.39382545
_cell_length_c   10.39382570
_cell_angle_alpha   109.07252909
_cell_angle_beta   109.07252882
_cell_angle_gamma   110.27158349
_symmetry_Int_Tables_number   1
_chemical_formula_structural   Ca2Cr2(SiO4)3
_chemical_formula_sum   'Ca8 Cr8 Si12 O48'
_cell_volume   864.25261845
_cell_formula_units_Z   4
loop_
 _symmetry_equiv_pos_site_id
 _symmetry_equiv_pos_as_xyz
  1  'x, y, z'
loop_
 _atom_site_type_symbol
 _atom_site_label
 _atom_site_symmetry_multiplicity
 _atom_site_fract_x
 _atom_site_fract_y
 _atom_site_fract_z
 _atom_site_occupancy
  Ca  Ca0  1  0.37198022  0.75000000  0.12198122  1
  Ca  Ca1  1  0.12801978  0.25000000  0.37801978  1
  Ca  Ca2  1  0.87198022  0.75000000  0.62198022  1
  Ca  Ca3  1  0.75000000  0.12801978  0.37801978  1
  Ca  Ca4  1  0.75000000  0.62801978  0.87801978  1
  Ca  Ca5  1  0.62801978  0.25000000  0.87801978  1
  Ca  Ca6  1  0.25000000  0.87198022  0.62198022  1
  Ca  Ca7  1  0.25000000  0.37198022  0.12198022  1
  Cr  Cr8  1  0.00000000  0.00000000  0.00000000  1
  Cr  Cr9  1  0.00000000  0.49999900  0.00000000  1
  Cr  Cr10  1  0.00000000  0.00000000  0.50000000  1
  Cr  Cr11  1  0.00000000  0.49999900  0.49999900  1
  Cr  Cr12  1  0.50000000  0.00000000  0.50000000  1
  Cr  Cr13  1  0.50000000  0.49999900  0.00000000  1
  Cr  Cr14  1  0.50000000  0.49999900  0.50000000  1
  Cr  Cr15  1  0.50000000  0.00000000  0.00000000  1
  Si  Si16  1  0.25000000  0.12395583  0.87395583  1
  Si  Si17  1  0.75000000  0.87604417  0.12604417  1
  Si  Si18  1  0.37604417  0.25000000  0.62604417  1
  Si  Si19  1  0.62500000  0.37500000  0.25000000  1
  Si  Si20  1  0.12395583  0.75000000  0.87395583  1
  Si  Si21  1  0.87500000  0.12500000  0.75000000  1
  Si  Si22  1  0.75000100  0.37604417  0.62604417  1
  Si  Si23  1  0.37500000  0.62500000  0.75000000  1
  Si  Si24  1  0.12499900  0.87500000  0.25000000  1
  Si  Si25  1  0.87604417  0.25000000  0.12604417  1
  Si  Si26  1  0.62395583  0.75000000  0.37395583  1
  Si  Si27  1  0.25000000  0.62395583  0.37395583  1
  O  O28  1  0.29886066  0.49033587  0.38359081  1
  O  O29  1  0.00411473  0.30970852  0.89679041  1
  O  O30  1  0.11161259  0.60940340  0.91801843  1
  O  O31  1  0.20113934  0.58473015  0.19147521  1
  O  O32  1  0.19359416  0.11161259  0.00221019  1
  O  O33  1  0.58708189  0.19029248  0.19440621  1
  O  O34  1  0.60940240  0.19138497  0.49778981  1
  O  O35  1  0.19138497  0.19359316  0.58198157  1
  O  O36  1  0.89059760  0.38838841  0.58198257  1
  O  O37  1  0.30970852  0.91291811  0.30559479  1
  O  O38  1  0.91526885  0.29885966  0.30852479  1
  O  O39  1  0.00966413  0.20113934  0.11640919  1
  O  O40  1  0.19029148  0.49588627  0.60320959  1
  O  O41  1  0.58473115  0.89325494  0.38359081  1
  O  O42  1  0.10732432  0.00411473  0.19440621  1
  O  O43  1  0.49033587  0.60674606  0.19147521  1
  O  O44  1  0.39267668  0.58708189  0.89679041  1
  O  O45  1  0.89325494  0.00966513  0.30852479  1
  O  O46  1  0.60674506  0.91526985  0.11641019  1
  O  O47  1  0.10940240  0.61161159  0.41801843  1
  O  O48  1  0.49588527  0.39267668  0.30559479  1
  O  O49  1  0.38838741  0.30640584  0.49778981  1
  O  O50  1  0.30861603  0.89059760  0.00220919  1
  O  O51  1  0.30640584  0.30861603  0.91801843  1
  O  O52  1  0.70113934  0.50966413  0.61641019  1
  O  O53  1  0.99588627  0.69029148  0.10320959  1
  O  O54  1  0.88838741  0.39059760  0.08198157  1
  O  O55  1  0.79885966  0.41526985  0.80852479  1
  O  O56  1  0.80640584  0.88838741  0.99779081  1
  O  O57  1  0.41291811  0.80970752  0.80559479  1
  O  O58  1  0.39059660  0.80861503  0.50220919  1
  O  O59  1  0.80861603  0.80640684  0.41801843  1
  O  O60  1  0.69359416  0.69138397  0.08198157  1
  O  O61  1  0.69138397  0.10940240  0.99778981  1
  O  O62  1  0.61161259  0.69359416  0.50221019  1
  O  O63  1  0.50411373  0.60732332  0.69440521  1
  O  O64  1  0.08708189  0.89267568  0.39679041  1
  O  O65  1  0.39325494  0.08473015  0.88358981  1
  O  O66  1  0.10674506  0.99033487  0.69147521  1
  O  O67  1  0.60732332  0.41291811  0.10320959  1
  O  O68  1  0.50966513  0.39325494  0.80852379  1
  O  O69  1  0.89267668  0.99588527  0.80559479  1
  O  O70  1  0.41526985  0.10674506  0.61640919  1
  O  O71  1  0.80970752  0.50411373  0.39679041  1
  O  O72  1  0.99033487  0.79886066  0.88358981  1
  O  O73  1  0.08473015  0.70114034  0.69147621  1
  O  O74  1  0.69029148  0.08708189  0.69440521  1
  O  O75  1  0.91291811  0.10732432  0.60320959  1
