# generated using pymatgen
data_TaTe4Rh
_symmetry_space_group_name_H-M   'P 1'
_cell_length_a   3.78241187
_cell_length_b   12.79070333
_cell_length_c   13.56975887
_cell_angle_alpha   90.00000000
_cell_angle_beta   90.00000000
_cell_angle_gamma   90.00000000
_symmetry_Int_Tables_number   1
_chemical_formula_structural   TaTe4Rh
_chemical_formula_sum   'Ta4 Te16 Rh4'
_cell_volume   656.50097313
_cell_formula_units_Z   4
loop_
 _symmetry_equiv_pos_site_id
 _symmetry_equiv_pos_as_xyz
  1  'x, y, z'
loop_
 _atom_site_type_symbol
 _atom_site_label
 _atom_site_symmetry_multiplicity
 _atom_site_fract_x
 _atom_site_fract_y
 _atom_site_fract_z
 _atom_site_occupancy
  Ta  Ta0  1  0.50000000  0.94698374  0.50372777  1
  Ta  Ta1  1  0.00000000  0.05301626  0.00372777  1
  Ta  Ta2  1  0.50000000  0.73157123  0.99174325  1
  Ta  Ta3  1  -0.00000000  0.26842877  0.49174325  1
  Te  Te4  1  0.50000000  0.93354784  0.89262844  1
  Te  Te5  1  0.00000000  0.06645216  0.39262844  1
  Te  Te6  1  0.50000000  0.80843832  0.35630364  1
  Te  Te7  1  0.00000000  0.19156168  0.85630364  1
  Te  Te8  1  0.50000000  0.65284407  0.59147367  1
  Te  Te9  1  -0.00000000  0.34715593  0.09147367  1
  Te  Te10  1  0.50000000  0.58937575  0.13576039  1
  Te  Te11  1  0.00000000  0.41062425  0.63576039  1
  Te  Te12  1  0.50000000  0.43469203  0.89992727  1
  Te  Te13  1  -0.00000000  0.56530797  0.39992727  1
  Te  Te14  1  0.50000000  0.32428745  0.35016065  1
  Te  Te15  1  0.00000000  0.67571255  0.85016065  1
  Te  Te16  1  0.50000000  0.15020696  0.60571348  1
  Te  Te17  1  -0.00000000  0.84979304  0.10571348  1
  Te  Te18  1  0.50000000  0.10922203  0.14476676  1
  Te  Te19  1  0.00000000  0.89077797  0.64476676  1
  Rh  Rh20  1  0.50000000  0.46461093  0.49938291  1
  Rh  Rh21  1  0.00000000  0.53538907  0.99938291  1
  Rh  Rh22  1  0.50000000  0.24624501  0.99241177  1
  Rh  Rh23  1  -0.00000000  0.75375499  0.49241177  1
