# generated using pymatgen
data_TaTe4Os
_symmetry_space_group_name_H-M   'P 1'
_cell_length_a   3.77312153
_cell_length_b   12.56837630
_cell_length_c   13.75701215
_cell_angle_alpha   90.00000000
_cell_angle_beta   90.00000000
_cell_angle_gamma   90.00000000
_symmetry_Int_Tables_number   1
_chemical_formula_structural   TaTe4Os
_chemical_formula_sum   'Ta4 Te16 Os4'
_cell_volume   652.38518446
_cell_formula_units_Z   4
loop_
 _symmetry_equiv_pos_site_id
 _symmetry_equiv_pos_as_xyz
  1  'x, y, z'
loop_
 _atom_site_type_symbol
 _atom_site_label
 _atom_site_symmetry_multiplicity
 _atom_site_fract_x
 _atom_site_fract_y
 _atom_site_fract_z
 _atom_site_occupancy
  Ta  Ta0  1  0.50000000  0.94043948  0.50591719  1
  Ta  Ta1  1  -0.00000000  0.05956052  0.00591719  1
  Ta  Ta2  1  0.50000000  0.72393079  0.98950887  1
  Ta  Ta3  1  -0.00000000  0.27606921  0.48950887  1
  Te  Te4  1  0.50000000  0.93443627  0.89632488  1
  Te  Te5  1  0.00000000  0.06556373  0.39632488  1
  Te  Te6  1  0.50000000  0.80326880  0.35404668  1
  Te  Te7  1  -0.00000000  0.19673120  0.85404668  1
  Te  Te8  1  0.50000000  0.65258743  0.59071227  1
  Te  Te9  1  -0.00000000  0.34741257  0.09071227  1
  Te  Te10  1  0.50000000  0.58335533  0.13774026  1
  Te  Te11  1  0.00000000  0.41664467  0.63774026  1
  Te  Te12  1  0.50000000  0.43510096  0.90037778  1
  Te  Te13  1  0.00000000  0.56489904  0.40037778  1
  Te  Te14  1  0.50000000  0.32361370  0.34805777  1
  Te  Te15  1  0.00000000  0.67638630  0.84805777  1
  Te  Te16  1  0.50000000  0.15099879  0.60195061  1
  Te  Te17  1  0.00000000  0.84900121  0.10195061  1
  Te  Te18  1  0.50000000  0.10754399  0.14714698  1
  Te  Te19  1  0.00000000  0.89245601  0.64714698  1
  Os  Os20  1  0.50000000  0.45413749  0.50313669  1
  Os  Os21  1  -0.00000000  0.54586251  0.00313669  1
  Os  Os22  1  0.50000000  0.23608417  0.98908003  1
  Os  Os23  1  0.00000000  0.76391583  0.48908003  1
