# generated using pymatgen
data_Ba2CoGe2O7
_symmetry_space_group_name_H-M   'P 1'
_cell_length_a   5.62554725
_cell_length_b   8.48303982
_cell_length_c   8.48303982
_cell_angle_alpha   90.00000000
_cell_angle_beta   90.00000000
_cell_angle_gamma   90.00000000
_symmetry_Int_Tables_number   1
_chemical_formula_structural   Ba2CoGe2O7
_chemical_formula_sum   'Ba4 Co2 Ge4 O14'
_cell_volume   404.82543199
_cell_formula_units_Z   2
loop_
 _symmetry_equiv_pos_site_id
 _symmetry_equiv_pos_as_xyz
  1  'x, y, z'
loop_
 _atom_site_type_symbol
 _atom_site_label
 _atom_site_symmetry_multiplicity
 _atom_site_fract_x
 _atom_site_fract_y
 _atom_site_fract_z
 _atom_site_occupancy
  Ba  Ba0  1  0.49232493  0.33463345  0.16536655  1
  Ba  Ba1  1  0.50767507  0.16536655  0.66536655  1
  Ba  Ba2  1  0.49232493  0.66536655  0.83463345  1
  Ba  Ba3  1  0.50767507  0.83463345  0.33463345  1
  Co  Co4  1  0.00000000  0.50000000  0.50000000  1
  Co  Co5  1  0.00000000  0.00000000  0.00000000  1
  Ge  Ge6  1  0.03856766  0.14082407  0.35917593  1
  Ge  Ge7  1  0.96143234  0.35917593  0.85917593  1
  Ge  Ge8  1  0.03856766  0.85917593  0.64082407  1
  Ge  Ge9  1  0.96143234  0.64082407  0.14082407  1
  O  O10  1  0.16017520  -0.00000000  0.50000000  1
  O  O11  1  0.83982480  0.50000000  0.00000000  1
  O  O12  1  0.72864810  0.13835779  0.36164221  1
  O  O13  1  0.27135190  0.36164221  0.86164221  1
  O  O14  1  0.72864810  0.86164221  0.63835779  1
  O  O15  1  0.27135190  0.63835779  0.13835779  1
  O  O16  1  0.18707340  0.31629306  0.42040460  1
  O  O17  1  0.81292660  0.18370694  0.92040460  1
  O  O18  1  0.18707340  0.68370694  0.57959540  1
  O  O19  1  0.81292660  0.81629306  0.07959540  1
  O  O20  1  0.81292660  0.57959540  0.31629306  1
  O  O21  1  0.18707340  0.92040460  0.81629306  1
  O  O22  1  0.81292660  0.42040460  0.68370694  1
  O  O23  1  0.18707340  0.07959540  0.18370694  1
