# generated using pymatgen
data_CsK2Fe3P4ClO14
_symmetry_space_group_name_H-M   'P 1'
_cell_length_a   5.40702958
_cell_length_b   7.76388120
_cell_length_c   9.82505631
_cell_angle_alpha   80.36520295
_cell_angle_beta   76.38597670
_cell_angle_gamma   89.45016558
_symmetry_Int_Tables_number   1
_chemical_formula_structural   CsK2Fe3P4ClO14
_chemical_formula_sum   'Cs1 K2 Fe3 P4 Cl1 O14'
_cell_volume   395.01732930
_cell_formula_units_Z   1
loop_
 _symmetry_equiv_pos_site_id
 _symmetry_equiv_pos_as_xyz
  1  'x, y, z'
loop_
 _atom_site_type_symbol
 _atom_site_label
 _atom_site_symmetry_multiplicity
 _atom_site_fract_x
 _atom_site_fract_y
 _atom_site_fract_z
 _atom_site_occupancy
  Cs  Cs0  1  -0.00000000  0.50000000  -0.00000000  1
  K  K1  1  0.14484931  0.08915363  0.67122220  1
  K  K2  1  0.85515069  0.91084637  0.32877780  1
  Fe  Fe3  1  0.82582657  0.38901296  0.41327371  1
  Fe  Fe4  1  0.17417343  0.61098704  0.58672629  1
  Fe  Fe5  1  0.50000000  0.00000000  -0.00000000  1
  P  P6  1  0.63215292  0.78217223  0.70497745  1
  P  P7  1  0.36784708  0.21782777  0.29502255  1
  P  P8  1  0.58339888  0.40357292  0.74474956  1
  P  P9  1  0.41660112  0.59642708  0.25525044  1
  Cl  Cl10  1  -0.00000000  0.00000000  -0.00000000  1
  O  O11  1  0.59796331  0.58754335  0.80605297  1
  O  O12  1  0.40203669  0.41245665  0.19394703  1
  O  O13  1  0.91126724  0.79607785  0.61883660  1
  O  O14  1  0.08873276  0.20392215  0.38116340  1
  O  O15  1  0.57755072  0.91150861  0.80710431  1
  O  O16  1  0.42244928  0.08849139  0.19289569  1
  O  O17  1  0.44834108  0.78920249  0.60768137  1
  O  O18  1  0.55165892  0.21079751  0.39231863  1
  O  O19  1  0.82411397  0.41019031  0.62099064  1
  O  O20  1  0.17588603  0.58980969  0.37900936  1
  O  O21  1  0.33772188  0.41061631  0.69041164  1
  O  O22  1  0.66227812  0.58938369  0.30958836  1
  O  O23  1  0.58006813  0.26371172  0.87119694  1
  O  O24  1  0.41993187  0.73628828  0.12880306  1
