# generated using pymatgen
data_LuCrB4
_symmetry_space_group_name_H-M   'P 1'
_cell_length_a   3.39353346
_cell_length_b   5.87042497
_cell_length_c   11.34506172
_cell_angle_alpha   90.00000000
_cell_angle_beta   90.00000000
_cell_angle_gamma   90.00000000
_symmetry_Int_Tables_number   1
_chemical_formula_structural   LuCrB4
_chemical_formula_sum   'Lu4 Cr4 B16'
_cell_volume   226.01046054
_cell_formula_units_Z   4
loop_
 _symmetry_equiv_pos_site_id
 _symmetry_equiv_pos_as_xyz
  1  'x, y, z'
loop_
 _atom_site_type_symbol
 _atom_site_label
 _atom_site_symmetry_multiplicity
 _atom_site_fract_x
 _atom_site_fract_y
 _atom_site_fract_z
 _atom_site_occupancy
  Lu  Lu0  1  0.00000000  0.62583229  0.34924628  1
  Lu  Lu1  1  0.00000000  0.37416771  0.65075372  1
  Lu  Lu2  1  0.00000000  0.12583229  0.15075372  1
  Lu  Lu3  1  0.00000000  0.87416771  0.84924628  1
  Cr  Cr4  1  -0.00000000  0.62357586  0.07987662  1
  Cr  Cr5  1  0.00000000  0.37642414  0.92012338  1
  Cr  Cr6  1  -0.00000000  0.12357586  0.42012338  1
  Cr  Cr7  1  0.00000000  0.87642414  0.57987662  1
  B  B8  1  0.50000000  0.78357833  0.18481550  1
  B  B9  1  0.50000000  0.21642167  0.81518450  1
  B  B10  1  0.50000000  0.28357833  0.31518450  1
  B  B11  1  0.50000000  0.71642167  0.68481550  1
  B  B12  1  0.50000000  0.86495736  0.03263942  1
  B  B13  1  0.50000000  0.13504264  0.96736058  1
  B  B14  1  0.50000000  0.36495736  0.46736058  1
  B  B15  1  0.50000000  0.63504264  0.53263942  1
  B  B16  1  0.50000000  0.88574458  0.45279147  1
  B  B17  1  0.50000000  0.11425542  0.54720853  1
  B  B18  1  0.50000000  0.38574458  0.04720853  1
  B  B19  1  0.50000000  0.61425542  0.95279147  1
  B  B20  1  0.50000000  0.97606098  0.30741204  1
  B  B21  1  0.50000000  0.02393902  0.69258796  1
  B  B22  1  0.50000000  0.47606098  0.19258796  1
  B  B23  1  0.50000000  0.52393902  0.80741204  1
