# generated using pymatgen
data_Tb3MnB7
_symmetry_space_group_name_H-M   'P 1'
_cell_length_a   3.45426471
_cell_length_b   8.08776960
_cell_length_c   9.34837342
_cell_angle_alpha   90.00000000
_cell_angle_beta   90.00000000
_cell_angle_gamma   102.33039831
_symmetry_Int_Tables_number   1
_chemical_formula_structural   Tb3MnB7
_chemical_formula_sum   'Tb6 Mn2 B14'
_cell_volume   255.14376372
_cell_formula_units_Z   2
loop_
 _symmetry_equiv_pos_site_id
 _symmetry_equiv_pos_as_xyz
  1  'x, y, z'
loop_
 _atom_site_type_symbol
 _atom_site_label
 _atom_site_symmetry_multiplicity
 _atom_site_fract_x
 _atom_site_fract_y
 _atom_site_fract_z
 _atom_site_occupancy
  Tb  Tb0  1  0.10378303  0.20756605  0.44062319  1
  Tb  Tb1  1  0.89621697  0.79243395  0.55937681  1
  Tb  Tb2  1  0.10378303  0.20756605  0.05937681  1
  Tb  Tb3  1  0.89621697  0.79243395  0.94062319  1
  Tb  Tb4  1  0.75944570  0.51889139  0.25000000  1
  Tb  Tb5  1  0.24055430  0.48110861  0.75000000  1
  Mn  Mn6  1  0.94638569  0.89277138  0.25000000  1
  Mn  Mn7  1  0.05361431  0.10722862  0.75000000  1
  B  B8  1  0.27313371  0.54626743  0.46777768  1
  B  B9  1  0.72686629  0.45373257  0.53222232  1
  B  B10  1  0.27313371  0.54626743  0.03222232  1
  B  B11  1  0.72686629  0.45373257  0.96777768  1
  B  B12  1  0.37018977  0.74037953  0.15346350  1
  B  B13  1  0.62981023  0.25962047  0.84653650  1
  B  B14  1  0.37018977  0.74037953  0.34653650  1
  B  B15  1  0.62981023  0.25962047  0.65346350  1
  B  B16  1  0.47813351  0.95626703  0.09940965  1
  B  B17  1  0.52186649  0.04373297  0.90059035  1
  B  B18  1  0.47813351  0.95626703  0.40059035  1
  B  B19  1  0.52186649  0.04373297  0.59940965  1
  B  B20  1  0.53962822  0.07925645  0.25000000  1
  B  B21  1  0.46037178  0.92074355  0.75000000  1
