# generated using pymatgen
data_PrEuCuS3
_symmetry_space_group_name_H-M   'P 1'
_cell_length_a   4.07213625
_cell_length_b   11.12850677
_cell_length_c   11.50266800
_cell_angle_alpha   90.00000000
_cell_angle_beta   90.00000000
_cell_angle_gamma   90.00000000
_symmetry_Int_Tables_number   1
_chemical_formula_structural   PrEuCuS3
_chemical_formula_sum   'Pr4 Eu4 Cu4 S12'
_cell_volume   521.26405722
_cell_formula_units_Z   4
loop_
 _symmetry_equiv_pos_site_id
 _symmetry_equiv_pos_as_xyz
  1  'x, y, z'
loop_
 _atom_site_type_symbol
 _atom_site_label
 _atom_site_symmetry_multiplicity
 _atom_site_fract_x
 _atom_site_fract_y
 _atom_site_fract_z
 _atom_site_occupancy
  Pr  Pr0  1  0.75000000  0.01190435  0.81663230  1
  Pr  Pr1  1  0.75000000  0.51190435  0.68336770  1
  Pr  Pr2  1  0.25000000  0.98809565  0.18336770  1
  Pr  Pr3  1  0.25000000  0.48809565  0.31663230  1
  Eu  Eu4  1  0.75000000  0.18249468  0.49457336  1
  Eu  Eu5  1  0.75000000  0.68249468  0.00542664  1
  Eu  Eu6  1  0.25000000  0.81750532  0.50542664  1
  Eu  Eu7  1  0.25000000  0.31750532  0.99457336  1
  Cu  Cu8  1  0.75000000  0.25556691  0.21383917  1
  Cu  Cu9  1  0.75000000  0.75556691  0.28616083  1
  Cu  Cu10  1  0.25000000  0.74443309  0.78616083  1
  Cu  Cu11  1  0.25000000  0.24443309  0.71383917  1
  S  S12  1  0.75000000  0.27779948  0.80805250  1
  S  S13  1  0.75000000  0.77779948  0.69194750  1
  S  S14  1  0.25000000  0.72220052  0.19194750  1
  S  S15  1  0.25000000  0.22220052  0.30805250  1
  S  S16  1  0.75000000  0.11644520  0.05702493  1
  S  S17  1  0.75000000  0.61644520  0.44297507  1
  S  S18  1  0.25000000  0.88355480  0.94297507  1
  S  S19  1  0.25000000  0.38355480  0.55702493  1
  S  S20  1  0.75000000  0.44986724  0.13715712  1
  S  S21  1  0.75000000  0.94986724  0.36284288  1
  S  S22  1  0.25000000  0.55013276  0.86284288  1
  S  S23  1  0.25000000  0.05013276  0.63715712  1
