# generated using pymatgen
data_La3MgAlS7
_symmetry_space_group_name_H-M   'P 1'
_cell_length_a   6.00804242
_cell_length_b   10.32701828
_cell_length_c   10.32694677
_cell_angle_alpha   119.99907040
_cell_angle_beta   90.00000000
_cell_angle_gamma   90.00000000
_symmetry_Int_Tables_number   1
_chemical_formula_structural   La3MgAlS7
_chemical_formula_sum   'La6 Mg2 Al2 S14'
_cell_volume   554.89980800
_cell_formula_units_Z   2
loop_
 _symmetry_equiv_pos_site_id
 _symmetry_equiv_pos_as_xyz
  1  'x, y, z'
loop_
 _atom_site_type_symbol
 _atom_site_label
 _atom_site_symmetry_multiplicity
 _atom_site_fract_x
 _atom_site_fract_y
 _atom_site_fract_z
 _atom_site_occupancy
  La  La0  1  0.25999816  0.24431402  0.37322510  1
  La  La1  1  0.25999322  0.62679253  0.87109842  1
  La  La2  1  0.26000144  0.12890787  0.75568180  1
  La  La3  1  0.75999816  0.75568598  0.62677490  1
  La  La4  1  0.75999322  0.37320747  0.12890158  1
  La  La5  1  0.76000144  0.87109213  0.24431820  1
  Mg  Mg6  1  0.50086930  0.00000262  0.00000854  1
  Mg  Mg7  1  0.00086930  0.99999738  0.99999146  1
  Al  Al8  1  0.84212343  0.33335324  0.66667796  1
  Al  Al9  1  0.34212343  0.66664676  0.33332204  1
  S  S10  1  0.74964500  0.15393252  0.23383087  1
  S  S11  1  0.74964139  0.76617162  0.92010663  1
  S  S12  1  0.74964237  0.07989413  0.84606031  1
  S  S13  1  0.24964500  0.84606748  0.76616913  1
  S  S14  1  0.24964139  0.23382838  0.07989337  1
  S  S15  1  0.24964237  0.92010587  0.15393969  1
  S  S16  1  0.99133233  0.10539480  0.51517982  1
  S  S17  1  0.99135558  0.48483705  0.59020996  1
  S  S18  1  0.99135606  0.40979688  0.89462622  1
  S  S19  1  0.49133233  0.89460520  0.48482018  1
  S  S20  1  0.49135558  0.51516295  0.40979004  1
  S  S21  1  0.49135606  0.59020312  0.10537378  1
  S  S22  1  0.47204170  0.33335014  0.66667600  1
  S  S23  1  0.97204170  0.66664986  0.33332400  1
