# generated using pymatgen
data_Cs2Sb
_symmetry_space_group_name_H-M   'P 1'
_cell_length_a   6.49704697
_cell_length_b   11.35605342
_cell_length_c   16.47585697
_cell_angle_alpha   90.00000000
_cell_angle_beta   90.00000000
_cell_angle_gamma   90.00000000
_symmetry_Int_Tables_number   1
_chemical_formula_structural   Cs2Sb
_chemical_formula_sum   'Cs16 Sb8'
_cell_volume   1215.60211328
_cell_formula_units_Z   8
loop_
 _symmetry_equiv_pos_site_id
 _symmetry_equiv_pos_as_xyz
  1  'x, y, z'
loop_
 _atom_site_type_symbol
 _atom_site_label
 _atom_site_symmetry_multiplicity
 _atom_site_fract_x
 _atom_site_fract_y
 _atom_site_fract_z
 _atom_site_occupancy
  Cs  Cs0  1  0.25000000  0.26088085  0.74479451  1
  Cs  Cs1  1  0.25000000  0.23911915  0.24479451  1
  Cs  Cs2  1  0.75000000  0.73911915  0.25520549  1
  Cs  Cs3  1  0.75000000  0.76088085  0.75520549  1
  Cs  Cs4  1  0.75000000  0.09432802  0.70449573  1
  Cs  Cs5  1  0.75000000  0.40567198  0.20449573  1
  Cs  Cs6  1  0.25000000  0.90567198  0.29550427  1
  Cs  Cs7  1  0.25000000  0.59432802  0.79550427  1
  Cs  Cs8  1  0.75000000  0.08667970  0.93980630  1
  Cs  Cs9  1  0.75000000  0.41332030  0.43980630  1
  Cs  Cs10  1  0.25000000  0.91332030  0.06019370  1
  Cs  Cs11  1  0.25000000  0.58667970  0.56019370  1
  Cs  Cs12  1  0.25000000  0.33294155  0.99309715  1
  Cs  Cs13  1  0.25000000  0.16705845  0.49309715  1
  Cs  Cs14  1  0.75000000  0.66705845  0.00690285  1
  Cs  Cs15  1  0.75000000  0.83294155  0.50690285  1
  Sb  Sb16  1  0.25000000  0.90934546  0.65654727  1
  Sb  Sb17  1  0.25000000  0.59065454  0.15654727  1
  Sb  Sb18  1  0.75000000  0.09065454  0.34345273  1
  Sb  Sb19  1  0.75000000  0.40934546  0.84345273  1
  Sb  Sb20  1  0.75000000  0.43668079  0.66443283  1
  Sb  Sb21  1  0.75000000  0.06331921  0.16443283  1
  Sb  Sb22  1  0.25000000  0.56331921  0.33556717  1
  Sb  Sb23  1  0.25000000  0.93668079  0.83556717  1
