# generated using pymatgen
data_LaGaBi2
_symmetry_space_group_name_H-M   'P 1'
_cell_length_a   4.43320475
_cell_length_b   13.75790640
_cell_length_c   13.75699824
_cell_angle_alpha   120.00034568
_cell_angle_beta   89.99814466
_cell_angle_gamma   90.00300186
_symmetry_Int_Tables_number   1
_chemical_formula_structural   LaGaBi2
_chemical_formula_sum   'La6 Ga6 Bi12'
_cell_volume   726.64608915
_cell_formula_units_Z   6
loop_
 _symmetry_equiv_pos_site_id
 _symmetry_equiv_pos_as_xyz
  1  'x, y, z'
loop_
 _atom_site_type_symbol
 _atom_site_label
 _atom_site_symmetry_multiplicity
 _atom_site_fract_x
 _atom_site_fract_y
 _atom_site_fract_z
 _atom_site_occupancy
  La  La0  1  0.50001570  0.22590335  0.45180838  1
  La  La1  1  0.50001226  0.22589684  0.77408240  1
  La  La2  1  0.49998268  0.54818232  0.77409127  1
  La  La3  1  0.49998126  0.77409200  0.54818741  1
  La  La4  1  0.49997068  0.45180675  0.22590933  1
  La  La5  1  0.49995820  0.77409657  0.22591902  1
  Ga  Ga6  1  0.50000504  0.18127557  0.99999418  1
  Ga  Ga7  1  0.50000580  0.81871361  0.81871671  1
  Ga  Ga8  1  0.50000255  0.99999038  0.18127796  1
  Ga  Ga9  1  0.50000495  0.81873530  0.00000147  1
  Ga  Ga10  1  0.50000166  0.18129335  0.18129691  1
  Ga  Ga11  1  0.50000139  -0.00000223  0.81871653  1
  Bi  Bi12  1  0.00000264  0.32499319  -0.00000064  1
  Bi  Bi13  1  0.00000646  0.67500963  0.67500980  1
  Bi  Bi14  1  0.00000142  0.99999492  0.32498891  1
  Bi  Bi15  1  0.00000294  0.67500781  0.00000223  1
  Bi  Bi16  1  0.00000525  0.32499326  0.32499246  1
  Bi  Bi17  1  0.00000526  0.99999473  0.67500532  1
  Bi  Bi18  1  0.50000744  0.49999963  0.00000243  1
  Bi  Bi19  1  0.50000666  0.50000209  0.50000081  1
  Bi  Bi20  1  0.50000589  0.99999592  0.49999572  1
  Bi  Bi21  1  0.00000597  0.33330984  0.66669441  1
  Bi  Bi22  1  0.00000290  0.66661773  0.33330753  1
  Bi  Bi23  1  0.00000500  0.99999743  -0.00000055  1
