# generated using pymatgen
data_Dy8Ga3Co
_symmetry_space_group_name_H-M   'P 1'
_cell_length_a   6.91805070
_cell_length_b   10.02619331
_cell_length_c   10.02619331
_cell_angle_alpha   119.99217182
_cell_angle_beta   90.00000000
_cell_angle_gamma   90.00000000
_symmetry_Int_Tables_number   1
_chemical_formula_structural   Dy8Ga3Co
_chemical_formula_sum   'Dy16 Ga6 Co2'
_cell_volume   602.31096945
_cell_formula_units_Z   2
loop_
 _symmetry_equiv_pos_site_id
 _symmetry_equiv_pos_as_xyz
  1  'x, y, z'
loop_
 _atom_site_type_symbol
 _atom_site_label
 _atom_site_symmetry_multiplicity
 _atom_site_fract_x
 _atom_site_fract_y
 _atom_site_fract_z
 _atom_site_occupancy
  Dy  Dy0  1  0.51037452  0.17265918  0.82734082  1
  Dy  Dy1  1  0.51021427  0.65468228  0.82731137  1
  Dy  Dy2  1  0.51021427  0.17268863  0.34531772  1
  Dy  Dy3  1  0.01037452  0.82734082  0.17265918  1
  Dy  Dy4  1  0.01021427  0.34531772  0.17268863  1
  Dy  Dy5  1  0.01021427  0.82731137  0.65468228  1
  Dy  Dy6  1  0.82761406  0.33332396  0.66667604  1
  Dy  Dy7  1  0.32761406  0.66667604  0.33332396  1
  Dy  Dy8  1  0.20737824  0.46339447  0.53660553  1
  Dy  Dy9  1  0.20743710  0.07319231  0.53659533  1
  Dy  Dy10  1  0.20743710  0.46340467  0.92680769  1
  Dy  Dy11  1  0.70737824  0.53660553  0.46339447  1
  Dy  Dy12  1  0.70743710  0.92680769  0.46340467  1
  Dy  Dy13  1  0.70743710  0.53659533  0.07319231  1
  Dy  Dy14  1  0.23142919  0.00001237  0.99998763  1
  Dy  Dy15  1  0.73142919  0.99998763  0.00001237  1
  Ga  Ga16  1  0.96021149  0.16338798  0.83661202  1
  Ga  Ga17  1  0.96010322  0.67308458  0.83660862  1
  Ga  Ga18  1  0.96010322  0.16339138  0.32691542  1
  Ga  Ga19  1  0.46021149  0.83661202  0.16338798  1
  Ga  Ga20  1  0.46010322  0.32691542  0.16339138  1
  Ga  Ga21  1  0.46010322  0.83660862  0.67308458  1
  Co  Co22  1  0.44448334  0.33337670  0.66662330  1
  Co  Co23  1  0.94448334  0.66662330  0.33337670  1
