# generated using pymatgen
data_HoB4Mo
_symmetry_space_group_name_H-M   'P 1'
_cell_length_a   3.61643685
_cell_length_b   6.02060895
_cell_length_c   11.63467181
_cell_angle_alpha   90.00000000
_cell_angle_beta   90.00000000
_cell_angle_gamma   90.00000000
_symmetry_Int_Tables_number   1
_chemical_formula_structural   HoB4Mo
_chemical_formula_sum   'Ho4 B16 Mo4'
_cell_volume   253.32347856
_cell_formula_units_Z   4
loop_
 _symmetry_equiv_pos_site_id
 _symmetry_equiv_pos_as_xyz
  1  'x, y, z'
loop_
 _atom_site_type_symbol
 _atom_site_label
 _atom_site_symmetry_multiplicity
 _atom_site_fract_x
 _atom_site_fract_y
 _atom_site_fract_z
 _atom_site_occupancy
  Ho  Ho0  1  0.00000000  0.62686086  0.35013006  1
  Ho  Ho1  1  -0.00000000  0.37313914  0.64986994  1
  Ho  Ho2  1  0.00000000  0.12686086  0.14986994  1
  Ho  Ho3  1  0.00000000  0.87313914  0.85013006  1
  B  B4  1  0.50000000  0.78686545  0.18650092  1
  B  B5  1  0.50000000  0.21313455  0.81349908  1
  B  B6  1  0.50000000  0.28686545  0.31349908  1
  B  B7  1  0.50000000  0.71313455  0.68650092  1
  B  B8  1  0.50000000  0.86707140  0.03213328  1
  B  B9  1  0.50000000  0.13292860  0.96786672  1
  B  B10  1  0.50000000  0.36707140  0.46786672  1
  B  B11  1  0.50000000  0.63292860  0.53213328  1
  B  B12  1  0.50000000  0.88544709  0.45249764  1
  B  B13  1  0.50000000  0.11455291  0.54750236  1
  B  B14  1  0.50000000  0.38544709  0.04750236  1
  B  B15  1  0.50000000  0.61455291  0.95249764  1
  B  B16  1  0.50000000  0.97589041  0.30638208  1
  B  B17  1  0.50000000  0.02410959  0.69361792  1
  B  B18  1  0.50000000  0.47589041  0.19361792  1
  B  B19  1  0.50000000  0.52410959  0.80638208  1
  Mo  Mo20  1  0.00000000  0.62986154  0.08366447  1
  Mo  Mo21  1  -0.00000000  0.37013846  0.91633553  1
  Mo  Mo22  1  -0.00000000  0.12986154  0.41633553  1
  Mo  Mo23  1  -0.00000000  0.87013846  0.58366447  1
