# generated using pymatgen
data_ErFeB4
_symmetry_space_group_name_H-M   'P 1'
_cell_length_a   3.35497246
_cell_length_b   5.85761907
_cell_length_c   11.31907131
_cell_angle_alpha   90.00000000
_cell_angle_beta   90.00000000
_cell_angle_gamma   90.00000000
_symmetry_Int_Tables_number   1
_chemical_formula_structural   ErFeB4
_chemical_formula_sum   'Er4 Fe4 B16'
_cell_volume   222.44409473
_cell_formula_units_Z   4
loop_
 _symmetry_equiv_pos_site_id
 _symmetry_equiv_pos_as_xyz
  1  'x, y, z'
loop_
 _atom_site_type_symbol
 _atom_site_label
 _atom_site_symmetry_multiplicity
 _atom_site_fract_x
 _atom_site_fract_y
 _atom_site_fract_z
 _atom_site_occupancy
  Er  Er0  1  -0.00000000  0.62743715  0.34967529  1
  Er  Er1  1  -0.00000000  0.37256285  0.65032471  1
  Er  Er2  1  0.00000000  0.12743715  0.15032471  1
  Er  Er3  1  -0.00000000  0.87256285  0.84967529  1
  Fe  Fe4  1  0.00000000  0.63442143  0.08888274  1
  Fe  Fe5  1  0.00000000  0.36557857  0.91111726  1
  Fe  Fe6  1  -0.00000000  0.13442143  0.41111726  1
  Fe  Fe7  1  -0.00000000  0.86557857  0.58888274  1
  B  B8  1  0.50000000  0.78362046  0.18383169  1
  B  B9  1  0.50000000  0.21637954  0.81616831  1
  B  B10  1  0.50000000  0.28362046  0.31616831  1
  B  B11  1  0.50000000  0.71637954  0.68383169  1
  B  B12  1  0.50000000  0.86168549  0.03170923  1
  B  B13  1  0.50000000  0.13831451  0.96829077  1
  B  B14  1  0.50000000  0.36168549  0.46829077  1
  B  B15  1  0.50000000  0.63831451  0.53170923  1
  B  B16  1  0.50000000  0.88929668  0.45389956  1
  B  B17  1  0.50000000  0.11070332  0.54610044  1
  B  B18  1  0.50000000  0.38929668  0.04610044  1
  B  B19  1  0.50000000  0.61070332  0.95389956  1
  B  B20  1  0.50000000  0.97665301  0.30972570  1
  B  B21  1  0.50000000  0.02334699  0.69027430  1
  B  B22  1  0.50000000  0.47665301  0.19027430  1
  B  B23  1  0.50000000  0.52334699  0.80972570  1
