# generated using pymatgen
data_PrIn2Ni9
_symmetry_space_group_name_H-M   'P 1'
_cell_length_a   4.83659920
_cell_length_b   8.28679762
_cell_length_c   8.28679762
_cell_angle_alpha   90.00000000
_cell_angle_beta   90.00000000
_cell_angle_gamma   90.00000000
_symmetry_Int_Tables_number   1
_chemical_formula_structural   PrIn2Ni9
_chemical_formula_sum   'Pr2 In4 Ni18'
_cell_volume   332.13417522
_cell_formula_units_Z   2
loop_
 _symmetry_equiv_pos_site_id
 _symmetry_equiv_pos_as_xyz
  1  'x, y, z'
loop_
 _atom_site_type_symbol
 _atom_site_label
 _atom_site_symmetry_multiplicity
 _atom_site_fract_x
 _atom_site_fract_y
 _atom_site_fract_z
 _atom_site_occupancy
  Pr  Pr0  1  -0.00000000  0.50000000  0.50000000  1
  Pr  Pr1  1  -0.00000000  -0.00000000  -0.00000000  1
  In  In2  1  -0.00000000  0.12420763  0.62420763  1
  In  In3  1  -0.00000000  0.87579237  0.37579237  1
  In  In4  1  -0.00000000  0.37579237  0.12420763  1
  In  In5  1  -0.00000000  0.62420763  0.87579237  1
  Ni  Ni6  1  0.50000000  0.00000000  0.50000000  1
  Ni  Ni7  1  0.50000000  0.50000000  -0.00000000  1
  Ni  Ni8  1  0.50000000  0.56505730  0.70930019  1
  Ni  Ni9  1  0.50000000  0.43494270  0.29069981  1
  Ni  Ni10  1  0.50000000  0.93494270  0.20930019  1
  Ni  Ni11  1  0.50000000  0.06505730  0.79069981  1
  Ni  Ni12  1  0.50000000  0.70930019  0.43494270  1
  Ni  Ni13  1  0.50000000  0.29069981  0.56505730  1
  Ni  Ni14  1  0.50000000  0.20930019  0.06505730  1
  Ni  Ni15  1  0.50000000  0.79069981  0.93494270  1
  Ni  Ni16  1  0.75084696  0.32407219  0.82407219  1
  Ni  Ni17  1  0.75084696  0.67592781  0.17592781  1
  Ni  Ni18  1  0.75084696  0.17592781  0.32407219  1
  Ni  Ni19  1  0.75084696  0.82407219  0.67592781  1
  Ni  Ni20  1  0.24915304  0.67592781  0.17592781  1
  Ni  Ni21  1  0.24915304  0.32407219  0.82407219  1
  Ni  Ni22  1  0.24915304  0.82407219  0.67592781  1
  Ni  Ni23  1  0.24915304  0.17592781  0.32407219  1
