# generated using pymatgen
data_Tb3NiGe2
_symmetry_space_group_name_H-M   'P 1'
_cell_length_a   4.18556521
_cell_length_b   11.27583813
_cell_length_c   11.41986130
_cell_angle_alpha   90.00000000
_cell_angle_beta   90.00000000
_cell_angle_gamma   90.00000000
_symmetry_Int_Tables_number   1
_chemical_formula_structural   Tb3NiGe2
_chemical_formula_sum   'Tb12 Ni4 Ge8'
_cell_volume   538.96898508
_cell_formula_units_Z   4
loop_
 _symmetry_equiv_pos_site_id
 _symmetry_equiv_pos_as_xyz
  1  'x, y, z'
loop_
 _atom_site_type_symbol
 _atom_site_label
 _atom_site_symmetry_multiplicity
 _atom_site_fract_x
 _atom_site_fract_y
 _atom_site_fract_z
 _atom_site_occupancy
  Tb  Tb0  1  0.25000000  0.05890411  0.88168989  1
  Tb  Tb1  1  0.25000000  0.44109589  0.38168989  1
  Tb  Tb2  1  0.75000000  0.94109589  0.11831011  1
  Tb  Tb3  1  0.75000000  0.55890411  0.61831011  1
  Tb  Tb4  1  0.25000000  0.12723326  0.55541446  1
  Tb  Tb5  1  0.25000000  0.37276674  0.05541446  1
  Tb  Tb6  1  0.75000000  0.87276674  0.44458554  1
  Tb  Tb7  1  0.75000000  0.62723326  0.94458554  1
  Tb  Tb8  1  0.25000000  0.80505812  0.71990450  1
  Tb  Tb9  1  0.25000000  0.69494188  0.21990450  1
  Tb  Tb10  1  0.75000000  0.19494188  0.28009550  1
  Tb  Tb11  1  0.75000000  0.30505812  0.78009550  1
  Ni  Ni12  1  0.25000000  0.37117341  0.62709312  1
  Ni  Ni13  1  0.25000000  0.12882659  0.12709312  1
  Ni  Ni14  1  0.75000000  0.62882659  0.37290688  1
  Ni  Ni15  1  0.75000000  0.87117341  0.87290688  1
  Ge  Ge16  1  0.25000000  0.81174044  0.98104083  1
  Ge  Ge17  1  0.25000000  0.68825956  0.48104083  1
  Ge  Ge18  1  0.75000000  0.18825956  0.01895917  1
  Ge  Ge19  1  0.75000000  0.31174044  0.51895917  1
  Ge  Ge20  1  0.25000000  0.50057888  0.80581051  1
  Ge  Ge21  1  0.25000000  0.99942112  0.30581051  1
  Ge  Ge22  1  0.75000000  0.49942112  0.19418949  1
  Ge  Ge23  1  0.75000000  0.00057888  0.69418949  1
