# generated using pymatgen
data_CsGd2Ag3Se5
_symmetry_space_group_name_H-M   'P 1'
_cell_length_a   4.36273006
_cell_length_b   8.13296420
_cell_length_c   17.74808334
_cell_angle_alpha   90.00000000
_cell_angle_beta   90.00000000
_cell_angle_gamma   105.55794516
_symmetry_Int_Tables_number   1
_chemical_formula_structural   CsGd2Ag3Se5
_chemical_formula_sum   'Cs2 Gd4 Ag6 Se10'
_cell_volume   606.66247696
_cell_formula_units_Z   2
loop_
 _symmetry_equiv_pos_site_id
 _symmetry_equiv_pos_as_xyz
  1  'x, y, z'
loop_
 _atom_site_type_symbol
 _atom_site_label
 _atom_site_symmetry_multiplicity
 _atom_site_fract_x
 _atom_site_fract_y
 _atom_site_fract_z
 _atom_site_occupancy
  Cs  Cs0  1  0.43803890  0.87607780  0.25000000  1
  Cs  Cs1  1  0.56196110  0.12392220  0.75000000  1
  Gd  Gd2  1  0.30752052  0.61504104  0.90503728  1
  Gd  Gd3  1  0.69247948  0.38495896  0.09496272  1
  Gd  Gd4  1  0.30752052  0.61504104  0.59496272  1
  Gd  Gd5  1  0.69247948  0.38495896  0.40503728  1
  Ag  Ag6  1  0.15610436  0.31220871  0.25000000  1
  Ag  Ag7  1  0.84389564  0.68779129  0.75000000  1
  Ag  Ag8  1  0.08316575  0.16633150  0.95922227  1
  Ag  Ag9  1  0.91683425  0.83366850  0.04077773  1
  Ag  Ag10  1  0.08316575  0.16633150  0.54077773  1
  Ag  Ag11  1  0.91683425  0.83366850  0.45922227  1
  Se  Se12  1  0.06805190  0.13610380  0.38366340  1
  Se  Se13  1  0.93194810  0.86389620  0.61633660  1
  Se  Se14  1  0.06805190  0.13610380  0.11633660  1
  Se  Se15  1  0.93194810  0.86389620  0.88366340  1
  Se  Se16  1  0.75205591  0.50411181  0.25000000  1
  Se  Se17  1  0.24794409  0.49588819  0.75000000  1
  Se  Se18  1  0.31931360  0.63862719  0.43002340  1
  Se  Se19  1  0.68068640  0.36137281  0.56997660  1
  Se  Se20  1  0.31931360  0.63862719  0.06997660  1
  Se  Se21  1  0.68068640  0.36137281  0.93002340  1
