# generated using pymatgen
data_Tb11In9Ni4
_symmetry_space_group_name_H-M   'P 1'
_cell_length_a   3.63734456
_cell_length_b   12.97708594
_cell_length_c   12.97708594
_cell_angle_alpha   110.88831899
_cell_angle_beta   90.00000000
_cell_angle_gamma   90.00000000
_symmetry_Int_Tables_number   1
_chemical_formula_structural   Tb11In9Ni4
_chemical_formula_sum   'Tb11 In9 Ni4'
_cell_volume   572.28787905
_cell_formula_units_Z   1
loop_
 _symmetry_equiv_pos_site_id
 _symmetry_equiv_pos_as_xyz
  1  'x, y, z'
loop_
 _atom_site_type_symbol
 _atom_site_label
 _atom_site_symmetry_multiplicity
 _atom_site_fract_x
 _atom_site_fract_y
 _atom_site_fract_z
 _atom_site_occupancy
  Tb  Tb0  1  -0.00000000  0.92207084  0.58011550  1
  Tb  Tb1  1  -0.00000000  0.07792916  0.41988450  1
  Tb  Tb2  1  -0.00000000  0.58011550  0.92207084  1
  Tb  Tb3  1  -0.00000000  0.41988450  0.07792916  1
  Tb  Tb4  1  -0.00000000  0.15862921  0.84137079  1
  Tb  Tb5  1  -0.00000000  0.84137079  0.15862921  1
  Tb  Tb6  1  -0.00000000  0.37535826  0.62464174  1
  Tb  Tb7  1  -0.00000000  0.62464174  0.37535826  1
  Tb  Tb8  1  -0.00000000  0.68593175  0.68593175  1
  Tb  Tb9  1  -0.00000000  0.31406825  0.31406825  1
  Tb  Tb10  1  -0.00000000  0.00000000  -0.00000000  1
  In  In11  1  0.50000000  0.16082368  0.63251813  1
  In  In12  1  0.50000000  0.83917632  0.36748187  1
  In  In13  1  0.50000000  0.63251813  0.16082368  1
  In  In14  1  0.50000000  0.36748187  0.83917632  1
  In  In15  1  0.50000000  0.92201319  0.77975218  1
  In  In16  1  0.50000000  0.07798681  0.22024782  1
  In  In17  1  0.50000000  0.77975218  0.92201319  1
  In  In18  1  0.50000000  0.22024782  0.07798681  1
  In  In19  1  0.50000000  0.50000000  0.50000000  1
  Ni  Ni20  1  0.50000000  0.75137597  0.55028419  1
  Ni  Ni21  1  0.50000000  0.24862403  0.44971581  1
  Ni  Ni22  1  0.50000000  0.55028419  0.75137597  1
  Ni  Ni23  1  0.50000000  0.44971581  0.24862403  1
