# generated using pymatgen
data_Ga9Ir2
_symmetry_space_group_name_H-M   'P 1'
_cell_length_a   6.50247930
_cell_length_b   6.43313433
_cell_length_c   9.00820591
_cell_angle_alpha   90.00000000
_cell_angle_beta   93.64841316
_cell_angle_gamma   90.00000000
_symmetry_Int_Tables_number   1
_chemical_formula_structural   Ga9Ir2
_chemical_formula_sum   'Ga18 Ir4'
_cell_volume   376.06146392
_cell_formula_units_Z   2
loop_
 _symmetry_equiv_pos_site_id
 _symmetry_equiv_pos_as_xyz
  1  'x, y, z'
loop_
 _atom_site_type_symbol
 _atom_site_label
 _atom_site_symmetry_multiplicity
 _atom_site_fract_x
 _atom_site_fract_y
 _atom_site_fract_z
 _atom_site_occupancy
  Ga  Ga0  1  -0.00000000  0.50000000  0.50000000  1
  Ga  Ga1  1  -0.00000000  -0.00000000  -0.00000000  1
  Ga  Ga2  1  0.60103766  0.48417094  0.23325183  1
  Ga  Ga3  1  0.39896234  0.98417094  0.26674817  1
  Ga  Ga4  1  0.39896234  0.51582906  0.76674817  1
  Ga  Ga5  1  0.60103766  0.01582906  0.73325183  1
  Ga  Ga6  1  0.89781755  0.78056021  0.27387816  1
  Ga  Ga7  1  0.10218245  0.28056021  0.22612184  1
  Ga  Ga8  1  0.10218245  0.21943979  0.72612184  1
  Ga  Ga9  1  0.89781755  0.71943979  0.77387816  1
  Ga  Ga10  1  0.61142113  0.70132434  0.50029791  1
  Ga  Ga11  1  0.38857887  0.20132434  -0.00029791  1
  Ga  Ga12  1  0.38857887  0.29867566  0.49970209  1
  Ga  Ga13  1  0.61142113  0.79867566  0.00029791  1
  Ga  Ga14  1  0.78692855  0.10060461  0.45751614  1
  Ga  Ga15  1  0.21307145  0.60060461  0.04248386  1
  Ga  Ga16  1  0.21307145  0.89939539  0.54248386  1
  Ga  Ga17  1  0.78692855  0.39939539  0.95751614  1
  Ir  Ir18  1  0.73850556  0.12418757  0.16691614  1
  Ir  Ir19  1  0.26149444  0.62418757  0.33308386  1
  Ir  Ir20  1  0.26149444  0.87581243  0.83308386  1
  Ir  Ir21  1  0.73850556  0.37581243  0.66691614  1
