# generated using pymatgen
data_Tm5(In2Pd)2
_symmetry_space_group_name_H-M   'P 1'
_cell_length_a   3.58600434
_cell_length_b   8.06366379
_cell_length_c   18.08444072
_cell_angle_alpha   90.00000000
_cell_angle_beta   90.00000000
_cell_angle_gamma   90.00000000
_symmetry_Int_Tables_number   1
_chemical_formula_structural   Tm5(In2Pd)2
_chemical_formula_sum   'Tm10 In8 Pd4'
_cell_volume   522.93571626
_cell_formula_units_Z   2
loop_
 _symmetry_equiv_pos_site_id
 _symmetry_equiv_pos_as_xyz
  1  'x, y, z'
loop_
 _atom_site_type_symbol
 _atom_site_label
 _atom_site_symmetry_multiplicity
 _atom_site_fract_x
 _atom_site_fract_y
 _atom_site_fract_z
 _atom_site_occupancy
  Tm  Tm0  1  0.00000000  0.50000000  0.50000000  1
  Tm  Tm1  1  0.00000000  -0.00000000  0.00000000  1
  Tm  Tm2  1  0.00000000  0.73869427  0.28044350  1
  Tm  Tm3  1  0.00000000  0.26130573  0.71955650  1
  Tm  Tm4  1  -0.00000000  0.76130573  0.78044350  1
  Tm  Tm5  1  -0.00000000  0.23869427  0.21955650  1
  Tm  Tm6  1  0.00000000  0.61187114  0.08276401  1
  Tm  Tm7  1  0.00000000  0.38812886  0.91723599  1
  Tm  Tm8  1  -0.00000000  0.88812886  0.58276401  1
  Tm  Tm9  1  0.00000000  0.11187114  0.41723599  1
  In  In10  1  0.50000000  0.71312508  0.93138172  1
  In  In11  1  0.50000000  0.28687492  0.06861828  1
  In  In12  1  0.50000000  0.78687492  0.43138172  1
  In  In13  1  0.50000000  0.21312508  0.56861828  1
  In  In14  1  0.50000000  0.58300899  0.64840229  1
  In  In15  1  0.50000000  0.41699101  0.35159771  1
  In  In16  1  0.50000000  0.91699101  0.14840229  1
  In  In17  1  0.50000000  0.08300899  0.85159771  1
  Pd  Pd18  1  0.50000000  0.52366232  0.19677198  1
  Pd  Pd19  1  0.50000000  0.47633768  0.80322802  1
  Pd  Pd20  1  0.50000000  0.97633768  0.69677198  1
  Pd  Pd21  1  0.50000000  0.02366232  0.30322802  1
