# generated using pymatgen
data_CaMn4O8
_symmetry_space_group_name_H-M   'P 1'
_cell_length_a   3.07465473
_cell_length_b   7.11981192
_cell_length_c   7.12600907
_cell_angle_alpha   83.31224069
_cell_angle_beta   77.54284725
_cell_angle_gamma   77.51622781
_symmetry_Int_Tables_number   1
_chemical_formula_structural   CaMn4O8
_chemical_formula_sum   'Ca1 Mn4 O8'
_cell_volume   148.32190287
_cell_formula_units_Z   1
loop_
 _symmetry_equiv_pos_site_id
 _symmetry_equiv_pos_as_xyz
  1  'x, y, z'
loop_
 _atom_site_type_symbol
 _atom_site_label
 _atom_site_symmetry_multiplicity
 _atom_site_fract_x
 _atom_site_fract_y
 _atom_site_fract_z
 _atom_site_occupancy
  Ca  Ca0  1  0.40773180  0.07668574  0.10789723  1
  Mn  Mn1  1  0.63518265  0.17304402  0.55666186  1
  Mn  Mn2  1  0.14338397  0.49825334  0.21531797  1
  Mn  Mn3  1  0.82924959  0.49686874  0.84477220  1
  Mn  Mn4  1  0.34327110  0.80782859  0.50576603  1
  O  O5  1  0.84575377  0.67960106  0.62905889  1
  O  O6  1  0.44872199  0.34193317  0.76077087  1
  O  O7  1  0.52955183  0.64518672  0.29612846  1
  O  O8  1  0.14015569  0.29808626  0.42200241  1
  O  O9  1  0.14826521  0.02246529  0.68075775  1
  O  O10  1  0.79048458  0.32898739  0.08996348  1
  O  O11  1  0.83423440  0.97283094  0.35881844  1
  O  O12  1  0.20149441  0.63433773  0.96273041  1
