# generated using pymatgen
data_DyVB4
_symmetry_space_group_name_H-M   'P 1'
_cell_length_a   3.45166542
_cell_length_b   6.00595581
_cell_length_c   11.62955976
_cell_angle_alpha   90.00000000
_cell_angle_beta   90.00000000
_cell_angle_gamma   90.00000000
_symmetry_Int_Tables_number   1
_chemical_formula_structural   DyVB4
_chemical_formula_sum   'Dy4 V4 B16'
_cell_volume   241.08716989
_cell_formula_units_Z   4
loop_
 _symmetry_equiv_pos_site_id
 _symmetry_equiv_pos_as_xyz
  1  'x, y, z'
loop_
 _atom_site_type_symbol
 _atom_site_label
 _atom_site_symmetry_multiplicity
 _atom_site_fract_x
 _atom_site_fract_y
 _atom_site_fract_z
 _atom_site_occupancy
  Dy  Dy0  1  0.00000000  0.62439701  0.34848762  1
  Dy  Dy1  1  0.00000000  0.37560299  0.65151238  1
  Dy  Dy2  1  0.00000000  0.12439701  0.15151238  1
  Dy  Dy3  1  0.00000000  0.87560299  0.84848762  1
  V  V4  1  -0.00000000  0.62703946  0.08267054  1
  V  V5  1  0.00000000  0.37296054  0.91732946  1
  V  V6  1  0.00000000  0.12703946  0.41732946  1
  V  V7  1  -0.00000000  0.87296054  0.58267054  1
  B  B8  1  0.50000000  0.78624164  0.18551996  1
  B  B9  1  0.50000000  0.21375836  0.81448004  1
  B  B10  1  0.50000000  0.28624164  0.31448004  1
  B  B11  1  0.50000000  0.71375836  0.68551996  1
  B  B12  1  0.50000000  0.86413690  0.03257928  1
  B  B13  1  0.50000000  0.13586310  0.96742072  1
  B  B14  1  0.50000000  0.36413690  0.46742072  1
  B  B15  1  0.50000000  0.63586310  0.53257928  1
  B  B16  1  0.50000000  0.88549019  0.45242481  1
  B  B17  1  0.50000000  0.11450981  0.54757519  1
  B  B18  1  0.50000000  0.38549019  0.04757519  1
  B  B19  1  0.50000000  0.61450981  0.95242481  1
  B  B20  1  0.50000000  0.97759851  0.30772595  1
  B  B21  1  0.50000000  0.02240149  0.69227405  1
  B  B22  1  0.50000000  0.47759851  0.19227405  1
  B  B23  1  0.50000000  0.52240149  0.80772595  1
