# generated using pymatgen
data_HoCrB4
_symmetry_space_group_name_H-M   'P 1'
_cell_length_a   3.43382634
_cell_length_b   5.91439364
_cell_length_c   11.43038054
_cell_angle_alpha   90.00000000
_cell_angle_beta   90.00000000
_cell_angle_gamma   90.00000000
_symmetry_Int_Tables_number   1
_chemical_formula_structural   HoCrB4
_chemical_formula_sum   'Ho4 Cr4 B16'
_cell_volume   232.13960600
_cell_formula_units_Z   4
loop_
 _symmetry_equiv_pos_site_id
 _symmetry_equiv_pos_as_xyz
  1  'x, y, z'
loop_
 _atom_site_type_symbol
 _atom_site_label
 _atom_site_symmetry_multiplicity
 _atom_site_fract_x
 _atom_site_fract_y
 _atom_site_fract_z
 _atom_site_occupancy
  Ho  Ho0  1  0.00000000  0.62636693  0.34917262  1
  Ho  Ho1  1  0.00000000  0.37363307  0.65082738  1
  Ho  Ho2  1  -0.00000000  0.12636693  0.15082738  1
  Ho  Ho3  1  0.00000000  0.87363307  0.84917262  1
  Cr  Cr4  1  -0.00000000  0.62317798  0.07950043  1
  Cr  Cr5  1  -0.00000000  0.37682202  0.92049957  1
  Cr  Cr6  1  0.00000000  0.12317798  0.42049957  1
  Cr  Cr7  1  -0.00000000  0.87682202  0.57950043  1
  B  B8  1  0.50000000  0.78268781  0.18407757  1
  B  B9  1  0.50000000  0.21731219  0.81592243  1
  B  B10  1  0.50000000  0.28268781  0.31592243  1
  B  B11  1  0.50000000  0.71731219  0.68407757  1
  B  B12  1  0.50000000  0.86358902  0.03261916  1
  B  B13  1  0.50000000  0.13641098  0.96738084  1
  B  B14  1  0.50000000  0.36358902  0.46738084  1
  B  B15  1  0.50000000  0.63641098  0.53261916  1
  B  B16  1  0.50000000  0.88696030  0.45326457  1
  B  B17  1  0.50000000  0.11303970  0.54673543  1
  B  B18  1  0.50000000  0.38696030  0.04673543  1
  B  B19  1  0.50000000  0.61303970  0.95326457  1
  B  B20  1  0.50000000  0.97700134  0.30842205  1
  B  B21  1  0.50000000  0.02299866  0.69157795  1
  B  B22  1  0.50000000  0.47700134  0.19157795  1
  B  B23  1  0.50000000  0.52299866  0.80842205  1
