# generated using pymatgen
data_Cd3(BO3)2
_symmetry_space_group_name_H-M   'P 1'
_cell_length_a   6.22232437
_cell_length_b   6.26384979
_cell_length_c   7.55609081
_cell_angle_alpha   76.40649181
_cell_angle_beta   80.63807665
_cell_angle_gamma   82.23941000
_symmetry_Int_Tables_number   1
_chemical_formula_structural   Cd3(BO3)2
_chemical_formula_sum   'Cd6 B4 O12'
_cell_volume   280.99901038
_cell_formula_units_Z   2
loop_
 _symmetry_equiv_pos_site_id
 _symmetry_equiv_pos_as_xyz
  1  'x, y, z'
loop_
 _atom_site_type_symbol
 _atom_site_label
 _atom_site_symmetry_multiplicity
 _atom_site_fract_x
 _atom_site_fract_y
 _atom_site_fract_z
 _atom_site_occupancy
  Cd  Cd0  1  0.27075079  0.93538961  0.44090767  1
  Cd  Cd1  1  0.72924921  0.06461039  0.55909233  1
  Cd  Cd2  1  0.62587518  0.23947218  0.99844559  1
  Cd  Cd3  1  0.37412482  0.76052782  0.00155441  1
  Cd  Cd4  1  0.86719774  0.55698965  0.29408551  1
  Cd  Cd5  1  0.13280226  0.44301035  0.70591449  1
  B  B6  1  0.62019460  0.56540668  0.63871219  1
  B  B7  1  0.37980540  0.43459332  0.36128781  1
  B  B8  1  0.08805206  0.16744528  0.12681464  1
  B  B9  1  0.91194794  0.83255472  0.87318536  1
  O  O10  1  0.60850919  0.75524935  0.49699079  1
  O  O11  1  0.39149081  0.24475065  0.50300921  1
  O  O12  1  0.46354756  0.52999761  0.79359569  1
  O  O13  1  0.53645244  0.47000239  0.20640431  1
  O  O14  1  0.30743829  0.07373165  0.11866041  1
  O  O15  1  0.69256171  0.92626835  0.88133959  1
  O  O16  1  0.79331681  0.40435814  0.61542669  1
  O  O17  1  0.20668319  0.59564186  0.38457331  1
  O  O18  1  0.98947519  0.25537398  0.97256786  1
  O  O19  1  0.01052481  0.74462602  0.02743214  1
  O  O20  1  0.97701820  0.17140689  0.30212464  1
  O  O21  1  0.02298180  0.82859311  0.69787536  1
