# generated using pymatgen
data_Sr2MnSi2O7
_symmetry_space_group_name_H-M   'P 1'
_cell_length_a   5.22482948
_cell_length_b   8.23069991
_cell_length_c   8.23069991
_cell_angle_alpha   90.00000000
_cell_angle_beta   90.00000000
_cell_angle_gamma   90.00000000
_symmetry_Int_Tables_number   1
_chemical_formula_structural   Sr2MnSi2O7
_chemical_formula_sum   'Sr4 Mn2 Si4 O14'
_cell_volume   353.95304799
_cell_formula_units_Z   2
loop_
 _symmetry_equiv_pos_site_id
 _symmetry_equiv_pos_as_xyz
  1  'x, y, z'
loop_
 _atom_site_type_symbol
 _atom_site_label
 _atom_site_symmetry_multiplicity
 _atom_site_fract_x
 _atom_site_fract_y
 _atom_site_fract_z
 _atom_site_occupancy
  Sr  Sr0  1  0.50476840  0.33245604  0.16754396  1
  Sr  Sr1  1  0.49523160  0.16754396  0.66754396  1
  Sr  Sr2  1  0.50476840  0.66754396  0.83245604  1
  Sr  Sr3  1  0.49523160  0.83245604  0.33245604  1
  Mn  Mn4  1  0.00000000  0.50000000  0.50000000  1
  Mn  Mn5  1  0.00000000  -0.00000000  -0.00000000  1
  Si  Si6  1  0.94125937  0.13708042  0.36291958  1
  Si  Si7  1  0.05874063  0.36291958  0.86291958  1
  Si  Si8  1  0.94125937  0.86291958  0.63708042  1
  Si  Si9  1  0.05874063  0.63708042  0.13708042  1
  O  O10  1  0.16013859  0.50000000  -0.00000000  1
  O  O11  1  0.83986141  -0.00000000  0.50000000  1
  O  O12  1  0.24998533  0.14239454  0.35760546  1
  O  O13  1  0.75001467  0.35760546  0.85760546  1
  O  O14  1  0.24998533  0.85760546  0.64239454  1
  O  O15  1  0.75001467  0.64239454  0.14239454  1
  O  O16  1  0.79230838  0.30314071  0.42220299  1
  O  O17  1  0.20769162  0.19685929  0.92220299  1
  O  O18  1  0.79230838  0.69685929  0.57779701  1
  O  O19  1  0.20769162  0.80314071  0.07779701  1
  O  O20  1  0.20769162  0.57779701  0.30314071  1
  O  O21  1  0.79230838  0.92220299  0.80314071  1
  O  O22  1  0.20769162  0.42220299  0.69685929  1
  O  O23  1  0.79230838  0.07779701  0.19685929  1
