# generated using pymatgen
data_Al9Fe2
_symmetry_space_group_name_H-M   'P 1'
_cell_length_a   6.11011833
_cell_length_b   6.30829905
_cell_length_c   8.68034477
_cell_angle_alpha   90.00000000
_cell_angle_beta   95.19136952
_cell_angle_gamma   90.00000000
_symmetry_Int_Tables_number   1
_chemical_formula_structural   Al9Fe2
_chemical_formula_sum   'Al18 Fe4'
_cell_volume   333.20671617
_cell_formula_units_Z   2
loop_
 _symmetry_equiv_pos_site_id
 _symmetry_equiv_pos_as_xyz
  1  'x, y, z'
loop_
 _atom_site_type_symbol
 _atom_site_label
 _atom_site_symmetry_multiplicity
 _atom_site_fract_x
 _atom_site_fract_y
 _atom_site_fract_z
 _atom_site_occupancy
  Al  Al0  1  -0.00000000  0.50000000  0.50000000  1
  Al  Al1  1  -0.00000000  -0.00000000  0.00000000  1
  Al  Al2  1  0.58375666  0.45321422  0.23165932  1
  Al  Al3  1  0.41624334  0.95321422  0.26834068  1
  Al  Al4  1  0.41624334  0.54678578  0.76834068  1
  Al  Al5  1  0.58375666  0.04678578  0.73165932  1
  Al  Al6  1  0.92091249  0.80101831  0.27293067  1
  Al  Al7  1  0.07908751  0.30101831  0.22706933  1
  Al  Al8  1  0.07908751  0.19898169  0.72706933  1
  Al  Al9  1  0.92091249  0.69898169  0.77293067  1
  Al  Al10  1  0.60953495  0.68688325  0.50393459  1
  Al  Al11  1  0.39046505  0.18688325  0.99606541  1
  Al  Al12  1  0.39046505  0.31311675  0.49606541  1
  Al  Al13  1  0.60953495  0.81311675  0.00393459  1
  Al  Al14  1  0.78032294  0.11783440  0.45389024  1
  Al  Al15  1  0.21967706  0.61783440  0.04610976  1
  Al  Al16  1  0.21967706  0.88216560  0.54610976  1
  Al  Al17  1  0.78032294  0.38216560  0.95389024  1
  Fe  Fe18  1  0.73640262  0.11792817  0.16543287  1
  Fe  Fe19  1  0.26359738  0.61792817  0.33456713  1
  Fe  Fe20  1  0.26359738  0.88207183  0.83456713  1
  Fe  Fe21  1  0.73640262  0.38207183  0.66543287  1
