# generated using pymatgen
data_Tm4Ni13C4
_symmetry_space_group_name_H-M   'P 1'
_cell_length_a   3.82501350
_cell_length_b   8.33126007
_cell_length_c   8.33126007
_cell_angle_alpha   91.44574204
_cell_angle_beta   90.00000000
_cell_angle_gamma   90.00000000
_symmetry_Int_Tables_number   1
_chemical_formula_structural   Tm4Ni13C4
_chemical_formula_sum   'Tm4 Ni13 C4'
_cell_volume   265.40926730
_cell_formula_units_Z   1
loop_
 _symmetry_equiv_pos_site_id
 _symmetry_equiv_pos_as_xyz
  1  'x, y, z'
loop_
 _atom_site_type_symbol
 _atom_site_label
 _atom_site_symmetry_multiplicity
 _atom_site_fract_x
 _atom_site_fract_y
 _atom_site_fract_z
 _atom_site_occupancy
  Tm  Tm0  1  0.50000000  0.18636303  0.81363697  1
  Tm  Tm1  1  0.50000000  0.81363697  0.18636303  1
  Tm  Tm2  1  0.50000000  0.65150690  0.65150690  1
  Tm  Tm3  1  0.50000000  0.34849310  0.34849310  1
  Ni  Ni4  1  0.50000000  0.00000000  0.50000000  1
  Ni  Ni5  1  0.50000000  0.50000000  0.00000000  1
  Ni  Ni6  1  -0.00000000  -0.00000000  -0.00000000  1
  Ni  Ni7  1  0.00000000  0.78393044  0.43010211  1
  Ni  Ni8  1  -0.00000000  0.21606956  0.56989789  1
  Ni  Ni9  1  -0.00000000  0.56989789  0.21606956  1
  Ni  Ni10  1  0.00000000  0.43010211  0.78393044  1
  Ni  Ni11  1  0.00000000  0.92481893  0.70873642  1
  Ni  Ni12  1  -0.00000000  0.07518107  0.29126358  1
  Ni  Ni13  1  -0.00000000  0.29126358  0.07518107  1
  Ni  Ni14  1  0.00000000  0.70873642  0.92481893  1
  Ni  Ni15  1  0.50000000  0.87586516  0.87586516  1
  Ni  Ni16  1  0.50000000  0.12413484  0.12413484  1
  C  C17  1  0.00000000  0.55684937  0.44315063  1
  C  C18  1  -0.00000000  0.44315063  0.55684937  1
  C  C19  1  0.00000000  0.00000000  0.50000000  1
  C  C20  1  0.00000000  0.50000000  -0.00000000  1
