# generated using pymatgen
data_Mg(NiS2)4
_symmetry_space_group_name_H-M   'P 1'
_cell_length_a   7.05904758
_cell_length_b   7.05904736
_cell_length_c   7.05904845
_cell_angle_alpha   57.11276126
_cell_angle_beta   57.11275590
_cell_angle_gamma   57.11276220
_symmetry_Int_Tables_number   1
_chemical_formula_structural   Mg(NiS2)4
_chemical_formula_sum   'Mg1 Ni4 S8'
_cell_volume   232.17798143
_cell_formula_units_Z   1
loop_
 _symmetry_equiv_pos_site_id
 _symmetry_equiv_pos_as_xyz
  1  'x, y, z'
loop_
 _atom_site_type_symbol
 _atom_site_label
 _atom_site_symmetry_multiplicity
 _atom_site_fract_x
 _atom_site_fract_y
 _atom_site_fract_z
 _atom_site_occupancy
  Mg  Mg0  1  0.50000000  0.50000100  0.49999900  1
  Ni  Ni1  1  0.50000100  0.99999900  0.50000100  1
  Ni  Ni2  1  0.99999900  0.50000000  0.50000100  1
  Ni  Ni3  1  0.50000000  0.50000000  0.00000000  1
  Ni  Ni4  1  0.00000000  0.00000000  0.00000000  1
  S  S5  1  0.76051204  0.27417502  0.76051204  1
  S  S6  1  0.23948696  0.23948795  0.72582498  1
  S  S7  1  0.23948696  0.72582598  0.23948696  1
  S  S8  1  0.72582398  0.23948795  0.23948796  1
  S  S9  1  0.26677455  0.26677555  0.26677454  1
  S  S10  1  0.73322545  0.73322545  0.73322546  1
  S  S11  1  0.27417602  0.76051305  0.76051204  1
  S  S12  1  0.76051304  0.76051305  0.27417502  1
