# generated using pymatgen
data_ScCoB4
_symmetry_space_group_name_H-M   'P 1'
_cell_length_a   3.21620763
_cell_length_b   5.76905666
_cell_length_c   11.13366110
_cell_angle_alpha   90.00000000
_cell_angle_beta   90.00000000
_cell_angle_gamma   90.00000000
_symmetry_Int_Tables_number   1
_chemical_formula_structural   ScCoB4
_chemical_formula_sum   'Sc4 Co4 B16'
_cell_volume   206.57933727
_cell_formula_units_Z   4
loop_
 _symmetry_equiv_pos_site_id
 _symmetry_equiv_pos_as_xyz
  1  'x, y, z'
loop_
 _atom_site_type_symbol
 _atom_site_label
 _atom_site_symmetry_multiplicity
 _atom_site_fract_x
 _atom_site_fract_y
 _atom_site_fract_z
 _atom_site_occupancy
  Sc  Sc0  1  0.00000000  0.63039466  0.35046120  1
  Sc  Sc1  1  0.00000000  0.36960534  0.64953880  1
  Sc  Sc2  1  -0.00000000  0.13039466  0.14953880  1
  Sc  Sc3  1  -0.00000000  0.86960534  0.85046120  1
  Co  Co4  1  -0.00000000  0.63577272  0.08999188  1
  Co  Co5  1  0.00000000  0.36422728  0.91000812  1
  Co  Co6  1  -0.00000000  0.13577272  0.41000812  1
  Co  Co7  1  0.00000000  0.86422728  0.58999188  1
  B  B8  1  0.50000000  0.78917189  0.18612641  1
  B  B9  1  0.50000000  0.21082811  0.81387359  1
  B  B10  1  0.50000000  0.28917189  0.31387359  1
  B  B11  1  0.50000000  0.71082811  0.68612641  1
  B  B12  1  0.50000000  0.86507734  0.03104842  1
  B  B13  1  0.50000000  0.13492266  0.96895158  1
  B  B14  1  0.50000000  0.36507734  0.46895158  1
  B  B15  1  0.50000000  0.63492266  0.53104842  1
  B  B16  1  0.50000000  0.88667818  0.45182663  1
  B  B17  1  0.50000000  0.11332182  0.54817337  1
  B  B18  1  0.50000000  0.38667818  0.04817337  1
  B  B19  1  0.50000000  0.61332182  0.95182663  1
  B  B20  1  0.50000000  0.97841301  0.30589096  1
  B  B21  1  0.50000000  0.02158699  0.69410904  1
  B  B22  1  0.50000000  0.47841301  0.19410904  1
  B  B23  1  0.50000000  0.52158699  0.80589096  1
