# generated using pymatgen
data_EuB4Ru
_symmetry_space_group_name_H-M   'P 1'
_cell_length_a   3.58906094
_cell_length_b   6.03891916
_cell_length_c   11.69107039
_cell_angle_alpha   90.00000000
_cell_angle_beta   90.00000000
_cell_angle_gamma   90.00000000
_symmetry_Int_Tables_number   1
_chemical_formula_structural   EuB4Ru
_chemical_formula_sum   'Eu4 B16 Ru4'
_cell_volume   253.39283106
_cell_formula_units_Z   4
loop_
 _symmetry_equiv_pos_site_id
 _symmetry_equiv_pos_as_xyz
  1  'x, y, z'
loop_
 _atom_site_type_symbol
 _atom_site_label
 _atom_site_symmetry_multiplicity
 _atom_site_fract_x
 _atom_site_fract_y
 _atom_site_fract_z
 _atom_site_occupancy
  Eu  Eu0  1  0.00000000  0.62789368  0.34963700  1
  Eu  Eu1  1  -0.00000000  0.37210632  0.65036300  1
  Eu  Eu2  1  0.00000000  0.12789368  0.15036300  1
  Eu  Eu3  1  -0.00000000  0.87210632  0.84963700  1
  B  B4  1  0.50000000  0.78449896  0.18423304  1
  B  B5  1  0.50000000  0.21550104  0.81576696  1
  B  B6  1  0.50000000  0.28449896  0.31576696  1
  B  B7  1  0.50000000  0.71550104  0.68423304  1
  B  B8  1  0.50000000  0.86204428  0.03130481  1
  B  B9  1  0.50000000  0.13795572  0.96869519  1
  B  B10  1  0.50000000  0.36204428  0.46869519  1
  B  B11  1  0.50000000  0.63795572  0.53130481  1
  B  B12  1  0.50000000  0.88856084  0.45380441  1
  B  B13  1  0.50000000  0.11143916  0.54619559  1
  B  B14  1  0.50000000  0.38856084  0.04619559  1
  B  B15  1  0.50000000  0.61143916  0.95380441  1
  B  B16  1  0.50000000  0.97600110  0.30955884  1
  B  B17  1  0.50000000  0.02399890  0.69044116  1
  B  B18  1  0.50000000  0.47600110  0.19044116  1
  B  B19  1  0.50000000  0.52399890  0.80955884  1
  Ru  Ru20  1  0.00000000  0.63536457  0.08881075  1
  Ru  Ru21  1  -0.00000000  0.36463543  0.91118925  1
  Ru  Ru22  1  0.00000000  0.13536457  0.41118925  1
  Ru  Ru23  1  -0.00000000  0.86463543  0.58881075  1
