# generated using pymatgen
data_CaSi7Ir3
_symmetry_space_group_name_H-M   'P 1'
_cell_length_a   7.63864467
_cell_length_b   7.63864461
_cell_length_c   8.03032229
_cell_angle_alpha   61.59905822
_cell_angle_beta   61.59905482
_cell_angle_gamma   59.99944688
_symmetry_Int_Tables_number   1
_chemical_formula_structural   CaSi7Ir3
_chemical_formula_sum   'Ca2 Si14 Ir6'
_cell_volume   339.10414837
_cell_formula_units_Z   2
loop_
 _symmetry_equiv_pos_site_id
 _symmetry_equiv_pos_as_xyz
  1  'x, y, z'
loop_
 _atom_site_type_symbol
 _atom_site_label
 _atom_site_symmetry_multiplicity
 _atom_site_fract_x
 _atom_site_fract_y
 _atom_site_fract_z
 _atom_site_occupancy
  Ca  Ca0  1  0.49999993  0.50000024  0.49999991  1
  Ca  Ca1  1  0.99999981  0.99999996  0.00000031  1
  Si  Si2  1  0.15023456  0.93328055  0.58900498  1
  Si  Si3  1  0.93328311  0.32747173  0.58900522  1
  Si  Si4  1  0.32747263  0.15023159  0.58900238  1
  Si  Si5  1  0.65023165  0.82747286  0.08900236  1
  Si  Si6  1  0.82747170  0.43328322  0.08900534  1
  Si  Si7  1  0.43328025  0.65023461  0.08900560  1
  Si  Si8  1  0.84976509  0.06671896  0.41099656  1
  Si  Si9  1  0.06671657  0.67252750  0.41099617  1
  Si  Si10  1  0.67252653  0.84976836  0.41099879  1
  Si  Si11  1  0.34976777  0.17252649  0.91099936  1
  Si  Si12  1  0.17252733  0.56671650  0.91099614  1
  Si  Si13  1  0.56671921  0.34976466  0.91099651  1
  Si  Si14  1  0.24999881  0.24999886  0.25000254  1
  Si  Si15  1  0.74999757  0.75000071  0.75000220  1
  Ir  Ir16  1  0.24999974  0.92961321  0.25000095  1
  Ir  Ir17  1  0.92960996  0.57038853  0.25000163  1
  Ir  Ir18  1  0.57038537  0.24999918  0.25000215  1
  Ir  Ir19  1  0.74999918  0.07038577  0.75000218  1
  Ir  Ir20  1  0.07038812  0.42961032  0.75000203  1
  Ir  Ir21  1  0.42961311  0.75000017  0.75000067  1
