# generated using pymatgen
data_K2UMo2O11
_symmetry_space_group_name_H-M   'P 1'
_cell_length_a   8.10911592
_cell_length_b   11.04643588
_cell_length_c   13.67570510
_cell_angle_alpha   90.00000000
_cell_angle_beta   99.28292267
_cell_angle_gamma   90.00000000
_symmetry_Int_Tables_number   1
_chemical_formula_structural   K2UMo2O11
_chemical_formula_sum   'K8 U4 Mo8 O44'
_cell_volume   1208.98315629
_cell_formula_units_Z   4
loop_
 _symmetry_equiv_pos_site_id
 _symmetry_equiv_pos_as_xyz
  1  'x, y, z'
loop_
 _atom_site_type_symbol
 _atom_site_label
 _atom_site_symmetry_multiplicity
 _atom_site_fract_x
 _atom_site_fract_y
 _atom_site_fract_z
 _atom_site_occupancy
  K  K0  1  0.24117870  0.57915312  0.37297689  1
  K  K1  1  0.75882130  0.07915312  0.12702311  1
  K  K2  1  0.75882130  0.42084688  0.62702311  1
  K  K3  1  0.24117870  0.92084688  0.87297689  1
  K  K4  1  0.93328141  0.82860402  0.59355436  1
  K  K5  1  0.06671859  0.32860402  0.90644564  1
  K  K6  1  0.06671859  0.17139598  0.40644564  1
  K  K7  1  0.93328141  0.67139598  0.09355436  1
  U  U8  1  0.47328742  0.75866908  0.64535444  1
  U  U9  1  0.52671258  0.25866908  0.85464556  1
  U  U10  1  0.52671258  0.24133092  0.35464556  1
  U  U11  1  0.47328742  0.74133092  0.14535444  1
  Mo  Mo12  1  0.51208291  0.89804777  0.40672403  1
  Mo  Mo13  1  0.48791709  0.39804777  0.09327597  1
  Mo  Mo14  1  0.48791709  0.10195223  0.59327597  1
  Mo  Mo15  1  0.51208291  0.60195223  0.90672403  1
  Mo  Mo16  1  0.76262508  0.54387965  0.35712884  1
  Mo  Mo17  1  0.23737492  0.04387965  0.14287116  1
  Mo  Mo18  1  0.23737492  0.45612035  0.64287116  1
  Mo  Mo19  1  0.76262508  0.95612035  0.85712884  1
  O  O20  1  0.42783850  0.05401936  0.41623670  1
  O  O21  1  0.57216150  0.55401936  0.08376330  1
  O  O22  1  0.57216150  0.94598064  0.58376330  1
  O  O23  1  0.42783850  0.44598064  0.91623670  1
  O  O24  1  0.42495071  0.77338679  0.47078391  1
  O  O25  1  0.57504929  0.27338679  0.02921609  1
  O  O26  1  0.57504929  0.22661321  0.52921609  1
  O  O27  1  0.42495071  0.72661321  0.97078391  1
  O  O28  1  0.27481045  0.83269918  0.65711557  1
  O  O29  1  0.72518955  0.33269918  0.84288443  1
  O  O30  1  0.72518955  0.16730082  0.34288443  1
  O  O31  1  0.27481045  0.66730082  0.15711557  1
  O  O32  1  0.67175211  0.41589463  0.41643666  1
  O  O33  1  0.32824789  0.91589463  0.08356334  1
  O  O34  1  0.32824789  0.58410537  0.58356334  1
  O  O35  1  0.67175211  0.08410537  0.91643666  1
  O  O36  1  0.67372713  0.68481713  0.63805034  1
  O  O37  1  0.32627287  0.18481713  0.86194966  1
  O  O38  1  0.32627287  0.31518287  0.36194966  1
  O  O39  1  0.67372713  0.81518287  0.13805034  1
  O  O40  1  0.43726404  0.86409967  0.27805224  1
  O  O41  1  0.56273596  0.36409967  0.22194776  1
  O  O42  1  0.56273596  0.13590033  0.72194776  1
  O  O43  1  0.43726404  0.63590033  0.77805224  1
  O  O44  1  0.86970968  0.63092217  0.45491683  1
  O  O45  1  0.13029032  0.13092217  0.04508317  1
  O  O46  1  0.13029032  0.36907783  0.54508317  1
  O  O47  1  0.86970968  0.86907783  0.95491683  1
  O  O48  1  0.59741490  0.63590384  0.28557134  1
  O  O49  1  0.40258510  0.13590384  0.21442866  1
  O  O50  1  0.40258510  0.36409616  0.71442866  1
  O  O51  1  0.59741490  0.86409616  0.78557134  1
  O  O52  1  0.72905784  0.89617533  0.41970504  1
  O  O53  1  0.27094216  0.39617533  0.08029496  1
  O  O54  1  0.27094216  0.10382467  0.58029496  1
  O  O55  1  0.72905784  0.60382467  0.91970504  1
  O  O56  1  0.91419744  0.49958525  0.28345945  1
  O  O57  1  0.08580256  0.99958525  0.21654055  1
  O  O58  1  0.08580256  0.50041475  0.71654055  1
  O  O59  1  0.91419744  0.00041475  0.78345945  1
  O  O60  1  0.97781688  0.29479341  0.19144268  1
  O  O61  1  0.02218312  0.79479341  0.30855732  1
  O  O62  1  0.02218312  0.70520659  0.80855732  1
  O  O63  1  0.97781688  0.20520659  0.69144268  1
