# generated using pymatgen
data_Na5Nd4Si4O16F
_symmetry_space_group_name_H-M   'P 1'
_cell_length_a   5.51286012
_cell_length_b   8.94942004
_cell_length_c   8.94942004
_cell_angle_alpha   84.55647136
_cell_angle_beta   72.06119570
_cell_angle_gamma   72.06119570
_symmetry_Int_Tables_number   1
_chemical_formula_structural   Na5Nd4Si4O16F
_chemical_formula_sum   'Na5 Nd4 Si4 O16 F1'
_cell_volume   399.65043686
_cell_formula_units_Z   1
loop_
 _symmetry_equiv_pos_site_id
 _symmetry_equiv_pos_as_xyz
  1  'x, y, z'
loop_
 _atom_site_type_symbol
 _atom_site_label
 _atom_site_symmetry_multiplicity
 _atom_site_fract_x
 _atom_site_fract_y
 _atom_site_fract_z
 _atom_site_occupancy
  Na  Na0  1  0.90243905  0.48428473  0.69437349  1
  Na  Na1  1  0.08109726  0.51571527  0.30562651  1
  Na  Na2  1  0.61327623  0.30562651  0.48428473  1
  Na  Na3  1  0.40318746  0.69437349  0.51571527  1
  Na  Na4  1  0.50000000  -0.00000000  0.00000000  1
  Nd  Nd5  1  0.86473575  0.93279116  0.30181276  1
  Nd  Nd6  1  0.09933967  0.06720884  0.69818724  1
  Nd  Nd7  1  0.20247309  0.69818724  0.93279116  1
  Nd  Nd8  1  0.83345149  0.30181276  0.06720884  1
  Si  Si9  1  0.75547646  0.85447794  0.65092279  1
  Si  Si10  1  0.26087719  0.14552206  0.34907721  1
  Si  Si11  1  0.39004560  0.34907721  0.85447794  1
  Si  Si12  1  0.59360074  0.65092279  0.14552206  1
  O  O13  1  0.86824097  0.72227530  0.50978401  1
  O  O14  1  0.10030028  0.27772470  0.49021599  1
  O  O15  1  0.40948373  0.49021599  0.72227530  1
  O  O16  1  0.62197502  0.50978401  0.27772470  1
  O  O17  1  0.45747924  0.85635107  0.76366681  1
  O  O18  1  0.07749712  0.14364893  0.23633319  1
  O  O19  1  0.68616969  0.23633319  0.85635107  1
  O  O20  1  0.77885395  0.76366681  0.14364893  1
  O  O21  1  0.96329993  0.82747867  0.75525839  1
  O  O22  1  0.54603699  0.17252133  0.24474161  1
  O  O23  1  0.20922141  0.24474161  0.82747867  1
  O  O24  1  0.28144168  0.75525839  0.17252133  1
  O  O25  1  0.74761131  0.02925903  0.56812934  1
  O  O26  1  0.34499968  0.97074097  0.43187066  1
  O  O27  1  0.22312966  0.43187066  0.02925903  1
  O  O28  1  0.68425935  0.56812934  0.97074097  1
  F  F29  1  0.00000000  -0.00000000  0.00000000  1
