# generated using pymatgen
data_Na5Pr4Ge4O16F
_symmetry_space_group_name_H-M   'P 1'
_cell_length_a   5.75334708
_cell_length_b   9.13154248
_cell_length_c   9.13154248
_cell_angle_alpha   84.30451355
_cell_angle_beta   71.63761833
_cell_angle_gamma   71.63761833
_symmetry_Int_Tables_number   1
_chemical_formula_structural   Na5Pr4Ge4O16F
_chemical_formula_sum   'Na5 Pr4 Ge4 O16 F1'
_cell_volume   432.13286503
_cell_formula_units_Z   1
loop_
 _symmetry_equiv_pos_site_id
 _symmetry_equiv_pos_as_xyz
  1  'x, y, z'
loop_
 _atom_site_type_symbol
 _atom_site_label
 _atom_site_symmetry_multiplicity
 _atom_site_fract_x
 _atom_site_fract_y
 _atom_site_fract_z
 _atom_site_occupancy
  Na  Na0  1  0.35620753  0.01660170  0.80813528  1
  Na  Na1  1  0.18094451  0.98339830  0.19186472  1
  Na  Na2  1  0.62719077  0.19186472  0.01660170  1
  Na  Na3  1  0.83565719  0.80813528  0.98339830  1
  Na  Na4  1  0.75000000  0.50000000  0.50000000  1
  Pr  Pr5  1  0.40867567  0.20198977  0.43304356  1
  Pr  Pr6  1  0.04370900  0.79801023  0.56695644  1
  Pr  Pr7  1  0.38933455  0.56695644  0.20198977  1
  Pr  Pr8  1  0.15828077  0.43304356  0.79801023  1
  Ge  Ge9  1  0.98729420  0.35502661  0.15008241  1
  Ge  Ge10  1  0.49240322  0.64497339  0.84991759  1
  Ge  Ge11  1  0.65767919  0.84991759  0.35502661  1
  Ge  Ge12  1  0.86262339  0.15008241  0.64497339  1
  O  O13  1  0.17103521  0.21557854  0.00236501  1
  O  O14  1  0.38897876  0.78442146  0.99763499  1
  O  O15  1  0.61338625  0.99763499  0.21557854  1
  O  O16  1  0.82659978  0.00236501  0.78442146  1
  O  O17  1  0.15709030  0.36890203  0.27599217  1
  O  O18  1  0.80198450  0.63109797  0.72400783  1
  O  O19  1  0.47400767  0.72400783  0.36890203  1
  O  O20  1  0.56691753  0.27599217  0.63109797  1
  O  O21  1  0.69016847  0.32295366  0.25383940  1
  O  O22  1  0.26696153  0.67704634  0.74616060  1
  O  O23  1  0.98687786  0.74616060  0.32295366  1
  O  O24  1  0.05599213  0.25383940  0.67704634  1
  O  O25  1  0.88038264  0.53524541  0.05673762  1
  O  O26  1  0.47236567  0.46475459  0.94326238  1
  O  O27  1  0.58437195  0.94326238  0.53524541  1
  O  O28  1  0.06287974  0.05673762  0.46475459  1
  F  F29  1  0.25000000  0.50000000  0.50000000  1
