# generated using pymatgen
data_Y10Cd3Ni
_symmetry_space_group_name_H-M   'P 1'
_cell_length_a   9.76741414
_cell_length_b   9.64325124
_cell_length_c   9.64328134
_cell_angle_alpha   119.99874867
_cell_angle_beta   89.99998716
_cell_angle_gamma   90.00001378
_symmetry_Int_Tables_number   1
_chemical_formula_structural   Y10Cd3Ni
_chemical_formula_sum   'Y20 Cd6 Ni2'
_cell_volume   786.61826987
_cell_formula_units_Z   2
loop_
 _symmetry_equiv_pos_site_id
 _symmetry_equiv_pos_as_xyz
  1  'x, y, z'
loop_
 _atom_site_type_symbol
 _atom_site_label
 _atom_site_symmetry_multiplicity
 _atom_site_fract_x
 _atom_site_fract_y
 _atom_site_fract_z
 _atom_site_occupancy
  Y  Y0  1  0.49999549  -0.00000017  -0.00000019  1
  Y  Y1  1  0.00000462  -0.00000021  -0.00000033  1
  Y  Y2  1  0.75000023  0.45646956  0.91293678  1
  Y  Y3  1  0.75000009  0.45646771  0.54352982  1
  Y  Y4  1  0.74999999  0.08706316  0.54353348  1
  Y  Y5  1  0.24999986  0.54352327  0.08704927  1
  Y  Y6  1  0.24999989  0.54352524  0.45647729  1
  Y  Y7  1  0.24999983  0.91295118  0.45647406  1
  Y  Y8  1  0.56348823  0.78990730  0.57981649  1
  Y  Y9  1  0.56348576  0.78990827  0.21009305  1
  Y  Y10  1  0.56348803  0.42018375  0.21009161  1
  Y  Y11  1  0.43647318  0.21010055  0.42019980  1
  Y  Y12  1  0.43647577  0.21010026  0.78989871  1
  Y  Y13  1  0.43647336  0.57980075  0.78990100  1
  Y  Y14  1  0.06352625  0.21010050  0.42019971  1
  Y  Y15  1  0.06352376  0.21010027  0.78989855  1
  Y  Y16  1  0.06352624  0.57980084  0.78990113  1
  Y  Y17  1  0.93651250  0.78990729  0.57981687  1
  Y  Y18  1  0.93651485  0.78990851  0.21009315  1
  Y  Y19  1  0.93651260  0.42018340  0.21009169  1
  Cd  Cd20  1  0.75000053  0.11619082  0.23237335  1
  Cd  Cd21  1  0.75000063  0.11618339  0.88381227  1
  Cd  Cd22  1  0.75000046  0.76762642  0.88381391  1
  Cd  Cd23  1  0.24999953  0.88379413  0.76759639  1
  Cd  Cd24  1  0.24999942  0.88380120  0.11620356  1
  Cd  Cd25  1  0.24999961  0.23240386  0.11620124  1
  Ni  Ni26  1  0.75000012  0.66666425  0.33333096  1
  Ni  Ni27  1  0.24999916  0.33333445  0.66666638  1
