# generated using pymatgen
data_Dy3Si2Ni
_symmetry_space_group_name_H-M   'P 1'
_cell_length_a   4.13404933
_cell_length_b   11.24261229
_cell_length_c   11.30627523
_cell_angle_alpha   90.00000000
_cell_angle_beta   90.00000000
_cell_angle_gamma   90.00000000
_symmetry_Int_Tables_number   1
_chemical_formula_structural   Dy3Si2Ni
_chemical_formula_sum   'Dy12 Si8 Ni4'
_cell_volume   525.48756308
_cell_formula_units_Z   4
loop_
 _symmetry_equiv_pos_site_id
 _symmetry_equiv_pos_as_xyz
  1  'x, y, z'
loop_
 _atom_site_type_symbol
 _atom_site_label
 _atom_site_symmetry_multiplicity
 _atom_site_fract_x
 _atom_site_fract_y
 _atom_site_fract_z
 _atom_site_occupancy
  Dy  Dy0  1  0.25000000  0.06015290  0.88175531  1
  Dy  Dy1  1  0.25000000  0.43984710  0.38175531  1
  Dy  Dy2  1  0.75000000  0.93984710  0.11824469  1
  Dy  Dy3  1  0.75000000  0.56015290  0.61824469  1
  Dy  Dy4  1  0.25000000  0.12467174  0.55765271  1
  Dy  Dy5  1  0.25000000  0.37532826  0.05765271  1
  Dy  Dy6  1  0.75000000  0.87532826  0.44234729  1
  Dy  Dy7  1  0.75000000  0.62467174  0.94234729  1
  Dy  Dy8  1  0.25000000  0.80289279  0.71401597  1
  Dy  Dy9  1  0.25000000  0.69710721  0.21401597  1
  Dy  Dy10  1  0.75000000  0.19710721  0.28598403  1
  Dy  Dy11  1  0.75000000  0.30289279  0.78598403  1
  Si  Si12  1  0.25000000  0.81413344  0.97474111  1
  Si  Si13  1  0.25000000  0.68586656  0.47474111  1
  Si  Si14  1  0.75000000  0.18586656  0.02525889  1
  Si  Si15  1  0.75000000  0.31413344  0.52525889  1
  Si  Si16  1  0.25000000  0.49502251  0.80355292  1
  Si  Si17  1  0.25000000  0.00497749  0.30355292  1
  Si  Si18  1  0.75000000  0.50497749  0.19644708  1
  Si  Si19  1  0.75000000  0.99502251  0.69644708  1
  Ni  Ni20  1  0.25000000  0.36671156  0.62926170  1
  Ni  Ni21  1  0.25000000  0.13328844  0.12926170  1
  Ni  Ni22  1  0.75000000  0.63328844  0.37073830  1
  Ni  Ni23  1  0.75000000  0.86671156  0.87073830  1
