# generated using pymatgen
data_DyMoBrO4
_symmetry_space_group_name_H-M   'P 1'
_cell_length_a   6.93232641
_cell_length_b   7.28732421
_cell_length_c   11.06111944
_cell_angle_alpha   105.47948428
_cell_angle_beta   107.32328357
_cell_angle_gamma   92.97116466
_symmetry_Int_Tables_number   1
_chemical_formula_structural   DyMoBrO4
_chemical_formula_sum   'Dy4 Mo4 Br4 O16'
_cell_volume   508.82753190
_cell_formula_units_Z   4
loop_
 _symmetry_equiv_pos_site_id
 _symmetry_equiv_pos_as_xyz
  1  'x, y, z'
loop_
 _atom_site_type_symbol
 _atom_site_label
 _atom_site_symmetry_multiplicity
 _atom_site_fract_x
 _atom_site_fract_y
 _atom_site_fract_z
 _atom_site_occupancy
  Dy  Dy0  1  0.64548136  0.12101622  0.73072776  1
  Dy  Dy1  1  0.35451864  0.87898378  0.26927224  1
  Dy  Dy2  1  0.39110776  0.65280323  0.76856612  1
  Dy  Dy3  1  0.60889224  0.34719677  0.23143388  1
  Mo  Mo4  1  0.73270231  0.81295868  0.13391359  1
  Mo  Mo5  1  0.26729769  0.18704132  0.86608641  1
  Mo  Mo6  1  0.77399786  0.59220659  0.62930100  1
  Mo  Mo7  1  0.22600214  0.40779341  0.37069900  1
  Br  Br8  1  0.25959202  0.98884141  0.51739064  1
  Br  Br9  1  0.74040798  0.01115859  0.48260936  1
  Br  Br10  1  0.19399067  0.71652378  0.98091739  1
  Br  Br11  1  0.80600933  0.28347622  0.01908261  1
  O  O12  1  0.66815172  0.72637430  0.95849388  1
  O  O13  1  0.33184828  0.27362570  0.04150612  1
  O  O14  1  0.00176704  0.86636466  0.20660770  1
  O  O15  1  0.99823296  0.13363534  0.79339230  1
  O  O16  1  0.62270324  0.64748839  0.20122433  1
  O  O17  1  0.37729676  0.35251161  0.79877567  1
  O  O18  1  0.39515388  0.97992760  0.81804720  1
  O  O19  1  0.60484612  0.02007240  0.18195280  1
  O  O20  1  0.04236903  0.64540651  0.67397528  1
  O  O21  1  0.95763097  0.35459349  0.32602472  1
  O  O22  1  0.70993087  0.41499005  0.70172024  1
  O  O23  1  0.29006913  0.58500995  0.29827976  1
  O  O24  1  0.67279997  0.50593233  0.45215962  1
  O  O25  1  0.32720003  0.49406767  0.54784038  1
  O  O26  1  0.65624899  0.79611619  0.70265261  1
  O  O27  1  0.34375101  0.20388381  0.29734739  1
