# generated using pymatgen
data_Tb11In9Pd4
_symmetry_space_group_name_H-M   'P 1'
_cell_length_a   3.68669940
_cell_length_b   13.20839096
_cell_length_c   13.20839096
_cell_angle_alpha   110.62505488
_cell_angle_beta   90.00000000
_cell_angle_gamma   90.00000000
_symmetry_Int_Tables_number   1
_chemical_formula_structural   Tb11In9Pd4
_chemical_formula_sum   'Tb11 In9 Pd4'
_cell_volume   601.96272530
_cell_formula_units_Z   1
loop_
 _symmetry_equiv_pos_site_id
 _symmetry_equiv_pos_as_xyz
  1  'x, y, z'
loop_
 _atom_site_type_symbol
 _atom_site_label
 _atom_site_symmetry_multiplicity
 _atom_site_fract_x
 _atom_site_fract_y
 _atom_site_fract_z
 _atom_site_occupancy
  Tb  Tb0  1  0.00000000  0.92866911  0.58208647  1
  Tb  Tb1  1  0.00000000  0.07133089  0.41791353  1
  Tb  Tb2  1  0.00000000  0.58208647  0.92866911  1
  Tb  Tb3  1  0.00000000  0.41791353  0.07133089  1
  Tb  Tb4  1  0.00000000  0.15824374  0.84175626  1
  Tb  Tb5  1  0.00000000  0.84175626  0.15824374  1
  Tb  Tb6  1  0.00000000  0.37171589  0.62828411  1
  Tb  Tb7  1  0.00000000  0.62828411  0.37171589  1
  Tb  Tb8  1  0.00000000  0.69140538  0.69140538  1
  Tb  Tb9  1  0.00000000  0.30859462  0.30859462  1
  Tb  Tb10  1  0.00000000  0.00000000  -0.00000000  1
  In  In11  1  0.50000000  0.15769790  0.63363509  1
  In  In12  1  0.50000000  0.84230210  0.36636491  1
  In  In13  1  0.50000000  0.63363509  0.15769790  1
  In  In14  1  0.50000000  0.36636491  0.84230210  1
  In  In15  1  0.50000000  0.92709285  0.78286526  1
  In  In16  1  0.50000000  0.07290715  0.21713474  1
  In  In17  1  0.50000000  0.78286526  0.92709285  1
  In  In18  1  0.50000000  0.21713474  0.07290715  1
  In  In19  1  0.50000000  0.50000000  0.50000000  1
  Pd  Pd20  1  0.50000000  0.75169785  0.54903784  1
  Pd  Pd21  1  0.50000000  0.24830215  0.45096216  1
  Pd  Pd22  1  0.50000000  0.54903784  0.75169785  1
  Pd  Pd23  1  0.50000000  0.45096216  0.24830215  1
