# generated using pymatgen
data_MgV6(FeO6)4
_symmetry_space_group_name_H-M   'P 1'
_cell_length_a   6.76861306
_cell_length_b   8.38727430
_cell_length_c   10.01661352
_cell_angle_alpha   107.33422817
_cell_angle_beta   105.04339292
_cell_angle_gamma   103.77656787
_symmetry_Int_Tables_number   1
_chemical_formula_structural   MgV6(FeO6)4
_chemical_formula_sum   'Mg1 V6 Fe4 O24'
_cell_volume   492.56706929
_cell_formula_units_Z   1
loop_
 _symmetry_equiv_pos_site_id
 _symmetry_equiv_pos_as_xyz
  1  'x, y, z'
loop_
 _atom_site_type_symbol
 _atom_site_label
 _atom_site_symmetry_multiplicity
 _atom_site_fract_x
 _atom_site_fract_y
 _atom_site_fract_z
 _atom_site_occupancy
  Mg  Mg0  1  0.00000000  0.50000000  0.50000000  1
  V  V1  1  0.79609511  0.33393597  0.73422815  1
  V  V2  1  0.20390489  0.66606403  0.26577185  1
  V  V3  1  0.88496605  0.89387779  0.66126422  1
  V  V4  1  0.38976878  0.74545307  0.86023432  1
  V  V5  1  0.11503395  0.10612221  0.33873578  1
  V  V6  1  0.61023122  0.25454693  0.13976568  1
  Fe  Fe7  1  0.37230127  0.96115642  0.60493539  1
  Fe  Fe8  1  0.62769873  0.03884358  0.39506461  1
  Fe  Fe9  1  0.05254603  0.20533782  0.01468956  1
  Fe  Fe10  1  0.94745397  0.79466218  0.98531044  1
  O  O11  1  0.84753424  0.67799654  0.58234470  1
  O  O12  1  0.15246576  0.32200346  0.41765530  1
  O  O13  1  0.22110856  0.55458270  0.71150525  1
  O  O14  1  0.77889144  0.44541730  0.28849475  1
  O  O15  1  0.79300176  0.28675264  0.54521122  1
  O  O16  1  0.20699824  0.71324736  0.45478878  1
  O  O17  1  0.65873113  0.95411722  0.56987352  1
  O  O18  1  0.34126887  0.04588278  0.43012648  1
  O  O19  1  0.63752582  0.74169360  0.96515775  1
  O  O20  1  0.36247418  0.25830640  0.03484225  1
  O  O21  1  0.45757964  0.78121198  0.27162931  1
  O  O22  1  0.54242036  0.21878802  0.72837069  1
  O  O23  1  0.11673909  0.00472378  0.64147865  1
  O  O24  1  0.06735142  0.05618354  0.14248197  1
  O  O25  1  0.93264858  0.94381646  0.85751803  1
  O  O26  1  0.55070641  0.10064101  0.22240782  1
  O  O27  1  0.44929359  0.89935899  0.77759218  1
  O  O28  1  0.16298974  0.44469515  0.17686064  1
  O  O29  1  0.83701026  0.55530485  0.82313936  1
  O  O30  1  0.98975997  0.27420010  0.84248686  1
  O  O31  1  0.01024003  0.72579990  0.15751314  1
  O  O32  1  0.24165531  0.80600927  0.97699483  1
  O  O33  1  0.75834469  0.19399073  0.02300517  1
  O  O34  1  0.88326091  0.99527622  0.35852135  1
