# generated using pymatgen
data_GdB4Ru
_symmetry_space_group_name_H-M   'P 1'
_cell_length_a   3.57813835
_cell_length_b   5.98370365
_cell_length_c   11.57141582
_cell_angle_alpha   90.00000000
_cell_angle_beta   90.00000000
_cell_angle_gamma   90.00000000
_symmetry_Int_Tables_number   1
_chemical_formula_structural   GdB4Ru
_chemical_formula_sum   'Gd4 B16 Ru4'
_cell_volume   247.75002412
_cell_formula_units_Z   4
loop_
 _symmetry_equiv_pos_site_id
 _symmetry_equiv_pos_as_xyz
  1  'x, y, z'
loop_
 _atom_site_type_symbol
 _atom_site_label
 _atom_site_symmetry_multiplicity
 _atom_site_fract_x
 _atom_site_fract_y
 _atom_site_fract_z
 _atom_site_occupancy
  Gd  Gd0  1  0.00000000  0.62971820  0.35036420  1
  Gd  Gd1  1  0.00000000  0.37028180  0.64963580  1
  Gd  Gd2  1  0.00000000  0.12971820  0.14963580  1
  Gd  Gd3  1  -0.00000000  0.87028180  0.85036420  1
  B  B4  1  0.50000000  0.78907991  0.18510704  1
  B  B5  1  0.50000000  0.21092009  0.81489296  1
  B  B6  1  0.50000000  0.28907991  0.31489296  1
  B  B7  1  0.50000000  0.71092009  0.68510704  1
  B  B8  1  0.50000000  0.86296103  0.03067079  1
  B  B9  1  0.50000000  0.13703897  0.96932921  1
  B  B10  1  0.50000000  0.36296103  0.46932921  1
  B  B11  1  0.50000000  0.63703897  0.53067079  1
  B  B12  1  0.50000000  0.88888806  0.45349495  1
  B  B13  1  0.50000000  0.11111194  0.54650505  1
  B  B14  1  0.50000000  0.38888806  0.04650505  1
  B  B15  1  0.50000000  0.61111194  0.95349495  1
  B  B16  1  0.50000000  0.97812187  0.30884516  1
  B  B17  1  0.50000000  0.02187813  0.69115484  1
  B  B18  1  0.50000000  0.47812187  0.19115484  1
  B  B19  1  0.50000000  0.52187813  0.80884516  1
  Ru  Ru20  1  0.00000000  0.64031076  0.09228592  1
  Ru  Ru21  1  -0.00000000  0.35968924  0.90771408  1
  Ru  Ru22  1  -0.00000000  0.14031076  0.40771408  1
  Ru  Ru23  1  -0.00000000  0.85968924  0.59228592  1
