# generated using pymatgen
data_K3(SeO4)2
_symmetry_space_group_name_H-M   'P 1'
_cell_length_a   5.99133722
_cell_length_b   8.17575294
_cell_length_c   10.27845902
_cell_angle_alpha   102.07592217
_cell_angle_beta   89.99999996
_cell_angle_gamma   111.49431114
_symmetry_Int_Tables_number   1
_chemical_formula_structural   K3(SeO4)2
_chemical_formula_sum   'K6 Se4 O16'
_cell_volume   456.46690043
_cell_formula_units_Z   2
loop_
 _symmetry_equiv_pos_site_id
 _symmetry_equiv_pos_as_xyz
  1  'x, y, z'
loop_
 _atom_site_type_symbol
 _atom_site_label
 _atom_site_symmetry_multiplicity
 _atom_site_fract_x
 _atom_site_fract_y
 _atom_site_fract_z
 _atom_site_occupancy
  K  K0  1  0.76288488  1.00000000  0.25000000  1
  K  K1  1  0.23711512  0.00000000  0.75000000  1
  K  K2  1  0.54098369  0.61062704  0.84844667  1
  K  K3  1  0.06964335  0.61062704  0.34844667  1
  K  K4  1  0.45901631  0.38937296  0.15155333  1
  K  K5  1  0.93035665  0.38937296  0.65155333  1
  Se  Se6  1  0.10973053  0.77097567  0.03773844  1
  Se  Se7  1  0.66124513  0.77097567  0.53773844  1
  Se  Se8  1  0.89026947  0.22902433  0.96226156  1
  Se  Se9  1  0.33875487  0.22902433  0.46226156  1
  O  O10  1  0.84862955  0.68267729  0.10121965  1
  O  O11  1  0.83404774  0.68267729  0.60121965  1
  O  O12  1  0.15137045  0.31732271  0.89878035  1
  O  O13  1  0.16595226  0.31732271  0.39878035  1
  O  O14  1  0.18356122  -0.00020576  0.06588075  1
  O  O15  1  0.81623302  -0.00020576  0.56588075  1
  O  O16  1  0.81643878  0.00020576  0.93411925  1
  O  O17  1  0.18376698  0.00020576  0.43411925  1
  O  O18  1  0.09395259  0.69034126  0.87378160  1
  O  O19  1  0.59638867  0.69034126  0.37378160  1
  O  O20  1  0.90604741  0.30965874  0.12621840  1
  O  O21  1  0.40361133  0.30965874  0.62621840  1
  O  O22  1  0.33370812  0.74551709  0.11765776  1
  O  O23  1  0.41180897  0.74551709  0.61765776  1
  O  O24  1  0.66629188  0.25448291  0.88234224  1
  O  O25  1  0.58819103  0.25448291  0.38234224  1
