# generated using pymatgen
data_NdNi5Sn
_symmetry_space_group_name_H-M   'P 1'
_cell_length_a   4.92115446
_cell_length_b   4.92151426
_cell_length_c   19.71480271
_cell_angle_alpha   90.00000000
_cell_angle_beta   90.00000000
_cell_angle_gamma   120.00880828
_symmetry_Int_Tables_number   1
_chemical_formula_structural   NdNi5Sn
_chemical_formula_sum   'Nd4 Ni20 Sn4'
_cell_volume   413.47595360
_cell_formula_units_Z   4
loop_
 _symmetry_equiv_pos_site_id
 _symmetry_equiv_pos_as_xyz
  1  'x, y, z'
loop_
 _atom_site_type_symbol
 _atom_site_label
 _atom_site_symmetry_multiplicity
 _atom_site_fract_x
 _atom_site_fract_y
 _atom_site_fract_z
 _atom_site_occupancy
  Nd  Nd0  1  0.66667270  0.33337094  0.75000000  1
  Nd  Nd1  1  0.33332730  0.66662906  0.25000000  1
  Nd  Nd2  1  0.00000000  0.00000000  0.50000000  1
  Nd  Nd3  1  0.00000000  0.00000000  -0.00000000  1
  Ni  Ni4  1  0.00002642  0.00012477  0.75000000  1
  Ni  Ni5  1  0.99997358  0.99987523  0.25000000  1
  Ni  Ni6  1  0.66669620  0.33346039  0.25000000  1
  Ni  Ni7  1  0.33330380  0.66653961  0.75000000  1
  Ni  Ni8  1  0.66669198  0.33319660  0.04366156  1
  Ni  Ni9  1  0.33330802  0.66680340  0.95633844  1
  Ni  Ni10  1  0.33330802  0.66680340  0.54366156  1
  Ni  Ni11  1  0.66669198  0.33319660  0.45633844  1
  Ni  Ni12  1  0.16665777  0.33322918  0.64613589  1
  Ni  Ni13  1  0.16658820  0.83331190  0.64615050  1
  Ni  Ni14  1  0.66673858  0.83335556  0.64614339  1
  Ni  Ni15  1  0.83334223  0.66677082  0.35386411  1
  Ni  Ni16  1  0.83341180  0.16668810  0.35384950  1
  Ni  Ni17  1  0.33326142  0.16664444  0.35385661  1
  Ni  Ni18  1  0.83334223  0.66677082  0.14613589  1
  Ni  Ni19  1  0.83341180  0.16668810  0.14615050  1
  Ni  Ni20  1  0.33326142  0.16664444  0.14614339  1
  Ni  Ni21  1  0.16665777  0.33322918  0.85386411  1
  Ni  Ni22  1  0.16658820  0.83331190  0.85384950  1
  Ni  Ni23  1  0.66673858  0.83335556  0.85385661  1
  Sn  Sn24  1  0.66664232  0.33324420  0.58738898  1
  Sn  Sn25  1  0.33335768  0.66675580  0.41261102  1
  Sn  Sn26  1  0.33335768  0.66675580  0.08738898  1
  Sn  Sn27  1  0.66664232  0.33324420  0.91261102  1
