# generated using pymatgen
data_Nb4Fe4Si7
_symmetry_space_group_name_H-M   'P 1'
_cell_length_a   5.00405170
_cell_length_b   9.24821504
_cell_length_c   9.24821504
_cell_angle_alpha   85.80261403
_cell_angle_beta   74.30350898
_cell_angle_gamma   74.30350898
_symmetry_Int_Tables_number   1
_chemical_formula_structural   Nb4Fe4Si7
_chemical_formula_sum   'Nb8 Fe8 Si14'
_cell_volume   396.66791608
_cell_formula_units_Z   2
loop_
 _symmetry_equiv_pos_site_id
 _symmetry_equiv_pos_as_xyz
  1  'x, y, z'
loop_
 _atom_site_type_symbol
 _atom_site_label
 _atom_site_symmetry_multiplicity
 _atom_site_fract_x
 _atom_site_fract_y
 _atom_site_fract_z
 _atom_site_occupancy
  Nb  Nb0  1  0.13512257  0.00000000  0.72975485  1
  Nb  Nb1  1  0.86487743  -0.00000000  0.27024515  1
  Nb  Nb2  1  0.86487743  0.27024515  0.00000000  1
  Nb  Nb3  1  0.13512257  0.72975485  -0.00000000  1
  Nb  Nb4  1  0.50000000  0.19220249  0.80779751  1
  Nb  Nb5  1  0.50000000  0.80779751  0.19220249  1
  Nb  Nb6  1  0.30779751  0.19220249  0.19220249  1
  Nb  Nb7  1  0.69220249  0.80779751  0.80779751  1
  Fe  Fe8  1  0.39947924  0.50000000  0.20104152  1
  Fe  Fe9  1  0.10052076  0.50000000  0.79895848  1
  Fe  Fe10  1  0.10052076  0.79895848  0.50000000  1
  Fe  Fe11  1  0.39947924  0.20104152  0.50000000  1
  Fe  Fe12  1  0.60052076  0.79895848  0.50000000  1
  Fe  Fe13  1  0.89947924  0.20104152  0.50000000  1
  Fe  Fe14  1  0.89947924  0.50000000  0.20104152  1
  Fe  Fe15  1  0.60052076  0.50000000  0.79895848  1
  Si  Si16  1  0.29084948  0.00000000  0.41830104  1
  Si  Si17  1  0.70915052  0.00000000  0.58169896  1
  Si  Si18  1  0.70915052  0.58169896  0.00000000  1
  Si  Si19  1  0.29084948  0.41830104  -0.00000000  1
  Si  Si20  1  -0.00000000  0.29708627  0.70291373  1
  Si  Si21  1  0.00000000  0.70291373  0.29708627  1
  Si  Si22  1  0.70291373  0.29708627  0.29708627  1
  Si  Si23  1  0.29708627  0.70291373  0.70291373  1
  Si  Si24  1  0.50000000  0.40571952  0.59428048  1
  Si  Si25  1  0.50000000  0.59428048  0.40571952  1
  Si  Si26  1  0.09428048  0.40571952  0.40571952  1
  Si  Si27  1  0.90571952  0.59428048  0.59428048  1
  Si  Si28  1  0.75064119  0.00000000  0.00000000  1
  Si  Si29  1  0.24935881  0.00000000  0.00000000  1
