# generated using pymatgen
data_MgFeSiO4
_symmetry_space_group_name_H-M   'P 1'
_cell_length_a   4.82495317
_cell_length_b   6.15419699
_cell_length_c   10.52952147
_cell_angle_alpha   90.00000000
_cell_angle_beta   90.00000000
_cell_angle_gamma   90.00000000
_symmetry_Int_Tables_number   1
_chemical_formula_structural   MgFeSiO4
_chemical_formula_sum   'Mg4 Fe4 Si4 O16'
_cell_volume   312.66058093
_cell_formula_units_Z   4
loop_
 _symmetry_equiv_pos_site_id
 _symmetry_equiv_pos_as_xyz
  1  'x, y, z'
loop_
 _atom_site_type_symbol
 _atom_site_label
 _atom_site_symmetry_multiplicity
 _atom_site_fract_x
 _atom_site_fract_y
 _atom_site_fract_z
 _atom_site_occupancy
  Mg  Mg0  1  0.50000000  -0.00000000  0.50000000  1
  Mg  Mg1  1  0.00000000  0.50000000  -0.00000000  1
  Mg  Mg2  1  0.50000000  0.50000000  0.50000000  1
  Mg  Mg3  1  0.00000000  0.00000000  -0.00000000  1
  Fe  Fe4  1  0.48796490  0.75000000  0.22182436  1
  Fe  Fe5  1  0.01203510  0.75000000  0.72182436  1
  Fe  Fe6  1  0.51203510  0.25000000  0.77817564  1
  Fe  Fe7  1  0.98796490  0.25000000  0.27817564  1
  Si  Si8  1  0.92761064  0.75000000  0.40653514  1
  Si  Si9  1  0.57238936  0.75000000  0.90653514  1
  Si  Si10  1  0.07238936  0.25000000  0.59346486  1
  Si  Si11  1  0.42761064  0.25000000  0.09346486  1
  O  O12  1  0.26547921  0.75000000  0.41287753  1
  O  O13  1  0.23452079  0.75000000  0.91287753  1
  O  O14  1  0.73452079  0.25000000  0.58712247  1
  O  O15  1  0.76547921  0.25000000  0.08712247  1
  O  O16  1  0.72760695  0.75000000  0.04922947  1
  O  O17  1  0.77239305  0.75000000  0.54922947  1
  O  O18  1  0.27239305  0.25000000  0.95077053  1
  O  O19  1  0.22760695  0.25000000  0.45077053  1
  O  O20  1  0.78248198  0.96547768  0.33779826  1
  O  O21  1  0.71751802  0.53452232  0.83779826  1
  O  O22  1  0.21751802  0.46547768  0.66220174  1
  O  O23  1  0.28248198  0.03452232  0.16220174  1
  O  O24  1  0.21751802  0.03452232  0.66220174  1
  O  O25  1  0.28248198  0.46547768  0.16220174  1
  O  O26  1  0.78248198  0.53452232  0.33779826  1
  O  O27  1  0.71751802  0.96547768  0.83779826  1
