# generated using pymatgen
data_PuCu6
_symmetry_space_group_name_H-M   'P 1'
_cell_length_a   5.02668569
_cell_length_b   8.02328654
_cell_length_c   10.06820307
_cell_angle_alpha   90.00000000
_cell_angle_beta   90.00000000
_cell_angle_gamma   90.00000000
_symmetry_Int_Tables_number   1
_chemical_formula_structural   PuCu6
_chemical_formula_sum   'Pu4 Cu24'
_cell_volume   406.05606299
_cell_formula_units_Z   4
loop_
 _symmetry_equiv_pos_site_id
 _symmetry_equiv_pos_as_xyz
  1  'x, y, z'
loop_
 _atom_site_type_symbol
 _atom_site_label
 _atom_site_symmetry_multiplicity
 _atom_site_fract_x
 _atom_site_fract_y
 _atom_site_fract_z
 _atom_site_occupancy
  Pu  Pu0  1  0.75000000  0.24158376  0.93445445  1
  Pu  Pu1  1  0.75000000  0.74158376  0.56554555  1
  Pu  Pu2  1  0.25000000  0.75841624  0.06554555  1
  Pu  Pu3  1  0.25000000  0.25841624  0.43445445  1
  Cu  Cu4  1  0.75000000  0.36191943  0.64251549  1
  Cu  Cu5  1  0.75000000  0.86191943  0.85748451  1
  Cu  Cu6  1  0.25000000  0.63808057  0.35748451  1
  Cu  Cu7  1  0.25000000  0.13808057  0.14251549  1
  Cu  Cu8  1  0.75000000  0.68310414  0.25529853  1
  Cu  Cu9  1  0.75000000  0.18310414  0.24470147  1
  Cu  Cu10  1  0.25000000  0.31689586  0.74470147  1
  Cu  Cu11  1  0.25000000  0.81689586  0.75529853  1
  Cu  Cu12  1  0.75000000  0.93717774  0.09585993  1
  Cu  Cu13  1  0.75000000  0.43717774  0.40414007  1
  Cu  Cu14  1  0.25000000  0.06282226  0.90414007  1
  Cu  Cu15  1  0.25000000  0.56282226  0.59585993  1
  Cu  Cu16  1  0.75000000  0.60043331  0.01607558  1
  Cu  Cu17  1  0.75000000  0.10043331  0.48392442  1
  Cu  Cu18  1  0.25000000  0.39956669  0.98392442  1
  Cu  Cu19  1  0.25000000  0.89956669  0.51607558  1
  Cu  Cu20  1  0.99416577  0.06600397  0.69106337  1
  Cu  Cu21  1  0.50583423  0.56600397  0.80893663  1
  Cu  Cu22  1  0.49416577  0.93399603  0.30893663  1
  Cu  Cu23  1  0.00583423  0.43399603  0.19106337  1
  Cu  Cu24  1  0.00583423  0.93399603  0.30893663  1
  Cu  Cu25  1  0.49416577  0.43399603  0.19106337  1
  Cu  Cu26  1  0.50583423  0.06600397  0.69106337  1
  Cu  Cu27  1  0.99416577  0.56600397  0.80893663  1
