# generated using pymatgen
data_RbBaVSe4
_symmetry_space_group_name_H-M   'P 1'
_cell_length_a   7.12520076
_cell_length_b   10.41225652
_cell_length_c   12.33644474
_cell_angle_alpha   90.00000000
_cell_angle_beta   90.00000000
_cell_angle_gamma   90.00000000
_symmetry_Int_Tables_number   1
_chemical_formula_structural   RbBaVSe4
_chemical_formula_sum   'Rb4 Ba4 V4 Se16'
_cell_volume   915.23365631
_cell_formula_units_Z   4
loop_
 _symmetry_equiv_pos_site_id
 _symmetry_equiv_pos_as_xyz
  1  'x, y, z'
loop_
 _atom_site_type_symbol
 _atom_site_label
 _atom_site_symmetry_multiplicity
 _atom_site_fract_x
 _atom_site_fract_y
 _atom_site_fract_z
 _atom_site_occupancy
  Rb  Rb0  1  0.25000000  0.86300181  0.92572219  1
  Rb  Rb1  1  0.25000000  0.63699819  0.42572219  1
  Rb  Rb2  1  0.75000000  0.13699819  0.07427781  1
  Rb  Rb3  1  0.75000000  0.36300181  0.57427781  1
  Ba  Ba4  1  0.25000000  0.40030373  0.85035595  1
  Ba  Ba5  1  0.25000000  0.09969627  0.35035595  1
  Ba  Ba6  1  0.75000000  0.59969627  0.14964405  1
  Ba  Ba7  1  0.75000000  0.90030373  0.64964405  1
  V  V8  1  0.25000000  0.11449556  0.67506542  1
  V  V9  1  0.25000000  0.38550444  0.17506542  1
  V  V10  1  0.75000000  0.88550444  0.32493458  1
  V  V11  1  0.75000000  0.61449556  0.82493458  1
  Se  Se12  1  0.50542498  0.12480794  0.78677955  1
  Se  Se13  1  0.99457502  0.37519206  0.28677955  1
  Se  Se14  1  0.00542498  0.87519206  0.21322045  1
  Se  Se15  1  0.49457502  0.62480794  0.71322045  1
  Se  Se16  1  0.49457502  0.87519206  0.21322045  1
  Se  Se17  1  0.00542498  0.62480794  0.71322045  1
  Se  Se18  1  0.99457502  0.12480794  0.78677955  1
  Se  Se19  1  0.50542498  0.37519206  0.28677955  1
  Se  Se20  1  0.25000000  0.29445648  0.56705607  1
  Se  Se21  1  0.25000000  0.20554352  0.06705607  1
  Se  Se22  1  0.75000000  0.70554352  0.43294393  1
  Se  Se23  1  0.75000000  0.79445648  0.93294393  1
  Se  Se24  1  0.25000000  0.92741138  0.57808962  1
  Se  Se25  1  0.25000000  0.57258862  0.07808962  1
  Se  Se26  1  0.75000000  0.07258862  0.42191038  1
  Se  Se27  1  0.75000000  0.42741138  0.92191038  1
