# generated using pymatgen
data_Cs2CuBr4
_symmetry_space_group_name_H-M   'P 1'
_cell_length_a   8.21640506
_cell_length_b   10.42604932
_cell_length_c   13.12837949
_cell_angle_alpha   90.00000000
_cell_angle_beta   90.00000000
_cell_angle_gamma   90.00000000
_symmetry_Int_Tables_number   1
_chemical_formula_structural   Cs2CuBr4
_chemical_formula_sum   'Cs8 Cu4 Br16'
_cell_volume   1124.63796041
_cell_formula_units_Z   4
loop_
 _symmetry_equiv_pos_site_id
 _symmetry_equiv_pos_as_xyz
  1  'x, y, z'
loop_
 _atom_site_type_symbol
 _atom_site_label
 _atom_site_symmetry_multiplicity
 _atom_site_fract_x
 _atom_site_fract_y
 _atom_site_fract_z
 _atom_site_occupancy
  Cs  Cs0  1  0.75000000  0.37359485  0.60352329  1
  Cs  Cs1  1  0.75000000  0.87359485  0.89647671  1
  Cs  Cs2  1  0.25000000  0.62640515  0.39647671  1
  Cs  Cs3  1  0.25000000  0.12640515  0.10352329  1
  Cs  Cs4  1  0.75000000  0.49586667  0.16902166  1
  Cs  Cs5  1  0.75000000  0.99586667  0.33097834  1
  Cs  Cs6  1  0.25000000  0.50413333  0.83097834  1
  Cs  Cs7  1  0.25000000  0.00413333  0.66902166  1
  Cu  Cu8  1  0.75000000  0.26852701  0.91681786  1
  Cu  Cu9  1  0.75000000  0.76852701  0.58318214  1
  Cu  Cu10  1  0.25000000  0.73147299  0.08318214  1
  Cu  Cu11  1  0.25000000  0.23147299  0.41681786  1
  Br  Br12  1  0.75000000  0.49592938  0.88106323  1
  Br  Br13  1  0.75000000  0.99592938  0.61893677  1
  Br  Br14  1  0.25000000  0.50407062  0.11893677  1
  Br  Br15  1  0.25000000  0.00407062  0.38106323  1
  Br  Br16  1  0.75000000  0.15673757  0.07843398  1
  Br  Br17  1  0.75000000  0.65673757  0.42156602  1
  Br  Br18  1  0.25000000  0.84326243  0.92156602  1
  Br  Br19  1  0.25000000  0.34326243  0.57843398  1
  Br  Br20  1  0.48608038  0.20625177  0.85702149  1
  Br  Br21  1  0.01391962  0.70625177  0.64297851  1
  Br  Br22  1  -0.01391962  0.79374823  0.14297851  1
  Br  Br23  1  0.51391962  0.29374823  0.35702149  1
  Br  Br24  1  0.51391962  0.79374823  0.14297851  1
  Br  Br25  1  -0.01391962  0.29374823  0.35702149  1
  Br  Br26  1  0.01391962  0.20625177  0.85702149  1
  Br  Br27  1  0.48608038  0.70625177  0.64297851  1
