# generated using pymatgen
data_Mg2AgSbO6
_symmetry_space_group_name_H-M   'P 1'
_cell_length_a   5.54481441
_cell_length_b   5.62630294
_cell_length_c   7.60189667
_cell_angle_alpha   90.00000000
_cell_angle_beta   90.00000000
_cell_angle_gamma   99.24181068
_symmetry_Int_Tables_number   1
_chemical_formula_structural   Mg2AgSbO6
_chemical_formula_sum   'Mg4 Ag2 Sb2 O12'
_cell_volume   234.07646403
_cell_formula_units_Z   2
loop_
 _symmetry_equiv_pos_site_id
 _symmetry_equiv_pos_as_xyz
  1  'x, y, z'
loop_
 _atom_site_type_symbol
 _atom_site_label
 _atom_site_symmetry_multiplicity
 _atom_site_fract_x
 _atom_site_fract_y
 _atom_site_fract_z
 _atom_site_occupancy
  Mg  Mg0  1  0.52070042  0.56292096  0.75000000  1
  Mg  Mg1  1  0.47929958  0.43707904  0.25000000  1
  Mg  Mg2  1  0.05796048  0.02168337  0.75000000  1
  Mg  Mg3  1  0.94203952  0.97831663  0.25000000  1
  Ag  Ag4  1  0.50000000  0.00000000  0.50000000  1
  Ag  Ag5  1  0.50000000  0.00000000  0.00000000  1
  Sb  Sb6  1  0.00000000  0.50000000  0.50000000  1
  Sb  Sb7  1  0.00000000  0.50000000  0.00000000  1
  O  O8  1  0.34688015  0.65419214  0.44174076  1
  O  O9  1  0.12010728  0.20841402  0.07166432  1
  O  O10  1  0.65311985  0.34580786  0.94174076  1
  O  O11  1  0.87989272  0.79158598  0.57166432  1
  O  O12  1  0.12010728  0.20841402  0.42833568  1
  O  O13  1  0.87989272  0.79158598  0.92833568  1
  O  O14  1  0.87653896  0.59502778  0.25000000  1
  O  O15  1  0.34688015  0.65419214  0.05825924  1
  O  O16  1  0.38710250  0.89735796  0.75000000  1
  O  O17  1  0.65311985  0.34580786  0.55825924  1
  O  O18  1  0.12346104  0.40497222  0.75000000  1
  O  O19  1  0.61289750  0.10264204  0.25000000  1
