# generated using pymatgen
data_U8CoS17
_symmetry_space_group_name_H-M   'P 1'
_cell_length_a   7.76235421
_cell_length_b   7.76235421
_cell_length_c   10.24306876
_cell_angle_alpha   80.26682025
_cell_angle_beta   80.26682025
_cell_angle_gamma   64.36169293
_symmetry_Int_Tables_number   1
_chemical_formula_structural   U8CoS17
_chemical_formula_sum   'U8 Co1 S17'
_cell_volume   545.20790562
_cell_formula_units_Z   1
loop_
 _symmetry_equiv_pos_site_id
 _symmetry_equiv_pos_as_xyz
  1  'x, y, z'
loop_
 _atom_site_type_symbol
 _atom_site_label
 _atom_site_symmetry_multiplicity
 _atom_site_fract_x
 _atom_site_fract_y
 _atom_site_fract_z
 _atom_site_occupancy
  U  U0  1  0.81789516  0.30131475  0.29630861  1
  U  U1  1  0.30131475  0.81789516  0.29630861  1
  U  U2  1  0.18210484  0.69868525  0.70369139  1
  U  U3  1  0.69868525  0.18210484  0.70369139  1
  U  U4  1  0.79787771  0.79787771  0.45347310  1
  U  U5  1  0.20212229  0.20212229  0.54652690  1
  U  U6  1  0.31764266  0.31764266  0.01653853  1
  U  U7  1  0.68235734  0.68235734  0.98346147  1
  Co  Co8  1  -0.00000000  0.00000000  -0.00000000  1
  S  S9  1  0.18008007  0.56650178  0.46541115  1
  S  S10  1  0.56650178  0.18008007  0.46541115  1
  S  S11  1  0.81991993  0.43349822  0.53458885  1
  S  S12  1  0.43349822  0.81991993  0.53458885  1
  S  S13  1  0.94466875  0.31975153  0.02807957  1
  S  S14  1  0.31975153  0.94466875  0.02807957  1
  S  S15  1  0.05533125  0.68024847  0.97192043  1
  S  S16  1  0.68024847  0.05533125  0.97192043  1
  S  S17  1  0.94502120  0.94502120  0.22147845  1
  S  S18  1  0.05497880  0.05497880  0.77852155  1
  S  S19  1  0.78749130  0.78749130  0.72063904  1
  S  S20  1  0.21250870  0.21250870  0.27936096  1
  S  S21  1  0.69977165  0.69977165  0.24300342  1
  S  S22  1  0.30022835  0.30022835  0.75699658  1
  S  S23  1  0.47864033  0.47864033  0.16961974  1
  S  S24  1  0.52135967  0.52135967  0.83038026  1
  S  S25  1  -0.00000000  0.00000000  0.50000000  1
