# generated using pymatgen
data_Na5Er4Si4O16F
_symmetry_space_group_name_H-M   'P 1'
_cell_length_a   5.41853638
_cell_length_b   8.63703064
_cell_length_c   8.63703064
_cell_angle_alpha   84.35321839
_cell_angle_beta   71.71882414
_cell_angle_gamma   71.71882414
_symmetry_Int_Tables_number   1
_chemical_formula_structural   Na5Er4Si4O16F
_chemical_formula_sum   'Na5 Er4 Si4 O16 F1'
_cell_volume   364.44080890
_cell_formula_units_Z   1
loop_
 _symmetry_equiv_pos_site_id
 _symmetry_equiv_pos_as_xyz
  1  'x, y, z'
loop_
 _atom_site_type_symbol
 _atom_site_label
 _atom_site_symmetry_multiplicity
 _atom_site_fract_x
 _atom_site_fract_y
 _atom_site_fract_z
 _atom_site_occupancy
  Na  Na0  1  0.59687360  0.30538445  0.51539208  1
  Na  Na1  1  0.41765014  0.69461555  0.48460792  1
  Na  Na2  1  0.09774195  0.48460792  0.30538445  1
  Na  Na3  1  0.88773431  0.51539208  0.69461555  1
  Na  Na4  1  0.00000000  -0.00000000  0.00000000  1
  Er  Er5  1  0.63876185  0.70242501  0.06689078  1
  Er  Er6  1  0.40807765  0.29757499  0.93310922  1
  Er  Er7  1  0.65881313  0.93310922  0.70242501  1
  Er  Er8  1  0.29434737  0.06689078  0.29757499  1
  Si  Si9  1  0.74285627  0.35022005  0.14253207  1
  Si  Si10  1  0.23560839  0.64977995  0.85746793  1
  Si  Si11  1  0.90692368  0.85746793  0.35022005  1
  Si  Si12  1  0.11461165  0.14253207  0.64977995  1
  O  O13  1  0.62512821  0.49765023  0.27764495  1
  O  O14  1  0.40042338  0.50234977  0.72235505  1
  O  O15  1  0.87722157  0.72235505  0.49765023  1
  O  O16  1  0.09722685  0.27764495  0.50234977  1
  O  O17  1  0.05057973  0.23574813  0.13781446  1
  O  O18  1  0.42414231  0.76425187  0.86218554  1
  O  O19  1  0.71367214  0.86218554  0.23574813  1
  O  O20  1  0.81160581  0.13781446  0.76425187  1
  O  O21  1  0.53823691  0.23713768  0.17119570  1
  O  O22  1  0.94657029  0.76286232  0.82880430  1
  O  O23  1  0.22462541  0.82880430  0.23713768  1
  O  O24  1  0.29056739  0.17119570  0.76286232  1
  O  O25  1  0.73011762  0.43977677  0.96579085  1
  O  O26  1  0.13568525  0.56022323  0.03420915  1
  O  O27  1  0.83010561  0.03420915  0.43977677  1
  O  O28  1  0.30409152  0.96579085  0.56022323  1
  F  F29  1  0.50000000  -0.00000000  0.00000000  1
