# generated using pymatgen
data_Er5(In2Ni)2
_symmetry_space_group_name_H-M   'P 1'
_cell_length_a   3.55218417
_cell_length_b   7.92926515
_cell_length_c   17.88393827
_cell_angle_alpha   90.00000000
_cell_angle_beta   90.00000000
_cell_angle_gamma   90.00000000
_symmetry_Int_Tables_number   1
_chemical_formula_structural   Er5(In2Ni)2
_chemical_formula_sum   'Er10 In8 Ni4'
_cell_volume   503.72276354
_cell_formula_units_Z   2
loop_
 _symmetry_equiv_pos_site_id
 _symmetry_equiv_pos_as_xyz
  1  'x, y, z'
loop_
 _atom_site_type_symbol
 _atom_site_label
 _atom_site_symmetry_multiplicity
 _atom_site_fract_x
 _atom_site_fract_y
 _atom_site_fract_z
 _atom_site_occupancy
  Er  Er0  1  0.00000000  0.50000000  0.50000000  1
  Er  Er1  1  0.00000000  -0.00000000  -0.00000000  1
  Er  Er2  1  0.00000000  0.75695293  0.28105005  1
  Er  Er3  1  0.00000000  0.24304707  0.71894995  1
  Er  Er4  1  0.00000000  0.74304707  0.78105005  1
  Er  Er5  1  0.00000000  0.25695293  0.21894995  1
  Er  Er6  1  0.00000000  0.62284004  0.08861797  1
  Er  Er7  1  0.00000000  0.37715996  0.91138203  1
  Er  Er8  1  0.00000000  0.87715996  0.58861797  1
  Er  Er9  1  0.00000000  0.12284004  0.41138203  1
  In  In10  1  0.50000000  0.70061247  0.93286413  1
  In  In11  1  0.50000000  0.29938753  0.06713587  1
  In  In12  1  0.50000000  0.79938753  0.43286413  1
  In  In13  1  0.50000000  0.20061247  0.56713587  1
  In  In14  1  0.50000000  0.56722632  0.65331167  1
  In  In15  1  0.50000000  0.43277368  0.34668833  1
  In  In16  1  0.50000000  0.93277368  0.15331167  1
  In  In17  1  0.50000000  0.06722632  0.84668833  1
  Ni  Ni18  1  0.50000000  0.54122012  0.19682623  1
  Ni  Ni19  1  0.50000000  0.45877988  0.80317377  1
  Ni  Ni20  1  0.50000000  0.95877988  0.69682623  1
  Ni  Ni21  1  0.50000000  0.04122012  0.30317377  1
