# generated using pymatgen
data_Ba(ErSe2)2
_symmetry_space_group_name_H-M   'P 1'
_cell_length_a   4.19638263
_cell_length_b   12.82217463
_cell_length_c   15.11872768
_cell_angle_alpha   90.00000000
_cell_angle_beta   90.00000000
_cell_angle_gamma   90.00000000
_symmetry_Int_Tables_number   1
_chemical_formula_structural   Ba(ErSe2)2
_chemical_formula_sum   'Ba4 Er8 Se16'
_cell_volume   813.48961414
_cell_formula_units_Z   4
loop_
 _symmetry_equiv_pos_site_id
 _symmetry_equiv_pos_as_xyz
  1  'x, y, z'
loop_
 _atom_site_type_symbol
 _atom_site_label
 _atom_site_symmetry_multiplicity
 _atom_site_fract_x
 _atom_site_fract_y
 _atom_site_fract_z
 _atom_site_occupancy
  Ba  Ba0  1  0.75000000  0.74252901  0.16299071  1
  Ba  Ba1  1  0.75000000  0.24252901  0.33700929  1
  Ba  Ba2  1  0.25000000  0.25747099  0.83700929  1
  Ba  Ba3  1  0.25000000  0.75747099  0.66299071  1
  Er  Er4  1  0.75000000  0.06541692  0.10955085  1
  Er  Er5  1  0.75000000  0.56541692  0.39044915  1
  Er  Er6  1  0.25000000  0.93458308  0.89044915  1
  Er  Er7  1  0.25000000  0.43458308  0.60955085  1
  Er  Er8  1  0.75000000  0.07892256  0.59992852  1
  Er  Er9  1  0.75000000  0.57892256  0.90007148  1
  Er  Er10  1  0.25000000  0.92107744  0.40007148  1
  Er  Er11  1  0.25000000  0.42107744  0.09992852  1
  Se  Se12  1  0.75000000  0.29286383  0.66255521  1
  Se  Se13  1  0.75000000  0.79286383  0.83744479  1
  Se  Se14  1  0.25000000  0.70713617  0.33744479  1
  Se  Se15  1  0.25000000  0.20713617  0.16255521  1
  Se  Se16  1  0.75000000  0.37472207  0.97577888  1
  Se  Se17  1  0.75000000  0.87472207  0.52422112  1
  Se  Se18  1  0.25000000  0.62527793  0.02422112  1
  Se  Se19  1  0.25000000  0.12527793  0.47577888  1
  Se  Se20  1  0.75000000  0.97621245  0.28357081  1
  Se  Se21  1  0.75000000  0.47621245  0.21642919  1
  Se  Se22  1  0.25000000  0.02378755  0.71642919  1
  Se  Se23  1  0.25000000  0.52378755  0.78357081  1
  Se  Se24  1  0.75000000  0.08230081  0.92343749  1
  Se  Se25  1  0.75000000  0.58230081  0.57656251  1
  Se  Se26  1  0.25000000  0.91769919  0.07656251  1
  Se  Se27  1  0.25000000  0.41769919  0.42343749  1
