# generated using pymatgen
data_Sm2Ga12Pd
_symmetry_space_group_name_H-M   'P 1'
_cell_length_a   6.06925856
_cell_length_b   6.06925856
_cell_length_c   15.70288486
_cell_angle_alpha   90.00000000
_cell_angle_beta   90.00000000
_cell_angle_gamma   90.00000000
_symmetry_Int_Tables_number   1
_chemical_formula_structural   Sm2Ga12Pd
_chemical_formula_sum   'Sm4 Ga24 Pd2'
_cell_volume   578.42988806
_cell_formula_units_Z   2
loop_
 _symmetry_equiv_pos_site_id
 _symmetry_equiv_pos_as_xyz
  1  'x, y, z'
loop_
 _atom_site_type_symbol
 _atom_site_label
 _atom_site_symmetry_multiplicity
 _atom_site_fract_x
 _atom_site_fract_y
 _atom_site_fract_z
 _atom_site_occupancy
  Sm  Sm0  1  0.75000000  0.25000000  0.25050547  1
  Sm  Sm1  1  0.25000000  0.75000000  0.25050547  1
  Sm  Sm2  1  0.25000000  0.75000000  0.74949453  1
  Sm  Sm3  1  0.75000000  0.25000000  0.74949453  1
  Ga  Ga4  1  0.25000000  0.25000000  0.18775076  1
  Ga  Ga5  1  0.75000000  0.75000000  0.18775076  1
  Ga  Ga6  1  0.75000000  0.75000000  0.81224924  1
  Ga  Ga7  1  0.25000000  0.25000000  0.81224924  1
  Ga  Ga8  1  0.25000000  0.25000000  0.34312638  1
  Ga  Ga9  1  0.75000000  0.75000000  0.34312638  1
  Ga  Ga10  1  0.75000000  0.75000000  0.65687362  1
  Ga  Ga11  1  0.25000000  0.25000000  0.65687362  1
  Ga  Ga12  1  0.50080436  0.00080436  0.91059385  1
  Ga  Ga13  1  0.00080436  0.99919564  0.91059385  1
  Ga  Ga14  1  0.49919564  0.50080436  0.91059385  1
  Ga  Ga15  1  0.99919564  0.49919564  0.91059385  1
  Ga  Ga16  1  0.49919564  0.99919564  0.08940615  1
  Ga  Ga17  1  0.99919564  0.00080436  0.08940615  1
  Ga  Ga18  1  0.50080436  0.49919564  0.08940615  1
  Ga  Ga19  1  0.00080436  0.50080436  0.08940615  1
  Ga  Ga20  1  0.57822152  0.07822152  0.42918295  1
  Ga  Ga21  1  0.07822152  0.92177848  0.42918295  1
  Ga  Ga22  1  0.42177848  0.57822152  0.42918295  1
  Ga  Ga23  1  0.92177848  0.42177848  0.42918295  1
  Ga  Ga24  1  0.42177848  0.92177848  0.57081705  1
  Ga  Ga25  1  0.92177848  0.07822152  0.57081705  1
  Ga  Ga26  1  0.57822152  0.42177848  0.57081705  1
  Ga  Ga27  1  0.07822152  0.57822152  0.57081705  1
  Pd  Pd28  1  0.75000000  0.25000000  0.00000000  1
  Pd  Pd29  1  0.25000000  0.75000000  0.00000000  1
