# generated using pymatgen
data_Ba(TmS2)2
_symmetry_space_group_name_H-M   'P 1'
_cell_length_a   4.00723402
_cell_length_b   12.26018335
_cell_length_c   14.40397019
_cell_angle_alpha   90.00000000
_cell_angle_beta   90.00000000
_cell_angle_gamma   90.00000000
_symmetry_Int_Tables_number   1
_chemical_formula_structural   Ba(TmS2)2
_chemical_formula_sum   'Ba4 Tm8 S16'
_cell_volume   707.65875603
_cell_formula_units_Z   4
loop_
 _symmetry_equiv_pos_site_id
 _symmetry_equiv_pos_as_xyz
  1  'x, y, z'
loop_
 _atom_site_type_symbol
 _atom_site_label
 _atom_site_symmetry_multiplicity
 _atom_site_fract_x
 _atom_site_fract_y
 _atom_site_fract_z
 _atom_site_occupancy
  Ba  Ba0  1  0.75000000  0.74283860  0.16111852  1
  Ba  Ba1  1  0.75000000  0.24283860  0.33888148  1
  Ba  Ba2  1  0.25000000  0.25716140  0.83888148  1
  Ba  Ba3  1  0.25000000  0.75716140  0.66111852  1
  Tm  Tm4  1  0.75000000  0.06597468  0.10919335  1
  Tm  Tm5  1  0.75000000  0.56597468  0.39080665  1
  Tm  Tm6  1  0.25000000  0.93402532  0.89080665  1
  Tm  Tm7  1  0.25000000  0.43402532  0.60919335  1
  Tm  Tm8  1  0.75000000  0.07844479  0.60149164  1
  Tm  Tm9  1  0.75000000  0.57844479  0.89850836  1
  Tm  Tm10  1  0.25000000  0.92155521  0.39850836  1
  Tm  Tm11  1  0.25000000  0.42155521  0.10149164  1
  S  S12  1  0.75000000  0.29296756  0.65970499  1
  S  S13  1  0.75000000  0.79296756  0.84029501  1
  S  S14  1  0.25000000  0.70703244  0.34029501  1
  S  S15  1  0.25000000  0.20703244  0.15970499  1
  S  S16  1  0.75000000  0.37822415  0.97748656  1
  S  S17  1  0.75000000  0.87822415  0.52251344  1
  S  S18  1  0.25000000  0.62177585  0.02251344  1
  S  S19  1  0.25000000  0.12177585  0.47748656  1
  S  S20  1  0.75000000  0.47694858  0.21682551  1
  S  S21  1  0.75000000  0.97694858  0.28317449  1
  S  S22  1  0.25000000  0.52305142  0.78317449  1
  S  S23  1  0.25000000  0.02305142  0.71682551  1
  S  S24  1  0.75000000  0.07996391  0.92407698  1
  S  S25  1  0.75000000  0.57996391  0.57592302  1
  S  S26  1  0.25000000  0.92003609  0.07592302  1
  S  S27  1  0.25000000  0.42003609  0.42407698  1
