# generated using pymatgen
data_CsNpCl2O3
_symmetry_space_group_name_H-M   'P 1'
_cell_length_a   7.58541095
_cell_length_b   8.70339371
_cell_length_c   11.42728286
_cell_angle_alpha   90.00000000
_cell_angle_beta   90.76354893
_cell_angle_gamma   90.00000000
_symmetry_Int_Tables_number   1
_chemical_formula_structural   CsNpCl2O3
_chemical_formula_sum   'Cs4 Np4 Cl8 O12'
_cell_volume   754.34871790
_cell_formula_units_Z   4
loop_
 _symmetry_equiv_pos_site_id
 _symmetry_equiv_pos_as_xyz
  1  'x, y, z'
loop_
 _atom_site_type_symbol
 _atom_site_label
 _atom_site_symmetry_multiplicity
 _atom_site_fract_x
 _atom_site_fract_y
 _atom_site_fract_z
 _atom_site_occupancy
  Cs  Cs0  1  0.75112253  0.38661416  0.15334967  1
  Cs  Cs1  1  0.74887747  0.88661416  0.34665033  1
  Cs  Cs2  1  0.24887747  0.61338584  0.84665033  1
  Cs  Cs3  1  0.25112253  0.11338584  0.65334967  1
  Np  Np4  1  0.75626257  0.40733258  0.67328391  1
  Np  Np5  1  0.74373743  0.90733258  0.82671609  1
  Np  Np6  1  0.24373743  0.59266742  0.32671609  1
  Np  Np7  1  0.25626257  0.09266742  0.17328391  1
  Cl  Cl8  1  0.74237125  0.09117461  0.61180096  1
  Cl  Cl9  1  0.75762875  0.59117461  0.88819904  1
  Cl  Cl10  1  0.25762875  0.90882539  0.38819904  1
  Cl  Cl11  1  0.24237125  0.40882539  0.11180096  1
  Cl  Cl12  1  0.67836174  0.22145732  0.87300861  1
  Cl  Cl13  1  0.82163826  0.72145732  0.62699139  1
  Cl  Cl14  1  0.32163826  0.77854268  0.12699139  1
  Cl  Cl15  1  0.17836174  0.27854268  0.37300861  1
  O  O16  1  0.51856342  0.43105326  0.67204630  1
  O  O17  1  0.98143658  0.93105326  0.82795370  1
  O  O18  1  0.48143658  0.56894674  0.32795370  1
  O  O19  1  0.01856342  0.06894674  0.17204630  1
  O  O20  1  0.98893151  0.38048630  0.70767110  1
  O  O21  1  0.51106849  0.88048630  0.79232890  1
  O  O22  1  0.01106849  0.61951370  0.29232890  1
  O  O23  1  0.48893151  0.11951370  0.20767110  1
  O  O24  1  0.77627757  0.41066316  0.51141861  1
  O  O25  1  0.72372243  0.91066316  0.98858139  1
  O  O26  1  0.22372243  0.58933684  0.48858139  1
  O  O27  1  0.27627757  0.08933684  0.01141861  1
