# generated using pymatgen
data_Hf9Re4P
_symmetry_space_group_name_H-M   'P 1'
_cell_length_a   8.52968991
_cell_length_b   8.52968991
_cell_length_c   8.65054578
_cell_angle_alpha   90.00000000
_cell_angle_beta   90.00000000
_cell_angle_gamma   119.94578801
_symmetry_Int_Tables_number   1
_chemical_formula_structural   Hf9Re4P
_chemical_formula_sum   'Hf18 Re8 P2'
_cell_volume   545.35288119
_cell_formula_units_Z   2
loop_
 _symmetry_equiv_pos_site_id
 _symmetry_equiv_pos_as_xyz
  1  'x, y, z'
loop_
 _atom_site_type_symbol
 _atom_site_label
 _atom_site_symmetry_multiplicity
 _atom_site_fract_x
 _atom_site_fract_y
 _atom_site_fract_z
 _atom_site_occupancy
  Hf  Hf0  1  0.80304911  0.60612666  0.54836723  1
  Hf  Hf1  1  0.80323643  0.19676357  0.54834435  1
  Hf  Hf2  1  0.39387334  0.19695089  0.54836723  1
  Hf  Hf3  1  0.19695089  0.39387334  0.45163277  1
  Hf  Hf4  1  0.19676357  0.80323643  0.45165565  1
  Hf  Hf5  1  0.60612666  0.80304911  0.45163277  1
  Hf  Hf6  1  0.19695089  0.39387334  0.04836723  1
  Hf  Hf7  1  0.19676357  0.80323643  0.04834435  1
  Hf  Hf8  1  0.60612666  0.80304911  0.04836723  1
  Hf  Hf9  1  0.80304911  0.60612666  0.95163277  1
  Hf  Hf10  1  0.80323643  0.19676357  0.95165565  1
  Hf  Hf11  1  0.39387334  0.19695089  0.95163277  1
  Hf  Hf12  1  0.46062794  0.92125176  0.75000000  1
  Hf  Hf13  1  0.46053490  0.53946510  0.75000000  1
  Hf  Hf14  1  0.07874824  0.53937206  0.75000000  1
  Hf  Hf15  1  0.53937206  0.07874824  0.25000000  1
  Hf  Hf16  1  0.53946510  0.46053490  0.25000000  1
  Hf  Hf17  1  0.92125176  0.46062794  0.25000000  1
  Re  Re18  1  0.10902071  0.21809499  0.75000000  1
  Re  Re19  1  0.10901649  0.89098351  0.75000000  1
  Re  Re20  1  0.78190501  0.89097929  0.75000000  1
  Re  Re21  1  0.89097929  0.78190501  0.25000000  1
  Re  Re22  1  0.89098351  0.10901649  0.25000000  1
  Re  Re23  1  0.21809499  0.10902071  0.25000000  1
  Re  Re24  1  0.00000000  0.00000000  0.50000000  1
  Re  Re25  1  0.00000000  0.00000000  0.00000000  1
  P  P26  1  0.66664463  0.33335537  0.75000000  1
  P  P27  1  0.33335537  0.66664463  0.25000000  1
