# generated using pymatgen
data_Zr4Co2N
_symmetry_space_group_name_H-M   'P 1'
_cell_length_a   8.62601988
_cell_length_b   8.62601988
_cell_length_c   8.62601988
_cell_angle_alpha   60.00000000
_cell_angle_beta   60.00000000
_cell_angle_gamma   60.00000000
_symmetry_Int_Tables_number   1
_chemical_formula_structural   Zr4Co2N
_chemical_formula_sum   'Zr16 Co8 N4'
_cell_volume   453.85420744
_cell_formula_units_Z   4
loop_
 _symmetry_equiv_pos_site_id
 _symmetry_equiv_pos_as_xyz
  1  'x, y, z'
loop_
 _atom_site_type_symbol
 _atom_site_label
 _atom_site_symmetry_multiplicity
 _atom_site_fract_x
 _atom_site_fract_y
 _atom_site_fract_z
 _atom_site_occupancy
  Zr  Zr0  1  -0.00000000  -0.00000000  0.50000000  1
  Zr  Zr1  1  0.00000000  0.50000000  0.00000000  1
  Zr  Zr2  1  0.50000000  -0.00000000  0.00000000  1
  Zr  Zr3  1  -0.00000000  -0.00000000  0.00000000  1
  Zr  Zr4  1  0.44002842  0.80997158  0.80997158  1
  Zr  Zr5  1  0.80997158  0.44002842  0.44002842  1
  Zr  Zr6  1  0.80997158  0.44002842  0.80997158  1
  Zr  Zr7  1  0.44002842  0.80997158  0.44002842  1
  Zr  Zr8  1  0.80997158  0.80997158  0.44002842  1
  Zr  Zr9  1  0.44002842  0.44002842  0.80997158  1
  Zr  Zr10  1  0.55997158  0.19002842  0.19002842  1
  Zr  Zr11  1  0.19002842  0.55997158  0.55997158  1
  Zr  Zr12  1  0.19002842  0.55997158  0.19002842  1
  Zr  Zr13  1  0.55997158  0.19002842  0.55997158  1
  Zr  Zr14  1  0.19002842  0.19002842  0.55997158  1
  Zr  Zr15  1  0.55997158  0.55997158  0.19002842  1
  Co  Co16  1  0.21268082  0.21268082  0.86195754  1
  Co  Co17  1  0.21268082  0.86195754  0.21268082  1
  Co  Co18  1  0.86195754  0.21268082  0.21268082  1
  Co  Co19  1  0.21268082  0.21268082  0.21268082  1
  Co  Co20  1  0.78731918  0.78731918  0.13804246  1
  Co  Co21  1  0.78731918  0.13804246  0.78731918  1
  Co  Co22  1  0.13804246  0.78731918  0.78731918  1
  Co  Co23  1  0.78731918  0.78731918  0.78731918  1
  N  N24  1  0.50000000  0.50000000  0.00000000  1
  N  N25  1  0.50000000  -0.00000000  0.50000000  1
  N  N26  1  -0.00000000  0.50000000  0.50000000  1
  N  N27  1  0.50000000  0.50000000  0.50000000  1
