# generated using pymatgen
data_Hf9CoRe4
_symmetry_space_group_name_H-M   'P 1'
_cell_length_a   8.47804663
_cell_length_b   8.56553913
_cell_length_c   8.56553913
_cell_angle_alpha   120.00002713
_cell_angle_beta   90.00000000
_cell_angle_gamma   90.00000000
_symmetry_Int_Tables_number   1
_chemical_formula_structural   Hf9CoRe4
_chemical_formula_sum   'Hf18 Co2 Re8'
_cell_volume   538.68603996
_cell_formula_units_Z   2
loop_
 _symmetry_equiv_pos_site_id
 _symmetry_equiv_pos_as_xyz
  1  'x, y, z'
loop_
 _atom_site_type_symbol
 _atom_site_label
 _atom_site_symmetry_multiplicity
 _atom_site_fract_x
 _atom_site_fract_y
 _atom_site_fract_z
 _atom_site_occupancy
  Hf  Hf0  1  0.55782856  0.80036022  0.60071805  1
  Hf  Hf1  1  0.55782800  0.80036708  0.19963292  1
  Hf  Hf2  1  0.55782856  0.39928195  0.19963978  1
  Hf  Hf3  1  0.44217144  0.19963978  0.39928195  1
  Hf  Hf4  1  0.44217200  0.19963292  0.80036708  1
  Hf  Hf5  1  0.44217144  0.60071805  0.80036022  1
  Hf  Hf6  1  0.05782856  0.19963978  0.39928195  1
  Hf  Hf7  1  0.05782800  0.19963292  0.80036708  1
  Hf  Hf8  1  0.05782856  0.60071805  0.80036022  1
  Hf  Hf9  1  0.94217144  0.80036022  0.60071805  1
  Hf  Hf10  1  0.94217200  0.80036708  0.19963292  1
  Hf  Hf11  1  0.94217144  0.39928195  0.19963978  1
  Hf  Hf12  1  0.75000000  0.45901966  0.91806316  1
  Hf  Hf13  1  0.75000000  0.45904400  0.54095600  1
  Hf  Hf14  1  0.75000000  0.08193684  0.54098034  1
  Hf  Hf15  1  0.25000000  0.54098034  0.08193684  1
  Hf  Hf16  1  0.25000000  0.54095600  0.45904400  1
  Hf  Hf17  1  0.25000000  0.91806316  0.45901966  1
  Co  Co18  1  0.75000000  0.66667626  0.33332374  1
  Co  Co19  1  0.25000000  0.33332374  0.66667626  1
  Re  Re20  1  0.75000000  0.11078894  0.22155203  1
  Re  Re21  1  0.75000000  0.11078080  0.88921920  1
  Re  Re22  1  0.75000000  0.77844797  0.88921106  1
  Re  Re23  1  0.25000000  0.88921106  0.77844797  1
  Re  Re24  1  0.25000000  0.88921920  0.11078080  1
  Re  Re25  1  0.25000000  0.22155203  0.11078894  1
  Re  Re26  1  0.50000000  -0.00000000  0.00000000  1
  Re  Re27  1  -0.00000000  -0.00000000  0.00000000  1
