# generated using pymatgen
data_Mn2CrPb2O9
_symmetry_space_group_name_H-M   'P 1'
_cell_length_a   5.10102317
_cell_length_b   7.72448320
_cell_length_c   10.49028088
_cell_angle_alpha   91.98233436
_cell_angle_beta   99.51130035
_cell_angle_gamma   109.22967217
_symmetry_Int_Tables_number   1
_chemical_formula_structural   Mn2CrPb2O9
_chemical_formula_sum   'Mn4 Cr2 Pb4 O18'
_cell_volume   383.15604186
_cell_formula_units_Z   2
loop_
 _symmetry_equiv_pos_site_id
 _symmetry_equiv_pos_as_xyz
  1  'x, y, z'
loop_
 _atom_site_type_symbol
 _atom_site_label
 _atom_site_symmetry_multiplicity
 _atom_site_fract_x
 _atom_site_fract_y
 _atom_site_fract_z
 _atom_site_occupancy
  Mn  Mn0  1  0.39906822  0.80405797  0.49899176  1
  Mn  Mn1  1  0.60093178  0.19594203  0.50100824  1
  Mn  Mn2  1  0.80172135  0.60409089  0.50566179  1
  Mn  Mn3  1  0.19827865  0.39590911  0.49433821  1
  Cr  Cr4  1  0.18715913  0.76560011  0.04926953  1
  Cr  Cr5  1  0.81284087  0.23439989  0.95073047  1
  Pb  Pb6  1  0.89670221  0.96216529  0.26111747  1
  Pb  Pb7  1  0.10329779  0.03783471  0.73888253  1
  Pb  Pb8  1  0.49854092  0.38966989  0.17992883  1
  Pb  Pb9  1  0.50145908  0.61033011  0.82007117  1
  O  O10  1  0.44921404  0.67530729  0.07044146  1
  O  O11  1  0.55078596  0.32469271  0.92955854  1
  O  O12  1  0.94580572  0.65216512  0.12963202  1
  O  O13  1  0.05419428  0.34783488  0.87036798  1
  O  O14  1  0.04883777  0.73828900  0.88825081  1
  O  O15  1  0.95116223  0.26171100  0.11174919  1
  O  O16  1  0.30609440  0.98461890  0.10946500  1
  O  O17  1  0.69390560  0.01538110  0.89053500  1
  O  O18  1  0.17350324  0.61332308  0.59617241  1
  O  O19  1  0.82649676  0.38667692  0.40382759  1
  O  O20  1  0.56005325  0.41029670  0.59780311  1
  O  O21  1  0.43994675  0.58970330  0.40219689  1
  O  O22  1  0.57759852  0.98657956  0.39583603  1
  O  O23  1  0.42240148  0.01342044  0.60416397  1
  O  O24  1  0.73868743  0.78542015  0.60938649  1
  O  O25  1  0.26131257  0.21457985  0.39061351  1
  O  O26  1  0.02501439  0.76692241  0.40618532  1
  O  O27  1  0.97498561  0.23307759  0.59381468  1
