# generated using pymatgen
data_Mg2Cr3O8
_symmetry_space_group_name_H-M   'P 1'
_cell_length_a   4.94084363
_cell_length_b   5.86595473
_cell_length_c   5.92516430
_cell_angle_alpha   119.66998583
_cell_angle_beta   108.08207987
_cell_angle_gamma   89.99999705
_symmetry_Int_Tables_number   1
_chemical_formula_structural   Mg2Cr3O8
_chemical_formula_sum   'Mg2 Cr3 O8'
_cell_volume   139.36799060
_cell_formula_units_Z   1
loop_
 _symmetry_equiv_pos_site_id
 _symmetry_equiv_pos_as_xyz
  1  'x, y, z'
loop_
 _atom_site_type_symbol
 _atom_site_label
 _atom_site_symmetry_multiplicity
 _atom_site_fract_x
 _atom_site_fract_y
 _atom_site_fract_z
 _atom_site_occupancy
  Mg  Mg0  1  0.65939885  0.72584860  0.45169621  1
  Mg  Mg1  1  0.34060015  0.27415240  0.54830379  1
  Cr  Cr2  1  0.50000000  0.99999900  0.00000000  1
  Cr  Cr3  1  0.99999900  0.73912728  0.00000000  1
  Cr  Cr4  1  0.99999900  0.26087272  1.00000000  1
  O  O5  1  0.07725015  0.39535099  0.79070298  1
  O  O6  1  0.92274985  0.60464801  0.20929702  1
  O  O7  1  0.07628444  0.89067086  0.78134172  1
  O  O8  1  0.92371556  0.10932814  0.21865728  1
  O  O9  1  0.40927855  0.33963656  0.22657059  1
  O  O10  1  0.40927855  0.88693403  0.22657059  1
  O  O11  1  0.59072245  0.11306497  0.77342941  1
  O  O12  1  0.59072245  0.66036344  0.77342941  1
