# generated using pymatgen
data_Sc4Si2Pt7
_symmetry_space_group_name_H-M   'P 1'
_cell_length_a   4.02877354
_cell_length_b   6.53693678
_cell_length_c   16.34052720
_cell_angle_alpha   90.00000000
_cell_angle_beta   90.00000000
_cell_angle_gamma   90.00000000
_symmetry_Int_Tables_number   1
_chemical_formula_structural   Sc4Si2Pt7
_chemical_formula_sum   'Sc8 Si4 Pt14'
_cell_volume   430.34147606
_cell_formula_units_Z   2
loop_
 _symmetry_equiv_pos_site_id
 _symmetry_equiv_pos_as_xyz
  1  'x, y, z'
loop_
 _atom_site_type_symbol
 _atom_site_label
 _atom_site_symmetry_multiplicity
 _atom_site_fract_x
 _atom_site_fract_y
 _atom_site_fract_z
 _atom_site_occupancy
  Sc  Sc0  1  -0.00000000  0.28512053  0.46099493  1
  Sc  Sc1  1  -0.00000000  0.71487947  0.53900507  1
  Sc  Sc2  1  -0.00000000  0.78512053  0.03900507  1
  Sc  Sc3  1  0.00000000  0.21487947  0.96099493  1
  Sc  Sc4  1  0.00000000  0.52604408  0.29079073  1
  Sc  Sc5  1  -0.00000000  0.47395592  0.70920927  1
  Sc  Sc6  1  0.00000000  0.02604408  0.20920927  1
  Sc  Sc7  1  -0.00000000  0.97395592  0.79079073  1
  Si  Si8  1  0.50000000  0.83950689  0.30692515  1
  Si  Si9  1  0.50000000  0.16049311  0.69307485  1
  Si  Si10  1  0.50000000  0.33950689  0.19307485  1
  Si  Si11  1  0.50000000  0.66049311  0.80692515  1
  Pt  Pt12  1  -0.00000000  0.90749596  0.38214703  1
  Pt  Pt13  1  -0.00000000  0.09250404  0.61785297  1
  Pt  Pt14  1  0.00000000  0.40749596  0.11785297  1
  Pt  Pt15  1  0.00000000  0.59250404  0.88214703  1
  Pt  Pt16  1  0.50000000  0.59577607  0.42096374  1
  Pt  Pt17  1  0.50000000  0.40422393  0.57903626  1
  Pt  Pt18  1  0.50000000  0.09577607  0.07903626  1
  Pt  Pt19  1  0.50000000  0.90422393  0.92096374  1
  Pt  Pt20  1  0.50000000  0.50000000  0.00000000  1
  Pt  Pt21  1  0.50000000  -0.00000000  0.50000000  1
  Pt  Pt22  1  0.50000000  0.21426149  0.33233961  1
  Pt  Pt23  1  0.50000000  0.78573851  0.66766039  1
  Pt  Pt24  1  0.50000000  0.71426149  0.16766039  1
  Pt  Pt25  1  0.50000000  0.28573851  0.83233961  1
