# generated using pymatgen
data_Nb4FeSe8
_symmetry_space_group_name_H-M   'P 1'
_cell_length_a   6.99384645
_cell_length_b   6.99384645
_cell_length_c   12.95347438
_cell_angle_alpha   90.00000000
_cell_angle_beta   90.00000000
_cell_angle_gamma   119.97351314
_symmetry_Int_Tables_number   1
_chemical_formula_structural   Nb4FeSe8
_chemical_formula_sum   'Nb8 Fe2 Se16'
_cell_volume   548.86424395
_cell_formula_units_Z   2
loop_
 _symmetry_equiv_pos_site_id
 _symmetry_equiv_pos_as_xyz
  1  'x, y, z'
loop_
 _atom_site_type_symbol
 _atom_site_label
 _atom_site_symmetry_multiplicity
 _atom_site_fract_x
 _atom_site_fract_y
 _atom_site_fract_z
 _atom_site_occupancy
  Nb  Nb0  1  0.00016075  0.99983925  0.75000000  1
  Nb  Nb1  1  0.99983925  0.00016075  0.25000000  1
  Nb  Nb2  1  0.49465810  0.50534190  0.75000000  1
  Nb  Nb3  1  0.01111254  0.50588271  0.75000000  1
  Nb  Nb4  1  0.49411729  0.98888746  0.75000000  1
  Nb  Nb5  1  0.50534190  0.49465810  0.25000000  1
  Nb  Nb6  1  0.98888746  0.49411729  0.25000000  1
  Nb  Nb7  1  0.50588271  0.01111254  0.25000000  1
  Fe  Fe8  1  0.00000000  -0.00000000  0.50000000  1
  Fe  Fe9  1  0.00000000  -0.00000000  -0.00000000  1
  Se  Se10  1  0.66670662  0.33329338  0.11825656  1
  Se  Se11  1  0.33329338  0.66670662  0.88174344  1
  Se  Se12  1  0.33329338  0.66670662  0.61825656  1
  Se  Se13  1  0.66670662  0.33329338  0.38174344  1
  Se  Se14  1  0.83178268  0.66395492  0.62066230  1
  Se  Se15  1  0.83223239  0.16776761  0.62074417  1
  Se  Se16  1  0.33604508  0.16821732  0.62066230  1
  Se  Se17  1  0.16821732  0.33604508  0.37933770  1
  Se  Se18  1  0.16776761  0.83223239  0.37925583  1
  Se  Se19  1  0.66395492  0.83178268  0.37933770  1
  Se  Se20  1  0.16821732  0.33604508  0.12066230  1
  Se  Se21  1  0.16776761  0.83223239  0.12074417  1
  Se  Se22  1  0.66395492  0.83178268  0.12066230  1
  Se  Se23  1  0.83178268  0.66395492  0.87933770  1
  Se  Se24  1  0.83223239  0.16776761  0.87925583  1
  Se  Se25  1  0.33604508  0.16821732  0.87933770  1
