# generated using pymatgen
data_HoMoBrO4
_symmetry_space_group_name_H-M   'P 1'
_cell_length_a   6.92380072
_cell_length_b   7.25998745
_cell_length_c   10.99570621
_cell_angle_alpha   105.02469200
_cell_angle_beta   107.43433179
_cell_angle_gamma   93.38303605
_symmetry_Int_Tables_number   1
_chemical_formula_structural   HoMoBrO4
_chemical_formula_sum   'Ho4 Mo4 Br4 O16'
_cell_volume   503.66537157
_cell_formula_units_Z   4
loop_
 _symmetry_equiv_pos_site_id
 _symmetry_equiv_pos_as_xyz
  1  'x, y, z'
loop_
 _atom_site_type_symbol
 _atom_site_label
 _atom_site_symmetry_multiplicity
 _atom_site_fract_x
 _atom_site_fract_y
 _atom_site_fract_z
 _atom_site_occupancy
  Ho  Ho0  1  0.64743037  0.11904261  0.73079846  1
  Ho  Ho1  1  0.35256963  0.88095739  0.26920154  1
  Ho  Ho2  1  0.38902011  0.65524219  0.76843819  1
  Ho  Ho3  1  0.61097989  0.34475781  0.23156181  1
  Mo  Mo4  1  0.73253003  0.81323195  0.13383910  1
  Mo  Mo5  1  0.26746997  0.18676805  0.86616090  1
  Mo  Mo6  1  0.77466087  0.59282908  0.62865157  1
  Mo  Mo7  1  0.22533913  0.40717092  0.37134843  1
  Br  Br8  1  0.26024927  0.99214279  0.51764539  1
  Br  Br9  1  0.73975073  0.00785721  0.48235461  1
  Br  Br10  1  0.19292352  0.71636498  0.98118656  1
  Br  Br11  1  0.80707648  0.28363502  0.01881344  1
  O  O12  1  0.66631810  0.72774376  0.95785368  1
  O  O13  1  0.33368190  0.27225624  0.04214632  1
  O  O14  1  0.00316267  0.86933779  0.20689198  1
  O  O15  1  0.99683733  0.13066221  0.79310802  1
  O  O16  1  0.62658428  0.64497597  0.20197254  1
  O  O17  1  0.37341572  0.35502403  0.79802746  1
  O  O18  1  0.39682015  0.98114710  0.81812956  1
  O  O19  1  0.60317985  0.01885290  0.18187044  1
  O  O20  1  0.04418272  0.64935977  0.67369080  1
  O  O21  1  0.95581728  0.35064023  0.32630920  1
  O  O22  1  0.71589597  0.41233501  0.70128708  1
  O  O23  1  0.28410403  0.58766499  0.29871292  1
  O  O24  1  0.67333570  0.50586471  0.45085528  1
  O  O25  1  0.32666430  0.49413529  0.54914472  1
  O  O26  1  0.65535112  0.79492875  0.70234530  1
  O  O27  1  0.34464888  0.20507125  0.29765470  1
