# generated using pymatgen
data_K3FeS3
_symmetry_space_group_name_H-M   'P 1'
_cell_length_a   7.76084519
_cell_length_b   8.12408282
_cell_length_c   12.59709602
_cell_angle_alpha   90.00000000
_cell_angle_beta   90.00000000
_cell_angle_gamma   101.68616253
_symmetry_Int_Tables_number   1
_chemical_formula_structural   K3FeS3
_chemical_formula_sum   'K12 Fe4 S12'
_cell_volume   777.78046604
_cell_formula_units_Z   4
loop_
 _symmetry_equiv_pos_site_id
 _symmetry_equiv_pos_as_xyz
  1  'x, y, z'
loop_
 _atom_site_type_symbol
 _atom_site_label
 _atom_site_symmetry_multiplicity
 _atom_site_fract_x
 _atom_site_fract_y
 _atom_site_fract_z
 _atom_site_occupancy
  K  K0  1  0.74279620  0.39446995  0.08046131  1
  K  K1  1  0.75720380  0.10553005  0.58046131  1
  K  K2  1  0.25720380  0.60553005  0.91953869  1
  K  K3  1  0.24279620  0.89446995  0.41953869  1
  K  K4  1  0.86430530  0.47635113  0.36886842  1
  K  K5  1  0.63569470  0.02364887  0.86886842  1
  K  K6  1  0.13569470  0.52364887  0.63113158  1
  K  K7  1  0.36430530  0.97635113  0.13113158  1
  K  K8  1  0.28902107  0.42262480  0.18960515  1
  K  K9  1  0.21097893  0.07737520  0.68960515  1
  K  K10  1  0.71097893  0.57737520  0.81039485  1
  K  K11  1  0.78902107  0.92262480  0.31039485  1
  Fe  Fe12  1  0.40878985  0.34877569  0.44449111  1
  Fe  Fe13  1  0.09121015  0.15122431  0.94449111  1
  Fe  Fe14  1  0.59121015  0.65122431  0.55550889  1
  Fe  Fe15  1  0.90878985  0.84877569  0.05550889  1
  S  S16  1  0.02809592  0.87842993  0.89053769  1
  S  S17  1  0.47190408  0.62157007  0.39053769  1
  S  S18  1  0.97190408  0.12157007  0.10946231  1
  S  S19  1  0.52809592  0.37842993  0.60946231  1
  S  S20  1  0.38085893  0.25748886  0.95466317  1
  S  S21  1  0.11914107  0.24251114  0.45466317  1
  S  S22  1  0.61914107  0.74251114  0.04533683  1
  S  S23  1  0.88085893  0.75748886  0.54533683  1
  S  S24  1  0.53785560  0.19497076  0.33046626  1
  S  S25  1  0.96214440  0.30502924  0.83046626  1
  S  S26  1  0.46214440  0.80502924  0.66953374  1
  S  S27  1  0.03785560  0.69497076  0.16953374  1
