# generated using pymatgen
data_Mg3Bi2O7
_symmetry_space_group_name_H-M   'P 1'
_cell_length_a   5.64848500
_cell_length_b   5.68205176
_cell_length_c   10.19431199
_cell_angle_alpha   106.18187218
_cell_angle_beta   90.00000000
_cell_angle_gamma   90.00000000
_symmetry_Int_Tables_number   1
_chemical_formula_structural   Mg3Bi2O7
_chemical_formula_sum   'Mg6 Bi4 O14'
_cell_volume   314.22378514
_cell_formula_units_Z   2
loop_
 _symmetry_equiv_pos_site_id
 _symmetry_equiv_pos_as_xyz
  1  'x, y, z'
loop_
 _atom_site_type_symbol
 _atom_site_label
 _atom_site_symmetry_multiplicity
 _atom_site_fract_x
 _atom_site_fract_y
 _atom_site_fract_z
 _atom_site_occupancy
  Mg  Mg0  1  0.74068137  0.73882240  1.00000000  1
  Mg  Mg1  1  0.24068137  0.26117760  0.00000000  1
  Mg  Mg2  1  0.79272657  0.59140292  0.58767752  1
  Mg  Mg3  1  0.29272657  0.40859708  0.41232248  1
  Mg  Mg4  1  0.79272657  0.00372440  0.41232248  1
  Mg  Mg5  1  0.29272657  0.99627560  0.58767752  1
  Bi  Bi6  1  0.74837801  0.36696851  0.20933502  1
  Bi  Bi7  1  0.24837801  0.63303149  0.79066498  1
  Bi  Bi8  1  0.24837801  0.84236651  0.20933502  1
  Bi  Bi9  1  0.74837801  0.15763349  0.79066498  1
  O  O10  1  0.65901922  0.92163347  0.58186163  1
  O  O11  1  0.15901922  0.07836653  0.41813837  1
  O  O12  1  0.15901922  0.66022716  0.58186163  1
  O  O13  1  0.65901922  0.33977284  0.41813837  1
  O  O14  1  0.07949766  0.26089247  0.70843023  1
  O  O15  1  0.57949766  0.73910753  0.29156977  1
  O  O16  1  0.57949766  0.44753776  0.70843023  1
  O  O17  1  0.07949766  0.55246224  0.29156977  1
  O  O18  1  0.90463422  0.83762791  0.84599449  1
  O  O19  1  0.40463422  0.16237209  0.15400551  1
  O  O20  1  0.91080928  0.41727951  0.00000000  1
  O  O21  1  0.41080928  0.58272049  1.00000000  1
  O  O22  1  0.90463422  0.99163342  0.15400551  1
  O  O23  1  0.40463422  0.00836658  0.84599449  1
