# generated using pymatgen
data_Ba(SmSe2)2
_symmetry_space_group_name_H-M   'P 1'
_cell_length_a   4.29481779
_cell_length_b   13.01686062
_cell_length_c   15.44077801
_cell_angle_alpha   90.00000000
_cell_angle_beta   90.00000000
_cell_angle_gamma   90.00000000
_symmetry_Int_Tables_number   1
_chemical_formula_structural   Ba(SmSe2)2
_chemical_formula_sum   'Ba4 Sm8 Se16'
_cell_volume   863.21738270
_cell_formula_units_Z   4
loop_
 _symmetry_equiv_pos_site_id
 _symmetry_equiv_pos_as_xyz
  1  'x, y, z'
loop_
 _atom_site_type_symbol
 _atom_site_label
 _atom_site_symmetry_multiplicity
 _atom_site_fract_x
 _atom_site_fract_y
 _atom_site_fract_z
 _atom_site_occupancy
  Ba  Ba0  1  0.75000000  0.74344276  0.16301127  1
  Ba  Ba1  1  0.75000000  0.24344276  0.33698873  1
  Ba  Ba2  1  0.25000000  0.25655724  0.83698873  1
  Ba  Ba3  1  0.25000000  0.75655724  0.66301127  1
  Sm  Sm4  1  0.75000000  0.06791353  0.10928542  1
  Sm  Sm5  1  0.75000000  0.56791353  0.39071458  1
  Sm  Sm6  1  0.25000000  0.93208647  0.89071458  1
  Sm  Sm7  1  0.25000000  0.43208647  0.60928542  1
  Sm  Sm8  1  0.75000000  0.07996811  0.60007298  1
  Sm  Sm9  1  0.75000000  0.57996811  0.89992702  1
  Sm  Sm10  1  0.25000000  0.92003189  0.39992702  1
  Sm  Sm11  1  0.25000000  0.42003189  0.10007298  1
  Se  Se12  1  0.75000000  0.29301020  0.67079064  1
  Se  Se13  1  0.75000000  0.79301020  0.82920936  1
  Se  Se14  1  0.25000000  0.70698980  0.32920936  1
  Se  Se15  1  0.25000000  0.20698980  0.17079064  1
  Se  Se16  1  0.75000000  0.37125377  0.97442252  1
  Se  Se17  1  0.75000000  0.87125377  0.52557748  1
  Se  Se18  1  0.25000000  0.62874623  0.02557748  1
  Se  Se19  1  0.25000000  0.12874623  0.47442252  1
  Se  Se20  1  0.75000000  0.97593582  0.28371134  1
  Se  Se21  1  0.75000000  0.47593582  0.21628866  1
  Se  Se22  1  0.25000000  0.02406418  0.71628866  1
  Se  Se23  1  0.25000000  0.52406418  0.78371134  1
  Se  Se24  1  0.75000000  0.08308893  0.92191871  1
  Se  Se25  1  0.75000000  0.58308893  0.57808129  1
  Se  Se26  1  0.25000000  0.91691107  0.07808129  1
  Se  Se27  1  0.25000000  0.41691107  0.42191871  1
