# generated using pymatgen
data_Na3SbS3
_symmetry_space_group_name_H-M   'P 1'
_cell_length_a   8.71965495
_cell_length_b   8.71965495
_cell_length_c   8.71965495
_cell_angle_alpha   90.00000000
_cell_angle_beta   90.00000000
_cell_angle_gamma   90.00000000
_symmetry_Int_Tables_number   1
_chemical_formula_structural   Na3SbS3
_chemical_formula_sum   'Na12 Sb4 S12'
_cell_volume   662.97613996
_cell_formula_units_Z   4
loop_
 _symmetry_equiv_pos_site_id
 _symmetry_equiv_pos_as_xyz
  1  'x, y, z'
loop_
 _atom_site_type_symbol
 _atom_site_label
 _atom_site_symmetry_multiplicity
 _atom_site_fract_x
 _atom_site_fract_y
 _atom_site_fract_z
 _atom_site_occupancy
  Na  Na0  1  0.44012926  0.94012926  0.55987074  1
  Na  Na1  1  0.94012926  0.55987074  0.44012926  1
  Na  Na2  1  0.55987074  0.44012926  0.94012926  1
  Na  Na3  1  0.05987074  0.05987074  0.05987074  1
  Na  Na4  1  0.93160499  0.43160499  0.06839501  1
  Na  Na5  1  0.43160499  0.06839501  0.93160499  1
  Na  Na6  1  0.06839501  0.93160499  0.43160499  1
  Na  Na7  1  0.56839501  0.56839501  0.56839501  1
  Na  Na8  1  0.67493451  0.17493451  0.32506549  1
  Na  Na9  1  0.17493451  0.32506549  0.67493451  1
  Na  Na10  1  0.32506549  0.67493451  0.17493451  1
  Na  Na11  1  0.82506549  0.82506549  0.82506549  1
  Sb  Sb12  1  0.21420472  0.71420472  0.78579528  1
  Sb  Sb13  1  0.71420472  0.78579528  0.21420472  1
  Sb  Sb14  1  0.78579528  0.21420472  0.71420472  1
  Sb  Sb15  1  0.28579528  0.28579528  0.28579528  1
  S  S16  1  0.14099192  0.98488738  0.74989527  1
  S  S17  1  0.25010473  0.64099192  0.51511262  1
  S  S18  1  0.48488738  0.75010473  0.85900808  1
  S  S19  1  0.64099192  0.51511262  0.25010473  1
  S  S20  1  0.75010473  0.85900808  0.48488738  1
  S  S21  1  0.98488738  0.74989527  0.14099192  1
  S  S22  1  0.85900808  0.48488738  0.75010473  1
  S  S23  1  0.74989527  0.14099192  0.98488738  1
  S  S24  1  0.51511262  0.25010473  0.64099192  1
  S  S25  1  0.35900808  0.01511262  0.24989527  1
  S  S26  1  0.24989527  0.35900808  0.01511262  1
  S  S27  1  0.01511262  0.24989527  0.35900808  1
