# generated using pymatgen
data_BaHg6
_symmetry_space_group_name_H-M   'P 1'
_cell_length_a   5.64077668
_cell_length_b   10.50567120
_cell_length_c   13.98230613
_cell_angle_alpha   90.00000000
_cell_angle_beta   90.00000000
_cell_angle_gamma   90.00000000
_symmetry_Int_Tables_number   1
_chemical_formula_structural   BaHg6
_chemical_formula_sum   'Ba4 Hg24'
_cell_volume   828.59349027
_cell_formula_units_Z   4
loop_
 _symmetry_equiv_pos_site_id
 _symmetry_equiv_pos_as_xyz
  1  'x, y, z'
loop_
 _atom_site_type_symbol
 _atom_site_label
 _atom_site_symmetry_multiplicity
 _atom_site_fract_x
 _atom_site_fract_y
 _atom_site_fract_z
 _atom_site_occupancy
  Ba  Ba0  1  0.25000000  0.14444333  0.81852790  1
  Ba  Ba1  1  0.25000000  0.35555667  0.31852790  1
  Ba  Ba2  1  0.75000000  0.85555667  0.18147210  1
  Ba  Ba3  1  0.75000000  0.64444333  0.68147210  1
  Hg  Hg4  1  0.25000000  0.88793994  0.00384254  1
  Hg  Hg5  1  0.25000000  0.61206006  0.50384254  1
  Hg  Hg6  1  0.75000000  0.11206006  0.99615746  1
  Hg  Hg7  1  0.75000000  0.38793994  0.49615746  1
  Hg  Hg8  1  0.25000000  0.78760988  0.80449397  1
  Hg  Hg9  1  0.25000000  0.71239012  0.30449397  1
  Hg  Hg10  1  0.75000000  0.21239012  0.19550603  1
  Hg  Hg11  1  0.75000000  0.28760988  0.69550603  1
  Hg  Hg12  1  0.25000000  0.50966606  0.85216870  1
  Hg  Hg13  1  0.25000000  -0.00966606  0.35216870  1
  Hg  Hg14  1  0.75000000  0.49033394  0.14783130  1
  Hg  Hg15  1  0.75000000  0.00966606  0.64783130  1
  Hg  Hg16  1  0.25000000  0.40160578  0.64514001  1
  Hg  Hg17  1  0.25000000  0.09839422  0.14514001  1
  Hg  Hg18  1  0.75000000  0.59839422  0.35485999  1
  Hg  Hg19  1  0.75000000  0.90160578  0.85485999  1
  Hg  Hg20  1  0.25000000  0.86879711  0.59658846  1
  Hg  Hg21  1  0.25000000  0.63120289  0.09658846  1
  Hg  Hg22  1  0.75000000  0.13120289  0.40341154  1
  Hg  Hg23  1  0.75000000  0.36879711  0.90341154  1
  Hg  Hg24  1  0.25000000  0.15000414  0.54103581  1
  Hg  Hg25  1  0.25000000  0.34999586  0.04103581  1
  Hg  Hg26  1  0.75000000  0.84999586  0.45896419  1
  Hg  Hg27  1  0.75000000  0.65000414  0.95896419  1
