# generated using pymatgen
data_Rb3FeS3
_symmetry_space_group_name_H-M   'P 1'
_cell_length_a   6.98681441
_cell_length_b   10.25299266
_cell_length_c   12.92789000
_cell_angle_alpha   90.00000000
_cell_angle_beta   90.00000000
_cell_angle_gamma   109.92079131
_symmetry_Int_Tables_number   1
_chemical_formula_structural   Rb3FeS3
_chemical_formula_sum   'Rb12 Fe4 S12'
_cell_volume   870.68562238
_cell_formula_units_Z   4
loop_
 _symmetry_equiv_pos_site_id
 _symmetry_equiv_pos_as_xyz
  1  'x, y, z'
loop_
 _atom_site_type_symbol
 _atom_site_label
 _atom_site_symmetry_multiplicity
 _atom_site_fract_x
 _atom_site_fract_y
 _atom_site_fract_z
 _atom_site_occupancy
  Rb  Rb0  1  0.63551494  -0.00000000  0.17814374  1
  Rb  Rb1  1  0.36448506  -0.00000000  0.82185626  1
  Rb  Rb2  1  0.86448506  -0.00000000  0.67814374  1
  Rb  Rb3  1  0.13551494  -0.00000000  0.32185626  1
  Rb  Rb4  1  0.02174340  0.35404813  0.37294456  1
  Rb  Rb5  1  0.33230473  0.35404813  0.62705544  1
  Rb  Rb6  1  0.83230473  0.35404813  0.87294456  1
  Rb  Rb7  1  0.52174340  0.35404813  0.12705544  1
  Rb  Rb8  1  0.97825660  0.64595187  0.62705544  1
  Rb  Rb9  1  0.66769527  0.64595187  0.37294456  1
  Rb  Rb10  1  0.16769527  0.64595187  0.12705544  1
  Rb  Rb11  1  0.47825660  0.64595187  0.87294456  1
  Fe  Fe12  1  0.58137702  0.16275404  0.50000000  1
  Fe  Fe13  1  0.08137702  0.16275404  0.00000000  1
  Fe  Fe14  1  0.41862298  0.83724596  0.50000000  1
  Fe  Fe15  1  0.91862298  0.83724596  0.00000000  1
  S  S16  1  0.20770464  0.70516538  0.38095460  1
  S  S17  1  0.49746074  0.70516538  0.61904540  1
  S  S18  1  0.99746074  0.70516538  0.88095460  1
  S  S19  1  0.70770464  0.70516538  0.11904540  1
  S  S20  1  0.79229536  0.29483462  0.61904540  1
  S  S21  1  0.50253926  0.29483462  0.38095460  1
  S  S22  1  0.00253926  0.29483462  0.11904540  1
  S  S23  1  0.29229536  0.29483462  0.88095460  1
  S  S24  1  0.71145535  -0.00000000  0.43067523  1
  S  S25  1  0.28854465  -0.00000000  0.56932477  1
  S  S26  1  0.78854465  -0.00000000  0.93067523  1
  S  S27  1  0.21145535  -0.00000000  0.06932477  1
