# generated using pymatgen
data_Hf6Al16Co7
_symmetry_space_group_name_H-M   'P 1'
_cell_length_a   8.48091294
_cell_length_b   8.48091294
_cell_length_c   8.48091294
_cell_angle_alpha   60.00000000
_cell_angle_beta   60.00000000
_cell_angle_gamma   60.00000000
_symmetry_Int_Tables_number   1
_chemical_formula_structural   Hf6Al16Co7
_chemical_formula_sum   'Hf6 Al16 Co7'
_cell_volume   431.33313024
_cell_formula_units_Z   1
loop_
 _symmetry_equiv_pos_site_id
 _symmetry_equiv_pos_as_xyz
  1  'x, y, z'
loop_
 _atom_site_type_symbol
 _atom_site_label
 _atom_site_symmetry_multiplicity
 _atom_site_fract_x
 _atom_site_fract_y
 _atom_site_fract_z
 _atom_site_occupancy
  Hf  Hf0  1  0.69179316  0.30820684  0.30820684  1
  Hf  Hf1  1  0.69179316  0.30820684  0.69179316  1
  Hf  Hf2  1  0.69179316  0.69179316  0.30820684  1
  Hf  Hf3  1  0.30820684  0.69179316  0.69179316  1
  Hf  Hf4  1  0.30820684  0.69179316  0.30820684  1
  Hf  Hf5  1  0.30820684  0.30820684  0.69179316  1
  Al  Al6  1  0.64468073  0.11843976  0.11843976  1
  Al  Al7  1  0.11843976  0.64468073  0.11843976  1
  Al  Al8  1  0.11843976  0.11843976  0.64468073  1
  Al  Al9  1  0.11843976  0.11843976  0.11843976  1
  Al  Al10  1  0.35531927  0.88156024  0.88156024  1
  Al  Al11  1  0.88156024  0.35531927  0.88156024  1
  Al  Al12  1  0.88156024  0.88156024  0.35531927  1
  Al  Al13  1  0.88156024  0.88156024  0.88156024  1
  Al  Al14  1  0.99407892  0.33530703  0.33530703  1
  Al  Al15  1  0.33530703  0.99407892  0.33530703  1
  Al  Al16  1  0.33530703  0.33530703  0.99407892  1
  Al  Al17  1  0.33530703  0.33530703  0.33530703  1
  Al  Al18  1  0.00592108  0.66469297  0.66469297  1
  Al  Al19  1  0.66469297  0.00592108  0.66469297  1
  Al  Al20  1  0.66469297  0.66469297  0.00592108  1
  Al  Al21  1  0.66469297  0.66469297  0.66469297  1
  Co  Co22  1  0.00000000  0.00000000  -0.00000000  1
  Co  Co23  1  0.50000000  0.00000000  -0.00000000  1
  Co  Co24  1  0.50000000  0.00000000  0.50000000  1
  Co  Co25  1  0.50000000  0.50000000  -0.00000000  1
  Co  Co26  1  0.00000000  0.50000000  0.50000000  1
  Co  Co27  1  0.00000000  0.50000000  -0.00000000  1
  Co  Co28  1  0.00000000  0.00000000  0.50000000  1
