# generated using pymatgen
data_Hf9Re4Si
_symmetry_space_group_name_H-M   'P 1'
_cell_length_a   8.56046897
_cell_length_b   8.56046897
_cell_length_c   8.69944288
_cell_angle_alpha   90.00000000
_cell_angle_beta   90.00000000
_cell_angle_gamma   120.00146527
_symmetry_Int_Tables_number   1
_chemical_formula_structural   Hf9Re4Si
_chemical_formula_sum   'Hf18 Re8 Si2'
_cell_volume   552.09113694
_cell_formula_units_Z   2
loop_
 _symmetry_equiv_pos_site_id
 _symmetry_equiv_pos_as_xyz
  1  'x, y, z'
loop_
 _atom_site_type_symbol
 _atom_site_label
 _atom_site_symmetry_multiplicity
 _atom_site_fract_x
 _atom_site_fract_y
 _atom_site_fract_z
 _atom_site_occupancy
  Hf  Hf0  1  0.80448147  0.60893763  0.54697884  1
  Hf  Hf1  1  0.80447297  0.19552703  0.54697635  1
  Hf  Hf2  1  0.39106237  0.19551853  0.54697884  1
  Hf  Hf3  1  0.19551853  0.39106237  0.45302116  1
  Hf  Hf4  1  0.19552703  0.80447297  0.45302365  1
  Hf  Hf5  1  0.60893763  0.80448147  0.45302116  1
  Hf  Hf6  1  0.19551853  0.39106237  0.04697884  1
  Hf  Hf7  1  0.19552703  0.80447297  0.04697635  1
  Hf  Hf8  1  0.60893763  0.80448147  0.04697884  1
  Hf  Hf9  1  0.80448147  0.60893763  0.95302116  1
  Hf  Hf10  1  0.80447297  0.19552703  0.95302365  1
  Hf  Hf11  1  0.39106237  0.19551853  0.95302116  1
  Hf  Hf12  1  0.46053355  0.92107238  0.75000000  1
  Hf  Hf13  1  0.46054563  0.53945437  0.75000000  1
  Hf  Hf14  1  0.07892762  0.53946645  0.75000000  1
  Hf  Hf15  1  0.53946645  0.07892762  0.25000000  1
  Hf  Hf16  1  0.53945437  0.46054563  0.25000000  1
  Hf  Hf17  1  0.92107238  0.46053355  0.25000000  1
  Re  Re18  1  0.10905602  0.21813233  0.75000000  1
  Re  Re19  1  0.10903946  0.89096054  0.75000000  1
  Re  Re20  1  0.78186767  0.89094398  0.75000000  1
  Re  Re21  1  0.89094398  0.78186767  0.25000000  1
  Re  Re22  1  0.89096054  0.10903946  0.25000000  1
  Re  Re23  1  0.21813233  0.10905602  0.25000000  1
  Re  Re24  1  0.00000000  0.00000000  0.50000000  1
  Re  Re25  1  0.00000000  0.00000000  0.00000000  1
  Si  Si26  1  0.66668677  0.33331323  0.75000000  1
  Si  Si27  1  0.33331323  0.66668677  0.25000000  1
