# generated using pymatgen
data_RbTaV2O8
_symmetry_space_group_name_H-M   'P 1'
_cell_length_a   5.68633487
_cell_length_b   9.20923340
_cell_length_c   15.20270830
_cell_angle_alpha   90.00000000
_cell_angle_beta   90.00000000
_cell_angle_gamma   90.00000000
_symmetry_Int_Tables_number   1
_chemical_formula_structural   RbTaV2O8
_chemical_formula_sum   'Rb4 Ta4 V8 O32'
_cell_volume   796.11695709
_cell_formula_units_Z   4
loop_
 _symmetry_equiv_pos_site_id
 _symmetry_equiv_pos_as_xyz
  1  'x, y, z'
loop_
 _atom_site_type_symbol
 _atom_site_label
 _atom_site_symmetry_multiplicity
 _atom_site_fract_x
 _atom_site_fract_y
 _atom_site_fract_z
 _atom_site_occupancy
  Rb  Rb0  1  0.25000000  0.44754251  0.61379427  1
  Rb  Rb1  1  0.25000000  0.05245749  0.11379427  1
  Rb  Rb2  1  0.75000000  0.55245749  0.38620573  1
  Rb  Rb3  1  0.75000000  0.94754251  0.88620573  1
  Ta  Ta4  1  0.25000000  0.99596073  0.65878908  1
  Ta  Ta5  1  0.25000000  0.50403927  0.15878908  1
  Ta  Ta6  1  0.75000000  0.00403927  0.34121092  1
  Ta  Ta7  1  0.75000000  0.49596073  0.84121092  1
  V  V8  1  0.25000000  0.24735914  0.83792582  1
  V  V9  1  0.25000000  0.25264086  0.33792582  1
  V  V10  1  0.75000000  0.75264086  0.16207418  1
  V  V11  1  0.75000000  0.74735914  0.66207418  1
  V  V12  1  0.25000000  0.81936610  0.43835911  1
  V  V13  1  0.25000000  0.68063390  0.93835911  1
  V  V14  1  0.75000000  0.18063390  0.56164089  1
  V  V15  1  0.75000000  0.31936610  0.06164089  1
  O  O16  1  0.99728863  0.35080850  0.80939184  1
  O  O17  1  0.50271137  0.14919150  0.30939184  1
  O  O18  1  0.49728863  0.64919150  0.19060816  1
  O  O19  1  0.00271137  0.85080850  0.69060816  1
  O  O20  1  0.00271137  0.64919150  0.19060816  1
  O  O21  1  0.49728863  0.85080850  0.69060816  1
  O  O22  1  0.50271137  0.35080850  0.80939184  1
  O  O23  1  0.99728863  0.14919150  0.30939184  1
  O  O24  1  0.99612533  0.86132621  0.37448860  1
  O  O25  1  0.50387467  0.63867379  0.87448860  1
  O  O26  1  0.49612533  0.13867379  0.62551140  1
  O  O27  1  0.00387467  0.36132621  0.12551140  1
  O  O28  1  0.00387467  0.13867379  0.62551140  1
  O  O29  1  0.49612533  0.36132621  0.12551140  1
  O  O30  1  0.50387467  0.86132621  0.37448860  1
  O  O31  1  0.99612533  0.63867379  0.87448860  1
  O  O32  1  0.25000000  0.07720485  0.78038933  1
  O  O33  1  0.25000000  0.42279515  0.28038933  1
  O  O34  1  0.75000000  0.92279515  0.21961067  1
  O  O35  1  0.75000000  0.57720485  0.71961067  1
  O  O36  1  0.25000000  0.92102682  0.53666572  1
  O  O37  1  0.25000000  0.57897318  0.03666572  1
  O  O38  1  0.75000000  0.07897318  0.46333428  1
  O  O39  1  0.75000000  0.42102682  0.96333428  1
  O  O40  1  0.25000000  0.21370530  0.94393171  1
  O  O41  1  0.25000000  0.28629470  0.44393171  1
  O  O42  1  0.75000000  0.78629470  0.05606829  1
  O  O43  1  0.75000000  0.71370530  0.55606829  1
  O  O44  1  0.25000000  0.64346538  0.45958930  1
  O  O45  1  0.25000000  0.85653462  0.95958930  1
  O  O46  1  0.75000000  0.35653462  0.54041070  1
  O  O47  1  0.75000000  0.14346538  0.04041070  1
