# generated using pymatgen
data_ErMoBrO4
_symmetry_space_group_name_H-M   'P 1'
_cell_length_a   6.92511964
_cell_length_b   7.24497667
_cell_length_c   10.92927875
_cell_angle_alpha   104.36636106
_cell_angle_beta   107.56649703
_cell_angle_gamma   94.01632489
_symmetry_Int_Tables_number   1
_chemical_formula_structural   ErMoBrO4
_chemical_formula_sum   'Er4 Mo4 Br4 O16'
_cell_volume   500.15451785
_cell_formula_units_Z   4
loop_
 _symmetry_equiv_pos_site_id
 _symmetry_equiv_pos_as_xyz
  1  'x, y, z'
loop_
 _atom_site_type_symbol
 _atom_site_label
 _atom_site_symmetry_multiplicity
 _atom_site_fract_x
 _atom_site_fract_y
 _atom_site_fract_z
 _atom_site_occupancy
  Er  Er0  1  0.65152103  0.11453523  0.73079864  1
  Er  Er1  1  0.34847897  0.88546477  0.26920136  1
  Er  Er2  1  0.38559844  0.65858361  0.76825939  1
  Er  Er3  1  0.61440156  0.34141639  0.23174061  1
  Mo  Mo4  1  0.73138872  0.81323853  0.13376023  1
  Mo  Mo5  1  0.26861128  0.18676147  0.86623977  1
  Mo  Mo6  1  0.77338132  0.59149004  0.62773682  1
  Mo  Mo7  1  0.22661868  0.40850996  0.37226318  1
  Br  Br8  1  0.26146596  0.99696694  0.51862952  1
  Br  Br9  1  0.73853404  0.00303306  0.48137048  1
  Br  Br10  1  0.19148976  0.71707758  0.98166515  1
  Br  Br11  1  0.80851024  0.28292242  0.01833485  1
  O  O12  1  0.66383810  0.72876258  0.95714711  1
  O  O13  1  0.33616190  0.27123742  0.04285289  1
  O  O14  1  0.00234981  0.87289432  0.20652219  1
  O  O15  1  0.99765019  0.12710568  0.79347781  1
  O  O16  1  0.62992876  0.63967298  0.20109020  1
  O  O17  1  0.37007124  0.36032702  0.79890980  1
  O  O18  1  0.39927117  0.98312728  0.81740138  1
  O  O19  1  0.60072883  0.01687272  0.18259862  1
  O  O20  1  0.04257636  0.65409371  0.67190758  1
  O  O21  1  0.95742364  0.34590629  0.32809242  1
  O  O22  1  0.72165157  0.40685364  0.70041679  1
  O  O23  1  0.27834843  0.59314636  0.29958321  1
  O  O24  1  0.67023774  0.50451573  0.44908642  1
  O  O25  1  0.32976226  0.49548427  0.55091358  1
  O  O26  1  0.65431206  0.79156349  0.70307020  1
  O  O27  1  0.34568794  0.20843651  0.29692980  1
