# generated using pymatgen
data_SrCo2(AsO4)2
_symmetry_space_group_name_H-M   'P 1'
_cell_length_a   5.78292224
_cell_length_b   7.03269492
_cell_length_c   9.55478930
_cell_angle_alpha   110.59684511
_cell_angle_beta   101.65789407
_cell_angle_gamma   99.28200067
_symmetry_Int_Tables_number   1
_chemical_formula_structural   SrCo2(AsO4)2
_chemical_formula_sum   'Sr2 Co4 As4 O16'
_cell_volume   344.61173956
_cell_formula_units_Z   2
loop_
 _symmetry_equiv_pos_site_id
 _symmetry_equiv_pos_as_xyz
  1  'x, y, z'
loop_
 _atom_site_type_symbol
 _atom_site_label
 _atom_site_symmetry_multiplicity
 _atom_site_fract_x
 _atom_site_fract_y
 _atom_site_fract_z
 _atom_site_occupancy
  Sr  Sr0  1  0.24922474  0.20594882  0.44639735  1
  Sr  Sr1  1  0.75077526  0.79405118  0.55360265  1
  Co  Co2  1  0.86174551  0.13926102  0.93983382  1
  Co  Co3  1  0.13825449  0.86073898  0.06016618  1
  Co  Co4  1  0.51474654  0.60181770  0.85267389  1
  Co  Co5  1  0.48525346  0.39818230  0.14732611  1
  As  As6  1  0.33756075  0.02249750  0.79763234  1
  As  As7  1  0.66243925  0.97750250  0.20236766  1
  As  As8  1  0.89655279  0.42368968  0.74106735  1
  As  As9  1  0.10344721  0.57631032  0.25893265  1
  O  O10  1  0.87681647  0.60026586  0.91752964  1
  O  O11  1  0.12318353  0.39973414  0.08247036  1
  O  O12  1  0.50088674  0.28022918  0.92017798  1
  O  O13  1  0.49911326  0.71977082  0.07982202  1
  O  O14  1  0.09955734  0.93785283  0.86432943  1
  O  O15  1  0.90044266  0.06214717  0.13567057  1
  O  O16  1  0.55904253  0.88025885  0.81398722  1
  O  O17  1  0.44095747  0.11974115  0.18601278  1
  O  O18  1  0.83890211  0.17613797  0.73835865  1
  O  O19  1  0.16109789  0.82386203  0.26164135  1
  O  O20  1  0.17162117  0.47899056  0.70159619  1
  O  O21  1  0.82837883  0.52100944  0.29840381  1
  O  O22  1  0.22608422  0.97760367  0.60767786  1
  O  O23  1  0.77391578  0.02239633  0.39232214  1
  O  O24  1  0.65790577  0.45714587  0.61854304  1
  O  O25  1  0.34209423  0.54285413  0.38145696  1
