# generated using pymatgen
data_CaTi5O7
_symmetry_space_group_name_H-M   'P 1'
_cell_length_a   3.03664364
_cell_length_b   5.20090408
_cell_length_c   17.82222949
_cell_angle_alpha   90.00000000
_cell_angle_beta   90.00000000
_cell_angle_gamma   106.97378985
_symmetry_Int_Tables_number   1
_chemical_formula_structural   CaTi5O7
_chemical_formula_sum   'Ca2 Ti10 O14'
_cell_volume   269.21032371
_cell_formula_units_Z   2
loop_
 _symmetry_equiv_pos_site_id
 _symmetry_equiv_pos_as_xyz
  1  'x, y, z'
loop_
 _atom_site_type_symbol
 _atom_site_label
 _atom_site_symmetry_multiplicity
 _atom_site_fract_x
 _atom_site_fract_y
 _atom_site_fract_z
 _atom_site_occupancy
  Ca  Ca0  1  0.79199471  0.58398742  0.75000000  1
  Ca  Ca1  1  0.20800629  0.41601158  0.25000000  1
  Ti  Ti2  1  0.28454759  0.56909319  0.56903848  1
  Ti  Ti3  1  0.46407578  0.92815055  0.14570016  1
  Ti  Ti4  1  0.00000000  0.00000000  0.50000000  1
  Ti  Ti5  1  0.00000000  0.00000000  0.00000000  1
  Ti  Ti6  1  0.53592422  0.07184845  0.85430084  1
  Ti  Ti7  1  0.71545241  0.43090581  0.43096152  1
  Ti  Ti8  1  0.71545241  0.43090581  0.06903848  1
  Ti  Ti9  1  0.28454759  0.56909319  0.93096152  1
  Ti  Ti10  1  0.53592422  0.07184845  0.64569916  1
  Ti  Ti11  1  0.46407578  0.92815055  0.35430084  1
  O  O12  1  0.63710822  0.27421543  0.95683097  1
  O  O13  1  0.36289278  0.72578557  0.04316903  1
  O  O14  1  0.36289278  0.72578557  0.45683097  1
  O  O15  1  0.63710822  0.27421543  0.54316903  1
  O  O16  1  0.17565766  0.35131732  0.83156674  1
  O  O17  1  0.82434234  0.64868268  0.16843326  1
  O  O18  1  0.82434234  0.64868268  0.33156774  1
  O  O19  1  0.17565766  0.35131732  0.66843326  1
  O  O20  1  0.90342349  0.80684597  0.88598497  1
  O  O21  1  0.09657651  0.19315403  0.11401503  1
  O  O22  1  0.09657651  0.19315403  0.38598497  1
  O  O23  1  0.90342349  0.80684597  0.61401503  1
  O  O24  1  0.47156303  0.94312706  0.75000000  1
  O  O25  1  0.52843797  0.05687494  0.25000000  1
