# generated using pymatgen
data_Rb2Sn3(SbS5)2
_symmetry_space_group_name_H-M   'P 1'
_cell_length_a   7.05453776
_cell_length_b   10.59099202
_cell_length_c   13.68044755
_cell_angle_alpha   90.00000000
_cell_angle_beta   90.00000000
_cell_angle_gamma   96.05332150
_symmetry_Int_Tables_number   1
_chemical_formula_structural   Rb2Sn3(SbS5)2
_chemical_formula_sum   'Rb4 Sn6 Sb4 S20'
_cell_volume   1016.42932815
_cell_formula_units_Z   2
loop_
 _symmetry_equiv_pos_site_id
 _symmetry_equiv_pos_as_xyz
  1  'x, y, z'
loop_
 _atom_site_type_symbol
 _atom_site_label
 _atom_site_symmetry_multiplicity
 _atom_site_fract_x
 _atom_site_fract_y
 _atom_site_fract_z
 _atom_site_occupancy
  Rb  Rb0  1  0.37985868  0.83774847  0.66986126  1
  Rb  Rb1  1  0.87985868  0.33774847  0.83013874  1
  Rb  Rb2  1  0.62014132  0.16225153  0.33013874  1
  Rb  Rb3  1  0.12014132  0.66225153  0.16986126  1
  Sn  Sn4  1  0.50000000  0.00000000  -0.00000000  1
  Sn  Sn5  1  -0.00000000  0.50000000  0.50000000  1
  Sn  Sn6  1  0.54259623  0.65253411  0.94622009  1
  Sn  Sn7  1  0.04259623  0.15253411  0.55377991  1
  Sn  Sn8  1  0.45740377  0.34746589  0.05377991  1
  Sn  Sn9  1  0.95740377  0.84746589  0.44622009  1
  Sb  Sb10  1  0.89667954  0.90612266  0.85323492  1
  Sb  Sb11  1  0.39667954  0.40612266  0.64676508  1
  Sb  Sb12  1  0.10332046  0.09387734  0.14676508  1
  Sb  Sb13  1  0.60332046  0.59387734  0.35323492  1
  S  S14  1  0.63135213  0.03669715  0.82562007  1
  S  S15  1  0.13135213  0.53669715  0.67437993  1
  S  S16  1  0.36864787  0.96330285  0.17437993  1
  S  S17  1  0.86864787  0.46330285  0.32562007  1
  S  S18  1  0.79478384  0.87033014  0.02590763  1
  S  S19  1  0.29478384  0.37033014  0.47409237  1
  S  S20  1  0.20521616  0.12966986  0.97409237  1
  S  S21  1  0.70521616  0.62966986  0.52590763  1
  S  S22  1  0.70655501  0.20734856  0.05478466  1
  S  S23  1  0.20655501  0.70734856  0.44521534  1
  S  S24  1  0.29344499  0.79265144  0.94521534  1
  S  S25  1  0.79344499  0.29265144  0.55478466  1
  S  S26  1  0.74793524  0.68591618  0.80415227  1
  S  S27  1  0.24793524  0.18591618  0.69584773  1
  S  S28  1  0.25206476  0.31408382  0.19584773  1
  S  S29  1  0.75206476  0.81408382  0.30415227  1
  S  S30  1  0.63457809  0.55844245  0.10095371  1
  S  S31  1  0.13457809  0.05844245  0.39904629  1
  S  S32  1  0.36542191  0.44155755  0.89904629  1
  S  S33  1  0.86542191  0.94155755  0.60095371  1
