# generated using pymatgen
data_BaLu2Si3O10
_symmetry_space_group_name_H-M   'P 1'
_cell_length_a   5.39913797
_cell_length_b   6.81328255
_cell_length_c   12.20605928
_cell_angle_alpha   90.00000000
_cell_angle_beta   90.00000000
_cell_angle_gamma   106.29379369
_symmetry_Int_Tables_number   1
_chemical_formula_structural   BaLu2Si3O10
_chemical_formula_sum   'Ba2 Lu4 Si6 O20'
_cell_volume   430.97610706
_cell_formula_units_Z   2
loop_
 _symmetry_equiv_pos_site_id
 _symmetry_equiv_pos_as_xyz
  1  'x, y, z'
loop_
 _atom_site_type_symbol
 _atom_site_label
 _atom_site_symmetry_multiplicity
 _atom_site_fract_x
 _atom_site_fract_y
 _atom_site_fract_z
 _atom_site_occupancy
  Ba  Ba0  1  0.23832509  0.98258516  0.75000000  1
  Ba  Ba1  1  0.76167491  0.01741484  0.25000000  1
  Lu  Lu2  1  0.84327567  0.31986658  0.59995228  1
  Lu  Lu3  1  0.15672433  0.68013342  0.09995228  1
  Lu  Lu4  1  0.15672433  0.68013342  0.40004772  1
  Lu  Lu5  1  0.84327567  0.31986658  0.90004772  1
  Si  Si6  1  0.41961084  0.51418357  0.75000000  1
  Si  Si7  1  0.58038916  0.48581643  0.25000000  1
  Si  Si8  1  0.69669091  0.78982643  0.55982807  1
  Si  Si9  1  0.30330909  0.21017357  0.05982807  1
  Si  Si10  1  0.30330909  0.21017357  0.44017193  1
  Si  Si11  1  0.69669091  0.78982643  0.94017193  1
  O  O12  1  0.63599633  0.38853094  0.75000000  1
  O  O13  1  0.36400367  0.61146906  0.25000000  1
  O  O14  1  0.12228004  0.37052074  0.75000000  1
  O  O15  1  0.87771996  0.62947926  0.25000000  1
  O  O16  1  0.45412169  0.66772562  0.64334132  1
  O  O17  1  0.54587831  0.33227438  0.14334132  1
  O  O18  1  0.54587831  0.33227438  0.35665868  1
  O  O19  1  0.45412169  0.66772562  0.85665868  1
  O  O20  1  0.55533631  0.80485339  0.44462687  1
  O  O21  1  0.44466369  0.19514661  0.94462687  1
  O  O22  1  0.44466369  0.19514661  0.55537313  1
  O  O23  1  0.55533631  0.80485339  0.05537313  1
  O  O24  1  0.84000541  0.00458366  0.62030393  1
  O  O25  1  0.15999459  0.99541634  0.12030393  1
  O  O26  1  0.15999459  0.99541634  0.37969607  1
  O  O27  1  0.84000541  0.00458366  0.87969607  1
  O  O28  1  0.90100355  0.64850087  0.54856502  1
  O  O29  1  0.09899645  0.35149913  0.04856502  1
  O  O30  1  0.09899645  0.35149913  0.45143498  1
  O  O31  1  0.90100355  0.64850087  0.95143498  1
