# generated using pymatgen
data_BaHf(SiO3)3
_symmetry_space_group_name_H-M   'P 1'
_cell_length_a   6.83591108
_cell_length_b   6.83591108
_cell_length_c   10.11017973
_cell_angle_alpha   90.00000000
_cell_angle_beta   90.00000000
_cell_angle_gamma   119.99998390
_symmetry_Int_Tables_number   1
_chemical_formula_structural   BaHf(SiO3)3
_chemical_formula_sum   'Ba2 Hf2 Si6 O18'
_cell_volume   409.14984184
_cell_formula_units_Z   2
loop_
 _symmetry_equiv_pos_site_id
 _symmetry_equiv_pos_as_xyz
  1  'x, y, z'
loop_
 _atom_site_type_symbol
 _atom_site_label
 _atom_site_symmetry_multiplicity
 _atom_site_fract_x
 _atom_site_fract_y
 _atom_site_fract_z
 _atom_site_occupancy
  Ba  Ba0  1  0.33333249  0.66666751  0.00000000  1
  Ba  Ba1  1  0.33333249  0.66666751  0.50000000  1
  Hf  Hf2  1  0.66666670  0.33333330  0.00000000  1
  Hf  Hf3  1  0.66666670  0.33333330  0.50000000  1
  Si  Si4  1  0.93945789  0.71912405  0.25000000  1
  Si  Si5  1  0.77966612  0.06054161  0.25000000  1
  Si  Si6  1  0.28087593  0.22033403  0.25000000  1
  Si  Si7  1  0.77966597  0.71912407  0.75000000  1
  Si  Si8  1  0.28087595  0.06054211  0.75000000  1
  Si  Si9  1  0.93945839  0.22033388  0.75000000  1
  O  O10  1  0.75215916  0.80534432  0.25000000  1
  O  O11  1  0.05318452  0.24784042  0.25000000  1
  O  O12  1  0.19465545  0.94681426  0.25000000  1
  O  O13  1  0.05318574  0.80534455  0.75000000  1
  O  O14  1  0.19465568  0.24784084  0.75000000  1
  O  O15  1  0.75215958  0.94681548  0.75000000  1
  O  O16  1  0.92244803  0.57944739  0.11619982  1
  O  O17  1  0.65699991  0.07755203  0.11619987  1
  O  O18  1  0.42055219  0.34300010  0.11619987  1
  O  O19  1  0.92244803  0.57944739  0.38380018  1
  O  O20  1  0.65699991  0.07755203  0.38380013  1
  O  O21  1  0.42055219  0.34300010  0.38380013  1
  O  O22  1  0.65699990  0.57944781  0.61619987  1
  O  O23  1  0.42055261  0.07755197  0.61619982  1
  O  O24  1  0.92244797  0.34300009  0.61619987  1
  O  O25  1  0.65699990  0.57944781  0.88380013  1
  O  O26  1  0.42055261  0.07755197  0.88380018  1
  O  O27  1  0.92244797  0.34300009  0.88380013  1
