# generated using pymatgen
data_BaGaB4H3O10
_symmetry_space_group_name_H-M   'P 1'
_cell_length_a   7.19957397
_cell_length_b   7.25046978
_cell_length_c   10.03610700
_cell_angle_alpha   107.41846350
_cell_angle_beta   90.25272284
_cell_angle_gamma   119.51803074
_symmetry_Int_Tables_number   1
_chemical_formula_structural   BaGaB4H3O10
_chemical_formula_sum   'Ba2 Ga2 B8 H6 O20'
_cell_volume   427.64108672
_cell_formula_units_Z   2
loop_
 _symmetry_equiv_pos_site_id
 _symmetry_equiv_pos_as_xyz
  1  'x, y, z'
loop_
 _atom_site_type_symbol
 _atom_site_label
 _atom_site_symmetry_multiplicity
 _atom_site_fract_x
 _atom_site_fract_y
 _atom_site_fract_z
 _atom_site_occupancy
  Ba  Ba0  1  0.08013861  0.29991606  0.70646662  1
  Ba  Ba1  1  0.91986139  0.70008394  0.29353338  1
  Ga  Ga2  1  0.39295108  0.91135735  0.62012503  1
  Ga  Ga3  1  0.60704892  0.08864265  0.37987497  1
  B  B4  1  0.69824117  0.40082815  0.70424670  1
  B  B5  1  0.30175883  0.59917185  0.29575330  1
  B  B6  1  0.56148059  0.63620469  0.65393743  1
  B  B7  1  0.43851941  0.36379531  0.34606257  1
  B  B8  1  0.93689910  0.74632842  0.64239191  1
  B  B9  1  0.06310090  0.25367158  0.35760809  1
  B  B10  1  0.62368117  0.24141483  0.90769160  1
  B  B11  1  0.37631883  0.75858517  0.09230840  1
  H  H12  1  0.62268877  0.17526087  0.08960421  1
  H  H13  1  0.37731123  0.82473913  0.91039579  1
  H  H14  1  0.16637216  0.31774297  0.02287167  1
  H  H15  1  0.83362784  0.68225703  0.97712833  1
  H  H16  1  0.18617119  0.10537658  0.93724075  1
  H  H17  1  0.81382881  0.89462342  0.06275925  1
  O  O18  1  0.52968983  0.45774578  0.69296286  1
  O  O19  1  0.47031017  0.54225422  0.30703714  1
  O  O20  1  0.38488540  0.64917622  0.62348722  1
  O  O21  1  0.61511460  0.35082378  0.37651278  1
  O  O22  1  0.77007720  0.79572412  0.64318241  1
  O  O23  1  0.22992280  0.20427588  0.35681759  1
  O  O24  1  0.11871162  0.88763633  0.60095686  1
  O  O25  1  0.88128838  0.11236367  0.39904314  1
  O  O26  1  0.90887185  0.56679969  0.67628224  1
  O  O27  1  0.09112815  0.43320031  0.32371776  1
  O  O28  1  0.63285375  0.17610709  0.60147395  1
  O  O29  1  0.36714625  0.82389291  0.39852605  1
  O  O30  1  0.74545659  0.40962550  0.85100605  1
  O  O31  1  0.25454341  0.59037450  0.14899395  1
  O  O32  1  0.68806757  0.30439475  0.05348228  1
  O  O33  1  0.31193243  0.69560525  0.94651772  1
  O  O34  1  0.45688046  0.03095696  0.83054696  1
  O  O35  1  0.54311954  0.96904304  0.16945304  1
  O  O36  1  0.11204034  0.18622284  0.93313194  1
  O  O37  1  0.88795966  0.81377716  0.06686806  1
