# generated using pymatgen
data_Pr4PClO8
_symmetry_space_group_name_H-M   'P 1'
_cell_length_a   5.92699344
_cell_length_b   5.88660009
_cell_length_c   13.17544765
_cell_angle_alpha   90.00000000
_cell_angle_beta   90.00000000
_cell_angle_gamma   90.00000000
_symmetry_Int_Tables_number   1
_chemical_formula_structural   Pr4PClO8
_chemical_formula_sum   'Pr8 P2 Cl2 O16'
_cell_volume   459.68926198
_cell_formula_units_Z   2
loop_
 _symmetry_equiv_pos_site_id
 _symmetry_equiv_pos_as_xyz
  1  'x, y, z'
loop_
 _atom_site_type_symbol
 _atom_site_label
 _atom_site_symmetry_multiplicity
 _atom_site_fract_x
 _atom_site_fract_y
 _atom_site_fract_z
 _atom_site_occupancy
  Pr  Pr0  1  0.01740235  0.43749781  0.66170329  1
  Pr  Pr1  1  0.01740235  0.43749781  0.33829671  1
  Pr  Pr2  1  0.98259765  0.93749781  0.83829671  1
  Pr  Pr3  1  0.98259765  0.93749781  0.16170329  1
  Pr  Pr4  1  0.51363848  0.46667626  0.83199237  1
  Pr  Pr5  1  0.51363848  0.46667626  0.16800763  1
  Pr  Pr6  1  0.48636152  0.96667626  0.66800763  1
  Pr  Pr7  1  0.48636152  0.96667626  0.33199237  1
  P  P8  1  0.54048851  0.49414267  0.50000000  1
  P  P9  1  0.45951149  0.99414267  0.00000000  1
  Cl  Cl10  1  0.94377109  0.50703028  0.00000000  1
  Cl  Cl11  1  0.05622891  0.00703028  0.50000000  1
  O  O12  1  0.75707500  0.20596142  0.74972407  1
  O  O13  1  0.75707500  0.20596142  0.25027593  1
  O  O14  1  0.24292500  0.70596142  0.75027593  1
  O  O15  1  0.24292500  0.70596142  0.24972407  1
  O  O16  1  0.24214741  0.19990408  0.76855812  1
  O  O17  1  0.24214741  0.19990408  0.23144188  1
  O  O18  1  0.75785259  0.69990408  0.73144188  1
  O  O19  1  0.75785259  0.69990408  0.26855812  1
  O  O20  1  0.80137185  0.45495709  0.50000000  1
  O  O21  1  0.19862815  0.95495709  0.00000000  1
  O  O22  1  0.43295190  0.38437666  0.40490110  1
  O  O23  1  0.43295190  0.38437666  0.59509890  1
  O  O24  1  0.56704810  0.88437666  0.09509890  1
  O  O25  1  0.56704810  0.88437666  0.90490110  1
  O  O26  1  0.50034515  0.75663751  0.50000000  1
  O  O27  1  0.49965485  0.25663751  0.00000000  1
