# generated using pymatgen
data_Rh2(Se3Br2)3
_symmetry_space_group_name_H-M   'P 1'
_cell_length_a   12.77320316
_cell_length_b   12.77320316
_cell_length_c   15.70130657
_cell_angle_alpha   114.00121773
_cell_angle_beta   114.00121773
_cell_angle_gamma   90.00000000
_symmetry_Int_Tables_number   1
_chemical_formula_structural   Rh2(Se3Br2)3
_chemical_formula_sum   'Rh8 Se36 Br24'
_cell_volume   2095.46604906
_cell_formula_units_Z   4
loop_
 _symmetry_equiv_pos_site_id
 _symmetry_equiv_pos_as_xyz
  1  'x, y, z'
loop_
 _atom_site_type_symbol
 _atom_site_label
 _atom_site_symmetry_multiplicity
 _atom_site_fract_x
 _atom_site_fract_y
 _atom_site_fract_z
 _atom_site_occupancy
  Rh  Rh0  1  0.96462489  0.24562480  0.71602361  1
  Rh  Rh1  1  0.75139872  0.97039881  0.71602361  1
  Rh  Rh2  1  0.74562480  0.25139872  0.21602361  1
  Rh  Rh3  1  0.47039881  0.46462489  0.21602361  1
  Rh  Rh4  1  0.03537511  0.75437520  0.28397639  1
  Rh  Rh5  1  0.24860128  0.02960119  0.28397639  1
  Rh  Rh6  1  0.25437520  0.74860128  0.78397639  1
  Rh  Rh7  1  0.52960119  0.53537511  0.78397639  1
  Se  Se8  1  0.77997093  0.17134685  0.83918425  1
  Se  Se9  1  0.05921332  0.16783740  0.83918425  1
  Se  Se10  1  0.67134685  0.55921332  0.33918425  1
  Se  Se11  1  0.66783740  0.27997093  0.33918425  1
  Se  Se12  1  0.22002907  0.82865315  0.16081575  1
  Se  Se13  1  0.94078668  0.83216260  0.16081575  1
  Se  Se14  1  0.32865315  0.44078668  0.66081575  1
  Se  Se15  1  0.33216260  0.72002907  0.66081575  1
  Se  Se16  1  0.87169032  0.06246913  0.55956182  1
  Se  Se17  1  0.68787150  0.99709268  0.55956182  1
  Se  Se18  1  0.56246913  0.18787150  0.05956182  1
  Se  Se19  1  0.49709268  0.37169032  0.05956182  1
  Se  Se20  1  0.12830968  0.93753087  0.44043818  1
  Se  Se21  1  0.31212850  0.00290732  0.44043818  1
  Se  Se22  1  0.43753087  0.81212850  0.94043818  1
  Se  Se23  1  0.50290732  0.62830968  0.94043818  1
  Se  Se24  1  0.20225926  0.70725199  0.25034164  1
  Se  Se25  1  0.04808238  0.04308966  0.25034164  1
  Se  Se26  1  0.20725199  0.54808238  0.75034164  1
  Se  Se27  1  0.54308966  0.70225926  0.75034164  1
  Se  Se28  1  0.79774074  0.29274801  0.74965836  1
  Se  Se29  1  0.95191762  0.95691034  0.74965836  1
  Se  Se30  1  0.79274801  0.45191762  0.24965836  1
  Se  Se31  1  0.45691034  0.29774074  0.24965836  1
  Se  Se32  1  0.37072315  0.81615452  0.41099060  1
  Se  Se33  1  0.04026746  0.09483609  0.41099060  1
  Se  Se34  1  0.31615452  0.54026746  0.91099060  1
  Se  Se35  1  0.59483609  0.87072315  0.91099060  1
  Se  Se36  1  0.62927685  0.18384548  0.58900940  1
  Se  Se37  1  0.95973254  0.90516391  0.58900940  1
  Se  Se38  1  0.68384548  0.45973254  0.08900940  1
  Se  Se39  1  0.40516391  0.12927685  0.08900940  1
  Se  Se40  1  0.98110835  0.23110835  0.96221669  1
  Se  Se41  1  0.73110835  0.48110835  0.46221669  1
  Se  Se42  1  0.01889165  0.76889165  0.03778331  1
  Se  Se43  1  0.26889165  0.51889165  0.53778331  1
  Br  Br44  1  0.25473998  0.39303471  0.09174792  1
  Br  Br45  1  0.83700794  0.19871321  0.09174792  1
  Br  Br46  1  0.89303471  0.33700794  0.59174792  1
  Br  Br47  1  0.69871321  0.75473998  0.59174792  1
  Br  Br48  1  0.74526002  0.60696529  0.90825208  1
  Br  Br49  1  0.16299206  0.80128679  0.90825208  1
  Br  Br50  1  0.10696529  0.66299206  0.40825208  1
  Br  Br51  1  0.30128679  0.24526002  0.40825208  1
  Br  Br52  1  0.41756536  0.56364625  0.36623237  1
  Br  Br53  1  0.94866702  0.30258612  0.36623237  1
  Br  Br54  1  0.06364625  0.44866702  0.86623237  1
  Br  Br55  1  0.80258612  0.91756536  0.86623237  1
  Br  Br56  1  0.58243464  0.43635375  0.63376763  1
  Br  Br57  1  0.05133298  0.69741388  0.63376763  1
  Br  Br58  1  0.93635375  0.55133298  0.13376763  1
  Br  Br59  1  0.19741388  0.08243464  0.13376763  1
  Br  Br60  1  0.85612446  0.78479839  0.31731978  1
  Br  Br61  1  0.46119532  0.03252139  0.31731978  1
  Br  Br62  1  0.28479839  0.96119532  0.81731978  1
  Br  Br63  1  0.53252139  0.35612446  0.81731978  1
  Br  Br64  1  0.14387554  0.21520161  0.68268022  1
  Br  Br65  1  0.53880468  0.96747861  0.68268022  1
  Br  Br66  1  0.71520161  0.03880468  0.18268022  1
  Br  Br67  1  0.46747861  0.64387554  0.18268022  1
