# generated using pymatgen
data_Hg4BiSe2Cl5
_symmetry_space_group_name_H-M   'P 1'
_cell_length_a   9.72861489
_cell_length_b   10.68303060
_cell_length_c   14.64460953
_cell_angle_alpha   90.00000000
_cell_angle_beta   94.20623428
_cell_angle_gamma   90.00000000
_symmetry_Int_Tables_number   1
_chemical_formula_structural   Hg4BiSe2Cl5
_chemical_formula_sum   'Hg16 Bi4 Se8 Cl20'
_cell_volume   1517.93065380
_cell_formula_units_Z   4
loop_
 _symmetry_equiv_pos_site_id
 _symmetry_equiv_pos_as_xyz
  1  'x, y, z'
loop_
 _atom_site_type_symbol
 _atom_site_label
 _atom_site_symmetry_multiplicity
 _atom_site_fract_x
 _atom_site_fract_y
 _atom_site_fract_z
 _atom_site_occupancy
  Hg  Hg0  1  0.09758369  0.74947826  0.95311868  1
  Hg  Hg1  1  0.59758369  0.75052174  0.45311868  1
  Hg  Hg2  1  0.90241631  0.25052174  0.04688132  1
  Hg  Hg3  1  0.40241631  0.24947826  0.54688132  1
  Hg  Hg4  1  0.87887484  0.74903557  0.04964524  1
  Hg  Hg5  1  0.37887484  0.75096443  0.54964524  1
  Hg  Hg6  1  0.12112516  0.25096443  0.95035476  1
  Hg  Hg7  1  0.62112516  0.24903557  0.45035476  1
  Hg  Hg8  1  0.49331092  0.74582450  0.00813264  1
  Hg  Hg9  1  0.99331092  0.75417550  0.50813264  1
  Hg  Hg10  1  0.50668908  0.25417550  0.99186736  1
  Hg  Hg11  1  0.00668908  0.24582450  0.49186736  1
  Hg  Hg12  1  0.84191711  0.50559436  0.35323474  1
  Hg  Hg13  1  0.34191711  0.99440564  0.85323474  1
  Hg  Hg14  1  0.15808289  0.49440564  0.64676526  1
  Hg  Hg15  1  0.65808289  0.00559436  0.14676526  1
  Bi  Bi16  1  0.24700065  0.00016364  0.26482741  1
  Bi  Bi17  1  0.74700065  0.49983636  0.76482741  1
  Bi  Bi18  1  0.75299935  0.99983636  0.73517259  1
  Bi  Bi19  1  0.25299935  0.50016364  0.23517259  1
  Se  Se20  1  0.32416493  0.75694989  0.86781125  1
  Se  Se21  1  0.82416493  0.74305011  0.36781125  1
  Se  Se22  1  0.67583507  0.24305011  0.13218875  1
  Se  Se23  1  0.17583507  0.25694989  0.63218875  1
  Se  Se24  1  0.16440429  0.73319267  0.64671696  1
  Se  Se25  1  0.66440429  0.76680733  0.14671696  1
  Se  Se26  1  0.83559571  0.26680733  0.35328304  1
  Se  Se27  1  0.33559571  0.23319267  0.85328304  1
  Cl  Cl28  1  0.97466507  0.50230225  0.17304581  1
  Cl  Cl29  1  0.47466507  0.99769775  0.67304581  1
  Cl  Cl30  1  0.02533493  0.49769775  0.82695419  1
  Cl  Cl31  1  0.52533493  0.00230225  0.32695419  1
  Cl  Cl32  1  0.51528602  0.50091806  0.30326587  1
  Cl  Cl33  1  0.01528602  0.99908194  0.80326587  1
  Cl  Cl34  1  0.48471398  0.49908194  0.69673413  1
  Cl  Cl35  1  0.98471398  0.00091806  0.19673413  1
  Cl  Cl36  1  0.17120988  0.53683803  0.40826338  1
  Cl  Cl37  1  0.67120988  0.96316197  0.90826338  1
  Cl  Cl38  1  0.82879012  0.46316197  0.59173662  1
  Cl  Cl39  1  0.32879012  0.03683803  0.09173662  1
  Cl  Cl40  1  0.17579345  0.97271899  0.44036248  1
  Cl  Cl41  1  0.67579345  0.52728101  0.94036248  1
  Cl  Cl42  1  0.82420655  0.02728101  0.55963752  1
  Cl  Cl43  1  0.32420655  0.47271899  0.05963752  1
  Cl  Cl44  1  0.26655886  0.74334315  0.20276135  1
  Cl  Cl45  1  0.76655886  0.75665685  0.70276135  1
  Cl  Cl46  1  0.73344114  0.25665685  0.79723865  1
  Cl  Cl47  1  0.23344114  0.24334315  0.29723865  1
