# generated using pymatgen
data_PrTlP2S7
_symmetry_space_group_name_H-M   'P 1'
_cell_length_a   9.13697502
_cell_length_b   9.89608796
_cell_length_c   12.52466728
_cell_angle_alpha   90.00000000
_cell_angle_beta   90.00000000
_cell_angle_gamma   90.44863732
_symmetry_Int_Tables_number   1
_chemical_formula_structural   PrTlP2S7
_chemical_formula_sum   'Pr4 Tl4 P8 S28'
_cell_volume   1132.44956192
_cell_formula_units_Z   4
loop_
 _symmetry_equiv_pos_site_id
 _symmetry_equiv_pos_as_xyz
  1  'x, y, z'
loop_
 _atom_site_type_symbol
 _atom_site_label
 _atom_site_symmetry_multiplicity
 _atom_site_fract_x
 _atom_site_fract_y
 _atom_site_fract_z
 _atom_site_occupancy
  Pr  Pr0  1  0.89221001  0.14365079  0.35722018  1
  Pr  Pr1  1  0.60778999  0.85634921  0.85722018  1
  Pr  Pr2  1  0.10778999  0.85634921  0.64277982  1
  Pr  Pr3  1  0.39221001  0.14365079  0.14277982  1
  Tl  Tl4  1  0.62824590  0.60345973  0.18925622  1
  Tl  Tl5  1  0.87175410  0.39654027  0.68925622  1
  Tl  Tl6  1  0.37175410  0.39654027  0.81074378  1
  Tl  Tl7  1  0.12824590  0.60345973  0.31074378  1
  P  P8  1  0.69771831  0.18824566  0.96263871  1
  P  P9  1  0.80228169  0.81175434  0.46263871  1
  P  P10  1  0.30228169  0.81175434  0.03736129  1
  P  P11  1  0.19771831  0.18824566  0.53736129  1
  P  P12  1  0.52190875  0.27567398  0.40002928  1
  P  P13  1  0.97809125  0.72432602  0.90002928  1
  P  P14  1  0.47809125  0.72432602  0.59997072  1
  P  P15  1  0.02190875  0.27567398  0.09997072  1
  S  S16  1  0.92128648  0.25222481  0.94576988  1
  S  S17  1  0.57871352  0.74777519  0.44576988  1
  S  S18  1  0.07871352  0.74777519  0.05423012  1
  S  S19  1  0.42128648  0.25222481  0.55423012  1
  S  S20  1  0.64675977  0.14918944  0.80745206  1
  S  S21  1  0.85324023  0.85081056  0.30745206  1
  S  S22  1  0.35324023  0.85081056  0.19254794  1
  S  S23  1  0.14675977  0.14918944  0.69254794  1
  S  S24  1  0.57051269  0.33716955  0.02206990  1
  S  S25  1  0.92948731  0.66283045  0.52206990  1
  S  S26  1  0.42948731  0.66283045  0.97793010  1
  S  S27  1  0.07051269  0.33716955  0.47793010  1
  S  S28  1  0.67938883  0.02230953  0.05829586  1
  S  S29  1  0.82061117  0.97769047  0.55829586  1
  S  S30  1  0.32061117  0.97769047  0.94170414  1
  S  S31  1  0.17938883  0.02230953  0.44170414  1
  S  S32  1  0.88999582  0.37240969  0.20510578  1
  S  S33  1  0.61000418  0.62759031  0.70510578  1
  S  S34  1  0.11000418  0.62759031  0.79489422  1
  S  S35  1  0.38999582  0.37240969  0.29489422  1
  S  S36  1  0.70952220  0.36916599  0.44409119  1
  S  S37  1  0.79047780  0.63083401  0.94409119  1
  S  S38  1  0.29047780  0.63083401  0.55590881  1
  S  S39  1  0.20952220  0.36916599  0.05590881  1
  S  S40  1  0.56933107  0.09144541  0.33567261  1
  S  S41  1  0.93066893  0.90855459  0.83567261  1
  S  S42  1  0.43066893  0.90855459  0.66432739  1
  S  S43  1  0.06933107  0.09144541  0.16432739  1
