# generated using pymatgen
data_Ba2Zn2TeP2O11
_symmetry_space_group_name_H-M   'P 1'
_cell_length_a   7.13335938
_cell_length_b   9.94596154
_cell_length_c   16.40250194
_cell_angle_alpha   90.00000000
_cell_angle_beta   90.00000000
_cell_angle_gamma   105.93614783
_symmetry_Int_Tables_number   1
_chemical_formula_structural   Ba2Zn2TeP2O11
_chemical_formula_sum   'Ba8 Zn8 Te4 P8 O44'
_cell_volume   1119.00262382
_cell_formula_units_Z   4
loop_
 _symmetry_equiv_pos_site_id
 _symmetry_equiv_pos_as_xyz
  1  'x, y, z'
loop_
 _atom_site_type_symbol
 _atom_site_label
 _atom_site_symmetry_multiplicity
 _atom_site_fract_x
 _atom_site_fract_y
 _atom_site_fract_z
 _atom_site_occupancy
  Ba  Ba0  1  0.74268315  0.96447714  0.90615571  1
  Ba  Ba1  1  0.25731685  0.53552286  0.40615571  1
  Ba  Ba2  1  0.25731685  0.03552286  0.09384429  1
  Ba  Ba3  1  0.74268315  0.46447714  0.59384429  1
  Ba  Ba4  1  0.27713824  0.11431050  0.75924266  1
  Ba  Ba5  1  0.72286176  0.38568950  0.25924266  1
  Ba  Ba6  1  0.72286176  0.88568950  0.24075734  1
  Ba  Ba7  1  0.27713824  0.61431050  0.74075734  1
  Zn  Zn8  1  0.56907664  0.30002104  0.95623850  1
  Zn  Zn9  1  0.43092336  0.19997896  0.45623850  1
  Zn  Zn10  1  0.43092336  0.69997896  0.04376150  1
  Zn  Zn11  1  0.56907664  0.80002104  0.54376150  1
  Zn  Zn12  1  0.81727042  0.08262810  0.64400814  1
  Zn  Zn13  1  0.18272958  0.41737190  0.14400814  1
  Zn  Zn14  1  0.18272958  0.91737190  0.35599186  1
  Zn  Zn15  1  0.81727042  0.58262810  0.85599186  1
  Te  Te16  1  0.83096349  0.61155165  0.05538099  1
  Te  Te17  1  0.16903651  0.88844835  0.55538099  1
  Te  Te18  1  0.16903651  0.38844835  0.94461901  1
  Te  Te19  1  0.83096349  0.11155165  0.44461901  1
  P  P20  1  0.79517303  0.27412029  0.78649428  1
  P  P21  1  0.20482697  0.22587971  0.28649428  1
  P  P22  1  0.20482697  0.72587971  0.21350572  1
  P  P23  1  0.79517303  0.77412029  0.71350572  1
  P  P24  1  0.77414080  0.16316781  0.10085565  1
  P  P25  1  0.22585920  0.33683219  0.60085565  1
  P  P26  1  0.22585920  0.83683219  0.89914435  1
  P  P27  1  0.77414080  0.66316781  0.39914435  1
  O  O28  1  0.71228717  0.21903955  0.70026171  1
  O  O29  1  0.28771283  0.28096045  0.20026171  1
  O  O30  1  0.28771283  0.78096045  0.29973829  1
  O  O31  1  0.71228717  0.71903955  0.79973829  1
  O  O32  1  0.61954473  0.22564376  0.84684346  1
  O  O33  1  0.38045527  0.27435624  0.34684346  1
  O  O34  1  0.38045527  0.77435624  0.15315654  1
  O  O35  1  0.61954473  0.72564376  0.65315654  1
  O  O36  1  0.62852636  0.12507610  0.17312503  1
  O  O37  1  0.37147364  0.37492390  0.67312503  1
  O  O38  1  0.37147364  0.87492390  0.82687497  1
  O  O39  1  0.62852636  0.62507610  0.32687497  1
  O  O40  1  0.65097774  0.15592690  0.02034589  1
  O  O41  1  0.34902226  0.34407310  0.52034589  1
  O  O42  1  0.34902226  0.84407310  0.97965411  1
  O  O43  1  0.65097774  0.65592690  0.47965411  1
  O  O44  1  0.89327044  0.05634926  0.09319499  1
  O  O45  1  0.10672956  0.44365074  0.59319499  1
  O  O46  1  0.10672956  0.94365074  0.90680501  1
  O  O47  1  0.89327044  0.55634926  0.40680501  1
  O  O48  1  0.95947633  0.21023517  0.81227731  1
  O  O49  1  0.04052367  0.28976483  0.31227731  1
  O  O50  1  0.04052367  0.78976483  0.18772269  1
  O  O51  1  0.95947633  0.71023517  0.68772269  1
  O  O52  1  0.90569373  0.31618299  0.11244741  1
  O  O53  1  0.09430627  0.18381701  0.61244741  1
  O  O54  1  0.09430627  0.68381701  0.88755259  1
  O  O55  1  0.90569373  0.81618299  0.38755259  1
  O  O56  1  0.86619871  0.43681662  0.78154246  1
  O  O57  1  0.13380129  0.06318338  0.28154246  1
  O  O58  1  0.13380129  0.56318338  0.21845754  1
  O  O59  1  0.86619871  0.93681662  0.71845754  1
  O  O60  1  0.74325730  0.48814271  0.96172214  1
  O  O61  1  0.25674270  0.01185729  0.46172214  1
  O  O62  1  0.25674270  0.51185729  0.03827786  1
  O  O63  1  0.74325730  0.98814271  0.53827786  1
  O  O64  1  0.71104828  0.74981421  0.01797084  1
  O  O65  1  0.28895172  0.75018579  0.51797084  1
  O  O66  1  0.28895172  0.25018579  0.98202916  1
  O  O67  1  0.71104828  0.24981421  0.48202916  1
  O  O68  1  0.64194681  0.53212484  0.13167133  1
  O  O69  1  0.35805319  0.96787516  0.63167133  1
  O  O70  1  0.35805319  0.46787516  0.86832867  1
  O  O71  1  0.64194681  0.03212484  0.36832867  1
