# generated using pymatgen
data_MgAu2(SO4)4
_symmetry_space_group_name_H-M   'P 1'
_cell_length_a   9.06086108
_cell_length_b   9.06086108
_cell_length_c   10.05197235
_cell_angle_alpha   107.80622225
_cell_angle_beta   107.80622225
_cell_angle_gamma   108.75389003
_symmetry_Int_Tables_number   1
_chemical_formula_structural   MgAu2(SO4)4
_chemical_formula_sum   'Mg2 Au4 S8 O32'
_cell_volume   665.07891601
_cell_formula_units_Z   2
loop_
 _symmetry_equiv_pos_site_id
 _symmetry_equiv_pos_as_xyz
  1  'x, y, z'
loop_
 _atom_site_type_symbol
 _atom_site_label
 _atom_site_symmetry_multiplicity
 _atom_site_fract_x
 _atom_site_fract_y
 _atom_site_fract_z
 _atom_site_occupancy
  Mg  Mg0  1  0.11370752  0.61370752  0.50000000  1
  Mg  Mg1  1  0.86370752  0.86370752  0.00000000  1
  Au  Au2  1  0.38517922  0.19717087  0.75542603  1
  Au  Au3  1  0.44174484  0.62975319  0.24457397  1
  Au  Au4  1  0.44717087  0.13517922  0.25542603  1
  Au  Au5  1  0.87975319  0.19174484  0.74457397  1
  S  S6  1  0.05240599  0.94088147  0.74458826  1
  S  S7  1  0.19629321  0.30781773  0.25541174  1
  S  S8  1  0.19088147  0.80240599  0.24458826  1
  S  S9  1  0.55781773  0.94629321  0.75541174  1
  S  S10  1  0.22647659  0.45093362  0.76222369  1
  S  S11  1  0.68870993  0.46425290  0.23777631  1
  S  S12  1  0.70093362  0.97647659  0.26222369  1
  S  S13  1  0.71425290  0.43870993  0.73777631  1
  O  O14  1  0.93485456  0.99555436  0.64661849  1
  O  O15  1  0.34893587  0.28823607  0.35338151  1
  O  O16  1  0.24555436  0.68485456  0.14661849  1
  O  O17  1  0.53823607  0.09893587  0.85338151  1
  O  O18  1  0.23292638  0.29178483  0.65365775  1
  O  O19  1  0.63812708  0.57926862  0.34634225  1
  O  O20  1  0.54178483  0.98292638  0.15365775  1
  O  O21  1  0.82926862  0.38812708  0.84634225  1
  O  O22  1  0.23191948  0.10039565  0.85164739  1
  O  O23  1  0.24874826  0.38027209  0.14835261  1
  O  O24  1  0.35039565  0.98191948  0.35164739  1
  O  O25  1  0.63027209  0.99874826  0.64835261  1
  O  O26  1  0.12571871  0.38374073  0.84766230  1
  O  O27  1  0.53607843  0.27805640  0.15233770  1
  O  O28  1  0.63374073  0.87571871  0.34766230  1
  O  O29  1  0.52805640  0.28607843  0.65233770  1
  O  O30  1  0.99117894  0.89303437  0.85026284  1
  O  O31  1  0.04277152  0.14091610  0.14973716  1
  O  O32  1  0.14303437  0.74117894  0.35026284  1
  O  O33  1  0.39091610  0.79277152  0.64973716  1
  O  O34  1  0.06335334  0.80600362  0.63087307  1
  O  O35  1  0.17513055  0.43248027  0.36912693  1
  O  O36  1  0.05600362  0.81335334  0.13087307  1
  O  O37  1  0.68248027  0.92513055  0.86912693  1
  O  O38  1  0.39528379  0.58214664  0.88622932  1
  O  O39  1  0.69591732  0.50905447  0.11377068  1
  O  O40  1  0.83214664  0.14528379  0.38622932  1
  O  O41  1  0.75905447  0.44591732  0.61377068  1
  O  O42  1  0.12827456  0.50117330  0.65544936  1
  O  O43  1  0.84572394  0.47282519  0.34455064  1
  O  O44  1  0.75117330  0.87827456  0.15544936  1
  O  O45  1  0.72282519  0.59572394  0.84455064  1
