# generated using pymatgen
data_CdB6H12(N2O5)2
_symmetry_space_group_name_H-M   'P 1'
_cell_length_a   6.68306540
_cell_length_b   6.68306540
_cell_length_c   12.80056430
_cell_angle_alpha   103.56885283
_cell_angle_beta   103.56885283
_cell_angle_gamma   95.81140992
_symmetry_Int_Tables_number   1
_chemical_formula_structural   CdB6H12(N2O5)2
_chemical_formula_sum   'Cd2 B12 H24 N8 O20'
_cell_volume   532.80566970
_cell_formula_units_Z   2
loop_
 _symmetry_equiv_pos_site_id
 _symmetry_equiv_pos_as_xyz
  1  'x, y, z'
loop_
 _atom_site_type_symbol
 _atom_site_label
 _atom_site_symmetry_multiplicity
 _atom_site_fract_x
 _atom_site_fract_y
 _atom_site_fract_z
 _atom_site_occupancy
  Cd  Cd0  1  0.88910200  0.38910200  0.50000000  1
  Cd  Cd1  1  0.63910200  0.63910200  -0.00000000  1
  B  B2  1  0.44651393  0.34437046  0.52246432  1
  B  B3  1  0.82190614  0.92404961  0.47753568  1
  B  B4  1  0.59437046  0.19651393  0.02246432  1
  B  B5  1  0.17404961  0.57190614  0.97753568  1
  B  B6  1  0.56821485  0.74263655  0.55312481  1
  B  B7  1  0.18951173  0.01509004  0.44687519  1
  B  B8  1  0.99263655  0.31821485  0.05312481  1
  B  B9  1  0.26509004  0.93951173  0.94687519  1
  B  B10  1  0.68442004  0.13115549  0.63572645  1
  B  B11  1  0.49542904  0.04869360  0.36427355  1
  B  B12  1  0.38115549  0.43442004  0.13572645  1
  B  B13  1  0.29869360  0.24542904  0.86427355  1
  H  H14  1  0.87462978  0.07752314  0.79255598  1
  H  H15  1  0.28496716  0.08207380  0.20744402  1
  H  H16  1  0.32752314  0.62462978  0.29255598  1
  H  H17  1  0.33207380  0.03496716  0.70744402  1
  H  H18  1  0.69242711  0.21921762  0.81668225  1
  H  H19  1  0.40253536  0.87574486  0.18331775  1
  H  H20  1  0.46921762  0.44242711  0.31668225  1
  H  H21  1  0.12574486  0.15253536  0.68331775  1
  H  H22  1  0.91135492  0.32079152  0.79543218  1
  H  H23  1  0.52535934  0.11592274  0.20456782  1
  H  H24  1  0.57079152  0.66135492  0.29543218  1
  H  H25  1  0.36592274  0.27535934  0.70456782  1
  H  H26  1  0.12869660  0.56622764  0.73150862  1
  H  H27  1  0.83471902  0.39718798  0.26849138  1
  H  H28  1  0.81622764  0.87869660  0.23150862  1
  H  H29  1  0.64718798  0.58471902  0.76849138  1
  H  H30  1  0.03454174  0.74658416  0.67246633  1
  H  H31  1  0.07411784  0.36207541  0.32753367  1
  H  H32  1  0.99658416  0.78454174  0.17246633  1
  H  H33  1  0.61207541  0.82411784  0.82753367  1
  H  H34  1  0.23383066  0.64026342  0.63597195  1
  H  H35  1  0.00429148  0.59785872  0.36402805  1
  H  H36  1  0.89026342  0.98383066  0.13597195  1
  H  H37  1  0.84785872  0.75429148  0.86402805  1
  N  N38  1  0.79589117  0.19014739  0.76771344  1
  N  N39  1  0.42243395  0.02817773  0.23228656  1
  N  N40  1  0.44014739  0.54589117  0.26771344  1
  N  N41  1  0.27817773  0.17243395  0.73228656  1
  N  N42  1  0.09749876  0.61375056  0.65935586  1
  N  N43  1  0.95439470  0.43814290  0.34064414  1
  N  N44  1  0.86375056  0.84749876  0.15935586  1
  N  N45  1  0.68814290  0.70439470  0.84064414  1
  O  O46  1  0.52745540  0.27397237  0.42252719  1
  O  O47  1  0.85144517  0.10492821  0.57747281  1
  O  O48  1  0.52397237  0.27745540  0.92252719  1
  O  O49  1  0.35492821  0.60144517  0.07747281  1
  O  O50  1  0.43336641  0.56906080  0.54788351  1
  O  O51  1  0.02117729  0.88548290  0.45211649  1
  O  O52  1  0.81906080  0.18336641  0.04788351  1
  O  O53  1  0.13548290  0.77117729  0.95211649  1
  O  O54  1  0.58292597  0.30970704  0.62326729  1
  O  O55  1  0.68643975  0.95965867  0.37673271  1
  O  O56  1  0.55970704  0.33292597  0.12326729  1
  O  O57  1  0.20965867  0.43643975  0.87673271  1
  O  O58  1  0.22892484  0.22758698  0.49819579  1
  O  O59  1  0.72939120  0.73072905  0.50180421  1
  O  O60  1  0.47758698  0.97892484  0.99819579  1
  O  O61  1  0.98072905  0.47939120  0.00180421  1
  O  O62  1  0.54106415  0.93368640  0.61418390  1
  O  O63  1  0.31950250  0.92688025  0.38581610  1
  O  O64  1  0.18368640  0.29106415  0.11418390  1
  O  O65  1  0.17688025  0.06950250  0.88581610  1
