# generated using pymatgen
data_KMgFe(PO4)2
_symmetry_space_group_name_H-M   'P 1'
_cell_length_a   5.24095747
_cell_length_b   9.32509742
_cell_length_c   14.67153340
_cell_angle_alpha   90.00000000
_cell_angle_beta   90.00000000
_cell_angle_gamma   105.03349428
_symmetry_Int_Tables_number   1
_chemical_formula_structural   KMgFe(PO4)2
_chemical_formula_sum   'K4 Mg4 Fe4 P8 O32'
_cell_volume   692.49268513
_cell_formula_units_Z   4
loop_
 _symmetry_equiv_pos_site_id
 _symmetry_equiv_pos_as_xyz
  1  'x, y, z'
loop_
 _atom_site_type_symbol
 _atom_site_label
 _atom_site_symmetry_multiplicity
 _atom_site_fract_x
 _atom_site_fract_y
 _atom_site_fract_z
 _atom_site_occupancy
  K  K0  1  0.17616554  0.31973375  0.82312104  1
  K  K1  1  0.82383446  0.18026625  0.32312104  1
  K  K2  1  0.82383446  0.68026625  0.17687896  1
  K  K3  1  0.17616554  0.81973375  0.67687896  1
  Mg  Mg4  1  0.24135664  0.46653737  0.54910218  1
  Mg  Mg5  1  0.75864336  0.03346263  0.04910218  1
  Mg  Mg6  1  0.75864336  0.53346263  0.45089782  1
  Mg  Mg7  1  0.24135664  0.96653737  0.95089782  1
  Fe  Fe8  1  0.77327392  0.11689782  0.62807835  1
  Fe  Fe9  1  0.22672608  0.38310218  0.12807835  1
  Fe  Fe10  1  0.22672608  0.88310218  0.37192165  1
  Fe  Fe11  1  0.77327392  0.61689782  0.87192165  1
  P  P12  1  0.74412179  0.46279069  0.67282364  1
  P  P13  1  0.25587821  0.03720931  0.17282364  1
  P  P14  1  0.25587821  0.53720931  0.32717636  1
  P  P15  1  0.74412179  0.96279069  0.82717636  1
  P  P16  1  0.30985881  0.18070354  0.50680299  1
  P  P17  1  0.69014119  0.31929646  0.00680299  1
  P  P18  1  0.69014119  0.81929646  0.49319701  1
  P  P19  1  0.30985881  0.68070354  0.99319701  1
  O  O20  1  0.88513543  0.05490352  0.74385546  1
  O  O21  1  0.11486457  0.44509648  0.24385546  1
  O  O22  1  0.11486457  0.94509648  0.25614454  1
  O  O23  1  0.88513543  0.55490352  0.75614454  1
  O  O24  1  0.76619545  0.30221930  0.68943863  1
  O  O25  1  0.23380455  0.19778070  0.18943863  1
  O  O26  1  0.23380455  0.69778070  0.31056137  1
  O  O27  1  0.76619545  0.80221930  0.81056137  1
  O  O28  1  0.91235019  0.52908219  0.58704466  1
  O  O29  1  0.08764981  0.97091781  0.08704466  1
  O  O30  1  0.08764981  0.47091781  0.41295534  1
  O  O31  1  0.91235019  0.02908219  0.91295534  1
  O  O32  1  0.45448432  0.46873303  0.66641087  1
  O  O33  1  0.54551568  0.03126697  0.16641087  1
  O  O34  1  0.54551568  0.53126697  0.33358913  1
  O  O35  1  0.45448432  0.96873303  0.83358913  1
  O  O36  1  0.50123536  0.33330604  0.48729643  1
  O  O37  1  0.49876464  0.16669396  0.98729643  1
  O  O38  1  0.49876464  0.66669396  0.51270357  1
  O  O39  1  0.50123536  0.83330604  0.01270357  1
  O  O40  1  0.06102564  0.22381866  0.54841455  1
  O  O41  1  0.93897436  0.27618134  0.04841455  1
  O  O42  1  0.93897436  0.77618134  0.45158545  1
  O  O43  1  0.06102564  0.72381866  0.95158545  1
  O  O44  1  0.41773600  0.08886284  0.57846237  1
  O  O45  1  0.58226400  0.41113716  0.07846237  1
  O  O46  1  0.58226400  0.91113716  0.42153763  1
  O  O47  1  0.41773600  0.58886284  0.92153763  1
  O  O48  1  0.22936012  0.08903726  0.41906275  1
  O  O49  1  0.77063988  0.41096274  0.91906275  1
  O  O50  1  0.77063988  0.91096274  0.58093725  1
  O  O51  1  0.22936012  0.58903726  0.08093725  1
