# generated using pymatgen
data_CsZn2B3O7
_symmetry_space_group_name_H-M   'P 1'
_cell_length_a   8.63939125
_cell_length_b   10.66605487
_cell_length_c   14.71238578
_cell_angle_alpha   90.00000000
_cell_angle_beta   90.00000000
_cell_angle_gamma   113.89079459
_symmetry_Int_Tables_number   1
_chemical_formula_structural   CsZn2B3O7
_chemical_formula_sum   'Cs6 Zn12 B18 O42'
_cell_volume   1239.56076539
_cell_formula_units_Z   6
loop_
 _symmetry_equiv_pos_site_id
 _symmetry_equiv_pos_as_xyz
  1  'x, y, z'
loop_
 _atom_site_type_symbol
 _atom_site_label
 _atom_site_symmetry_multiplicity
 _atom_site_fract_x
 _atom_site_fract_y
 _atom_site_fract_z
 _atom_site_occupancy
  Cs  Cs0  1  0.60782967  0.21565934  0.79848095  1
  Cs  Cs1  1  0.39217033  0.78434066  0.29848095  1
  Cs  Cs2  1  0.61075910  0.22151820  0.15699689  1
  Cs  Cs3  1  0.38924090  0.77848180  0.65699689  1
  Cs  Cs4  1  0.00245060  0.00490120  0.22923099  1
  Cs  Cs5  1  0.99754940  0.99509880  0.72923099  1
  Zn  Zn6  1  0.00462528  0.38122671  0.98441581  1
  Zn  Zn7  1  0.37660143  0.38122671  0.98441581  1
  Zn  Zn8  1  0.99537472  0.61877329  0.48441581  1
  Zn  Zn9  1  0.62339857  0.61877329  0.48441581  1
  Zn  Zn10  1  0.98049288  0.57975836  0.82387387  1
  Zn  Zn11  1  0.59926548  0.57975836  0.82387387  1
  Zn  Zn12  1  0.01950712  0.42024164  0.32387387  1
  Zn  Zn13  1  0.40073452  0.42024164  0.32387387  1
  Zn  Zn14  1  0.60378475  0.58594814  0.14512241  1
  Zn  Zn15  1  0.98216340  0.58594814  0.14512241  1
  Zn  Zn16  1  0.39621525  0.41405186  0.64512241  1
  Zn  Zn17  1  0.01783660  0.41405186  0.64512241  1
  B  B18  1  0.75239434  0.50478868  0.98390406  1
  B  B19  1  0.24760566  0.49521132  0.48390406  1
  B  B20  1  0.76941355  0.06443125  0.97868081  1
  B  B21  1  0.29501770  0.06443125  0.97868081  1
  B  B22  1  0.23058645  0.93556875  0.47868081  1
  B  B23  1  0.70498230  0.93556875  0.47868081  1
  B  B24  1  0.67133169  0.84587733  0.06398548  1
  B  B25  1  0.17454564  0.84587733  0.06398548  1
  B  B26  1  0.32866831  0.15412267  0.56398548  1
  B  B27  1  0.82545436  0.15412267  0.56398548  1
  B  B28  1  0.77450356  0.54900712  0.64994208  1
  B  B29  1  0.22549644  0.45099288  0.14994208  1
  B  B30  1  0.66577387  0.84277718  0.89697099  1
  B  B31  1  0.17700331  0.84277718  0.89697099  1
  B  B32  1  0.33422613  0.15722282  0.39697099  1
  B  B33  1  0.82299669  0.15722282  0.39697099  1
  B  B34  1  0.77513886  0.55027773  0.31441516  1
  B  B35  1  0.22486114  0.44972227  0.81441516  1
  O  O36  1  0.65234200  0.78036108  0.14386657  1
  O  O37  1  0.12801908  0.78036108  0.14386657  1
  O  O38  1  0.34765800  0.21963892  0.64386657  1
  O  O39  1  0.87198092  0.21963892  0.64386657  1
  O  O40  1  0.73865407  0.99065437  0.06151622  1
  O  O41  1  0.25200030  0.99065437  0.06151622  1
  O  O42  1  0.26134593  0.00934563  0.56151622  1
  O  O43  1  0.74799970  0.00934563  0.56151622  1
  O  O44  1  0.82561961  0.20024131  0.97728234  1
  O  O45  1  0.37462170  0.20024131  0.97728234  1
  O  O46  1  0.17438039  0.79975869  0.47728234  1
  O  O47  1  0.62537830  0.79975869  0.47728234  1
  O  O48  1  0.77483191  0.54966383  0.22008464  1
  O  O49  1  0.22516809  0.45033617  0.72008464  1
  O  O50  1  0.63432428  0.54950498  0.35982648  1
  O  O51  1  0.91518069  0.54950498  0.35982648  1
  O  O52  1  0.36567572  0.45049502  0.85982648  1
  O  O53  1  0.08481931  0.45049502  0.85982648  1
  O  O54  1  0.88379570  0.49129464  0.03003801  1
  O  O55  1  0.60749893  0.49129464  0.03003801  1
  O  O56  1  0.11620430  0.50870536  0.53003801  1
  O  O57  1  0.39250107  0.50870536  0.53003801  1
  O  O58  1  0.76277945  0.52555891  0.89059372  1
  O  O59  1  0.23722055  0.47444109  0.39059372  1
  O  O60  1  0.72996459  0.98741833  0.89700411  1
  O  O61  1  0.25745374  0.98741833  0.89700411  1
  O  O62  1  0.27003541  0.01258167  0.39700411  1
  O  O63  1  0.74254626  0.01258167  0.39700411  1
  O  O64  1  0.90265964  0.52725312  0.69465750  1
  O  O65  1  0.62459348  0.52725312  0.69465750  1
  O  O66  1  0.09734036  0.47274688  0.19465750  1
  O  O67  1  0.37540652  0.47274688  0.19465750  1
  O  O68  1  0.79598463  0.59196926  0.55996103  1
  O  O69  1  0.20401537  0.40803074  0.05996103  1
  O  O70  1  0.63083113  0.77616703  0.98101331  1
  O  O71  1  0.14533591  0.77616703  0.98101331  1
  O  O72  1  0.36916887  0.22383297  0.48101331  1
  O  O73  1  0.85466409  0.22383297  0.48101331  1
  O  O74  1  0.64487523  0.77377017  0.81832132  1
  O  O75  1  0.12889494  0.77377017  0.81832132  1
  O  O76  1  0.35512477  0.22622983  0.31832132  1
  O  O77  1  0.87110506  0.22622983  0.31832132  1
