# generated using pymatgen
data_Ba2In2Si3SO10
_symmetry_space_group_name_H-M   'P 1'
_cell_length_a   5.38448353
_cell_length_b   8.91733516
_cell_length_c   23.37186646
_cell_angle_alpha   90.00000000
_cell_angle_beta   90.00000000
_cell_angle_gamma   90.00000000
_symmetry_Int_Tables_number   1
_chemical_formula_structural   Ba2In2Si3SO10
_chemical_formula_sum   'Ba8 In8 Si12 S4 O40'
_cell_volume   1122.20587784
_cell_formula_units_Z   4
loop_
 _symmetry_equiv_pos_site_id
 _symmetry_equiv_pos_as_xyz
  1  'x, y, z'
loop_
 _atom_site_type_symbol
 _atom_site_label
 _atom_site_symmetry_multiplicity
 _atom_site_fract_x
 _atom_site_fract_y
 _atom_site_fract_z
 _atom_site_occupancy
  Ba  Ba0  1  0.64192983  0.60400948  0.27543889  1
  Ba  Ba1  1  0.35807017  0.10400948  0.72456111  1
  Ba  Ba2  1  0.64192983  0.10400948  0.22456111  1
  Ba  Ba3  1  0.35807017  0.60400948  0.77543889  1
  Ba  Ba4  1  0.62724417  0.75525374  0.09322639  1
  Ba  Ba5  1  0.37275583  0.25525374  0.90677361  1
  Ba  Ba6  1  0.62724417  0.25525374  0.40677361  1
  Ba  Ba7  1  0.37275583  0.75525374  0.59322639  1
  In  In8  1  0.61715795  0.77497408  0.43513333  1
  In  In9  1  0.38284205  0.27497408  0.56486667  1
  In  In10  1  0.61715795  0.27497408  0.06486667  1
  In  In11  1  0.38284205  0.77497408  0.93513333  1
  In  In12  1  0.04812058  0.93479861  0.34822413  1
  In  In13  1  0.95187942  0.43479861  0.65177587  1
  In  In14  1  0.04812058  0.43479861  0.15177587  1
  In  In15  1  0.95187942  0.93479861  0.84822413  1
  Si  Si16  1  0.12932199  -0.00009500  0.48784723  1
  Si  Si17  1  0.87067801  0.49990500  0.51215277  1
  Si  Si18  1  0.12932199  0.49990500  0.01215277  1
  Si  Si19  1  0.87067801  -0.00009500  0.98784723  1
  Si  Si20  1  0.11986723  0.56039040  0.39298311  1
  Si  Si21  1  0.88013277  0.06039040  0.60701689  1
  Si  Si22  1  0.11986723  0.06039040  0.10701689  1
  Si  Si23  1  0.88013277  0.56039040  0.89298311  1
  Si  Si24  1  0.11989408  0.80993187  0.20354812  1
  Si  Si25  1  0.88010592  0.30993187  0.79645188  1
  Si  Si26  1  0.11989408  0.30993187  0.29645188  1
  Si  Si27  1  0.88010592  0.80993187  0.70354812  1
  S  S28  1  0.50579225  0.93036249  0.34698596  1
  S  S29  1  0.49420775  0.43036249  0.65301404  1
  S  S30  1  0.50579225  0.43036249  0.15301404  1
  S  S31  1  0.49420775  0.93036249  0.84698596  1
  O  O32  1  0.32575865  0.86109019  0.48579381  1
  O  O33  1  0.67424135  0.36109019  0.51420619  1
  O  O34  1  0.32575865  0.36109019  0.01420619  1
  O  O35  1  0.67424135  0.86109019  0.98579381  1
  O  O36  1  0.41974586  0.57978968  0.39285281  1
  O  O37  1  0.58025414  0.07978968  0.60714719  1
  O  O38  1  0.41974586  0.07978968  0.10714719  1
  O  O39  1  0.58025414  0.57978968  0.89285281  1
  O  O40  1  0.41971564  0.80615535  0.20313969  1
  O  O41  1  0.58028436  0.30615535  0.79686031  1
  O  O42  1  0.41971564  0.30615535  0.29686031  1
  O  O43  1  0.58028436  0.80615535  0.70313969  1
  O  O44  1  0.02546233  0.95093945  0.16047087  1
  O  O45  1  0.97453767  0.45093945  0.83952913  1
  O  O46  1  0.02546233  0.45093945  0.33952913  1
  O  O47  1  0.97453767  0.95093945  0.66047087  1
  O  O48  1  0.01606451  0.97255939  0.04998059  1
  O  O49  1  0.98393549  0.47255939  0.95001941  1
  O  O50  1  0.01606451  0.47255939  0.45001941  1
  O  O51  1  0.98393549  0.97255939  0.54998059  1
  O  O52  1  0.26715264  0.66345167  0.01117285  1
  O  O53  1  0.73284736  0.16345167  0.98882715  1
  O  O54  1  0.26715264  0.16345167  0.48882715  1
  O  O55  1  0.73284736  0.66345167  0.51117285  1
  O  O56  1  0.08153263  0.98981392  0.93640975  1
  O  O57  1  0.91846737  0.48981392  0.06359025  1
  O  O58  1  0.08153263  0.48981392  0.56359025  1
  O  O59  1  0.91846737  0.98981392  0.43640975  1
  O  O60  1  0.04702381  0.71267255  0.88344654  1
  O  O61  1  0.95297619  0.21267255  0.11655346  1
  O  O62  1  0.04702381  0.21267255  0.61655346  1
  O  O63  1  0.95297619  0.71267255  0.38344654  1
  O  O64  1  0.01879255  0.84660349  0.76448832  1
  O  O65  1  0.98120745  0.34660349  0.23551168  1
  O  O66  1  0.01879255  0.34660349  0.73551168  1
  O  O67  1  0.98120745  0.84660349  0.26448832  1
  O  O68  1  0.02108928  0.66034863  0.67794597  1
  O  O69  1  0.97891072  0.16034863  0.32205403  1
  O  O70  1  0.02108928  0.16034863  0.82205403  1
  O  O71  1  0.97891072  0.66034863  0.17794597  1
