# generated using pymatgen
data_Y2Mn3(SiO4)3
_symmetry_space_group_name_H-M   'P 1'
_cell_length_a   10.78135772
_cell_length_b   10.78135723
_cell_length_c   10.78135736
_cell_angle_alpha   109.47122090
_cell_angle_beta   109.47121998
_cell_angle_gamma   109.47122221
_symmetry_Int_Tables_number   1
_chemical_formula_structural   Y2Mn3(SiO4)3
_chemical_formula_sum   'Y8 Mn12 Si12 O48'
_cell_volume   964.71367866
_cell_formula_units_Z   4
loop_
 _symmetry_equiv_pos_site_id
 _symmetry_equiv_pos_as_xyz
  1  'x, y, z'
loop_
 _atom_site_type_symbol
 _atom_site_label
 _atom_site_symmetry_multiplicity
 _atom_site_fract_x
 _atom_site_fract_y
 _atom_site_fract_z
 _atom_site_occupancy
  Y  Y0  1  0.50000000  0.00000000  0.00000000  1
  Y  Y1  1  0.00000000  0.00000000  0.00000000  1
  Y  Y2  1  0.00000000  0.50000000  0.00000000  1
  Y  Y3  1  0.00000000  0.00000000  0.50000000  1
  Y  Y4  1  0.00000000  0.50000000  0.50000100  1
  Y  Y5  1  0.50000000  0.00000000  0.50000100  1
  Y  Y6  1  0.50000000  0.50000000  0.00000000  1
  Y  Y7  1  0.50000000  0.50000000  0.50000000  1
  Mn  Mn8  1  0.25000000  0.87500100  0.62500000  1
  Mn  Mn9  1  0.87500000  0.62500000  0.25000000  1
  Mn  Mn10  1  0.62500100  0.87500100  0.75000100  1
  Mn  Mn11  1  0.87500100  0.75000100  0.62500100  1
  Mn  Mn12  1  0.62500000  0.25000000  0.87500000  1
  Mn  Mn13  1  0.75000000  0.62500000  0.87500000  1
  Mn  Mn14  1  0.75000000  0.12500000  0.37500000  1
  Mn  Mn15  1  0.12500000  0.37500000  0.75000000  1
  Mn  Mn16  1  0.37500000  0.12500000  0.25000000  1
  Mn  Mn17  1  0.12500000  0.25000000  0.37500000  1
  Mn  Mn18  1  0.37500000  0.75000100  0.12500000  1
  Mn  Mn19  1  0.25000000  0.37500000  0.12500000  1
  Si  Si20  1  0.25000000  0.12500000  0.87500000  1
  Si  Si21  1  0.87500000  0.25000000  0.12500000  1
  Si  Si22  1  0.62500000  0.75000100  0.37500000  1
  Si  Si23  1  0.25000000  0.62500000  0.37500100  1
  Si  Si24  1  0.37500000  0.62500000  0.75000000  1
  Si  Si25  1  0.75000000  0.37500000  0.62500000  1
  Si  Si26  1  0.87500000  0.12500000  0.75000000  1
  Si  Si27  1  0.12500000  0.75000100  0.87500000  1
  Si  Si28  1  0.12500000  0.87500100  0.25000000  1
  Si  Si29  1  0.62500000  0.37500000  0.25000000  1
  Si  Si30  1  0.37500000  0.25000000  0.62500000  1
  Si  Si31  1  0.75000000  0.87500100  0.12500000  1
  O  O32  1  0.27702307  0.48132063  0.37280081  1
  O  O33  1  0.01867937  0.29570243  0.89148017  1
  O  O34  1  0.12719919  0.60851983  0.90422226  1
  O  O35  1  0.22297593  0.59577774  0.20429757  1
  O  O36  1  0.22297593  0.12719819  0.01867837  1
  O  O37  1  0.59577674  0.20429657  0.22297593  1
  O  O38  1  0.60851883  0.20429657  0.48132063  1
  O  O39  1  0.20429757  0.22297593  0.59577874  1
  O  O40  1  0.89148117  0.37280081  0.59577774  1
  O  O41  1  0.29570343  0.90422226  0.27702407  1
  O  O42  1  0.90422226  0.27702407  0.29570343  1
  O  O43  1  0.01867937  0.22297593  0.12719819  1
  O  O44  1  0.20429757  0.48132063  0.60851983  1
  O  O45  1  0.59577774  0.89148117  0.37280181  1
  O  O46  1  0.12719819  0.01867837  0.22297593  1
  O  O47  1  0.48132063  0.60851983  0.20429657  1
  O  O48  1  0.37280081  0.59577774  0.89148017  1
  O  O49  1  0.89148017  0.01867837  0.29570243  1
  O  O50  1  0.60851883  0.90422226  0.12719919  1
  O  O51  1  0.10851883  0.62719819  0.40422226  1
  O  O52  1  0.48132063  0.37280081  0.27702307  1
  O  O53  1  0.37280081  0.27702407  0.48132063  1
  O  O54  1  0.29570343  0.89148117  0.01867937  1
  O  O55  1  0.27702307  0.29570243  0.90422126  1
  O  O56  1  0.72297593  0.51867837  0.62719919  1
  O  O57  1  0.98132063  0.70429657  0.10851883  1
  O  O58  1  0.87280181  0.39148117  0.09577774  1
  O  O59  1  0.77702407  0.40422226  0.79570343  1
  O  O60  1  0.77702307  0.87280181  0.98132163  1
  O  O61  1  0.40422226  0.79570243  0.77702307  1
  O  O62  1  0.39148117  0.79570243  0.51867837  1
  O  O63  1  0.79570343  0.77702407  0.40422226  1
  O  O64  1  0.72297593  0.70429657  0.09577774  1
  O  O65  1  0.70429757  0.10851983  0.98132063  1
  O  O66  1  0.62719819  0.72297693  0.51867937  1
  O  O67  1  0.51867937  0.62719819  0.72297593  1
  O  O68  1  0.09577774  0.87280181  0.39148017  1
  O  O69  1  0.39148017  0.09577674  0.87280081  1
  O  O70  1  0.10851983  0.98132063  0.70429657  1
  O  O71  1  0.62719919  0.40422226  0.10851883  1
  O  O72  1  0.51867937  0.39148117  0.79570343  1
  O  O73  1  0.87280181  0.98132063  0.77702407  1
  O  O74  1  0.40422326  0.10851983  0.62719919  1
  O  O75  1  0.79570243  0.51867837  0.39148117  1
  O  O76  1  0.98132063  0.77702407  0.87280181  1
  O  O77  1  0.09577874  0.72297693  0.70429757  1
  O  O78  1  0.70429657  0.09577674  0.72297593  1
  O  O79  1  0.90422226  0.12719819  0.60851883  1
