# generated using pymatgen
data_Lu2Si4Mo3
_symmetry_space_group_name_H-M   'P 1'
_cell_length_a   6.69821595
_cell_length_b   6.91555017
_cell_length_c   12.84979580
_cell_angle_alpha   90.00000000
_cell_angle_beta   90.00000000
_cell_angle_gamma   90.00000000
_symmetry_Int_Tables_number   1
_chemical_formula_structural   Lu2Si4Mo3
_chemical_formula_sum   'Lu8 Si16 Mo12'
_cell_volume   595.22629368
_cell_formula_units_Z   4
loop_
 _symmetry_equiv_pos_site_id
 _symmetry_equiv_pos_as_xyz
  1  'x, y, z'
loop_
 _atom_site_type_symbol
 _atom_site_label
 _atom_site_symmetry_multiplicity
 _atom_site_fract_x
 _atom_site_fract_y
 _atom_site_fract_z
 _atom_site_occupancy
  Lu  Lu0  1  0.50292941  0.66856465  0.40646503  1
  Lu  Lu1  1  0.00292941  0.83143535  0.09353497  1
  Lu  Lu2  1  0.49707059  0.33143535  0.90646503  1
  Lu  Lu3  1  0.99707059  0.16856465  0.59353497  1
  Lu  Lu4  1  0.49707059  0.33143535  0.59353497  1
  Lu  Lu5  1  0.99707059  0.16856465  0.90646503  1
  Lu  Lu6  1  0.50292941  0.66856465  0.09353497  1
  Lu  Lu7  1  0.00292941  0.83143535  0.40646503  1
  Si  Si8  1  0.33874823  0.96014138  0.95374903  1
  Si  Si9  1  0.83874823  0.53985862  0.54625097  1
  Si  Si10  1  0.66125177  0.03985862  0.45374903  1
  Si  Si11  1  0.16125177  0.46014138  0.04625097  1
  Si  Si12  1  0.66125177  0.03985862  0.04625097  1
  Si  Si13  1  0.16125177  0.46014138  0.45374903  1
  Si  Si14  1  0.33874823  0.96014138  0.54625097  1
  Si  Si15  1  0.83874823  0.53985862  0.95374903  1
  Si  Si16  1  0.46624107  0.63038796  0.75000000  1
  Si  Si17  1  0.96624107  0.86961204  0.75000000  1
  Si  Si18  1  0.53375893  0.36961204  0.25000000  1
  Si  Si19  1  0.03375893  0.13038796  0.25000000  1
  Si  Si20  1  0.19885294  0.36709030  0.75000000  1
  Si  Si21  1  0.69885294  0.13290970  0.75000000  1
  Si  Si22  1  0.80114706  0.63290970  0.25000000  1
  Si  Si23  1  0.30114706  0.86709030  0.25000000  1
  Mo  Mo24  1  0.17035460  0.66608091  0.87551564  1
  Mo  Mo25  1  0.67035460  0.83391909  0.62448436  1
  Mo  Mo26  1  0.82964540  0.33391909  0.37551564  1
  Mo  Mo27  1  0.32964540  0.16608091  0.12448436  1
  Mo  Mo28  1  0.82964540  0.33391909  0.12448436  1
  Mo  Mo29  1  0.32964540  0.16608091  0.37551564  1
  Mo  Mo30  1  0.17035460  0.66608091  0.62448436  1
  Mo  Mo31  1  0.67035460  0.83391909  0.87551564  1
  Mo  Mo32  1  0.33385094  0.00395747  0.75000000  1
  Mo  Mo33  1  0.83385094  0.49604253  0.75000000  1
  Mo  Mo34  1  0.66614906  0.99604253  0.25000000  1
  Mo  Mo35  1  0.16614906  0.50395747  0.25000000  1
