# generated using pymatgen
data_KAsO3
_symmetry_space_group_name_H-M   'P 1'
_cell_length_a   9.22407682
_cell_length_b   12.39741243
_cell_length_c   19.66972871
_cell_angle_alpha   90.00000000
_cell_angle_beta   90.00000000
_cell_angle_gamma   90.35710726
_symmetry_Int_Tables_number   1
_chemical_formula_structural   KAsO3
_chemical_formula_sum   'K24 As24 O72'
_cell_volume   2249.28193472
_cell_formula_units_Z   24
loop_
 _symmetry_equiv_pos_site_id
 _symmetry_equiv_pos_as_xyz
  1  'x, y, z'
loop_
 _atom_site_type_symbol
 _atom_site_label
 _atom_site_symmetry_multiplicity
 _atom_site_fract_x
 _atom_site_fract_y
 _atom_site_fract_z
 _atom_site_occupancy
  K  K0  1  0.39185268  0.29830617  0.92224036  1
  K  K1  1  0.60814732  0.20169383  0.42224036  1
  K  K2  1  0.60814732  0.70169383  0.07775964  1
  K  K3  1  0.39185268  0.79830617  0.57775964  1
  K  K4  1  0.63632160  0.04511003  0.07496609  1
  K  K5  1  0.36367840  0.45488997  0.57496609  1
  K  K6  1  0.36367840  0.95488997  0.92503391  1
  K  K7  1  0.63632160  0.54511003  0.42503391  1
  K  K8  1  0.11641652  0.21046048  0.07492767  1
  K  K9  1  0.88358348  0.28953952  0.57492767  1
  K  K10  1  0.88358348  0.78953952  0.92507233  1
  K  K11  1  0.11641652  0.71046048  0.42507233  1
  K  K12  1  0.87850226  0.45162266  0.92087266  1
  K  K13  1  0.12149774  0.04837734  0.42087266  1
  K  K14  1  0.12149774  0.54837734  0.07912734  1
  K  K15  1  0.87850226  0.95162266  0.57912734  1
  K  K16  1  0.12899671  0.86903852  0.75070164  1
  K  K17  1  0.87100329  0.63096148  0.25070164  1
  K  K18  1  0.87100329  0.13096148  0.24929836  1
  K  K19  1  0.12899671  0.36903852  0.74929836  1
  K  K20  1  0.62740877  0.88241276  0.75262099  1
  K  K21  1  0.37259123  0.61758724  0.25262099  1
  K  K22  1  0.37259123  0.11758724  0.24737901  1
  K  K23  1  0.62740877  0.38241276  0.74737901  1
  As  As24  1  0.71139104  0.16242378  0.89427448  1
  As  As25  1  0.28860896  0.33757622  0.39427448  1
  As  As26  1  0.28860896  0.83757622  0.10572552  1
  As  As27  1  0.71139104  0.66242378  0.60572552  1
  As  As28  1  0.95734304  0.90992647  0.10440293  1
  As  As29  1  0.04265696  0.59007353  0.60440293  1
  As  As30  1  0.04265696  0.09007353  0.89559707  1
  As  As31  1  0.95734304  0.40992647  0.39559707  1
  As  As32  1  0.45677653  0.33564155  0.10611031  1
  As  As33  1  0.54322347  0.16435845  0.60611031  1
  As  As34  1  0.54322347  0.66435845  0.89388969  1
  As  As35  1  0.45677653  0.83564155  0.39388969  1
  As  As36  1  0.21536747  0.58153898  0.89454224  1
  As  As37  1  0.78463253  0.91846102  0.39454224  1
  As  As38  1  0.78463253  0.41846102  0.10545776  1
  As  As39  1  0.21536747  0.08153898  0.60545776  1
  As  As40  1  0.87844809  0.12460955  0.75503789  1
  As  As41  1  0.12155191  0.37539045  0.25503789  1
  As  As42  1  0.12155191  0.87539045  0.24496211  1
  As  As43  1  0.87844809  0.62460955  0.74496211  1
  As  As44  1  0.37680583  0.62600247  0.75494835  1
  As  As45  1  0.62319417  0.87399753  0.25494835  1
  As  As46  1  0.62319417  0.37399753  0.24505165  1
  As  As47  1  0.37680583  0.12600247  0.74505165  1
  O  O48  1  0.70367445  0.29523375  0.87954593  1
  O  O49  1  0.29632555  0.20476625  0.37954593  1
  O  O50  1  0.29632555  0.70476625  0.12045407  1
  O  O51  1  0.70367445  0.79523375  0.62045407  1
  O  O52  1  0.95180778  0.04351475  0.11654093  1
  O  O53  1  0.04819222  0.45648525  0.61654093  1
  O  O54  1  0.04819222  0.95648525  0.88345907  1
  O  O55  1  0.95180778  0.54351475  0.38345907  1
  O  O56  1  0.45785229  0.20189927  0.11777183  1
  O  O57  1  0.54214771  0.29810073  0.61777183  1
  O  O58  1  0.54214771  0.79810073  0.88222817  1
  O  O59  1  0.45785229  0.70189927  0.38222817  1
  O  O60  1  0.21331821  0.44885936  0.87887154  1
  O  O61  1  0.78668179  0.05114064  0.37887154  1
  O  O62  1  0.78668179  0.55114064  0.12112846  1
  O  O63  1  0.21331821  0.94885936  0.62112846  1
  O  O64  1  0.57749939  0.10377731  0.93814906  1
  O  O65  1  0.42250061  0.39622269  0.43814906  1
  O  O66  1  0.42250061  0.89622269  0.06185094  1
  O  O67  1  0.57749939  0.60377731  0.56185094  1
  O  O68  1  0.82342958  0.85019661  0.06105814  1
  O  O69  1  0.17657042  0.64980339  0.56105814  1
  O  O70  1  0.17657042  0.14980339  0.93894186  1
  O  O71  1  0.82342958  0.35019661  0.43894186  1
  O  O72  1  0.31959335  0.38838039  0.06220116  1
  O  O73  1  0.68040665  0.11161961  0.56220116  1
  O  O74  1  0.68040665  0.61161961  0.93779884  1
  O  O75  1  0.31959335  0.88838039  0.43779884  1
  O  O76  1  0.07886917  0.63135154  0.94036636  1
  O  O77  1  0.92113083  0.86864846  0.44036636  1
  O  O78  1  0.92113083  0.36864846  0.05963364  1
  O  O79  1  0.07886917  0.13135154  0.55963364  1
  O  O80  1  0.87683861  0.12796347  0.93844036  1
  O  O81  1  0.12316139  0.37203653  0.43844036  1
  O  O82  1  0.12316139  0.87203653  0.06155964  1
  O  O83  1  0.87683861  0.62796347  0.56155964  1
  O  O84  1  0.37989607  0.62164635  0.93774709  1
  O  O85  1  0.62010393  0.87835365  0.43774709  1
  O  O86  1  0.62010393  0.37835365  0.06225291  1
  O  O87  1  0.37989607  0.12164635  0.56225291  1
  O  O88  1  0.73282933  0.09099703  0.81463004  1
  O  O89  1  0.26717067  0.40900297  0.31463004  1
  O  O90  1  0.26717067  0.90900297  0.18536996  1
  O  O91  1  0.73282933  0.59099703  0.68536996  1
  O  O92  1  0.97666521  0.84116184  0.18511196  1
  O  O93  1  0.02333479  0.65883816  0.68511196  1
  O  O94  1  0.02333479  0.15883816  0.81488804  1
  O  O95  1  0.97666521  0.34116184  0.31488804  1
  O  O96  1  0.47544238  0.40562949  0.18633189  1
  O  O97  1  0.52455762  0.09437051  0.68633189  1
  O  O98  1  0.52455762  0.59437051  0.81366811  1
  O  O99  1  0.47544238  0.90562949  0.31366811  1
  O  O100  1  0.23195183  0.65599911  0.81561158  1
  O  O101  1  0.76804817  0.84400089  0.31561158  1
  O  O102  1  0.76804817  0.34400089  0.18438842  1
  O  O103  1  0.23195183  0.15599911  0.68438842  1
  O  O104  1  0.85259741  0.24051813  0.71367848  1
  O  O105  1  0.14740259  0.25948187  0.21367848  1
  O  O106  1  0.14740259  0.75948187  0.28632152  1
  O  O107  1  0.85259741  0.74051813  0.78632152  1
  O  O108  1  0.90515631  0.00773411  0.71490923  1
  O  O109  1  0.09484369  0.49226589  0.21490923  1
  O  O110  1  0.09484369  0.99226589  0.28509077  1
  O  O111  1  0.90515631  0.50773411  0.78509077  1
  O  O112  1  0.40144096  0.74350278  0.71513654  1
  O  O113  1  0.59855904  0.75649722  0.21513654  1
  O  O114  1  0.59855904  0.25649722  0.28486346  1
  O  O115  1  0.40144096  0.24350278  0.78486346  1
  O  O116  1  0.35102639  0.51000083  0.71357549  1
  O  O117  1  0.64897361  0.98999917  0.21357549  1
  O  O118  1  0.64897361  0.48999917  0.28642451  1
  O  O119  1  0.35102639  0.01000083  0.78642451  1
