# generated using pymatgen
data_LiNd(PN2)4
_symmetry_space_group_name_H-M   'P 1'
_cell_length_a   7.93194388
_cell_length_b   8.78569325
_cell_length_c   9.16530819
_cell_angle_alpha   90.00000000
_cell_angle_beta   90.00000000
_cell_angle_gamma   90.00000000
_symmetry_Int_Tables_number   1
_chemical_formula_structural   LiNd(PN2)4
_chemical_formula_sum   'Li4 Nd4 P16 N32'
_cell_volume   638.70856754
_cell_formula_units_Z   4
loop_
 _symmetry_equiv_pos_site_id
 _symmetry_equiv_pos_as_xyz
  1  'x, y, z'
loop_
 _atom_site_type_symbol
 _atom_site_label
 _atom_site_symmetry_multiplicity
 _atom_site_fract_x
 _atom_site_fract_y
 _atom_site_fract_z
 _atom_site_occupancy
  Li  Li0  1  0.75000000  0.44539150  0.56672535  1
  Li  Li1  1  0.75000000  0.94539150  0.93327465  1
  Li  Li2  1  0.25000000  0.55460850  0.43327465  1
  Li  Li3  1  0.25000000  0.05460850  0.06672535  1
  Nd  Nd4  1  0.75000000  0.08755556  0.58542004  1
  Nd  Nd5  1  0.75000000  0.58755556  0.91457996  1
  Nd  Nd6  1  0.25000000  0.91244444  0.41457996  1
  Nd  Nd7  1  0.25000000  0.41244444  0.08542004  1
  P  P8  1  0.43684490  0.43055119  0.69135741  1
  P  P9  1  0.06315510  0.93055119  0.80864259  1
  P  P10  1  0.93684490  0.56944881  0.30864259  1
  P  P11  1  0.56315510  0.06944881  0.19135741  1
  P  P12  1  0.56315510  0.56944881  0.30864259  1
  P  P13  1  0.93684490  0.06944881  0.19135741  1
  P  P14  1  0.06315510  0.43055119  0.69135741  1
  P  P15  1  0.43684490  0.93055119  0.80864259  1
  P  P16  1  0.94063832  0.22918825  0.91776151  1
  P  P17  1  0.55936168  0.72918825  0.58223849  1
  P  P18  1  0.44063832  0.77081175  0.08223849  1
  P  P19  1  0.05936168  0.27081175  0.41776151  1
  P  P20  1  0.05936168  0.77081175  0.08223849  1
  P  P21  1  0.44063832  0.27081175  0.41776151  1
  P  P22  1  0.55936168  0.22918825  0.91776151  1
  P  P23  1  0.94063832  0.72918825  0.58223849  1
  N  N24  1  0.44193765  0.37059618  0.86030166  1
  N  N25  1  0.05806235  0.87059618  0.63969834  1
  N  N26  1  0.94193765  0.62940382  0.13969834  1
  N  N27  1  0.55806235  0.12940382  0.36030166  1
  N  N28  1  0.55806235  0.62940382  0.13969834  1
  N  N29  1  0.94193765  0.12940382  0.36030166  1
  N  N30  1  0.05806235  0.37059618  0.86030166  1
  N  N31  1  0.44193765  0.87059618  0.63969834  1
  N  N32  1  0.97578500  0.30347598  0.57894909  1
  N  N33  1  0.52421500  0.80347598  0.92105091  1
  N  N34  1  0.47578500  0.69652402  0.42105091  1
  N  N35  1  0.02421500  0.19652402  0.07894909  1
  N  N36  1  0.02421500  0.69652402  0.42105091  1
  N  N37  1  0.47578500  0.19652402  0.07894909  1
  N  N38  1  0.52421500  0.30347598  0.57894909  1
  N  N39  1  0.97578500  0.80347598  0.92105091  1
  N  N40  1  0.93377101  0.07708093  0.81553124  1
  N  N41  1  0.56622899  0.57708093  0.68446876  1
  N  N42  1  0.43377101  0.92291907  0.18446876  1
  N  N43  1  0.06622899  0.42291907  0.31553124  1
  N  N44  1  0.06622899  0.92291907  0.18446876  1
  N  N45  1  0.43377101  0.42291907  0.31553124  1
  N  N46  1  0.56622899  0.07708093  0.81553124  1
  N  N47  1  0.93377101  0.57708093  0.68446876  1
  N  N48  1  0.75000000  0.30244113  0.91822983  1
  N  N49  1  0.75000000  0.80244113  0.58177017  1
  N  N50  1  0.25000000  0.69755887  0.08177017  1
  N  N51  1  0.25000000  0.19755887  0.41822983  1
  N  N52  1  0.75000000  0.02098959  0.13964176  1
  N  N53  1  0.75000000  0.52098959  0.36035824  1
  N  N54  1  0.25000000  0.97901041  0.86035824  1
  N  N55  1  0.25000000  0.47901041  0.63964176  1
