# generated using pymatgen
data_CuBP4H24C8(SF)4
_symmetry_space_group_name_H-M   'P 1'
_cell_length_a   12.58887897
_cell_length_b   12.85782994
_cell_length_c   15.70873823
_cell_angle_alpha   90.00000000
_cell_angle_beta   90.00000000
_cell_angle_gamma   99.46024416
_symmetry_Int_Tables_number   1
_chemical_formula_structural   CuBP4H24C8(SF)4
_chemical_formula_sum   'Cu4 B4 P16 H96 C32 S16 F16'
_cell_volume   2508.12427592
_cell_formula_units_Z   4
loop_
 _symmetry_equiv_pos_site_id
 _symmetry_equiv_pos_as_xyz
  1  'x, y, z'
loop_
 _atom_site_type_symbol
 _atom_site_label
 _atom_site_symmetry_multiplicity
 _atom_site_fract_x
 _atom_site_fract_y
 _atom_site_fract_z
 _atom_site_occupancy
  Cu  Cu0  1  0.48102152  0.21515182  0.11829523  1
  Cu  Cu1  1  0.01897848  0.78484818  0.61829523  1
  Cu  Cu2  1  0.51897848  0.78484818  0.88170477  1
  Cu  Cu3  1  0.98102152  0.21515182  0.38170477  1
  B  B4  1  0.02240929  0.28225892  0.87221534  1
  B  B5  1  0.47759071  0.71774108  0.37221534  1
  B  B6  1  0.97759071  0.71774108  0.12778466  1
  B  B7  1  0.52240929  0.28225892  0.62778466  1
  P  P8  1  0.72085961  0.36433016  0.08392652  1
  P  P9  1  0.77914039  0.63566984  0.58392652  1
  P  P10  1  0.27914039  0.63566984  0.91607348  1
  P  P11  1  0.22085961  0.36433016  0.41607348  1
  P  P12  1  0.61532646  0.46012027  0.15588496  1
  P  P13  1  0.88467354  0.53987973  0.65588496  1
  P  P14  1  0.38467354  0.53987973  0.84411504  1
  P  P15  1  0.11532646  0.46012027  0.34411504  1
  P  P16  1  0.30995244  0.00488092  0.18572803  1
  P  P17  1  0.19004756  0.99511908  0.68572803  1
  P  P18  1  0.69004756  0.99511908  0.81427197  1
  P  P19  1  0.80995244  0.00488092  0.31427197  1
  P  P20  1  0.25020086  0.07877122  0.06928875  1
  P  P21  1  0.24979914  0.92122878  0.56928875  1
  P  P22  1  0.74979914  0.92122878  0.93071125  1
  P  P23  1  0.75020086  0.07877122  0.43071125  1
  H  H24  1  0.86935510  0.37786345  0.18245473  1
  H  H25  1  0.63064490  0.62213655  0.68245473  1
  H  H26  1  0.13064490  0.62213655  0.81754527  1
  H  H27  1  0.36935510  0.37786345  0.31754527  1
  H  H28  1  0.90796110  0.36161542  0.07381480  1
  H  H29  1  0.59203890  0.63838458  0.57381480  1
  H  H30  1  0.09203890  0.63838458  0.92618520  1
  H  H31  1  0.40796110  0.36161542  0.42618520  1
  H  H32  1  0.88426646  0.48816865  0.10984597  1
  H  H33  1  0.61573354  0.51183135  0.60984597  1
  H  H34  1  0.11573354  0.51183135  0.89015403  1
  H  H35  1  0.38426646  0.48816865  0.39015403  1
  H  H36  1  0.63070456  0.38174933  0.95102836  1
  H  H37  1  0.86929544  0.61825067  0.45102836  1
  H  H38  1  0.36929544  0.61825067  0.04897164  1
  H  H39  1  0.13070456  0.38174933  0.54897164  1
  H  H40  1  0.73520791  0.49240188  0.96815589  1
  H  H41  1  0.76479209  0.50759812  0.46815589  1
  H  H42  1  0.26479209  0.50759812  0.03184411  1
  H  H43  1  0.23520791  0.49240188  0.53184411  1
  H  H44  1  0.76980057  0.36771507  0.93774701  1
  H  H45  1  0.73019943  0.63228493  0.43774701  1
  H  H46  1  0.23019943  0.63228493  0.06225299  1
  H  H47  1  0.26980057  0.36771507  0.56225299  1
  H  H48  1  0.62754786  0.60559952  0.05677812  1
  H  H49  1  0.87245214  0.39440048  0.55677812  1
  H  H50  1  0.37245214  0.39440048  0.94322188  1
  H  H51  1  0.12754786  0.60559952  0.44322188  1
  H  H52  1  0.59726643  0.64064700  0.16335026  1
  H  H53  1  0.90273357  0.35935300  0.66335026  1
  H  H54  1  0.40273357  0.35935300  0.83664974  1
  H  H55  1  0.09726643  0.64064700  0.33664974  1
  H  H56  1  0.73270549  0.62725194  0.13591797  1
  H  H57  1  0.76729451  0.37274806  0.63591797  1
  H  H58  1  0.26729451  0.37274806  0.86408203  1
  H  H59  1  0.23270549  0.62725194  0.36408203  1
  H  H60  1  0.63543373  0.37448736  0.28917626  1
  H  H61  1  0.86456627  0.62551264  0.78917626  1
  H  H62  1  0.36456627  0.62551264  0.71082374  1
  H  H63  1  0.13543373  0.37448736  0.21082374  1
  H  H64  1  0.74379071  0.48287991  0.27376021  1
  H  H65  1  0.75620929  0.51712009  0.77376021  1
  H  H66  1  0.25620929  0.51712009  0.72623979  1
  H  H67  1  0.24379071  0.48287991  0.22623979  1
  H  H68  1  0.61208449  0.50769723  0.30196724  1
  H  H69  1  0.88791551  0.49230277  0.80196724  1
  H  H70  1  0.38791551  0.49230277  0.69803276  1
  H  H71  1  0.11208449  0.50769723  0.19803276  1
  H  H72  1  0.15395016  0.01612337  0.27288474  1
  H  H73  1  0.34604984  0.98387663  0.77288474  1
  H  H74  1  0.84604984  0.98387663  0.72711526  1
  H  H75  1  0.65395016  0.01612337  0.22711526  1
  H  H76  1  0.14139166  0.89249278  0.21630629  1
  H  H77  1  0.35860834  0.10750722  0.71630629  1
  H  H78  1  0.85860834  0.10750722  0.78369371  1
  H  H79  1  0.64139166  0.89249278  0.28369371  1
  H  H80  1  0.22683251  0.91567257  0.30781441  1
  H  H81  1  0.27316749  0.08432743  0.80781441  1
  H  H82  1  0.77316749  0.08432743  0.69218559  1
  H  H83  1  0.72683251  0.91567257  0.19218559  1
  H  H84  1  0.43304582  0.92136837  0.10407597  1
  H  H85  1  0.06695418  0.07863163  0.60407597  1
  H  H86  1  0.56695418  0.07863163  0.89592403  1
  H  H87  1  0.93304582  0.92136837  0.39592403  1
  H  H88  1  0.39398016  0.85405244  0.20264067  1
  H  H89  1  0.10601984  0.14594756  0.70264067  1
  H  H90  1  0.60601984  0.14594756  0.79735933  1
  H  H91  1  0.89398016  0.85405244  0.29735933  1
  H  H92  1  0.30444850  0.83738911  0.11279640  1
  H  H93  1  0.19555150  0.16261089  0.61279640  1
  H  H94  1  0.69555150  0.16261089  0.88720360  1
  H  H95  1  0.80444850  0.83738911  0.38720360  1
  H  H96  1  0.19770425  0.92122311  0.98561289  1
  H  H97  1  0.30229575  0.07877689  0.48561289  1
  H  H98  1  0.80229575  0.07877689  0.01438711  1
  H  H99  1  0.69770425  0.92122311  0.51438711  1
  H  H100  1  0.09073335  0.94724866  0.05438300  1
  H  H101  1  0.40926665  0.05275134  0.55438300  1
  H  H102  1  0.90926665  0.05275134  0.94561700  1
  H  H103  1  0.59073335  0.94724866  0.44561700  1
  H  H104  1  0.12343304  0.02480832  0.95982503  1
  H  H105  1  0.37656696  0.97519168  0.45982503  1
  H  H106  1  0.87656696  0.97519168  0.04017497  1
  H  H107  1  0.62343304  0.02480832  0.54017497  1
  H  H108  1  0.22492209  0.22591591  0.15512720  1
  H  H109  1  0.27507791  0.77408409  0.65512720  1
  H  H110  1  0.77507791  0.77408409  0.84487280  1
  H  H111  1  0.72492209  0.22591591  0.34487280  1
  H  H112  1  0.15237490  0.22049807  0.05570936  1
  H  H113  1  0.34762510  0.77950193  0.55570936  1
  H  H114  1  0.84762510  0.77950193  0.94429064  1
  H  H115  1  0.65237490  0.22049807  0.44429064  1
  H  H116  1  0.09957285  0.13751625  0.14317060  1
  H  H117  1  0.40042715  0.86248375  0.64317060  1
  H  H118  1  0.90042715  0.86248375  0.85682940  1
  H  H119  1  0.59957285  0.13751625  0.35682940  1
  C  C120  1  0.85930384  0.40281474  0.11635836  1
  C  C121  1  0.64069616  0.59718526  0.61635836  1
  C  C122  1  0.14069616  0.59718526  0.88364164  1
  C  C123  1  0.35930384  0.40281474  0.38364164  1
  C  C124  1  0.71324236  0.40665445  0.97439903  1
  C  C125  1  0.78675764  0.59334555  0.47439903  1
  C  C126  1  0.28675764  0.59334555  0.02560097  1
  C  C127  1  0.21324236  0.40665445  0.52560097  1
  C  C128  1  0.64711949  0.59682974  0.12406288  1
  C  C129  1  0.85288051  0.40317026  0.62406288  1
  C  C130  1  0.35288051  0.40317026  0.87593712  1
  C  C131  1  0.14711949  0.59682974  0.37593712  1
  C  C132  1  0.65669995  0.45543039  0.26616089  1
  C  C133  1  0.84330005  0.54456961  0.76616089  1
  C  C134  1  0.34330005  0.54456961  0.73383911  1
  C  C135  1  0.15669995  0.45543039  0.23383911  1
  C  C136  1  0.19606446  0.95268984  0.25190684  1
  C  C137  1  0.30393554  0.04731016  0.75190684  1
  C  C138  1  0.80393554  0.04731016  0.74809316  1
  C  C139  1  0.69606446  0.95268984  0.24809316  1
  C  C140  1  0.36559339  0.89302840  0.14682641  1
  C  C141  1  0.13440661  0.10697160  0.64682641  1
  C  C142  1  0.63440661  0.10697160  0.85317359  1
  C  C143  1  0.86559339  0.89302840  0.35317359  1
  C  C144  1  0.15635431  0.98257735  0.01186558  1
  C  C145  1  0.34364569  0.01742265  0.51186558  1
  C  C146  1  0.84364569  0.01742265  0.98813442  1
  C  C147  1  0.65635431  0.98257735  0.48813442  1
  C  C148  1  0.17344743  0.17485691  0.11048737  1
  C  C149  1  0.32655257  0.82514309  0.61048737  1
  C  C150  1  0.82655257  0.82514309  0.88951263  1
  C  C151  1  0.67344743  0.17485691  0.38951263  1
  S  S152  1  0.66412841  0.21350774  0.10533162  1
  S  S153  1  0.83587159  0.78649226  0.60533162  1
  S  S154  1  0.33587159  0.78649226  0.89466838  1
  S  S155  1  0.16412841  0.21350774  0.39466838  1
  S  S156  1  0.46423946  0.39396555  0.13279479  1
  S  S157  1  0.03576054  0.60603445  0.63279479  1
  S  S158  1  0.53576054  0.60603445  0.86720521  1
  S  S159  1  0.96423946  0.39396555  0.36720521  1
  S  S160  1  0.41490495  0.11794638  0.23955299  1
  S  S161  1  0.08509505  0.88205362  0.73955299  1
  S  S162  1  0.58509505  0.88205362  0.76044701  1
  S  S163  1  0.91490495  0.11794638  0.26044701  1
  S  S164  1  0.37974189  0.14007703  0.00312543  1
  S  S165  1  0.12025811  0.85992297  0.50312543  1
  S  S166  1  0.62025811  0.85992297  0.99687457  1
  S  S167  1  0.87974189  0.14007703  0.49687457  1
  F  F168  1  0.90828351  0.27537713  0.87306285  1
  F  F169  1  0.59171649  0.72462287  0.37306285  1
  F  F170  1  0.09171649  0.72462287  0.12693715  1
  F  F171  1  0.40828351  0.27537713  0.62693715  1
  F  F172  1  0.04918575  0.17907071  0.86943126  1
  F  F173  1  0.45081425  0.82092929  0.36943126  1
  F  F174  1  0.95081425  0.82092929  0.13056874  1
  F  F175  1  0.54918575  0.17907071  0.63056874  1
  F  F176  1  0.06651418  0.33460467  0.94724838  1
  F  F177  1  0.43348582  0.66539533  0.44724838  1
  F  F178  1  0.93348582  0.66539533  0.05275162  1
  F  F179  1  0.56651418  0.33460467  0.55275162  1
  F  F180  1  0.06527281  0.34003720  0.79954226  1
  F  F181  1  0.43472719  0.65996280  0.29954226  1
  F  F182  1  0.93472719  0.65996280  0.20045774  1
  F  F183  1  0.56527281  0.34003720  0.70045774  1
