# generated using pymatgen
data_Ba2ThCrTe7
_symmetry_space_group_name_H-M   'P 1'
_cell_length_a   6.26263661
_cell_length_b   12.80632651
_cell_length_c   19.10762098
_cell_angle_alpha   90.00000000
_cell_angle_beta   90.00000000
_cell_angle_gamma   90.00000000
_symmetry_Int_Tables_number   1
_chemical_formula_structural   Ba2ThCrTe7
_chemical_formula_sum   'Ba8 Th4 Cr4 Te28'
_cell_volume   1532.45736554
_cell_formula_units_Z   4
loop_
 _symmetry_equiv_pos_site_id
 _symmetry_equiv_pos_as_xyz
  1  'x, y, z'
loop_
 _atom_site_type_symbol
 _atom_site_label
 _atom_site_symmetry_multiplicity
 _atom_site_fract_x
 _atom_site_fract_y
 _atom_site_fract_z
 _atom_site_occupancy
  Ba  Ba0  1  0.75000000  0.17787730  0.55602725  1
  Ba  Ba1  1  0.75000000  0.67787730  0.94397275  1
  Ba  Ba2  1  0.25000000  0.82212270  0.44397275  1
  Ba  Ba3  1  0.25000000  0.32212270  0.05602725  1
  Ba  Ba4  1  0.75000000  0.05318624  0.22447388  1
  Ba  Ba5  1  0.75000000  0.55318624  0.27552612  1
  Ba  Ba6  1  0.25000000  0.94681376  0.77552612  1
  Ba  Ba7  1  0.25000000  0.44681376  0.72447388  1
  Th  Th8  1  0.75000000  0.20836202  0.87540154  1
  Th  Th9  1  0.75000000  0.70836202  0.62459846  1
  Th  Th10  1  0.25000000  0.79163798  0.12459846  1
  Th  Th11  1  0.25000000  0.29163798  0.37540154  1
  Cr  Cr12  1  0.00000000  0.50000000  0.50000000  1
  Cr  Cr13  1  0.50000000  -0.00000000  0.00000000  1
  Cr  Cr14  1  0.50000000  0.50000000  0.50000000  1
  Cr  Cr15  1  0.00000000  -0.00000000  0.00000000  1
  Te  Te16  1  0.99764589  0.42452238  0.89842560  1
  Te  Te17  1  0.50235411  0.92452238  0.60157440  1
  Te  Te18  1  0.49764589  0.57547762  0.10157440  1
  Te  Te19  1  0.00235411  0.07547762  0.39842560  1
  Te  Te20  1  0.00235411  0.57547762  0.10157440  1
  Te  Te21  1  0.49764589  0.07547762  0.39842560  1
  Te  Te22  1  0.50235411  0.42452238  0.89842560  1
  Te  Te23  1  0.99764589  0.92452238  0.60157440  1
  Te  Te24  1  0.99724502  0.19313695  0.72871002  1
  Te  Te25  1  0.50275498  0.69313695  0.77128998  1
  Te  Te26  1  0.49724502  0.80686305  0.27128998  1
  Te  Te27  1  0.00275498  0.30686305  0.22871002  1
  Te  Te28  1  0.00275498  0.80686305  0.27128998  1
  Te  Te29  1  0.49724502  0.30686305  0.22871002  1
  Te  Te30  1  0.50275498  0.19313695  0.72871002  1
  Te  Te31  1  0.99724502  0.69313695  0.77128998  1
  Te  Te32  1  0.75000000  0.45847978  0.61797522  1
  Te  Te33  1  0.75000000  0.95847978  0.88202478  1
  Te  Te34  1  0.25000000  0.54152022  0.38202478  1
  Te  Te35  1  0.25000000  0.04152022  0.11797522  1
  Te  Te36  1  0.75000000  0.17075201  0.04075470  1
  Te  Te37  1  0.75000000  0.67075201  0.45924530  1
  Te  Te38  1  0.25000000  0.82924799  0.95924530  1
  Te  Te39  1  0.25000000  0.32924799  0.54075470  1
  Te  Te40  1  0.75000000  0.86254875  0.08450426  1
  Te  Te41  1  0.75000000  0.36254875  0.41549574  1
  Te  Te42  1  0.25000000  0.13745125  0.91549574  1
  Te  Te43  1  0.25000000  0.63745125  0.58450426  1
