# generated using pymatgen
data_NaY(Te2O5)2
_symmetry_space_group_name_H-M   'P 1'
_cell_length_a   9.11071294
_cell_length_b   9.11071294
_cell_length_c   13.65067241
_cell_angle_alpha   90.00000000
_cell_angle_beta   90.00000000
_cell_angle_gamma   90.00000000
_symmetry_Int_Tables_number   1
_chemical_formula_structural   NaY(Te2O5)2
_chemical_formula_sum   'Na4 Y4 Te16 O40'
_cell_volume   1133.07529571
_cell_formula_units_Z   4
loop_
 _symmetry_equiv_pos_site_id
 _symmetry_equiv_pos_as_xyz
  1  'x, y, z'
loop_
 _atom_site_type_symbol
 _atom_site_label
 _atom_site_symmetry_multiplicity
 _atom_site_fract_x
 _atom_site_fract_y
 _atom_site_fract_z
 _atom_site_occupancy
  Na  Na0  1  0.25000000  0.25000000  0.25000000  1
  Na  Na1  1  0.75000000  0.75000000  0.25000000  1
  Na  Na2  1  0.75000000  0.75000000  0.75000000  1
  Na  Na3  1  0.25000000  0.25000000  0.75000000  1
  Y  Y4  1  0.25000000  0.25000000  0.50000000  1
  Y  Y5  1  0.75000000  0.75000000  0.50000000  1
  Y  Y6  1  0.75000000  0.75000000  0.00000000  1
  Y  Y7  1  0.25000000  0.25000000  0.00000000  1
  Te  Te8  1  0.05551022  0.96699728  0.37927660  1
  Te  Te9  1  0.94448978  0.46699728  0.37927660  1
  Te  Te10  1  0.55551022  0.03300272  0.37927660  1
  Te  Te11  1  0.44448978  0.53300272  0.37927660  1
  Te  Te12  1  0.46699728  0.55551022  0.87927660  1
  Te  Te13  1  0.53300272  0.05551022  0.87927660  1
  Te  Te14  1  0.96699728  0.44448978  0.87927660  1
  Te  Te15  1  0.03300272  0.94448978  0.87927660  1
  Te  Te16  1  0.94448978  0.03300272  0.62072340  1
  Te  Te17  1  0.05551022  0.53300272  0.62072340  1
  Te  Te18  1  0.44448978  0.96699728  0.62072340  1
  Te  Te19  1  0.55551022  0.46699728  0.62072340  1
  Te  Te20  1  0.53300272  0.44448978  0.12072340  1
  Te  Te21  1  0.46699728  0.94448978  0.12072340  1
  Te  Te22  1  0.03300272  0.55551022  0.12072340  1
  Te  Te23  1  0.96699728  0.05551022  0.12072340  1
  O  O24  1  0.09308067  0.17046243  0.37266766  1
  O  O25  1  0.90691933  0.67046243  0.37266766  1
  O  O26  1  0.59308067  0.82953757  0.37266766  1
  O  O27  1  0.40691933  0.32953757  0.37266766  1
  O  O28  1  0.67046243  0.59308067  0.87266766  1
  O  O29  1  0.32953757  0.09308067  0.87266766  1
  O  O30  1  0.17046243  0.40691933  0.87266766  1
  O  O31  1  0.82953757  0.90691933  0.87266766  1
  O  O32  1  0.90691933  0.82953757  0.62733234  1
  O  O33  1  0.09308067  0.32953757  0.62733234  1
  O  O34  1  0.40691933  0.17046243  0.62733234  1
  O  O35  1  0.59308067  0.67046243  0.62733234  1
  O  O36  1  0.32953757  0.40691933  0.12733234  1
  O  O37  1  0.67046243  0.90691933  0.12733234  1
  O  O38  1  0.82953757  0.59308067  0.12733234  1
  O  O39  1  0.17046243  0.09308067  0.12733234  1
  O  O40  1  0.87402078  0.97030240  0.44722172  1
  O  O41  1  0.12597922  0.47030240  0.44722172  1
  O  O42  1  0.37402078  0.02969760  0.44722172  1
  O  O43  1  0.62597922  0.52969760  0.44722172  1
  O  O44  1  0.47030240  0.37402078  0.94722172  1
  O  O45  1  0.52969760  0.87402078  0.94722172  1
  O  O46  1  0.97030240  0.62597922  0.94722172  1
  O  O47  1  0.02969760  0.12597922  0.94722172  1
  O  O48  1  0.12597922  0.02969760  0.55277828  1
  O  O49  1  0.87402078  0.52969760  0.55277828  1
  O  O50  1  0.62597922  0.97030240  0.55277828  1
  O  O51  1  0.37402078  0.47030240  0.55277828  1
  O  O52  1  0.52969760  0.62597922  0.05277828  1
  O  O53  1  0.47030240  0.12597922  0.05277828  1
  O  O54  1  0.02969760  0.37402078  0.05277828  1
  O  O55  1  0.97030240  0.87402078  0.05277828  1
  O  O56  1  0.95345550  0.95345550  0.25000000  1
  O  O57  1  0.04654450  0.45345550  0.25000000  1
  O  O58  1  0.45345550  0.04654450  0.25000000  1
  O  O59  1  0.54654450  0.54654450  0.25000000  1
  O  O60  1  0.45345550  0.45345550  0.75000000  1
  O  O61  1  0.54654450  0.95345550  0.75000000  1
  O  O62  1  0.95345550  0.54654450  0.75000000  1
  O  O63  1  0.04654450  0.04654450  0.75000000  1
