# generated using pymatgen
data_K2Au(IO3)5
_symmetry_space_group_name_H-M   'P 1'
_cell_length_a   8.37332547
_cell_length_b   8.37332547
_cell_length_c   11.87089330
_cell_angle_alpha   90.00000000
_cell_angle_beta   90.00000000
_cell_angle_gamma   90.76851925
_symmetry_Int_Tables_number   1
_chemical_formula_structural   K2Au(IO3)5
_chemical_formula_sum   'K4 Au2 I10 O30'
_cell_volume   832.22408048
_cell_formula_units_Z   2
loop_
 _symmetry_equiv_pos_site_id
 _symmetry_equiv_pos_as_xyz
  1  'x, y, z'
loop_
 _atom_site_type_symbol
 _atom_site_label
 _atom_site_symmetry_multiplicity
 _atom_site_fract_x
 _atom_site_fract_y
 _atom_site_fract_z
 _atom_site_occupancy
  K  K0  1  0.99360141  0.46966493  0.43079128  1
  K  K1  1  0.53033507  0.00639859  0.43079128  1
  K  K2  1  0.00639859  0.53033507  0.93079128  1
  K  K3  1  0.46966493  0.99360141  0.93079128  1
  Au  Au4  1  0.99044838  0.00955162  0.31467406  1
  Au  Au5  1  0.00955162  0.99044838  0.81467406  1
  I  I6  1  0.50090779  0.49909221  0.44315410  1
  I  I7  1  0.49909221  0.50090779  0.94315410  1
  I  I8  1  0.76310840  0.23689160  0.15465112  1
  I  I9  1  0.23689160  0.76310840  0.65465112  1
  I  I10  1  0.25725332  0.74274668  0.21027152  1
  I  I11  1  0.74274668  0.25725332  0.71027152  1
  I  I12  1  0.27468231  0.23776168  0.18770050  1
  I  I13  1  0.76223832  0.72531769  0.18770050  1
  I  I14  1  0.72531769  0.76223832  0.68770050  1
  I  I15  1  0.23776168  0.27468231  0.68770050  1
  O  O16  1  0.63910408  0.36089592  0.51156784  1
  O  O17  1  0.36089592  0.63910408  0.01156784  1
  O  O18  1  0.31318086  0.44838179  0.51727431  1
  O  O19  1  0.55161821  0.68681914  0.51727431  1
  O  O20  1  0.68681914  0.55161821  0.01727431  1
  O  O21  1  0.44838179  0.31318086  0.01727431  1
  O  O22  1  0.96202751  0.27840267  0.09930595  1
  O  O23  1  0.72159733  0.03797249  0.09930595  1
  O  O24  1  0.03797249  0.72159733  0.59930595  1
  O  O25  1  0.27840267  0.96202751  0.59930595  1
  O  O26  1  0.82000825  0.17999175  0.30633598  1
  O  O27  1  0.17999175  0.82000825  0.80633598  1
  O  O28  1  0.22570064  0.54091793  0.26504942  1
  O  O29  1  0.45908207  0.77429936  0.26504942  1
  O  O30  1  0.77429936  0.45908207  0.76504942  1
  O  O31  1  0.54091793  0.22570064  0.76504942  1
  O  O32  1  0.15894498  0.84105502  0.33855883  1
  O  O33  1  0.84105502  0.15894498  0.83855883  1
  O  O34  1  0.27812789  0.03768587  0.12665752  1
  O  O35  1  0.96231413  0.72187211  0.12665752  1
  O  O36  1  0.72187211  0.96231413  0.62665752  1
  O  O37  1  0.03768587  0.27812789  0.62665752  1
  O  O38  1  0.46104608  0.24560866  0.26782342  1
  O  O39  1  0.75439134  0.53895392  0.26782342  1
  O  O40  1  0.53895392  0.75439134  0.76782342  1
  O  O41  1  0.24560866  0.46104608  0.76782342  1
  O  O42  1  0.15738875  0.18586484  0.32317085  1
  O  O43  1  0.81413516  0.84261125  0.32317085  1
  O  O44  1  0.84261125  0.81413516  0.82317085  1
  O  O45  1  0.18586484  0.15738875  0.82317085  1
