# generated using pymatgen
data_Mg3V2(GeO4)3
_symmetry_space_group_name_H-M   'P 1'
_cell_length_a   10.50698362
_cell_length_b   10.50698309
_cell_length_c   10.50698322
_cell_angle_alpha   109.47122088
_cell_angle_beta   109.47121987
_cell_angle_gamma   109.47121994
_symmetry_Int_Tables_number   1
_chemical_formula_structural   Mg3V2(GeO4)3
_chemical_formula_sum   'Mg12 V8 Ge12 O48'
_cell_volume   892.91936749
_cell_formula_units_Z   4
loop_
 _symmetry_equiv_pos_site_id
 _symmetry_equiv_pos_as_xyz
  1  'x, y, z'
loop_
 _atom_site_type_symbol
 _atom_site_label
 _atom_site_symmetry_multiplicity
 _atom_site_fract_x
 _atom_site_fract_y
 _atom_site_fract_z
 _atom_site_occupancy
  Mg  Mg0  1  0.62500000  0.25000000  0.87500000  1
  Mg  Mg1  1  0.87500000  0.75000000  0.62500000  1
  Mg  Mg2  1  0.75000000  0.62500000  0.87500000  1
  Mg  Mg3  1  0.25000000  0.87500000  0.62500000  1
  Mg  Mg4  1  0.87500000  0.62500000  0.25000000  1
  Mg  Mg5  1  0.62500000  0.87500000  0.75000000  1
  Mg  Mg6  1  0.37500000  0.75000000  0.12500000  1
  Mg  Mg7  1  0.12500000  0.25000000  0.37500000  1
  Mg  Mg8  1  0.25000000  0.37500000  0.12500000  1
  Mg  Mg9  1  0.75000000  0.12500000  0.37500000  1
  Mg  Mg10  1  0.12500000  0.37500000  0.75000000  1
  Mg  Mg11  1  0.37500000  0.12500000  0.25000000  1
  V  V12  1  0.50000000  0.50000000  0.50000000  1
  V  V13  1  0.50000000  0.50000000  0.00000000  1
  V  V14  1  0.50000000  0.00000000  0.50000000  1
  V  V15  1  0.00000000  0.50000000  0.50000000  1
  V  V16  1  0.50000000  0.00000000  0.00000000  1
  V  V17  1  0.00000000  0.00000000  0.50000000  1
  V  V18  1  0.00000000  0.50000000  0.00000000  1
  V  V19  1  0.00000000  0.00000000  0.00000000  1
  Ge  Ge20  1  0.87500000  0.12500000  0.75000000  1
  Ge  Ge21  1  0.12500000  0.87500000  0.25000000  1
  Ge  Ge22  1  0.25000000  0.62500000  0.37500000  1
  Ge  Ge23  1  0.12500000  0.75000000  0.87500000  1
  Ge  Ge24  1  0.75000000  0.87500000  0.12500000  1
  Ge  Ge25  1  0.37500000  0.25000000  0.62500000  1
  Ge  Ge26  1  0.62500000  0.75000000  0.37500000  1
  Ge  Ge27  1  0.87500000  0.25000000  0.12500000  1
  Ge  Ge28  1  0.25000000  0.12500000  0.87500000  1
  Ge  Ge29  1  0.75000000  0.37500000  0.62500000  1
  Ge  Ge30  1  0.37500000  0.62500000  0.75000000  1
  Ge  Ge31  1  0.62500000  0.37500000  0.25000000  1
  O  O32  1  0.78951294  0.41717100  0.81688196  1
  O  O33  1  0.08282900  0.87234194  0.39971096  1
  O  O34  1  0.68311804  0.10028904  0.97262998  1
  O  O35  1  0.71048706  0.52737002  0.62765806  1
  O  O36  1  0.71048706  0.68311804  0.08282900  1
  O  O37  1  0.52737002  0.62765806  0.71048706  1
  O  O38  1  0.10028904  0.62765806  0.41717100  1
  O  O39  1  0.62765806  0.71048706  0.52737002  1
  O  O40  1  0.39971096  0.81688196  0.52737002  1
  O  O41  1  0.87234194  0.97262998  0.78951294  1
  O  O42  1  0.97262998  0.78951294  0.87234194  1
  O  O43  1  0.08282900  0.71048706  0.68311804  1
  O  O44  1  0.62765806  0.41717100  0.10028904  1
  O  O45  1  0.52737002  0.39971096  0.81688196  1
  O  O46  1  0.68311804  0.08282900  0.71048706  1
  O  O47  1  0.41717100  0.10028904  0.62765806  1
  O  O48  1  0.81688196  0.52737002  0.39971096  1
  O  O49  1  0.39971096  0.08282900  0.87234194  1
  O  O50  1  0.10028904  0.97262998  0.68311804  1
  O  O51  1  0.60028904  0.18311804  0.47262998  1
  O  O52  1  0.97262998  0.68311804  0.10028904  1
  O  O53  1  0.81688196  0.78951294  0.41717100  1
  O  O54  1  0.87234194  0.39971096  0.08282900  1
  O  O55  1  0.78951294  0.87234194  0.97262998  1
  O  O56  1  0.21048706  0.58282900  0.18311804  1
  O  O57  1  0.91717100  0.12765806  0.60028904  1
  O  O58  1  0.31688196  0.89971096  0.02737002  1
  O  O59  1  0.28951294  0.47262998  0.37234194  1
  O  O60  1  0.28951294  0.31688196  0.91717100  1
  O  O61  1  0.47262998  0.37234194  0.28951294  1
  O  O62  1  0.89971096  0.37234194  0.58282900  1
  O  O63  1  0.37234194  0.28951294  0.47262998  1
  O  O64  1  0.21048706  0.12765806  0.02737002  1
  O  O65  1  0.12765806  0.60028904  0.91717100  1
  O  O66  1  0.18311804  0.21048706  0.58282900  1
  O  O67  1  0.58282900  0.18311804  0.21048706  1
  O  O68  1  0.02737002  0.31688196  0.89971096  1
  O  O69  1  0.89971096  0.02737002  0.31688196  1
  O  O70  1  0.60028904  0.91717100  0.12765806  1
  O  O71  1  0.18311804  0.47262998  0.60028904  1
  O  O72  1  0.58282900  0.89971096  0.37234194  1
  O  O73  1  0.31688196  0.91717100  0.28951294  1
  O  O74  1  0.47262998  0.60028904  0.18311804  1
  O  O75  1  0.37234194  0.58282900  0.89971096  1
  O  O76  1  0.91717100  0.28951294  0.31688196  1
  O  O77  1  0.02737002  0.21048706  0.12765806  1
  O  O78  1  0.12765806  0.02737002  0.21048706  1
  O  O79  1  0.41717100  0.81688196  0.78951294  1
