# generated using pymatgen
data_Cs7(FeS2)4
_symmetry_space_group_name_H-M   'P 1'
_cell_length_a   8.67813508
_cell_length_b   10.59027648
_cell_length_c   15.72672280
_cell_angle_alpha   77.81864647
_cell_angle_beta   73.98116931
_cell_angle_gamma   65.81075117
_symmetry_Int_Tables_number   1
_chemical_formula_structural   Cs7(FeS2)4
_chemical_formula_sum   'Cs14 Fe8 S16'
_cell_volume   1259.31680322
_cell_formula_units_Z   2
loop_
 _symmetry_equiv_pos_site_id
 _symmetry_equiv_pos_as_xyz
  1  'x, y, z'
loop_
 _atom_site_type_symbol
 _atom_site_label
 _atom_site_symmetry_multiplicity
 _atom_site_fract_x
 _atom_site_fract_y
 _atom_site_fract_z
 _atom_site_occupancy
  Cs  Cs0  1  0.23057725  0.24999476  0.75002552  1
  Cs  Cs1  1  0.76942674  0.75000645  0.24997197  1
  Cs  Cs2  1  0.24369349  0.02327871  0.98672986  1
  Cs  Cs3  1  0.25368712  0.47669832  0.51329521  1
  Cs  Cs4  1  0.75630651  0.97671198  0.01328167  1
  Cs  Cs5  1  0.74631563  0.52329041  0.48671373  1
  Cs  Cs6  1  0.00366281  0.86263960  0.60862848  1
  Cs  Cs7  1  0.47490752  0.63734387  0.89141070  1
  Cs  Cs8  1  0.99632944  0.13736284  0.39137291  1
  Cs  Cs9  1  0.52509583  0.36265755  0.10859213  1
  Cs  Cs10  1  0.01266501  0.62114634  0.86040972  1
  Cs  Cs11  1  0.49418776  0.87884164  0.63961946  1
  Cs  Cs12  1  0.98733443  0.37885014  0.13959317  1
  Cs  Cs13  1  0.50581581  0.12115657  0.36038173  1
  Fe  Fe14  1  0.67706400  0.21924379  0.65960713  1
  Fe  Fe15  1  0.55590145  0.28075703  0.84045552  1
  Fe  Fe16  1  0.32294193  0.78076921  0.34038169  1
  Fe  Fe17  1  0.44408766  0.71925412  0.15953730  1
  Fe  Fe18  1  0.90651826  0.10290123  0.77892382  1
  Fe  Fe19  1  0.78829593  0.39709186  0.72115934  1
  Fe  Fe20  1  0.09348944  0.89709890  0.22106430  1
  Fe  Fe21  1  0.21169426  0.60291185  0.27883450  1
  S  S22  1  0.65425115  0.05699707  0.79041467  1
  S  S23  1  0.50160827  0.44301275  0.70966512  1
  S  S24  1  0.34574260  0.94299758  0.20957712  1
  S  S25  1  0.49841204  0.55697843  0.29032670  1
  S  S26  1  0.96429493  0.21199257  0.63012643  1
  S  S27  1  0.80631931  0.28798850  0.86989854  1
  S  S28  1  0.03568166  0.78801937  0.36987194  1
  S  S29  1  0.19368852  0.71202509  0.13010265  1
  S  S30  1  0.67399874  0.67149325  0.04606548  1
  S  S31  1  0.39161100  0.82853653  0.45398472  1
  S  S32  1  0.32598373  0.32850818  0.95394503  1
  S  S33  1  0.60839717  0.17146650  0.54602495  1
  S  S34  1  0.86611847  0.58303706  0.68348433  1
  S  S35  1  0.13261278  0.91697288  0.81653962  1
  S  S36  1  0.13387675  0.41695166  0.31651867  1
  S  S37  1  0.86740456  0.08301537  0.18346420  1
