# generated using pymatgen
data_Ag12Sn7H16(Se11N2)2
_symmetry_space_group_name_H-M   'P 1'
_cell_length_a   6.90325696
_cell_length_b   14.15462557
_cell_length_c   28.04659180
_cell_angle_alpha   100.40052024
_cell_angle_beta   97.06917989
_cell_angle_gamma   90.00000000
_symmetry_Int_Tables_number   1
_chemical_formula_structural   Ag12Sn7H16(Se11N2)2
_chemical_formula_sum   'Ag24 Sn14 H32 Se44 N8'
_cell_volume   2674.30658246
_cell_formula_units_Z   2
loop_
 _symmetry_equiv_pos_site_id
 _symmetry_equiv_pos_as_xyz
  1  'x, y, z'
loop_
 _atom_site_type_symbol
 _atom_site_label
 _atom_site_symmetry_multiplicity
 _atom_site_fract_x
 _atom_site_fract_y
 _atom_site_fract_z
 _atom_site_occupancy
  Ag  Ag0  1  0.52094244  0.01005053  0.08494046  1
  Ag  Ag1  1  0.43600198  0.48994947  0.91505954  1
  Ag  Ag2  1  0.47905756  0.98994947  0.91505954  1
  Ag  Ag3  1  0.56399802  0.51005053  0.08494046  1
  Ag  Ag4  1  0.94357649  0.91853103  0.03105032  1
  Ag  Ag5  1  0.91252617  0.58146897  0.96894968  1
  Ag  Ag6  1  0.05642351  0.08146897  0.96894968  1
  Ag  Ag7  1  0.08747383  0.41853103  0.03105032  1
  Ag  Ag8  1  0.00746201  0.75404988  0.09989876  1
  Ag  Ag9  1  0.90756325  0.74595012  0.90010124  1
  Ag  Ag10  1  0.99253799  0.24595012  0.90010124  1
  Ag  Ag11  1  0.09243675  0.25404988  0.09989876  1
  Ag  Ag12  1  0.65069875  0.95588802  0.39589195  1
  Ag  Ag13  1  0.25480680  0.54411198  0.60410805  1
  Ag  Ag14  1  0.34930125  0.04411198  0.60410805  1
  Ag  Ag15  1  0.74519320  0.45588802  0.39589195  1
  Ag  Ag16  1  0.07955386  0.12631935  0.46415409  1
  Ag  Ag17  1  0.61539977  0.37368065  0.53584591  1
  Ag  Ag18  1  0.92044614  0.87368065  0.53584591  1
  Ag  Ag19  1  0.38460023  0.62631935  0.46415409  1
  Ag  Ag20  1  0.09348182  0.35044731  0.45834918  1
  Ag  Ag21  1  0.63513264  0.14955269  0.54165082  1
  Ag  Ag22  1  0.90651818  0.64955269  0.54165082  1
  Ag  Ag23  1  0.36486736  0.85044731  0.45834918  1
  Sn  Sn24  1  0.47425652  0.75000000  1.00000000  1
  Sn  Sn25  1  0.52574348  0.25000000  0.00000000  1
  Sn  Sn26  1  0.01430047  0.01294530  0.18134769  1
  Sn  Sn27  1  0.83295278  0.48705470  0.81865231  1
  Sn  Sn28  1  0.98569953  0.98705470  0.81865231  1
  Sn  Sn29  1  0.16704722  0.51294530  0.18134769  1
  Sn  Sn30  1  0.57007080  0.06653779  0.26933314  1
  Sn  Sn31  1  0.30073766  0.43346221  0.73066686  1
  Sn  Sn32  1  0.42992920  0.93346221  0.73066686  1
  Sn  Sn33  1  0.69926234  0.56653779  0.26933314  1
  Sn  Sn34  1  0.56636652  0.21510262  0.40815113  1
  Sn  Sn35  1  0.15821540  0.28489738  0.59184887  1
  Sn  Sn36  1  0.43363348  0.78489738  0.59184887  1
  Sn  Sn37  1  0.84178460  0.71510262  0.40815113  1
  H  H38  1  0.50365696  0.80519891  0.20865643  1
  H  H39  1  0.29500053  0.69480109  0.79134357  1
  H  H40  1  0.49634304  0.19480109  0.79134357  1
  H  H41  1  0.70499947  0.30519891  0.20865643  1
  H  H42  1  0.64180279  0.76755801  0.16392599  1
  H  H43  1  0.47787681  0.73244199  0.83607401  1
  H  H44  1  0.35819721  0.23244199  0.83607401  1
  H  H45  1  0.52212319  0.26755801  0.16392599  1
  H  H46  1  0.46115879  0.84452503  0.15484909  1
  H  H47  1  0.30630970  0.65547497  0.84515091  1
  H  H48  1  0.53884121  0.15547497  0.84515091  1
  H  H49  1  0.69369030  0.34452503  0.15484909  1
  H  H50  1  0.40174851  0.73080389  0.15725955  1
  H  H51  1  0.24448896  0.76919611  0.84274045  1
  H  H52  1  0.59825149  0.26919611  0.84274045  1
  H  H53  1  0.75551104  0.23080389  0.15725955  1
  H  H54  1  0.25010385  0.92607942  0.31651351  1
  H  H55  1  0.93359034  0.57392058  0.68348649  1
  H  H56  1  0.74989615  0.07392058  0.68348649  1
  H  H57  1  0.06640966  0.42607942  0.31651351  1
  H  H58  1  0.00350437  0.91103355  0.29817153  1
  H  H59  1  0.70533284  0.58896645  0.70182847  1
  H  H60  1  0.99649563  0.08896645  0.70182847  1
  H  H61  1  0.29466716  0.41103355  0.29817153  1
  H  H62  1  0.08747036  0.92550971  0.35787981  1
  H  H63  1  0.72959055  0.57449029  0.64212019  1
  H  H64  1  0.91252964  0.07449029  0.64212019  1
  H  H65  1  0.27040945  0.42550971  0.35787981  1
  H  H66  1  0.09626409  0.01849620  0.32798598  1
  H  H67  1  0.76827811  0.48150380  0.67201402  1
  H  H68  1  0.90373591  0.98150380  0.67201402  1
  H  H69  1  0.23172189  0.51849620  0.32798598  1
  Se  Se70  1  0.28825230  0.85716124  0.06323201  1
  Se  Se71  1  0.22502029  0.64283876  0.93676799  1
  Se  Se72  1  0.71174770  0.14283876  0.93676799  1
  Se  Se73  1  0.77497971  0.35716124  0.06323201  1
  Se  Se74  1  0.72665197  0.64643592  0.04285428  1
  Se  Se75  1  0.68379769  0.85356408  0.95714572  1
  Se  Se76  1  0.27334803  0.35356408  0.95714572  1
  Se  Se77  1  0.31620231  0.14643592  0.04285428  1
  Se  Se78  1  0.88273691  0.07011277  0.10200749  1
  Se  Se79  1  0.78072942  0.42988723  0.89799251  1
  Se  Se80  1  0.11726309  0.92988723  0.89799251  1
  Se  Se81  1  0.21927058  0.57011277  0.10200749  1
  Se  Se82  1  0.99163066  0.84062782  0.19074571  1
  Se  Se83  1  0.80088494  0.65937218  0.80925429  1
  Se  Se84  1  0.00836934  0.15937218  0.80925429  1
  Se  Se85  1  0.19911506  0.34062782  0.19074571  1
  Se  Se86  1  0.90264000  0.13455639  0.25508269  1
  Se  Se87  1  0.64755731  0.36544361  0.74491731  1
  Se  Se88  1  0.09736000  0.86544361  0.74491731  1
  Se  Se89  1  0.35244269  0.63455639  0.25508269  1
  Se  Se90  1  0.38174206  0.06444658  0.18325346  1
  Se  Se91  1  0.19848861  0.43555342  0.81674654  1
  Se  Se92  1  0.61825794  0.93555342  0.81674654  1
  Se  Se93  1  0.80151139  0.56444658  0.18325346  1
  Se  Se94  1  0.59010308  0.90914979  0.30038782  1
  Se  Se95  1  0.28971526  0.59085021  0.69961218  1
  Se  Se96  1  0.40989692  0.09085021  0.69961218  1
  Se  Se97  1  0.71028474  0.40914979  0.30038782  1
  Se  Se98  1  0.36978541  0.19018148  0.32204088  1
  Se  Se99  1  0.04774453  0.30981852  0.67795912  1
  Se  Se100  1  0.63021459  0.80981852  0.67795912  1
  Se  Se101  1  0.95225547  0.69018148  0.32204088  1
  Se  Se102  1  0.92617677  0.20883366  0.39398097  1
  Se  Se103  1  0.53219581  0.29116634  0.60601903  1
  Se  Se104  1  0.07382323  0.79116634  0.60601903  1
  Se  Se105  1  0.46780419  0.70883366  0.39398097  1
  Se  Se106  1  0.46055560  0.08239012  0.45332609  1
  Se  Se107  1  0.00722951  0.41760988  0.54667391  1
  Se  Se108  1  0.53944440  0.91760988  0.54667391  1
  Se  Se109  1  0.99277049  0.58239012  0.45332609  1
  Se  Se110  1  0.47110208  0.38762120  0.44616753  1
  Se  Se111  1  0.02493455  0.11237880  0.55383247  1
  Se  Se112  1  0.52889792  0.61237880  0.55383247  1
  Se  Se113  1  0.97506545  0.88762120  0.44616753  1
  N  N114  1  0.50175735  0.78654822  0.17118253  1
  N  N115  1  0.33057483  0.71345178  0.82881747  1
  N  N116  1  0.49824265  0.21345178  0.82881747  1
  N  N117  1  0.66942517  0.28654822  0.17118253  1
  N  N118  1  0.10956241  0.94481079  0.32521353  1
  N  N119  1  0.78434888  0.55518921  0.67478647  1
  N  N120  1  0.89043759  0.05518921  0.67478647  1
  N  N121  1  0.21565112  0.44481079  0.32521353  1
