# generated using pymatgen
data_KCuSb3F18
_symmetry_space_group_name_H-M   'P 1'
_cell_length_a   9.90435743
_cell_length_b   11.19389576
_cell_length_c   14.72135256
_cell_angle_alpha   90.00000000
_cell_angle_beta   90.00000000
_cell_angle_gamma   90.00000000
_symmetry_Int_Tables_number   1
_chemical_formula_structural   KCuSb3F18
_chemical_formula_sum   'K4 Cu4 Sb12 F72'
_cell_volume   1632.13198921
_cell_formula_units_Z   4
loop_
 _symmetry_equiv_pos_site_id
 _symmetry_equiv_pos_as_xyz
  1  'x, y, z'
loop_
 _atom_site_type_symbol
 _atom_site_label
 _atom_site_symmetry_multiplicity
 _atom_site_fract_x
 _atom_site_fract_y
 _atom_site_fract_z
 _atom_site_occupancy
  K  K0  1  0.53324151  0.92176171  0.75000000  1
  K  K1  1  0.96675849  0.42176171  0.75000000  1
  K  K2  1  0.46675849  0.07823829  0.25000000  1
  K  K3  1  0.03324151  0.57823829  0.25000000  1
  Cu  Cu4  1  -0.00000000  0.00000000  0.50000000  1
  Cu  Cu5  1  0.50000000  0.50000000  0.00000000  1
  Cu  Cu6  1  -0.00000000  0.00000000  0.00000000  1
  Cu  Cu7  1  0.50000000  0.50000000  0.50000000  1
  Sb  Sb8  1  0.09631644  0.02502828  0.75000000  1
  Sb  Sb9  1  0.40368356  0.52502828  0.75000000  1
  Sb  Sb10  1  0.90368356  0.97497172  0.25000000  1
  Sb  Sb11  1  0.59631644  0.47497172  0.25000000  1
  Sb  Sb12  1  0.69531144  0.20190606  0.54729223  1
  Sb  Sb13  1  0.80468856  0.70190606  0.95270777  1
  Sb  Sb14  1  0.30468856  0.79809394  0.04729223  1
  Sb  Sb15  1  0.19531144  0.29809394  0.45270777  1
  Sb  Sb16  1  0.30468856  0.79809394  0.45270777  1
  Sb  Sb17  1  0.19531144  0.29809394  0.04729223  1
  Sb  Sb18  1  0.69531144  0.20190606  0.95270777  1
  Sb  Sb19  1  0.80468856  0.70190606  0.54729223  1
  F  F20  1  0.09683756  0.02895529  0.61561511  1
  F  F21  1  0.40316244  0.52895529  0.88438489  1
  F  F22  1  0.90316244  0.97104471  0.11561511  1
  F  F23  1  0.59683756  0.47104471  0.38438489  1
  F  F24  1  0.90316244  0.97104471  0.38438489  1
  F  F25  1  0.59683756  0.47104471  0.11561511  1
  F  F26  1  0.09683756  0.02895529  0.88438489  1
  F  F27  1  0.40316244  0.52895529  0.61561511  1
  F  F28  1  0.12102019  0.85753434  0.75000000  1
  F  F29  1  0.37897981  0.35753434  0.75000000  1
  F  F30  1  0.87897981  0.14246566  0.25000000  1
  F  F31  1  0.62102019  0.64246566  0.25000000  1
  F  F32  1  0.28747409  0.04390306  0.75000000  1
  F  F33  1  0.21252591  0.54390306  0.75000000  1
  F  F34  1  0.71252591  0.95609694  0.25000000  1
  F  F35  1  0.78747409  0.45609694  0.25000000  1
  F  F36  1  0.07747691  0.19462947  0.75000000  1
  F  F37  1  0.42252309  0.69462947  0.75000000  1
  F  F38  1  0.92252309  0.80537053  0.25000000  1
  F  F39  1  0.57747691  0.30537053  0.25000000  1
  F  F40  1  0.90580126  0.00733669  0.75000000  1
  F  F41  1  0.59419874  0.50733669  0.75000000  1
  F  F42  1  0.09419874  0.99266331  0.25000000  1
  F  F43  1  0.40580126  0.49266331  0.25000000  1
  F  F44  1  0.83468460  0.07193372  0.54819389  1
  F  F45  1  0.66531540  0.57193372  0.95180611  1
  F  F46  1  0.16531540  0.92806628  0.04819389  1
  F  F47  1  0.33468460  0.42806628  0.45180611  1
  F  F48  1  0.16531540  0.92806628  0.45180611  1
  F  F49  1  0.33468460  0.42806628  0.04819389  1
  F  F50  1  0.83468460  0.07193372  0.95180611  1
  F  F51  1  0.66531540  0.57193372  0.54819389  1
  F  F52  1  0.79860809  0.28821682  0.46109220  1
  F  F53  1  0.70139191  0.78821682  0.03890780  1
  F  F54  1  0.20139191  0.71178318  0.96109220  1
  F  F55  1  0.29860809  0.21178318  0.53890780  1
  F  F56  1  0.20139191  0.71178318  0.53890780  1
  F  F57  1  0.29860809  0.21178318  0.96109220  1
  F  F58  1  0.79860809  0.28821682  0.03890780  1
  F  F59  1  0.70139191  0.78821682  0.46109220  1
  F  F60  1  0.60124296  0.12285888  0.45190184  1
  F  F61  1  0.89875704  0.62285888  0.04809816  1
  F  F62  1  0.39875704  0.87714112  0.95190184  1
  F  F63  1  0.10124296  0.37714112  0.54809816  1
  F  F64  1  0.39875704  0.87714112  0.54809816  1
  F  F65  1  0.10124296  0.37714112  0.95190184  1
  F  F66  1  0.60124296  0.12285888  0.04809816  1
  F  F67  1  0.89875704  0.62285888  0.45190184  1
  F  F68  1  0.56141322  0.32768505  0.55166411  1
  F  F69  1  0.93858678  0.82768505  0.94833589  1
  F  F70  1  0.43858678  0.67231495  0.05166411  1
  F  F71  1  0.06141322  0.17231495  0.44833589  1
  F  F72  1  0.43858678  0.67231495  0.44833589  1
  F  F73  1  0.06141322  0.17231495  0.05166411  1
  F  F74  1  0.56141322  0.32768505  0.94833589  1
  F  F75  1  0.93858678  0.82768505  0.55166411  1
  F  F76  1  0.59819688  0.10993940  0.63458189  1
  F  F77  1  0.90180312  0.60993940  0.86541811  1
  F  F78  1  0.40180312  0.89006060  0.13458189  1
  F  F79  1  0.09819688  0.39006060  0.36541811  1
  F  F80  1  0.40180312  0.89006060  0.36541811  1
  F  F81  1  0.09819688  0.39006060  0.13458189  1
  F  F82  1  0.59819688  0.10993940  0.86541811  1
  F  F83  1  0.90180312  0.60993940  0.63458189  1
  F  F84  1  0.79178197  0.27825682  0.64371319  1
  F  F85  1  0.70821803  0.77825682  0.85628681  1
  F  F86  1  0.20821803  0.72174318  0.14371319  1
  F  F87  1  0.29178197  0.22174318  0.35628681  1
  F  F88  1  0.20821803  0.72174318  0.35628681  1
  F  F89  1  0.29178197  0.22174318  0.14371319  1
  F  F90  1  0.79178197  0.27825682  0.85628681  1
  F  F91  1  0.70821803  0.77825682  0.64371319  1
