# generated using pymatgen
data_VPbSeO5F
_symmetry_space_group_name_H-M   'P 1'
_cell_length_a   8.30227029
_cell_length_b   10.01049541
_cell_length_c   13.23116318
_cell_angle_alpha   90.00000000
_cell_angle_beta   90.00000000
_cell_angle_gamma   90.00000000
_symmetry_Int_Tables_number   1
_chemical_formula_structural   VPbSeO5F
_chemical_formula_sum   'V8 Pb8 Se8 O40 F8'
_cell_volume   1099.63983679
_cell_formula_units_Z   8
loop_
 _symmetry_equiv_pos_site_id
 _symmetry_equiv_pos_as_xyz
  1  'x, y, z'
loop_
 _atom_site_type_symbol
 _atom_site_label
 _atom_site_symmetry_multiplicity
 _atom_site_fract_x
 _atom_site_fract_y
 _atom_site_fract_z
 _atom_site_occupancy
  V  V0  1  0.41851137  0.04967870  0.90391775  1
  V  V1  1  0.08148863  0.54967870  0.09608225  1
  V  V2  1  0.91851137  0.95032130  0.59608225  1
  V  V3  1  0.58148863  0.45032130  0.40391775  1
  V  V4  1  0.58148863  0.95032130  0.09608225  1
  V  V5  1  0.91851137  0.45032130  0.90391775  1
  V  V6  1  0.08148863  0.04967870  0.40391775  1
  V  V7  1  0.41851137  0.54967870  0.59608225  1
  Pb  Pb8  1  0.35521671  0.26340400  0.17133605  1
  Pb  Pb9  1  0.14478329  0.76340400  0.82866395  1
  Pb  Pb10  1  0.85521671  0.73659600  0.32866395  1
  Pb  Pb11  1  0.64478329  0.23659600  0.67133605  1
  Pb  Pb12  1  0.64478329  0.73659600  0.82866395  1
  Pb  Pb13  1  0.85521671  0.23659600  0.17133605  1
  Pb  Pb14  1  0.14478329  0.26340400  0.67133605  1
  Pb  Pb15  1  0.35521671  0.76340400  0.32866395  1
  Se  Se16  1  0.82507127  0.04958384  0.91097282  1
  Se  Se17  1  0.67492873  0.54958384  0.08902718  1
  Se  Se18  1  0.32507127  0.95041616  0.58902718  1
  Se  Se19  1  0.17492873  0.45041616  0.41097282  1
  Se  Se20  1  0.17492873  0.95041616  0.08902718  1
  Se  Se21  1  0.32507127  0.45041616  0.91097282  1
  Se  Se22  1  0.67492873  0.04958384  0.41097282  1
  Se  Se23  1  0.82507127  0.54958384  0.58902718  1
  O  O24  1  0.86474603  0.88525233  0.89129255  1
  O  O25  1  0.63525397  0.38525233  0.10870745  1
  O  O26  1  0.36474603  0.11474767  0.60870745  1
  O  O27  1  0.13525397  0.61474767  0.39129255  1
  O  O28  1  0.13525397  0.11474767  0.10870745  1
  O  O29  1  0.36474603  0.61474767  0.89129255  1
  O  O30  1  0.63525397  0.88525233  0.39129255  1
  O  O31  1  0.86474603  0.38525233  0.60870745  1
  O  O32  1  0.77052775  0.05326352  0.04073580  1
  O  O33  1  0.72947225  0.55326352  0.95926420  1
  O  O34  1  0.27052775  0.94673648  0.45926420  1
  O  O35  1  0.22947225  0.44673648  0.54073580  1
  O  O36  1  0.22947225  0.94673648  0.95926420  1
  O  O37  1  0.27052775  0.44673648  0.04073580  1
  O  O38  1  0.72947225  0.05326352  0.54073580  1
  O  O39  1  0.77052775  0.55326352  0.45926420  1
  O  O40  1  0.63812614  0.06741273  0.84854352  1
  O  O41  1  0.86187386  0.56741273  0.15145648  1
  O  O42  1  0.13812614  0.93258727  0.65145648  1
  O  O43  1  0.36187386  0.43258727  0.34854352  1
  O  O44  1  0.36187386  0.93258727  0.15145648  1
  O  O45  1  0.13812614  0.43258727  0.84854352  1
  O  O46  1  0.86187386  0.06741273  0.34854352  1
  O  O47  1  0.63812614  0.56741273  0.65145648  1
  O  O48  1  0.45519974  0.12614231  0.01780033  1
  O  O49  1  0.04480026  0.62614231  0.98219967  1
  O  O50  1  0.95519974  0.87385769  0.48219967  1
  O  O51  1  0.54480026  0.37385769  0.51780033  1
  O  O52  1  0.54480026  0.87385769  0.98219967  1
  O  O53  1  0.95519974  0.37385769  0.01780033  1
  O  O54  1  0.04480026  0.12614231  0.51780033  1
  O  O55  1  0.45519974  0.62614231  0.48219967  1
  O  O56  1  0.32419791  0.16146191  0.83328037  1
  O  O57  1  0.17580209  0.66146191  0.16671963  1
  O  O58  1  0.82419791  0.83853809  0.66671963  1
  O  O59  1  0.67580209  0.33853809  0.33328037  1
  O  O60  1  0.67580209  0.83853809  0.16671963  1
  O  O61  1  0.82419791  0.33853809  0.83328037  1
  O  O62  1  0.17580209  0.16146191  0.33328037  1
  O  O63  1  0.32419791  0.66146191  0.66671963  1
  F  F64  1  0.40257794  0.89917013  0.80058834  1
  F  F65  1  0.09742206  0.39917013  0.19941166  1
  F  F66  1  0.90257794  0.10082987  0.69941166  1
  F  F67  1  0.59742206  0.60082987  0.30058834  1
  F  F68  1  0.59742206  0.10082987  0.19941166  1
  F  F69  1  0.90257794  0.60082987  0.80058834  1
  F  F70  1  0.09742206  0.89917013  0.30058834  1
  F  F71  1  0.40257794  0.39917013  0.69941166  1
