# generated using pymatgen
data_HgAsF7
_symmetry_space_group_name_H-M   'P 1'
_cell_length_a   7.29889635
_cell_length_b   8.10996017
_cell_length_c   10.21903984
_cell_angle_alpha   90.00000000
_cell_angle_beta   90.00000000
_cell_angle_gamma   102.94469126
_symmetry_Int_Tables_number   1
_chemical_formula_structural   HgAsF7
_chemical_formula_sum   'Hg4 As4 F28'
_cell_volume   589.53082356
_cell_formula_units_Z   4
loop_
 _symmetry_equiv_pos_site_id
 _symmetry_equiv_pos_as_xyz
  1  'x, y, z'
loop_
 _atom_site_type_symbol
 _atom_site_label
 _atom_site_symmetry_multiplicity
 _atom_site_fract_x
 _atom_site_fract_y
 _atom_site_fract_z
 _atom_site_occupancy
  Hg  Hg0  1  0.27636066  0.58988714  0.74813577  1
  Hg  Hg1  1  0.72363934  0.91011286  0.24813577  1
  Hg  Hg2  1  0.72363934  0.41011286  0.25186423  1
  Hg  Hg3  1  0.27636066  0.08988714  0.75186423  1
  As  As4  1  0.19421164  0.29715753  0.06464179  1
  As  As5  1  0.80578836  0.20284247  0.56464179  1
  As  As6  1  0.80578836  0.70284247  0.93535821  1
  As  As7  1  0.19421164  0.79715753  0.43535821  1
  F  F8  1  0.34446607  0.35133470  0.20153576  1
  F  F9  1  0.65553393  0.14866530  0.70153576  1
  F  F10  1  0.65553393  0.64866530  0.79846424  1
  F  F11  1  0.34446607  0.85133470  0.29846424  1
  F  F12  1  0.07717096  0.10766784  0.14002356  1
  F  F13  1  0.92282904  0.39233216  0.64002356  1
  F  F14  1  0.92282904  0.89233216  0.85997644  1
  F  F15  1  0.07717096  0.60766784  0.35997644  1
  F  F16  1  0.30808102  0.49077948  0.98791561  1
  F  F17  1  0.69191898  0.00922052  0.48791561  1
  F  F18  1  0.69191898  0.50922052  0.01208439  1
  F  F19  1  0.30808102  0.99077948  0.51208439  1
  F  F20  1  0.05358199  0.24505220  0.92194814  1
  F  F21  1  0.94641801  0.25494780  0.42194814  1
  F  F22  1  0.94641801  0.75494780  0.07805186  1
  F  F23  1  0.05358199  0.74505220  0.57805186  1
  F  F24  1  0.02973332  0.40486221  0.13327330  1
  F  F25  1  0.97026668  0.09513779  0.63327330  1
  F  F26  1  0.97026668  0.59513779  0.86672670  1
  F  F27  1  0.02973332  0.90486221  0.36672670  1
  F  F28  1  0.36110105  0.19286482  0.99162501  1
  F  F29  1  0.63889895  0.30713518  0.49162501  1
  F  F30  1  0.63889895  0.80713518  0.00837499  1
  F  F31  1  0.36110105  0.69286482  0.50837499  1
  F  F32  1  0.32081463  0.34928278  0.69152315  1
  F  F33  1  0.67918537  0.15071722  0.19152315  1
  F  F34  1  0.67918537  0.65071722  0.30847685  1
  F  F35  1  0.32081463  0.84928278  0.80847685  1
