# generated using pymatgen
data_Rb2Cu2Sb2S5
_symmetry_space_group_name_H-M   'P 1'
_cell_length_a   6.68386506
_cell_length_b   10.46244755
_cell_length_c   16.76607485
_cell_angle_alpha   90.00000000
_cell_angle_beta   99.79016714
_cell_angle_gamma   90.00000000
_symmetry_Int_Tables_number   1
_chemical_formula_structural   Rb2Cu2Sb2S5
_chemical_formula_sum   'Rb8 Cu8 Sb8 S20'
_cell_volume   1155.37049983
_cell_formula_units_Z   4
loop_
 _symmetry_equiv_pos_site_id
 _symmetry_equiv_pos_as_xyz
  1  'x, y, z'
loop_
 _atom_site_type_symbol
 _atom_site_label
 _atom_site_symmetry_multiplicity
 _atom_site_fract_x
 _atom_site_fract_y
 _atom_site_fract_z
 _atom_site_occupancy
  Rb  Rb0  1  0.73940957  0.85888926  0.53793681  1
  Rb  Rb1  1  0.76059043  0.35888926  0.46206319  1
  Rb  Rb2  1  0.26059043  0.14111074  0.46206319  1
  Rb  Rb3  1  0.23940957  0.64111074  0.53793681  1
  Rb  Rb4  1  0.23483025  0.61668665  0.93289530  1
  Rb  Rb5  1  0.26516975  0.11668665  0.06710470  1
  Rb  Rb6  1  0.76516975  0.38331335  0.06710470  1
  Rb  Rb7  1  0.73483025  0.88331335  0.93289530  1
  Cu  Cu8  1  0.07682977  0.86072741  0.74602020  1
  Cu  Cu9  1  0.42317023  0.36072741  0.25397980  1
  Cu  Cu10  1  0.92317023  0.13927259  0.25397980  1
  Cu  Cu11  1  0.57682977  0.63927259  0.74602020  1
  Cu  Cu12  1  0.02222240  0.14826652  0.64608077  1
  Cu  Cu13  1  0.47777760  0.64826652  0.35391923  1
  Cu  Cu14  1  0.97777760  0.85173348  0.35391923  1
  Cu  Cu15  1  0.52222240  0.35173348  0.64608077  1
  Sb  Sb16  1  0.51088099  0.03676656  0.71664432  1
  Sb  Sb17  1  0.98911901  0.53676656  0.28335568  1
  Sb  Sb18  1  0.48911901  0.96323344  0.28335568  1
  Sb  Sb19  1  0.01088099  0.46323344  0.71664432  1
  Sb  Sb20  1  0.11909190  0.14991440  0.81746568  1
  Sb  Sb21  1  0.38090810  0.64991440  0.18253432  1
  Sb  Sb22  1  0.88090810  0.85008560  0.18253432  1
  Sb  Sb23  1  0.61909190  0.35008560  0.81746568  1
  S  S24  1  0.67429256  0.15910172  0.61563035  1
  S  S25  1  0.82570744  0.65910172  0.38436965  1
  S  S26  1  0.32570744  0.84089828  0.38436965  1
  S  S27  1  0.17429256  0.34089828  0.61563035  1
  S  S28  1  0.19289331  0.96242268  0.63162678  1
  S  S29  1  0.30710669  0.46242268  0.36837322  1
  S  S30  1  0.80710669  0.03757732  0.36837322  1
  S  S31  1  0.69289331  0.53757732  0.63162678  1
  S  S32  1  0.21891311  0.94545006  0.87605943  1
  S  S33  1  0.28108689  0.44545006  0.12394057  1
  S  S34  1  0.78108689  0.05454994  0.12394057  1
  S  S35  1  0.71891311  0.55454994  0.87605943  1
  S  S36  1  0.72019831  0.84316087  0.73247096  1
  S  S37  1  0.77980169  0.34316087  0.26752904  1
  S  S38  1  0.27980169  0.15683913  0.26752904  1
  S  S39  1  0.22019831  0.65683913  0.73247096  1
  S  S40  1  0.35603582  0.30673197  0.90315809  1
  S  S41  1  0.14396418  0.80673197  0.09684191  1
  S  S42  1  0.64396418  0.69326803  0.09684191  1
  S  S43  1  0.85603582  0.19326803  0.90315809  1
