# generated using pymatgen
data_Ba8U2PdSe16
_symmetry_space_group_name_H-M   'P 1'
_cell_length_a   9.62100997
_cell_length_b   12.41982421
_cell_length_c   14.07088651
_cell_angle_alpha   90.00000000
_cell_angle_beta   90.00000000
_cell_angle_gamma   90.00000000
_symmetry_Int_Tables_number   1
_chemical_formula_structural   Ba8U2PdSe16
_chemical_formula_sum   'Ba16 U4 Pd2 Se32'
_cell_volume   1681.34785357
_cell_formula_units_Z   2
loop_
 _symmetry_equiv_pos_site_id
 _symmetry_equiv_pos_as_xyz
  1  'x, y, z'
loop_
 _atom_site_type_symbol
 _atom_site_label
 _atom_site_symmetry_multiplicity
 _atom_site_fract_x
 _atom_site_fract_y
 _atom_site_fract_z
 _atom_site_occupancy
  Ba  Ba0  1  0.89138546  0.33841584  0.74477210  1
  Ba  Ba1  1  0.10861454  0.66158416  0.74477210  1
  Ba  Ba2  1  0.39138546  0.16158416  0.75522790  1
  Ba  Ba3  1  0.60861454  0.83841584  0.75522790  1
  Ba  Ba4  1  0.10861454  0.66158416  0.25522790  1
  Ba  Ba5  1  0.89138546  0.33841584  0.25522790  1
  Ba  Ba6  1  0.60861454  0.83841584  0.24477210  1
  Ba  Ba7  1  0.39138546  0.16158416  0.24477210  1
  Ba  Ba8  1  0.79141464  0.08632807  0.50000000  1
  Ba  Ba9  1  0.20858536  0.91367193  0.50000000  1
  Ba  Ba10  1  0.29141464  0.41367193  -0.00000000  1
  Ba  Ba11  1  0.70858536  0.58632807  -0.00000000  1
  Ba  Ba12  1  0.23645950  0.34243319  0.50000000  1
  Ba  Ba13  1  0.76354050  0.65756681  0.50000000  1
  Ba  Ba14  1  0.73645950  0.15756681  -0.00000000  1
  Ba  Ba15  1  0.26354050  0.84243319  -0.00000000  1
  U  U16  1  0.50000000  0.50000000  0.74409531  1
  U  U17  1  -0.00000000  -0.00000000  0.75590469  1
  U  U18  1  0.50000000  0.50000000  0.25590469  1
  U  U19  1  -0.00000000  -0.00000000  0.24409531  1
  Pd  Pd20  1  0.50000000  0.50000000  0.50000000  1
  Pd  Pd21  1  -0.00000000  -0.00000000  -0.00000000  1
  Se  Se22  1  0.54174692  0.90787817  0.50000000  1
  Se  Se23  1  0.45825308  0.09212183  0.50000000  1
  Se  Se24  1  0.04174692  0.59212183  -0.00000000  1
  Se  Se25  1  0.95825308  0.40787817  -0.00000000  1
  Se  Se26  1  0.91539395  0.42661046  0.50000000  1
  Se  Se27  1  0.08460605  0.57338954  0.50000000  1
  Se  Se28  1  0.41539395  0.07338954  -0.00000000  1
  Se  Se29  1  0.58460605  0.92661046  -0.00000000  1
  Se  Se30  1  0.57808105  0.35038271  0.61232564  1
  Se  Se31  1  0.42191895  0.64961729  0.61232564  1
  Se  Se32  1  0.07808105  0.14961729  0.88767436  1
  Se  Se33  1  0.92191895  0.85038271  0.88767436  1
  Se  Se34  1  0.42191895  0.64961729  0.38767436  1
  Se  Se35  1  0.57808105  0.35038271  0.38767436  1
  Se  Se36  1  0.92191895  0.85038271  0.11232564  1
  Se  Se37  1  0.07808105  0.14961729  0.11232564  1
  Se  Se38  1  0.58642926  0.35119166  0.87403441  1
  Se  Se39  1  0.41357074  0.64880834  0.87403441  1
  Se  Se40  1  0.08642926  0.14880834  0.62596559  1
  Se  Se41  1  0.91357074  0.85119166  0.62596559  1
  Se  Se42  1  0.41357074  0.64880834  0.12596559  1
  Se  Se43  1  0.58642926  0.35119166  0.12596559  1
  Se  Se44  1  0.91357074  0.85119166  0.37403441  1
  Se  Se45  1  0.08642926  0.14880834  0.37403441  1
  Se  Se46  1  0.73067176  0.09158567  0.75054696  1
  Se  Se47  1  0.26932824  0.90841433  0.75054696  1
  Se  Se48  1  0.23067176  0.40841433  0.74945304  1
  Se  Se49  1  0.76932824  0.59158567  0.74945304  1
  Se  Se50  1  0.26932824  0.90841433  0.24945304  1
  Se  Se51  1  0.73067176  0.09158567  0.24945304  1
  Se  Se52  1  0.76932824  0.59158567  0.25054696  1
  Se  Se53  1  0.23067176  0.40841433  0.25054696  1
