# generated using pymatgen
data_Zr(Zn10Ni)2
_symmetry_space_group_name_H-M   'P 1'
_cell_length_a   9.86326344
_cell_length_b   9.86326344
_cell_length_c   9.86326344
_cell_angle_alpha   60.00000000
_cell_angle_beta   60.00000000
_cell_angle_gamma   60.00000000
_symmetry_Int_Tables_number   1
_chemical_formula_structural   Zr(Zn10Ni)2
_chemical_formula_sum   'Zr2 Zn40 Ni4'
_cell_volume   678.49538876
_cell_formula_units_Z   2
loop_
 _symmetry_equiv_pos_site_id
 _symmetry_equiv_pos_as_xyz
  1  'x, y, z'
loop_
 _atom_site_type_symbol
 _atom_site_label
 _atom_site_symmetry_multiplicity
 _atom_site_fract_x
 _atom_site_fract_y
 _atom_site_fract_z
 _atom_site_occupancy
  Zr  Zr0  1  0.12500000  0.12500000  0.12500000  1
  Zr  Zr1  1  0.87500000  0.87500000  0.87500000  1
  Zn  Zn2  1  0.32305971  0.32305971  0.05704068  1
  Zn  Zn3  1  0.79683990  0.05704068  0.32305971  1
  Zn  Zn4  1  0.05704068  0.79683990  0.32305971  1
  Zn  Zn5  1  0.32305971  0.32305971  0.79683990  1
  Zn  Zn6  1  0.05704068  0.32305971  0.32305971  1
  Zn  Zn7  1  0.32305971  0.79683990  0.05704068  1
  Zn  Zn8  1  0.32305971  0.05704068  0.79683990  1
  Zn  Zn9  1  0.79683990  0.32305971  0.32305971  1
  Zn  Zn10  1  0.32305971  0.05704068  0.32305971  1
  Zn  Zn11  1  0.05704068  0.32305971  0.79683990  1
  Zn  Zn12  1  0.79683990  0.32305971  0.05704068  1
  Zn  Zn13  1  0.32305971  0.79683990  0.32305971  1
  Zn  Zn14  1  0.67694029  0.67694029  0.94295932  1
  Zn  Zn15  1  0.20316010  0.94295932  0.67694029  1
  Zn  Zn16  1  0.94295932  0.20316010  0.67694029  1
  Zn  Zn17  1  0.67694029  0.67694029  0.20316010  1
  Zn  Zn18  1  0.94295932  0.67694029  0.67694029  1
  Zn  Zn19  1  0.67694029  0.20316010  0.94295932  1
  Zn  Zn20  1  0.67694029  0.94295932  0.20316010  1
  Zn  Zn21  1  0.20316010  0.67694029  0.67694029  1
  Zn  Zn22  1  0.67694029  0.94295932  0.67694029  1
  Zn  Zn23  1  0.94295932  0.67694029  0.20316010  1
  Zn  Zn24  1  0.20316010  0.67694029  0.94295932  1
  Zn  Zn25  1  0.67694029  0.20316010  0.67694029  1
  Zn  Zn26  1  0.48729242  0.76270758  0.76270758  1
  Zn  Zn27  1  0.76270758  0.48729242  0.48729242  1
  Zn  Zn28  1  0.76270758  0.48729242  0.76270758  1
  Zn  Zn29  1  0.48729242  0.76270758  0.48729242  1
  Zn  Zn30  1  0.76270758  0.76270758  0.48729242  1
  Zn  Zn31  1  0.48729242  0.48729242  0.76270758  1
  Zn  Zn32  1  0.51270758  0.23729242  0.23729242  1
  Zn  Zn33  1  0.23729242  0.51270758  0.51270758  1
  Zn  Zn34  1  0.23729242  0.51270758  0.23729242  1
  Zn  Zn35  1  0.51270758  0.23729242  0.51270758  1
  Zn  Zn36  1  0.23729242  0.23729242  0.51270758  1
  Zn  Zn37  1  0.51270758  0.51270758  0.23729242  1
  Zn  Zn38  1  -0.00000000  -0.00000000  0.50000000  1
  Zn  Zn39  1  -0.00000000  0.50000000  0.00000000  1
  Zn  Zn40  1  0.50000000  -0.00000000  0.00000000  1
  Zn  Zn41  1  -0.00000000  -0.00000000  0.00000000  1
  Ni  Ni42  1  0.50000000  0.50000000  0.00000000  1
  Ni  Ni43  1  0.50000000  -0.00000000  0.50000000  1
  Ni  Ni44  1  -0.00000000  0.50000000  0.50000000  1
  Ni  Ni45  1  0.50000000  0.50000000  0.50000000  1
