# generated using pymatgen
data_Li2SnH14Se3O7
_symmetry_space_group_name_H-M   'P 1'
_cell_length_a   7.55966901
_cell_length_b   9.56926930
_cell_length_c   10.71476792
_cell_angle_alpha   77.25965952
_cell_angle_beta   71.47186430
_cell_angle_gamma   74.60350091
_symmetry_Int_Tables_number   1
_chemical_formula_structural   Li2SnH14Se3O7
_chemical_formula_sum   'Li4 Sn2 H28 Se6 O14'
_cell_volume   700.65555843
_cell_formula_units_Z   2
loop_
 _symmetry_equiv_pos_site_id
 _symmetry_equiv_pos_as_xyz
  1  'x, y, z'
loop_
 _atom_site_type_symbol
 _atom_site_label
 _atom_site_symmetry_multiplicity
 _atom_site_fract_x
 _atom_site_fract_y
 _atom_site_fract_z
 _atom_site_occupancy
  Li  Li0  1  0.69009182  0.08557359  0.21787365  1
  Li  Li1  1  0.30990818  0.91442641  0.78212635  1
  Li  Li2  1  0.05716372  0.25620222  0.13038687  1
  Li  Li3  1  0.94283628  0.74379778  0.86961313  1
  Sn  Sn4  1  0.59207678  0.37542655  0.62304878  1
  Sn  Sn5  1  0.40792322  0.62457345  0.37695122  1
  H  H6  1  0.79213778  0.22367062  0.34315818  1
  H  H7  1  0.20786222  0.77632938  0.65684182  1
  H  H8  1  0.22707765  0.43712674  0.19557959  1
  H  H9  1  0.77292235  0.56287326  0.80442041  1
  H  H10  1  0.37638396  0.02352986  0.39640850  1
  H  H11  1  0.62361604  0.97647014  0.60359150  1
  H  H12  1  0.89231134  0.82270258  0.16478632  1
  H  H13  1  0.10768866  0.17729742  0.83521368  1
  H  H14  1  0.68942364  0.05669723  0.98115631  1
  H  H15  1  0.31057636  0.94330277  0.01884369  1
  H  H16  1  0.22382751  0.00718251  0.22714405  1
  H  H17  1  0.77617249  0.99281749  0.77285595  1
  H  H18  1  0.00211278  0.40533095  0.90058897  1
  H  H19  1  0.99788722  0.59466905  0.09941103  1
  H  H20  1  0.59986339  0.22302252  0.99176031  1
  H  H21  1  0.40013661  0.77697748  0.00823969  1
  H  H22  1  0.39732254  0.17545101  0.41787672  1
  H  H23  1  0.60267746  0.82454899  0.58212328  1
  H  H24  1  0.70507016  0.33794065  0.23263524  1
  H  H25  1  0.29492984  0.66205935  0.76736476  1
  H  H26  1  0.21321357  0.34938837  0.90423261  1
  H  H27  1  0.78678643  0.65061163  0.09576739  1
  H  H28  1  0.01669899  0.44401489  0.28733740  1
  H  H29  1  0.98330101  0.55598511  0.71266260  1
  H  H30  1  0.37685249  0.09033912  0.12145689  1
  H  H31  1  0.62314751  0.90966088  0.87854311  1
  H  H32  1  0.94441593  0.86209648  0.28277618  1
  H  H33  1  0.05558407  0.13790352  0.71722382  1
  Se  Se34  1  0.71535782  0.59756621  0.45482602  1
  Se  Se35  1  0.28464218  0.40243379  0.54517398  1
  Se  Se36  1  0.48585134  0.44433871  0.85283670  1
  Se  Se37  1  0.51414866  0.55566129  0.14716330  1
  Se  Se38  1  0.83153840  0.14470689  0.56804577  1
  Se  Se39  1  0.16846160  0.85529311  0.43195423  1
  O  O40  1  0.79702849  0.24330597  0.24713429  1
  O  O41  1  0.20297151  0.75669403  0.75286571  1
  O  O42  1  0.62332130  0.12591856  0.04693704  1
  O  O43  1  0.37667870  0.87408144  0.95306296  1
  O  O44  1  0.45263596  0.10024508  0.35941724  1
  O  O45  1  0.54736404  0.89975492  0.64058276  1
  O  O46  1  0.87603856  0.90281726  0.21479474  1
  O  O47  1  0.12396144  0.09718274  0.78520526  1
  O  O48  1  0.10000725  0.42383499  0.19887948  1
  O  O49  1  0.89999275  0.57616501  0.80112052  1
  O  O50  1  0.08747290  0.31878215  0.93571719  1
  O  O51  1  0.91252710  0.68121785  0.06428281  1
  O  O52  1  0.24798200  0.07049633  0.13855446  1
  O  O53  1  0.75201800  0.92950367  0.86144554  1
