# generated using pymatgen
data_CsCdInTe3
_symmetry_space_group_name_H-M   'P 1'
_cell_length_a   9.12611866
_cell_length_b   9.12611866
_cell_length_c   24.84688095
_cell_angle_alpha   84.74705579
_cell_angle_beta   84.74705579
_cell_angle_gamma   89.98748411
_symmetry_Int_Tables_number   1
_chemical_formula_structural   CsCdInTe3
_chemical_formula_sum   'Cs8 Cd8 In8 Te24'
_cell_volume   2051.98330971
_cell_formula_units_Z   8
loop_
 _symmetry_equiv_pos_site_id
 _symmetry_equiv_pos_as_xyz
  1  'x, y, z'
loop_
 _atom_site_type_symbol
 _atom_site_label
 _atom_site_symmetry_multiplicity
 _atom_site_fract_x
 _atom_site_fract_y
 _atom_site_fract_z
 _atom_site_occupancy
  Cs  Cs0  1  0.26922926  0.89351190  0.42355426  1
  Cs  Cs1  1  0.10648810  0.73077074  0.07644574  1
  Cs  Cs2  1  0.73077074  0.10648810  0.57644574  1
  Cs  Cs3  1  0.89351190  0.26922926  0.92355426  1
  Cs  Cs4  1  0.26915823  0.39470291  0.42357718  1
  Cs  Cs5  1  0.60529709  0.73084177  0.07642282  1
  Cs  Cs6  1  0.73084177  0.60529709  0.57642282  1
  Cs  Cs7  1  0.39470291  0.26915823  0.92357718  1
  Cd  Cd8  1  0.06024163  0.93975837  0.25000000  1
  Cd  Cd9  1  0.93975837  0.06024163  0.75000000  1
  Cd  Cd10  1  0.56460844  0.43539156  0.25000000  1
  Cd  Cd11  1  0.43539156  0.56460844  0.75000000  1
  Cd  Cd12  1  0.06031906  0.43507527  0.25001633  1
  Cd  Cd13  1  0.56492473  0.93968094  0.24998367  1
  Cd  Cd14  1  0.93968094  0.56492473  0.74998367  1
  Cd  Cd15  1  0.43507527  0.06031906  0.75001633  1
  In  In16  1  0.78038510  0.15551204  0.37759320  1
  In  In17  1  0.84448796  0.21961490  0.12240680  1
  In  In18  1  0.21961490  0.84448796  0.62240680  1
  In  In19  1  0.15551204  0.78038510  0.87759320  1
  In  In20  1  0.78052856  0.65561335  0.37750736  1
  In  In21  1  0.34438665  0.21947144  0.12249264  1
  In  In22  1  0.21947144  0.34438665  0.62249264  1
  In  In23  1  0.65561335  0.78052856  0.87750736  1
  Te  Te24  1  0.76286138  0.88813429  0.44750116  1
  Te  Te25  1  0.11186571  0.23713862  0.05249884  1
  Te  Te26  1  0.23713862  0.11186571  0.55249884  1
  Te  Te27  1  0.88813429  0.76286138  0.94750116  1
  Te  Te28  1  0.06216962  0.66987463  0.32013963  1
  Te  Te29  1  0.33012537  0.93783038  0.17986037  1
  Te  Te30  1  0.93783038  0.33012537  0.67986037  1
  Te  Te31  1  0.66987463  0.06216962  0.82013963  1
  Te  Te32  1  0.76326082  0.38809671  0.44749844  1
  Te  Te33  1  0.61190329  0.23673918  0.05250156  1
  Te  Te34  1  0.23673918  0.61190329  0.55250156  1
  Te  Te35  1  0.38809671  0.76326082  0.94749844  1
  Te  Te36  1  0.52699686  0.16996332  0.32047692  1
  Te  Te37  1  0.83003668  0.47300314  0.17952308  1
  Te  Te38  1  0.47300314  0.83003668  0.67952308  1
  Te  Te39  1  0.16996332  0.52699686  0.82047692  1
  Te  Te40  1  0.52755872  0.66999600  0.32018461  1
  Te  Te41  1  0.33000400  0.47244128  0.17981539  1
  Te  Te42  1  0.47244128  0.33000400  0.67981539  1
  Te  Te43  1  0.66999600  0.52755872  0.82018461  1
  Te  Te44  1  0.06267972  0.16971754  0.32056580  1
  Te  Te45  1  0.83028246  0.93732028  0.17943420  1
  Te  Te46  1  0.93732028  0.83028246  0.67943420  1
  Te  Te47  1  0.16971754  0.06267972  0.82056580  1
