# generated using pymatgen
data_Cd3BPO7
_symmetry_space_group_name_H-M   'P 1'
_cell_length_a   5.16941238
_cell_length_b   8.98056240
_cell_length_c   13.49492346
_cell_angle_alpha   90.00000000
_cell_angle_beta   90.00000000
_cell_angle_gamma   90.00000000
_symmetry_Int_Tables_number   1
_chemical_formula_structural   Cd3BPO7
_chemical_formula_sum   'Cd12 B4 P4 O28'
_cell_volume   626.49143661
_cell_formula_units_Z   4
loop_
 _symmetry_equiv_pos_site_id
 _symmetry_equiv_pos_as_xyz
  1  'x, y, z'
loop_
 _atom_site_type_symbol
 _atom_site_label
 _atom_site_symmetry_multiplicity
 _atom_site_fract_x
 _atom_site_fract_y
 _atom_site_fract_z
 _atom_site_occupancy
  Cd  Cd0  1  0.99821159  0.90360631  0.86339117  1
  Cd  Cd1  1  0.49821159  0.09639369  0.13660883  1
  Cd  Cd2  1  0.49821159  0.40360631  0.63660883  1
  Cd  Cd3  1  0.99821159  0.59639369  0.36339117  1
  Cd  Cd4  1  0.01421987  0.91068203  0.59759239  1
  Cd  Cd5  1  0.51421987  0.08931797  0.40240761  1
  Cd  Cd6  1  0.51421987  0.41068203  0.90240761  1
  Cd  Cd7  1  0.01421987  0.58931797  0.09759239  1
  Cd  Cd8  1  0.00038004  0.23859034  0.75325228  1
  Cd  Cd9  1  0.50038004  0.76140966  0.24674772  1
  Cd  Cd10  1  0.50038004  0.73859034  0.74674772  1
  Cd  Cd11  1  0.00038004  0.26140966  0.25325228  1
  B  B12  1  0.99860853  0.56930610  0.77309667  1
  B  B13  1  0.49860853  0.43069390  0.22690333  1
  B  B14  1  0.49860853  0.06930610  0.72690333  1
  B  B15  1  0.99860853  0.93069390  0.27309667  1
  P  P16  1  0.02280831  0.22948040  0.00372317  1
  P  P17  1  0.52280831  0.77051960  0.99627683  1
  P  P18  1  0.52280831  0.72948040  0.49627683  1
  P  P19  1  0.02280831  0.27051960  0.50372317  1
  O  O20  1  0.32461366  0.24477762  0.00937731  1
  O  O21  1  0.82461366  0.75522238  0.99062269  1
  O  O22  1  0.82461366  0.74477762  0.49062269  1
  O  O23  1  0.32461366  0.25522238  0.50937731  1
  O  O24  1  0.94015349  0.13956424  0.91043019  1
  O  O25  1  0.44015349  0.86043576  0.08956981  1
  O  O26  1  0.44015349  0.63956424  0.58956981  1
  O  O27  1  0.94015349  0.36043576  0.41043019  1
  O  O28  1  0.89725350  0.38674320  0.99619818  1
  O  O29  1  0.39725350  0.61325680  0.00380182  1
  O  O30  1  0.39725350  0.88674320  0.50380182  1
  O  O31  1  0.89725350  0.11325680  0.49619818  1
  O  O32  1  0.43395500  0.85549359  0.90190352  1
  O  O33  1  0.93395500  0.14450641  0.09809648  1
  O  O34  1  0.93395500  0.35549359  0.59809648  1
  O  O35  1  0.43395500  0.64450641  0.40190352  1
  O  O36  1  0.06346963  0.71659833  0.75299803  1
  O  O37  1  0.56346963  0.28340167  0.24700197  1
  O  O38  1  0.56346963  0.21659833  0.74700197  1
  O  O39  1  0.06346963  0.78340167  0.25299803  1
  O  O40  1  0.18932507  0.46041299  0.78198180  1
  O  O41  1  0.68932507  0.53958701  0.21801820  1
  O  O42  1  0.68932507  0.96041299  0.71801820  1
  O  O43  1  0.18932507  0.03958701  0.28198180  1
  O  O44  1  0.23678132  0.03282701  0.71959812  1
  O  O45  1  0.73678132  0.96717299  0.28040188  1
  O  O46  1  0.73678132  0.53282701  0.78040188  1
  O  O47  1  0.23678132  0.46717299  0.21959812  1
