# generated using pymatgen
data_Rb4U3(AsO8)2
_symmetry_space_group_name_H-M   'P 1'
_cell_length_a   7.22161757
_cell_length_b   7.16757490
_cell_length_c   17.65169943
_cell_angle_alpha   90.00000000
_cell_angle_beta   90.00000000
_cell_angle_gamma   90.91875332
_symmetry_Int_Tables_number   1
_chemical_formula_structural   Rb4U3(AsO8)2
_chemical_formula_sum   'Rb8 U6 As4 O32'
_cell_volume   913.56070721
_cell_formula_units_Z   2
loop_
 _symmetry_equiv_pos_site_id
 _symmetry_equiv_pos_as_xyz
  1  'x, y, z'
loop_
 _atom_site_type_symbol
 _atom_site_label
 _atom_site_symmetry_multiplicity
 _atom_site_fract_x
 _atom_site_fract_y
 _atom_site_fract_z
 _atom_site_occupancy
  Rb  Rb0  1  0.89437150  0.53652951  0.11535299  1
  Rb  Rb1  1  0.10562850  0.46347049  0.61535299  1
  Rb  Rb2  1  0.10562850  0.46347049  0.88464701  1
  Rb  Rb3  1  0.89437150  0.53652951  0.38464701  1
  Rb  Rb4  1  0.05251743  0.95764825  0.75000000  1
  Rb  Rb5  1  0.94748257  0.04235175  0.25000000  1
  Rb  Rb6  1  -0.00000000  0.00000000  0.00000000  1
  Rb  Rb7  1  -0.00000000  0.00000000  0.50000000  1
  U  U8  1  0.57876412  0.28247155  0.75000000  1
  U  U9  1  0.42123588  0.71752845  0.25000000  1
  U  U10  1  0.57718625  0.78089606  0.85557054  1
  U  U11  1  0.42281375  0.21910394  0.35557054  1
  U  U12  1  0.42281375  0.21910394  0.14442946  1
  U  U13  1  0.57718625  0.78089606  0.64442946  1
  As  As14  1  0.60026804  0.28407264  0.94595322  1
  As  As15  1  0.39973196  0.71592736  0.44595322  1
  As  As16  1  0.39973196  0.71592736  0.05404678  1
  As  As17  1  0.60026804  0.28407264  0.55404678  1
  O  O18  1  0.80960195  0.33345869  0.98340191  1
  O  O19  1  0.19039805  0.66654131  0.48340191  1
  O  O20  1  0.19039805  0.66654131  0.01659809  1
  O  O21  1  0.80960195  0.33345869  0.51659809  1
  O  O22  1  0.42417565  0.24091986  0.00984989  1
  O  O23  1  0.57582435  0.75908014  0.50984989  1
  O  O24  1  0.57582435  0.75908014  0.99015011  1
  O  O25  1  0.42417565  0.24091986  0.49015011  1
  O  O26  1  0.61971589  0.10151254  0.88159939  1
  O  O27  1  0.38028411  0.89848746  0.38159939  1
  O  O28  1  0.38028411  0.89848746  0.11840061  1
  O  O29  1  0.61971589  0.10151254  0.61840061  1
  O  O30  1  0.52884187  0.44615688  0.87855598  1
  O  O31  1  0.47115813  0.55384312  0.37855598  1
  O  O32  1  0.47115813  0.55384312  0.12144402  1
  O  O33  1  0.52884187  0.44615688  0.62144402  1
  O  O34  1  0.32314712  0.26009060  0.75000000  1
  O  O35  1  0.67685288  0.73990940  0.25000000  1
  O  O36  1  0.83413199  0.30577519  0.75000000  1
  O  O37  1  0.16586801  0.69422481  0.25000000  1
  O  O38  1  0.56905665  0.59870981  0.75000000  1
  O  O39  1  0.43094335  0.40129019  0.25000000  1
  O  O40  1  0.60106862  0.96321046  0.75000000  1
  O  O41  1  0.39893138  0.03678954  0.25000000  1
  O  O42  1  0.32202412  0.80543332  0.85466871  1
  O  O43  1  0.67797588  0.19456668  0.35466871  1
  O  O44  1  0.67797588  0.19456668  0.14533129  1
  O  O45  1  0.32202412  0.80543332  0.64533129  1
  O  O46  1  0.83313535  0.75995434  0.86252972  1
  O  O47  1  0.16686465  0.24004566  0.36252972  1
  O  O48  1  0.16686465  0.24004566  0.13747028  1
  O  O49  1  0.83313535  0.75995434  0.63747028  1
