# generated using pymatgen
data_Sc2Si4Mo3
_symmetry_space_group_name_H-M   'P 1'
_cell_length_a   6.57554154
_cell_length_b   6.80203380
_cell_length_c   12.67324024
_cell_angle_alpha   90.00000000
_cell_angle_beta   90.00000000
_cell_angle_gamma   90.00000000
_symmetry_Int_Tables_number   1
_chemical_formula_structural   Sc2Si4Mo3
_chemical_formula_sum   'Sc8 Si16 Mo12'
_cell_volume   566.83672349
_cell_formula_units_Z   4
loop_
 _symmetry_equiv_pos_site_id
 _symmetry_equiv_pos_as_xyz
  1  'x, y, z'
loop_
 _atom_site_type_symbol
 _atom_site_label
 _atom_site_symmetry_multiplicity
 _atom_site_fract_x
 _atom_site_fract_y
 _atom_site_fract_z
 _atom_site_occupancy
  Sc  Sc0  1  0.50450898  0.67027884  0.40765055  1
  Sc  Sc1  1  0.00450898  0.82972116  0.09234945  1
  Sc  Sc2  1  0.49549102  0.32972116  0.90765055  1
  Sc  Sc3  1  0.99549102  0.17027884  0.59234945  1
  Sc  Sc4  1  0.49549102  0.32972116  0.59234945  1
  Sc  Sc5  1  0.99549102  0.17027884  0.90765055  1
  Sc  Sc6  1  0.50450898  0.67027884  0.09234945  1
  Sc  Sc7  1  0.00450898  0.82972116  0.40765055  1
  Si  Si8  1  0.33429053  0.96280551  0.95503054  1
  Si  Si9  1  0.83429053  0.53719449  0.54496946  1
  Si  Si10  1  0.66570947  0.03719449  0.45503054  1
  Si  Si11  1  0.16570947  0.46280551  0.04496946  1
  Si  Si12  1  0.66570947  0.03719449  0.04496946  1
  Si  Si13  1  0.16570947  0.46280551  0.45503054  1
  Si  Si14  1  0.33429053  0.96280551  0.54496946  1
  Si  Si15  1  0.83429053  0.53719449  0.95503054  1
  Si  Si16  1  0.46795702  0.62238582  0.75000000  1
  Si  Si17  1  0.96795702  0.87761418  0.75000000  1
  Si  Si18  1  0.53204298  0.37761418  0.25000000  1
  Si  Si19  1  0.03204298  0.12238582  0.25000000  1
  Si  Si20  1  0.20037833  0.35899677  0.75000000  1
  Si  Si21  1  0.70037833  0.14100323  0.75000000  1
  Si  Si22  1  0.79962167  0.64100323  0.25000000  1
  Si  Si23  1  0.29962167  0.85899677  0.25000000  1
  Mo  Mo24  1  0.17105770  0.66494956  0.87560787  1
  Mo  Mo25  1  0.67105770  0.83505044  0.62439213  1
  Mo  Mo26  1  0.82894230  0.33505044  0.37560787  1
  Mo  Mo27  1  0.32894230  0.16494956  0.12439213  1
  Mo  Mo28  1  0.82894230  0.33505044  0.12439213  1
  Mo  Mo29  1  0.32894230  0.16494956  0.37560787  1
  Mo  Mo30  1  0.17105770  0.66494956  0.62439213  1
  Mo  Mo31  1  0.67105770  0.83505044  0.87560787  1
  Mo  Mo32  1  0.33526490  0.00512475  0.75000000  1
  Mo  Mo33  1  0.83526490  0.49487525  0.75000000  1
  Mo  Mo34  1  0.66473510  0.99487525  0.25000000  1
  Mo  Mo35  1  0.16473510  0.50512475  0.25000000  1
