# generated using pymatgen
data_K2ScP2Se7
_symmetry_space_group_name_H-M   'P 1'
_cell_length_a   6.94249858
_cell_length_b   12.03296237
_cell_length_c   19.10123880
_cell_angle_alpha   77.23594895
_cell_angle_beta   79.52951381
_cell_angle_gamma   73.23312023
_symmetry_Int_Tables_number   1
_chemical_formula_structural   K2ScP2Se7
_chemical_formula_sum   'K8 Sc4 P8 Se28'
_cell_volume   1478.15714105
_cell_formula_units_Z   4
loop_
 _symmetry_equiv_pos_site_id
 _symmetry_equiv_pos_as_xyz
  1  'x, y, z'
loop_
 _atom_site_type_symbol
 _atom_site_label
 _atom_site_symmetry_multiplicity
 _atom_site_fract_x
 _atom_site_fract_y
 _atom_site_fract_z
 _atom_site_occupancy
  K  K0  1  0.61196149  0.73500109  0.66882761  1
  K  K1  1  0.01579019  0.76499891  0.83117239  1
  K  K2  1  0.38803851  0.26499891  0.33117239  1
  K  K3  1  0.98420981  0.23500109  0.16882761  1
  K  K4  1  0.97017122  0.84898586  0.14191185  1
  K  K5  1  0.96106893  0.65101414  0.35808815  1
  K  K6  1  0.02982878  0.15101414  0.85808815  1
  K  K7  1  0.03893107  0.34898586  0.64191185  1
  Sc  Sc8  1  0.16608715  0.83326404  0.50154784  1
  Sc  Sc9  1  0.50089903  0.66673596  0.99845216  1
  Sc  Sc10  1  0.83391285  0.16673596  0.49845216  1
  Sc  Sc11  1  0.49910097  0.33326404  0.00154784  1
  P  P12  1  0.43318873  0.55838508  0.54305275  1
  P  P13  1  0.53462656  0.94161492  0.95694725  1
  P  P14  1  0.56681127  0.44161492  0.45694725  1
  P  P15  1  0.46537344  0.05838508  0.04305275  1
  P  P16  1  0.08623303  0.00115177  0.64179195  1
  P  P17  1  0.72917675  0.49884823  0.85820805  1
  P  P18  1  0.91376697  0.99884823  0.35820805  1
  P  P19  1  0.27082325  0.50115177  0.14179195  1
  Se  Se20  1  0.10093830  0.61542113  0.53108528  1
  Se  Se21  1  0.24744471  0.88457887  0.96891472  1
  Se  Se22  1  0.89906170  0.38457887  0.46891472  1
  Se  Se23  1  0.75255529  0.11542113  0.03108528  1
  Se  Se24  1  0.56263128  0.71444253  0.49961623  1
  Se  Se25  1  0.77669004  0.78555747  0.00038377  1
  Se  Se26  1  0.43736872  0.28555747  0.50038377  1
  Se  Se27  1  0.22330996  0.21444253  0.99961623  1
  Se  Se28  1  0.22496690  0.04228579  0.52374400  1
  Se  Se29  1  0.79099670  0.45771421  0.97625600  1
  Se  Se30  1  0.77503310  0.95771421  0.47625600  1
  Se  Se31  1  0.20900330  0.54228579  0.02374400  1
  Se  Se32  1  0.06882533  0.81524899  0.64835902  1
  Se  Se33  1  0.53243334  0.68475101  0.85164098  1
  Se  Se34  1  0.93117467  0.18475101  0.35164098  1
  Se  Se35  1  0.46756666  0.31524899  0.14835902  1
  Se  Se36  1  0.21802791  0.87260051  0.35432845  1
  Se  Se37  1  0.44495687  0.62739949  0.14567155  1
  Se  Se38  1  0.78197209  0.12739949  0.64567155  1
  Se  Se39  1  0.55504313  0.37260051  0.85432845  1
  Se  Se40  1  0.49637337  0.46757037  0.65087633  1
  Se  Se41  1  0.61482007  0.03242963  0.84912367  1
  Se  Se42  1  0.50362663  0.53242963  0.34912367  1
  Se  Se43  1  0.38517993  0.96757037  0.15087633  1
  Se  Se44  1  0.72301752  0.98922008  0.28247814  1
  Se  Se45  1  0.99471573  0.51077992  0.21752186  1
  Se  Se46  1  0.27698248  0.01077992  0.71752186  1
  Se  Se47  1  0.00528427  0.48922008  0.78247814  1
