# generated using pymatgen
data_Ca3Si4(SnO7)2
_symmetry_space_group_name_H-M   'P 1'
_cell_length_a   7.74734021
_cell_length_b   9.85382703
_cell_length_c   9.89221388
_cell_angle_alpha   65.73808095
_cell_angle_beta   66.94666738
_cell_angle_gamma   66.85164316
_symmetry_Int_Tables_number   1
_chemical_formula_structural   Ca3Si4(SnO7)2
_chemical_formula_sum   'Ca6 Si8 Sn4 O28'
_cell_volume   608.74536565
_cell_formula_units_Z   2
loop_
 _symmetry_equiv_pos_site_id
 _symmetry_equiv_pos_as_xyz
  1  'x, y, z'
loop_
 _atom_site_type_symbol
 _atom_site_label
 _atom_site_symmetry_multiplicity
 _atom_site_fract_x
 _atom_site_fract_y
 _atom_site_fract_z
 _atom_site_occupancy
  Ca  Ca0  1  0.82676442  0.95127962  0.46269944  1
  Ca  Ca1  1  0.24074348  0.54872038  0.03730056  1
  Ca  Ca2  1  0.75925652  0.45127962  0.96269944  1
  Ca  Ca3  1  0.68458791  0.25000000  0.75000000  1
  Ca  Ca4  1  0.17323558  0.04872038  0.53730056  1
  Ca  Ca5  1  0.31541209  0.75000000  0.25000000  1
  Si  Si6  1  0.46196653  0.28766157  0.33214034  1
  Si  Si7  1  0.91823056  0.78766157  0.83214034  1
  Si  Si8  1  0.50665381  0.89127804  0.85774863  1
  Si  Si9  1  0.74432052  0.39127804  0.35774863  1
  Si  Si10  1  0.08176944  0.21233843  0.16785966  1
  Si  Si11  1  0.49334619  0.10872196  0.14225137  1
  Si  Si12  1  0.25567948  0.60872196  0.64225137  1
  Si  Si13  1  0.53803347  0.71233843  0.66785966  1
  Sn  Sn14  1  0.23058111  0.25000000  0.75000000  1
  Sn  Sn15  1  0.76941889  0.75000000  0.25000000  1
  Sn  Sn16  1  0.00000000  0.00000000  0.00000000  1
  Sn  Sn17  1  0.00000000  0.50000000  0.50000000  1
  O  O18  1  0.14710738  0.65178616  0.51000881  1
  O  O19  1  0.07047217  0.59130829  0.27350792  1
  O  O20  1  0.46267724  0.94543604  0.17605280  1
  O  O21  1  0.06471162  0.09130829  0.77350792  1
  O  O22  1  0.74324762  0.69478083  0.52854214  1
  O  O23  1  0.91820340  0.38189738  0.18754247  1
  O  O24  1  0.41583292  0.44543604  0.67605280  1
  O  O25  1  0.96657059  0.80521917  0.97145786  1
  O  O26  1  0.08179660  0.61810262  0.81245753  1
  O  O27  1  0.35306752  0.75525869  0.59520201  1
  O  O28  1  0.92952783  0.40869171  0.72649208  1
  O  O29  1  0.25675238  0.30521917  0.47145786  1
  O  O30  1  0.48764425  0.11810262  0.31245753  1
  O  O31  1  0.69109664  0.15178616  0.01000881  1
  O  O32  1  0.29647178  0.25525869  0.09520201  1
  O  O33  1  0.03342941  0.19478083  0.02854214  1
  O  O34  1  0.06615702  0.08099123  0.33328718  1
  O  O35  1  0.64693248  0.24474131  0.40479799  1
  O  O36  1  0.48043442  0.41900877  0.16671282  1
  O  O37  1  0.70352822  0.74474131  0.90479799  1
  O  O38  1  0.51235575  0.88189738  0.68754247  1
  O  O39  1  0.93528838  0.90869171  0.22649208  1
  O  O40  1  0.51956558  0.58099123  0.83328718  1
  O  O41  1  0.53732276  0.05456396  0.82394720  1
  O  O42  1  0.93384298  0.91900877  0.66671282  1
  O  O43  1  0.58416708  0.55456396  0.32394720  1
  O  O44  1  0.30890336  0.84821384  0.98999119  1
  O  O45  1  0.85289262  0.34821384  0.48999119  1
