# generated using pymatgen
data_GdBe2B5O11
_symmetry_space_group_name_H-M   'P 1'
_cell_length_a   4.37052364
_cell_length_b   6.73763545
_cell_length_c   25.94868671
_cell_angle_alpha   90.00000000
_cell_angle_beta   90.00000000
_cell_angle_gamma   90.00000000
_symmetry_Int_Tables_number   1
_chemical_formula_structural   GdBe2B5O11
_chemical_formula_sum   'Gd4 Be8 B20 O44'
_cell_volume   764.11084812
_cell_formula_units_Z   4
loop_
 _symmetry_equiv_pos_site_id
 _symmetry_equiv_pos_as_xyz
  1  'x, y, z'
loop_
 _atom_site_type_symbol
 _atom_site_label
 _atom_site_symmetry_multiplicity
 _atom_site_fract_x
 _atom_site_fract_y
 _atom_site_fract_z
 _atom_site_occupancy
  Gd  Gd0  1  0.36103935  0.04982989  0.91965004  1
  Gd  Gd1  1  0.63896065  0.54982989  0.08034996  1
  Gd  Gd2  1  0.86103935  0.54982989  0.58034996  1
  Gd  Gd3  1  0.13896065  0.04982989  0.41965004  1
  Be  Be4  1  0.16945344  0.91018717  0.79255832  1
  Be  Be5  1  0.83054656  0.41018717  0.20744168  1
  Be  Be6  1  0.66945344  0.41018717  0.70744168  1
  Be  Be7  1  0.33054656  0.91018717  0.29255832  1
  Be  Be8  1  0.67247518  0.13314347  0.79058164  1
  Be  Be9  1  0.32752482  0.63314347  0.20941836  1
  Be  Be10  1  0.17247518  0.63314347  0.70941836  1
  Be  Be11  1  0.82752482  0.13314347  0.29058164  1
  B  B12  1  0.87808159  0.72008538  0.86847110  1
  B  B13  1  0.12191841  0.22008538  0.13152890  1
  B  B14  1  0.37808159  0.22008538  0.63152890  1
  B  B15  1  0.62191841  0.72008538  0.36847110  1
  B  B16  1  0.53203477  0.61990591  0.94207313  1
  B  B17  1  0.46796523  0.11990591  0.05792687  1
  B  B18  1  0.03203477  0.11990591  0.55792687  1
  B  B19  1  0.96796523  0.61990591  0.44207313  1
  B  B20  1  0.65183409  0.39039483  0.86983579  1
  B  B21  1  0.34816591  0.89039483  0.13016421  1
  B  B22  1  0.15183409  0.89039483  0.63016421  1
  B  B23  1  0.84816591  0.39039483  0.36983579  1
  B  B24  1  0.04285006  0.64018891  0.99636641  1
  B  B25  1  0.95714994  0.14018891  0.00363359  1
  B  B26  1  0.54285006  0.14018891  0.50363359  1
  B  B27  1  0.45714994  0.64018891  0.49636641  1
  B  B28  1  0.18379220  0.26929957  0.74842265  1
  B  B29  1  0.81620780  0.76929957  0.25157735  1
  B  B30  1  0.68379220  0.76929957  0.75157735  1
  B  B31  1  0.31620780  0.26929957  0.24842265  1
  O  O32  1  0.85606997  0.52688190  0.84879583  1
  O  O33  1  0.14393003  0.02688190  0.15120417  1
  O  O34  1  0.35606997  0.02688190  0.65120417  1
  O  O35  1  0.64393003  0.52688190  0.34879583  1
  O  O36  1  0.59371054  0.20851225  0.84903254  1
  O  O37  1  0.40628946  0.70851225  0.15096746  1
  O  O38  1  0.09371054  0.70851225  0.65096746  1
  O  O39  1  0.90628946  0.20851225  0.34903254  1
  O  O40  1  0.72763352  0.60761812  0.98893702  1
  O  O41  1  0.27236648  0.10761812  0.01106298  1
  O  O42  1  0.22763352  0.10761812  0.51106298  1
  O  O43  1  0.77236648  0.60761812  0.48893702  1
  O  O44  1  0.49887435  0.42688132  0.91607458  1
  O  O45  1  0.50112565  0.92688132  0.08392542  1
  O  O46  1  0.99887435  0.92688132  0.58392542  1
  O  O47  1  0.00112565  0.42688132  0.41607458  1
  O  O48  1  0.66268088  0.76754706  0.90641931  1
  O  O49  1  0.33731912  0.26754706  0.09358069  1
  O  O50  1  0.16268088  0.26754706  0.59358069  1
  O  O51  1  0.83731912  0.76754706  0.40641931  1
  O  O52  1  0.13597804  0.60776550  0.04542714  1
  O  O53  1  0.86402196  0.10776550  0.95457286  1
  O  O54  1  0.63597804  0.10776550  0.45457286  1
  O  O55  1  0.36402196  0.60776550  0.54542714  1
  O  O56  1  0.08212837  0.85918924  0.85272434  1
  O  O57  1  0.91787163  0.35918924  0.14727566  1
  O  O58  1  0.58212837  0.35918924  0.64727566  1
  O  O59  1  0.41787163  0.85918924  0.35272434  1
  O  O60  1  0.22899317  0.70075822  0.95587947  1
  O  O61  1  0.77100683  0.20075822  0.04412053  1
  O  O62  1  0.72899317  0.20075822  0.54412053  1
  O  O63  1  0.27100683  0.70075822  0.45587947  1
  O  O64  1  0.03459909  0.40466294  0.71712941  1
  O  O65  1  0.96540091  0.90466294  0.28287059  1
  O  O66  1  0.53459909  0.90466294  0.78287059  1
  O  O67  1  0.46540091  0.40466294  0.21712941  1
  O  O68  1  0.49833066  0.26804710  0.74824078  1
  O  O69  1  0.50166934  0.76804710  0.25175922  1
  O  O70  1  0.99833066  0.76804710  0.75175922  1
  O  O71  1  0.00166934  0.26804710  0.24824078  1
  O  O72  1  0.03370788  0.13537122  0.77925942  1
  O  O73  1  0.96629212  0.63537122  0.22074058  1
  O  O74  1  0.53370788  0.63537122  0.72074058  1
  O  O75  1  0.46629212  0.13537122  0.27925942  1
