# generated using pymatgen
data_TlAgPSe3
_symmetry_space_group_name_H-M   'P 1'
_cell_length_a   9.84255294
_cell_length_b   10.48154731
_cell_length_c   12.82208235
_cell_angle_alpha   90.00000000
_cell_angle_beta   90.00000000
_cell_angle_gamma   97.11350076
_symmetry_Int_Tables_number   1
_chemical_formula_structural   TlAgPSe3
_chemical_formula_sum   'Tl8 Ag8 P8 Se24'
_cell_volume   1312.61067231
_cell_formula_units_Z   8
loop_
 _symmetry_equiv_pos_site_id
 _symmetry_equiv_pos_as_xyz
  1  'x, y, z'
loop_
 _atom_site_type_symbol
 _atom_site_label
 _atom_site_symmetry_multiplicity
 _atom_site_fract_x
 _atom_site_fract_y
 _atom_site_fract_z
 _atom_site_occupancy
  Tl  Tl0  1  0.61862394  0.08048830  0.38427464  1
  Tl  Tl1  1  0.88137606  0.91951170  0.88427464  1
  Tl  Tl2  1  0.38137606  0.91951170  0.61572536  1
  Tl  Tl3  1  0.11862394  0.08048830  0.11572536  1
  Tl  Tl4  1  0.60563518  0.67576592  0.17311052  1
  Tl  Tl5  1  0.89436482  0.32423408  0.67311052  1
  Tl  Tl6  1  0.39436482  0.32423408  0.82688948  1
  Tl  Tl7  1  0.10563518  0.67576592  0.32688948  1
  Ag  Ag8  1  0.78818818  0.21485823  0.94759671  1
  Ag  Ag9  1  0.71181182  0.78514177  0.44759671  1
  Ag  Ag10  1  0.21181182  0.78514177  0.05240329  1
  Ag  Ag11  1  0.28818818  0.21485823  0.55240329  1
  Ag  Ag12  1  0.76331067  0.32550864  0.18465791  1
  Ag  Ag13  1  0.73668933  0.67449136  0.68465791  1
  Ag  Ag14  1  0.23668933  0.67449136  0.81534209  1
  Ag  Ag15  1  0.26331067  0.32550864  0.31534209  1
  P  P16  1  0.58444977  0.43487456  0.47685445  1
  P  P17  1  0.91555023  0.56512544  0.97685445  1
  P  P18  1  0.41555023  0.56512544  0.52314555  1
  P  P19  1  0.08444977  0.43487456  0.02314555  1
  P  P20  1  0.50445192  0.04667933  0.08170197  1
  P  P21  1  0.99554808  0.95332067  0.58170197  1
  P  P22  1  0.49554808  0.95332067  0.91829803  1
  P  P23  1  0.00445192  0.04667933  0.41829803  1
  Se  Se24  1  0.91239484  0.22812761  0.42724226  1
  Se  Se25  1  0.58760516  0.77187239  0.92724226  1
  Se  Se26  1  0.08760516  0.77187239  0.57275774  1
  Se  Se27  1  0.41239484  0.22812761  0.07275774  1
  Se  Se28  1  0.60386933  0.10144794  0.81385183  1
  Se  Se29  1  0.89613067  0.89855206  0.31385183  1
  Se  Se30  1  0.39613067  0.89855206  0.18614817  1
  Se  Se31  1  0.10386933  0.10144794  0.68614817  1
  Se  Se32  1  0.05331968  0.27069944  0.91131092  1
  Se  Se33  1  0.44668032  0.72930056  0.41131092  1
  Se  Se34  1  0.94668032  0.72930056  0.08868908  1
  Se  Se35  1  0.55331968  0.27069944  0.58868908  1
  Se  Se36  1  0.54299152  0.37627005  0.30818311  1
  Se  Se37  1  0.95700848  0.62372995  0.80818311  1
  Se  Se38  1  0.45700848  0.62372995  0.69181689  1
  Se  Se39  1  0.04299152  0.37627005  0.19181689  1
  Se  Se40  1  0.78856653  0.54751466  0.50090725  1
  Se  Se41  1  0.71143347  0.45248534  0.00090725  1
  Se  Se42  1  0.21143347  0.45248534  0.49909275  1
  Se  Se43  1  0.28856653  0.54751466  -0.00090725  1
  Se  Se44  1  0.72533801  0.07171192  0.12454279  1
  Se  Se45  1  0.77466199  0.92828808  0.62454279  1
  Se  Se46  1  0.27466199  0.92828808  0.87545721  1
  Se  Se47  1  0.22533801  0.07171192  0.37545721  1
