# generated using pymatgen
data_CsK2Mn3P4ClO14
_symmetry_space_group_name_H-M   'P 1'
_cell_length_a   5.46009156
_cell_length_b   7.74808453
_cell_length_c   19.32708854
_cell_angle_alpha   100.87568961
_cell_angle_beta   90.00000000
_cell_angle_gamma   90.00000000
_symmetry_Int_Tables_number   1
_chemical_formula_structural   CsK2Mn3P4ClO14
_chemical_formula_sum   'Cs2 K4 Mn6 P8 Cl2 O28'
_cell_volume   802.95162947
_cell_formula_units_Z   2
loop_
 _symmetry_equiv_pos_site_id
 _symmetry_equiv_pos_as_xyz
  1  'x, y, z'
loop_
 _atom_site_type_symbol
 _atom_site_label
 _atom_site_symmetry_multiplicity
 _atom_site_fract_x
 _atom_site_fract_y
 _atom_site_fract_z
 _atom_site_occupancy
  Cs  Cs0  1  0.20465578  0.50000000  0.25000000  1
  Cs  Cs1  1  0.79534422  0.50000000  0.75000000  1
  K  K2  1  0.22096954  0.91452405  0.08564276  1
  K  K3  1  0.22096954  0.08547595  0.41435724  1
  K  K4  1  0.77903046  0.08547595  0.91435724  1
  K  K5  1  0.77903046  0.91452405  0.58564276  1
  Mn  Mn6  1  0.21484928  0.39058293  0.03949085  1
  Mn  Mn7  1  0.21484928  0.60941707  0.46050915  1
  Mn  Mn8  1  0.78515072  0.60941707  0.96050915  1
  Mn  Mn9  1  0.78515072  0.39058293  0.53949085  1
  Mn  Mn10  1  0.71817369  0.00000000  0.25000000  1
  Mn  Mn11  1  0.28182631  0.00000000  0.75000000  1
  P  P12  1  0.71956922  0.21279384  0.09953944  1
  P  P13  1  0.71956922  0.78720616  0.40046056  1
  P  P14  1  0.28043078  0.78720616  0.90046056  1
  P  P15  1  0.28043078  0.21279384  0.59953944  1
  P  P16  1  0.69014492  0.59544443  0.12573450  1
  P  P17  1  0.69014492  0.40455557  0.37426550  1
  P  P18  1  0.30985508  0.40455557  0.87426550  1
  P  P19  1  0.30985508  0.59544443  0.62573450  1
  Cl  Cl20  1  0.21954798  0.00000000  0.25000000  1
  Cl  Cl21  1  0.78045202  0.00000000  0.75000000  1
  O  O22  1  0.49994909  0.21116880  0.05019264  1
  O  O23  1  0.49994909  0.78883120  0.44980736  1
  O  O24  1  0.50005091  0.78883120  0.94980736  1
  O  O25  1  0.50005091  0.21116880  0.55019264  1
  O  O26  1  0.96360797  0.20224241  0.05934557  1
  O  O27  1  0.96360797  0.79775759  0.44065443  1
  O  O28  1  0.03639203  0.79775759  0.94065443  1
  O  O29  1  0.03639203  0.20224241  0.55934557  1
  O  O30  1  0.70175164  0.07926903  0.14744368  1
  O  O31  1  0.70175164  0.92073097  0.35255632  1
  O  O32  1  0.29824836  0.92073097  0.85255632  1
  O  O33  1  0.29824836  0.07926903  0.64744368  1
  O  O34  1  0.88258838  0.59178806  0.06592354  1
  O  O35  1  0.88258838  0.40821194  0.43407646  1
  O  O36  1  0.11741162  0.40821194  0.93407646  1
  O  O37  1  0.11741162  0.59178806  0.56592354  1
  O  O38  1  0.74114770  0.73047878  0.19136829  1
  O  O39  1  0.74114770  0.26952122  0.30863171  1
  O  O40  1  0.25885230  0.26952122  0.80863171  1
  O  O41  1  0.25885230  0.73047878  0.69136829  1
  O  O42  1  0.42886252  0.59742782  0.09671225  1
  O  O43  1  0.42886252  0.40257218  0.40328775  1
  O  O44  1  0.57113748  0.40257218  0.90328775  1
  O  O45  1  0.57113748  0.59742782  0.59671225  1
  O  O46  1  0.72144977  0.40755736  0.15257836  1
  O  O47  1  0.72144977  0.59244264  0.34742164  1
  O  O48  1  0.27855023  0.59244264  0.84742164  1
  O  O49  1  0.27855023  0.40755736  0.65257836  1
