# generated using pymatgen
data_ErTl2P2Se7
_symmetry_space_group_name_H-M   'P 1'
_cell_length_a   7.09138498
_cell_length_b   12.53298894
_cell_length_c   17.13311679
_cell_angle_alpha   79.01485050
_cell_angle_beta   78.05634655
_cell_angle_gamma   73.56611380
_symmetry_Int_Tables_number   1
_chemical_formula_structural   ErTl2P2Se7
_chemical_formula_sum   'Er4 Tl8 P8 Se28'
_cell_volume   1414.69184679
_cell_formula_units_Z   4
loop_
 _symmetry_equiv_pos_site_id
 _symmetry_equiv_pos_as_xyz
  1  'x, y, z'
loop_
 _atom_site_type_symbol
 _atom_site_label
 _atom_site_symmetry_multiplicity
 _atom_site_fract_x
 _atom_site_fract_y
 _atom_site_fract_z
 _atom_site_occupancy
  Er  Er0  1  0.89155807  0.57854570  0.73805229  1
  Er  Er1  1  0.20815607  0.92145430  0.76194771  1
  Er  Er2  1  0.10844193  0.42145430  0.26194771  1
  Er  Er3  1  0.79184393  0.07854570  0.23805229  1
  Tl  Tl4  1  0.83716420  0.83461913  0.51943610  1
  Tl  Tl5  1  0.19121943  0.66538087  0.98056390  1
  Tl  Tl6  1  0.16283580  0.16538087  0.48056390  1
  Tl  Tl7  1  0.80878057  0.33461913  0.01943610  1
  Tl  Tl8  1  0.53870162  0.36142929  0.62217112  1
  Tl  Tl9  1  0.52230202  0.13857071  0.87782888  1
  Tl  Tl10  1  0.46129838  0.63857071  0.37782888  1
  Tl  Tl11  1  0.47769798  0.86142929  0.12217112  1
  P  P12  1  0.67968813  0.80260717  0.86080031  1
  P  P13  1  0.34309562  0.69739283  0.63919969  1
  P  P14  1  0.32031187  0.19739283  0.13919969  1
  P  P15  1  0.65690438  0.30260717  0.36080031  1
  P  P16  1  0.98280661  0.28583675  0.80865963  1
  P  P17  1  0.07730299  0.21416325  0.69134037  1
  P  P18  1  0.01719339  0.71416325  0.19134037  1
  P  P19  1  0.92269701  0.78583675  0.30865963  1
  Se  Se20  1  0.00773351  0.13898083  0.90152925  1
  Se  Se21  1  0.04824359  0.36101917  0.59847075  1
  Se  Se22  1  0.99226649  0.86101917  0.09847075  1
  Se  Se23  1  0.95175641  0.63898083  0.40152925  1
  Se  Se24  1  0.18666355  0.39220503  0.80651280  1
  Se  Se25  1  0.38538138  0.10779497  0.69348720  1
  Se  Se26  1  0.81333645  0.60779497  0.19348720  1
  Se  Se27  1  0.61461862  0.89220503  0.30651280  1
  Se  Se28  1  0.16802098  0.61506413  0.58577546  1
  Se  Se29  1  0.36886057  0.88493587  0.91422454  1
  Se  Se30  1  0.83197902  0.38493587  0.41422454  1
  Se  Se31  1  0.63113943  0.11506413  0.08577546  1
  Se  Se32  1  0.21883455  0.67979102  0.77145799  1
  Se  Se33  1  0.67008356  0.82020898  0.72854201  1
  Se  Se34  1  0.78116545  0.32020898  0.22854201  1
  Se  Se35  1  0.32991644  0.17979102  0.27145799  1
  Se  Se36  1  0.76369661  0.62017604  0.90507455  1
  Se  Se37  1  0.28894719  0.87982396  0.59492545  1
  Se  Se38  1  0.23630339  0.37982396  0.09492545  1
  Se  Se39  1  0.71105281  0.12017604  0.40507455  1
  Se  Se40  1  0.87369091  0.89514388  0.89315801  1
  Se  Se41  1  0.66199281  0.60485612  0.60684199  1
  Se  Se42  1  0.12630909  0.10485612  0.10684199  1
  Se  Se43  1  0.33800719  0.39514388  0.39315801  1
  Se  Se44  1  0.88706412  0.10077217  0.69362263  1
  Se  Se45  1  0.68145892  0.39922783  0.80637737  1
  Se  Se46  1  0.11293588  0.89922783  0.30637737  1
  Se  Se47  1  0.31854108  0.60077217  0.19362263  1
