# generated using pymatgen
data_K2Th(AsO4)2
_symmetry_space_group_name_H-M   'P 1'
_cell_length_a   7.91285280
_cell_length_b   9.65377856
_cell_length_c   11.57747796
_cell_angle_alpha   90.00000000
_cell_angle_beta   90.00000000
_cell_angle_gamma   110.65672957
_symmetry_Int_Tables_number   1
_chemical_formula_structural   K2Th(AsO4)2
_chemical_formula_sum   'K8 Th4 As8 O32'
_cell_volume   827.53426203
_cell_formula_units_Z   4
loop_
 _symmetry_equiv_pos_site_id
 _symmetry_equiv_pos_as_xyz
  1  'x, y, z'
loop_
 _atom_site_type_symbol
 _atom_site_label
 _atom_site_symmetry_multiplicity
 _atom_site_fract_x
 _atom_site_fract_y
 _atom_site_fract_z
 _atom_site_occupancy
  K  K0  1  0.89783408  0.04373130  0.37426210  1
  K  K1  1  0.39783408  0.54373130  0.12573790  1
  K  K2  1  0.10216592  0.95626870  0.62573790  1
  K  K3  1  0.60216592  0.45626870  0.87426210  1
  K  K4  1  0.61546043  0.95167063  0.11974550  1
  K  K5  1  0.11546043  0.45167063  0.38025450  1
  K  K6  1  0.38453957  0.04832937  0.88025450  1
  K  K7  1  0.88453957  0.54832937  0.61974550  1
  Th  Th8  1  0.47453049  0.21863287  0.36317168  1
  Th  Th9  1  0.97453049  0.71863287  0.13682832  1
  Th  Th10  1  0.52546951  0.78136713  0.63682832  1
  Th  Th11  1  0.02546951  0.28136713  0.86317168  1
  As  As12  1  0.20960707  0.14533235  0.13861465  1
  As  As13  1  0.70960707  0.64533235  0.36138535  1
  As  As14  1  0.79039293  0.85466765  0.86138535  1
  As  As15  1  0.29039293  0.35466765  0.63861465  1
  As  As16  1  0.32460820  0.85891367  0.36814509  1
  As  As17  1  0.82460820  0.35891367  0.13185491  1
  As  As18  1  0.67539180  0.14108633  0.63185491  1
  As  As19  1  0.17539180  0.64108633  0.86814509  1
  O  O20  1  0.26174275  0.76654715  0.23882743  1
  O  O21  1  0.76174275  0.26654715  0.26117257  1
  O  O22  1  0.73825725  0.23345285  0.76117257  1
  O  O23  1  0.23825725  0.73345285  0.73882743  1
  O  O24  1  0.03171879  0.97908062  0.14106710  1
  O  O25  1  0.53171879  0.47908062  0.35893290  1
  O  O26  1  0.96828121  0.02091938  0.85893290  1
  O  O27  1  0.46828121  0.52091938  0.64106710  1
  O  O28  1  0.41387149  0.12179053  0.15745174  1
  O  O29  1  0.91387149  0.62179053  0.34254826  1
  O  O30  1  0.58612851  0.87820947  0.84254826  1
  O  O31  1  0.08612851  0.37820947  0.65745174  1
  O  O32  1  0.20947212  0.24890584  0.26067055  1
  O  O33  1  0.70947212  0.74890584  0.23932945  1
  O  O34  1  0.79052788  0.75109416  0.73932945  1
  O  O35  1  0.29052788  0.25109416  0.76067055  1
  O  O36  1  0.20953602  0.97801123  0.39459016  1
  O  O37  1  0.70953602  0.47801123  0.10540984  1
  O  O38  1  0.79046398  0.02198877  0.60540984  1
  O  O39  1  0.29046398  0.52198877  0.89459016  1
  O  O40  1  0.54188874  0.98744242  0.36079579  1
  O  O41  1  0.04188874  0.48744242  0.13920421  1
  O  O42  1  0.45811126  0.01255758  0.63920421  1
  O  O43  1  0.95811126  0.51255758  0.86079579  1
  O  O44  1  0.21507767  0.24401332  0.01415710  1
  O  O45  1  0.71507767  0.74401332  0.48584290  1
  O  O46  1  0.78492233  0.75598668  0.98584290  1
  O  O47  1  0.28492233  0.25598668  0.51415710  1
  O  O48  1  0.31064265  0.73633186  0.48003991  1
  O  O49  1  0.81064265  0.23633186  0.01996009  1
  O  O50  1  0.68935735  0.26366814  0.51996009  1
  O  O51  1  0.18935735  0.76366814  0.98003991  1
