# generated using pymatgen
data_Sr5(CoN2)2
_symmetry_space_group_name_H-M   'P 1'
_cell_length_a   8.72079925
_cell_length_b   8.72079925
_cell_length_c   12.46717963
_cell_angle_alpha   90.00000000
_cell_angle_beta   90.00000000
_cell_angle_gamma   90.00000000
_symmetry_Int_Tables_number   1
_chemical_formula_structural   Sr5(CoN2)2
_chemical_formula_sum   'Sr20 Co8 N16'
_cell_volume   948.15817856
_cell_formula_units_Z   4
loop_
 _symmetry_equiv_pos_site_id
 _symmetry_equiv_pos_as_xyz
  1  'x, y, z'
loop_
 _atom_site_type_symbol
 _atom_site_label
 _atom_site_symmetry_multiplicity
 _atom_site_fract_x
 _atom_site_fract_y
 _atom_site_fract_z
 _atom_site_occupancy
  Sr  Sr0  1  0.75000000  0.75000000  0.34594252  1
  Sr  Sr1  1  0.75000000  0.75000000  0.84594252  1
  Sr  Sr2  1  0.25000000  0.25000000  0.65405748  1
  Sr  Sr3  1  0.25000000  0.25000000  0.15405748  1
  Sr  Sr4  1  0.13235381  0.57659017  0.40121324  1
  Sr  Sr5  1  0.36764619  0.57659017  0.90121324  1
  Sr  Sr6  1  0.13235381  0.92340983  0.90121324  1
  Sr  Sr7  1  0.36764619  0.92340983  0.40121324  1
  Sr  Sr8  1  0.57659017  0.13235381  0.90121324  1
  Sr  Sr9  1  0.92340983  0.13235381  0.40121324  1
  Sr  Sr10  1  0.57659017  0.36764619  0.40121324  1
  Sr  Sr11  1  0.92340983  0.36764619  0.90121324  1
  Sr  Sr12  1  0.86764619  0.42340983  0.59878676  1
  Sr  Sr13  1  0.63235381  0.42340983  0.09878676  1
  Sr  Sr14  1  0.86764619  0.07659017  0.09878676  1
  Sr  Sr15  1  0.63235381  0.07659017  0.59878676  1
  Sr  Sr16  1  0.42340983  0.86764619  0.09878676  1
  Sr  Sr17  1  0.07659017  0.86764619  0.59878676  1
  Sr  Sr18  1  0.42340983  0.63235381  0.59878676  1
  Sr  Sr19  1  0.07659017  0.63235381  0.09878676  1
  Co  Co20  1  0.09108208  0.90891792  0.25000000  1
  Co  Co21  1  0.40891792  0.90891792  0.75000000  1
  Co  Co22  1  0.09108208  0.59108208  0.75000000  1
  Co  Co23  1  0.40891792  0.59108208  0.25000000  1
  Co  Co24  1  0.90891792  0.09108208  0.75000000  1
  Co  Co25  1  0.59108208  0.09108208  0.25000000  1
  Co  Co26  1  0.90891792  0.40891792  0.25000000  1
  Co  Co27  1  0.59108208  0.40891792  0.75000000  1
  N  N28  1  0.64065873  0.05015737  0.38716818  1
  N  N29  1  0.85934127  0.05015737  0.88716818  1
  N  N30  1  0.64065873  0.44984263  0.88716818  1
  N  N31  1  0.85934127  0.44984263  0.38716818  1
  N  N32  1  0.05015737  0.64065873  0.88716818  1
  N  N33  1  0.44984263  0.64065873  0.38716818  1
  N  N34  1  0.05015737  0.85934127  0.38716818  1
  N  N35  1  0.44984263  0.85934127  0.88716818  1
  N  N36  1  0.35934127  0.94984263  0.61283182  1
  N  N37  1  0.14065873  0.94984263  0.11283182  1
  N  N38  1  0.35934127  0.55015737  0.11283182  1
  N  N39  1  0.14065873  0.55015737  0.61283182  1
  N  N40  1  0.94984263  0.35934127  0.11283182  1
  N  N41  1  0.55015737  0.35934127  0.61283182  1
  N  N42  1  0.94984263  0.14065873  0.61283182  1
  N  N43  1  0.55015737  0.14065873  0.11283182  1
