# generated using pymatgen
data_Rb4Ge(PS3)4
_symmetry_space_group_name_H-M   'P 1'
_cell_length_a   7.53986541
_cell_length_b   7.53986541
_cell_length_c   24.04366107
_cell_angle_alpha   80.98301669
_cell_angle_beta   80.98301669
_cell_angle_gamma   66.42797952
_symmetry_Int_Tables_number   1
_chemical_formula_structural   Rb4Ge(PS3)4
_chemical_formula_sum   'Rb8 Ge2 P8 S24'
_cell_volume   1230.63852959
_cell_formula_units_Z   2
loop_
 _symmetry_equiv_pos_site_id
 _symmetry_equiv_pos_as_xyz
  1  'x, y, z'
loop_
 _atom_site_type_symbol
 _atom_site_label
 _atom_site_symmetry_multiplicity
 _atom_site_fract_x
 _atom_site_fract_y
 _atom_site_fract_z
 _atom_site_occupancy
  Rb  Rb0  1  0.16847821  0.20809879  0.45193029  1
  Rb  Rb1  1  0.79190121  0.83152179  0.04806971  1
  Rb  Rb2  1  0.83152179  0.79190121  0.54806971  1
  Rb  Rb3  1  0.20809879  0.16847821  0.95193029  1
  Rb  Rb4  1  0.33357263  0.47862219  0.18569333  1
  Rb  Rb5  1  0.52137781  0.66642737  0.31430667  1
  Rb  Rb6  1  0.66642737  0.52137781  0.81430667  1
  Rb  Rb7  1  0.47862219  0.33357263  0.68569333  1
  Ge  Ge8  1  0.97443940  0.02556060  0.25000000  1
  Ge  Ge9  1  0.02556060  0.97443940  0.75000000  1
  P  P10  1  0.89065773  0.29071269  0.12833633  1
  P  P11  1  0.70928731  0.10934227  0.37166367  1
  P  P12  1  0.10934227  0.70928731  0.87166367  1
  P  P13  1  0.29071269  0.89065773  0.62833633  1
  P  P14  1  0.91788879  0.79105277  0.38373613  1
  P  P15  1  0.20894723  0.08211121  0.11626387  1
  P  P16  1  0.08211121  0.20894723  0.61626387  1
  P  P17  1  0.79105277  0.91788879  0.88373613  1
  S  S18  1  0.78542052  0.35123870  0.05464333  1
  S  S19  1  0.64876130  0.21457948  0.44535667  1
  S  S20  1  0.21457948  0.64876130  0.94535667  1
  S  S21  1  0.35123870  0.78542052  0.55464333  1
  S  S22  1  0.85634417  0.50736978  0.17254201  1
  S  S23  1  0.49263022  0.14365583  0.32745799  1
  S  S24  1  0.14365583  0.49263022  0.82745799  1
  S  S25  1  0.50736978  0.85634417  0.67254201  1
  S  S26  1  0.90856303  0.22202248  0.31832809  1
  S  S27  1  0.77797752  0.09143697  0.18167191  1
  S  S28  1  0.09143697  0.77797752  0.68167191  1
  S  S29  1  0.22202248  0.90856303  0.81832809  1
  S  S30  1  0.76560982  0.63524707  0.42090928  1
  S  S31  1  0.36475293  0.23439018  0.07909072  1
  S  S32  1  0.23439018  0.36475293  0.57909072  1
  S  S33  1  0.63524707  0.76560982  0.92090928  1
  S  S34  1  0.15034235  0.76077692  0.41890428  1
  S  S35  1  0.23922308  0.84965765  0.08109572  1
  S  S36  1  0.84965765  0.23922308  0.58109572  1
  S  S37  1  0.76077692  0.15034235  0.91890428  1
  S  S38  1  0.99128713  0.73205953  0.29428144  1
  S  S39  1  0.26794047  0.00871287  0.20571856  1
  S  S40  1  0.00871287  0.26794047  0.70571856  1
  S  S41  1  0.73205953  0.99128713  0.79428144  1
