# generated using pymatgen
data_Ba2H2Pd(S5O17)2
_symmetry_space_group_name_H-M   'P 1'
_cell_length_a   9.14468069
_cell_length_b   9.49776496
_cell_length_c   9.66915897
_cell_angle_alpha   60.33374900
_cell_angle_beta   81.35948691
_cell_angle_gamma   88.00086313
_symmetry_Int_Tables_number   1
_chemical_formula_structural   Ba2H2Pd(S5O17)2
_chemical_formula_sum   'Ba2 H2 Pd1 S10 O34'
_cell_volume   720.68227392
_cell_formula_units_Z   1
loop_
 _symmetry_equiv_pos_site_id
 _symmetry_equiv_pos_as_xyz
  1  'x, y, z'
loop_
 _atom_site_type_symbol
 _atom_site_label
 _atom_site_symmetry_multiplicity
 _atom_site_fract_x
 _atom_site_fract_y
 _atom_site_fract_z
 _atom_site_occupancy
  Ba  Ba0  1  0.73727890  0.70365269  0.08681602  1
  Ba  Ba1  1  0.26272110  0.29634731  0.91318398  1
  H  H2  1  0.57631618  0.15928459  0.43333832  1
  H  H3  1  0.42368382  0.84071541  0.56666168  1
  Pd  Pd4  1  -0.00000000  -0.00000000  0.50000000  1
  S  S5  1  0.64255003  0.15229895  0.72900631  1
  S  S6  1  0.35744997  0.84770105  0.27099369  1
  S  S7  1  0.70087328  0.49827326  0.59511529  1
  S  S8  1  0.29912672  0.50172674  0.40488471  1
  S  S9  1  0.92740823  0.62083076  0.70823633  1
  S  S10  1  0.07259177  0.37916924  0.29176367  1
  S  S11  1  0.86621301  0.03603249  0.20729330  1
  S  S12  1  0.13378699  0.96396751  0.79270670  1
  S  S13  1  0.61281449  0.24893821  0.17571095  1
  S  S14  1  0.38718551  0.75106179  0.82428905  1
  O  O15  1  0.50528729  0.17288103  0.81152829  1
  O  O16  1  0.49471271  0.82711897  0.18847171  1
  O  O17  1  0.63674747  0.17318273  0.57122247  1
  O  O18  1  0.36325253  0.82681727  0.42877753  1
  O  O19  1  0.73235358  0.02327101  0.82684026  1
  O  O20  1  0.26764642  0.97672899  0.17315974  1
  O  O21  1  0.75813737  0.31944303  0.68604605  1
  O  O22  1  0.24186263  0.68055697  0.31395395  1
  O  O23  1  0.58329854  0.52116563  0.69636907  1
  O  O24  1  0.41670146  0.47883437  0.30363093  1
  O  O25  1  0.68250509  0.54193315  0.43392770  1
  O  O26  1  0.31749491  0.45806685  0.56607230  1
  O  O27  1  0.84945933  0.59773242  0.56932209  1
  O  O28  1  0.15054067  0.40226758  0.43067791  1
  O  O29  1  0.80917230  0.65538101  0.80159745  1
  O  O30  1  0.19082770  0.34461899  0.19840255  1
  O  O31  1  0.00707334  0.47602510  0.78879739  1
  O  O32  1  0.99292666  0.52397490  0.21120261  1
  O  O33  1  0.03206095  0.75934965  0.59036295  1
  O  O34  1  0.96793905  0.24065035  0.40963705  1
  O  O35  1  0.83650188  0.99009654  0.38161094  1
  O  O36  1  0.16349812  0.00990346  0.61838906  1
  O  O37  1  0.86622548  0.89861372  0.18250905  1
  O  O38  1  0.13377452  0.10138628  0.81749095  1
  O  O39  1  0.97949301  0.16254900  0.11189294  1
  O  O40  1  0.02050699  0.83745100  0.88810706  1
  O  O41  1  0.70517059  0.11436247  0.14607990  1
  O  O42  1  0.29482941  0.88563753  0.85392010  1
  O  O43  1  0.53019546  0.14844631  0.34927737  1
  O  O44  1  0.46980454  0.85155369  0.65072263  1
  O  O45  1  0.50864139  0.29195129  0.06664054  1
  O  O46  1  0.49135861  0.70804871  0.93335946  1
  O  O47  1  0.71251355  0.37022571  0.16275349  1
  O  O48  1  0.28748645  0.62977429  0.83724651  1
