# generated using pymatgen
data_Nd2ZrS5
_symmetry_space_group_name_H-M   'P 1'
_cell_length_a   7.41700758
_cell_length_b   7.98859332
_cell_length_c   11.78954329
_cell_angle_alpha   90.00000000
_cell_angle_beta   90.00000000
_cell_angle_gamma   90.00000000
_symmetry_Int_Tables_number   1
_chemical_formula_structural   Nd2ZrS5
_chemical_formula_sum   'Nd8 Zr4 S20'
_cell_volume   698.54761975
_cell_formula_units_Z   4
loop_
 _symmetry_equiv_pos_site_id
 _symmetry_equiv_pos_as_xyz
  1  'x, y, z'
loop_
 _atom_site_type_symbol
 _atom_site_label
 _atom_site_symmetry_multiplicity
 _atom_site_fract_x
 _atom_site_fract_y
 _atom_site_fract_z
 _atom_site_occupancy
  Nd  Nd0  1  0.97323058  0.00168025  0.17745928  1
  Nd  Nd1  1  0.52676942  0.49831975  0.67745928  1
  Nd  Nd2  1  0.02676942  0.50168025  0.82254072  1
  Nd  Nd3  1  0.47323058  0.99831975  0.32254072  1
  Nd  Nd4  1  0.02676942  0.99831975  0.82254072  1
  Nd  Nd5  1  0.47323058  0.50168025  0.32254072  1
  Nd  Nd6  1  0.97323058  0.49831975  0.17745928  1
  Nd  Nd7  1  0.52676942  0.00168025  0.67745928  1
  Zr  Zr8  1  0.42314521  0.75000000  0.00711339  1
  Zr  Zr9  1  0.07685479  0.75000000  0.50711339  1
  Zr  Zr10  1  0.57685479  0.25000000  0.99288661  1
  Zr  Zr11  1  0.92314521  0.25000000  0.49288661  1
  S  S12  1  0.65969429  0.53567057  0.91028868  1
  S  S13  1  0.84030571  0.96432943  0.41028868  1
  S  S14  1  0.34030571  0.03567057  0.08971132  1
  S  S15  1  0.15969429  0.46432943  0.58971132  1
  S  S16  1  0.34030571  0.46432943  0.08971132  1
  S  S17  1  0.15969429  0.03567057  0.58971132  1
  S  S18  1  0.65969429  0.96432943  0.91028868  1
  S  S19  1  0.84030571  0.53567057  0.41028868  1
  S  S20  1  0.66414116  0.75000000  0.18115768  1
  S  S21  1  0.83585884  0.75000000  0.68115768  1
  S  S22  1  0.33585884  0.25000000  0.81884232  1
  S  S23  1  0.16414116  0.25000000  0.31884232  1
  S  S24  1  0.05643579  0.75000000  0.00424682  1
  S  S25  1  0.44356421  0.75000000  0.50424682  1
  S  S26  1  0.94356421  0.25000000  0.99575318  1
  S  S27  1  0.55643579  0.25000000  0.49575318  1
  S  S28  1  0.31431362  0.75000000  0.79415601  1
  S  S29  1  0.18568638  0.75000000  0.29415601  1
  S  S30  1  0.68568638  0.25000000  0.20584399  1
  S  S31  1  0.81431362  0.25000000  0.70584399  1
