# generated using pymatgen
data_Ag2P2H2O7
_symmetry_space_group_name_H-M   'P 1'
_cell_length_a   7.15372942
_cell_length_b   7.18572796
_cell_length_c   14.50367473
_cell_angle_alpha   82.94859408
_cell_angle_beta   75.72253769
_cell_angle_gamma   60.14719733
_symmetry_Int_Tables_number   1
_chemical_formula_structural   Ag2P2H2O7
_chemical_formula_sum   'Ag8 P8 H8 O28'
_cell_volume   626.65507681
_cell_formula_units_Z   4
loop_
 _symmetry_equiv_pos_site_id
 _symmetry_equiv_pos_as_xyz
  1  'x, y, z'
loop_
 _atom_site_type_symbol
 _atom_site_label
 _atom_site_symmetry_multiplicity
 _atom_site_fract_x
 _atom_site_fract_y
 _atom_site_fract_z
 _atom_site_occupancy
  Ag  Ag0  1  0.63217177  0.03568990  0.65105833  1
  Ag  Ag1  1  0.71676990  0.46431010  0.65105833  1
  Ag  Ag2  1  0.83213833  0.03568990  0.84894167  1
  Ag  Ag3  1  0.31892000  0.46431010  0.84894167  1
  Ag  Ag4  1  0.36782823  0.96431010  0.34894167  1
  Ag  Ag5  1  0.28323010  0.53568990  0.34894167  1
  Ag  Ag6  1  0.16786167  0.96431010  0.15105833  1
  Ag  Ag7  1  0.68108000  0.53568990  0.15105833  1
  P  P8  1  0.21071102  0.53821496  0.60553956  1
  P  P9  1  0.18374942  0.96178504  0.60553956  1
  P  P10  1  0.75107402  0.53821496  0.89446044  1
  P  P11  1  0.35446554  0.96178504  0.89446044  1
  P  P12  1  0.78928898  0.46178504  0.39446044  1
  P  P13  1  0.81625058  0.03821496  0.39446044  1
  P  P14  1  0.24892598  0.46178504  0.10553956  1
  P  P15  1  0.64553446  0.03821496  0.10553956  1
  H  H16  1  0.76146635  0.75000000  0.47706729  1
  H  H17  1  0.98853365  0.75000000  0.02293271  1
  H  H18  1  0.23853365  0.25000000  0.52293271  1
  H  H19  1  0.01146635  0.25000000  0.97706729  1
  H  H20  1  0.05256999  0.39486003  0.25000000  1
  H  H21  1  0.69743001  0.10513997  0.25000000  1
  H  H22  1  0.94743001  0.60513997  0.75000000  1
  H  H23  1  0.30256999  0.89486003  0.75000000  1
  O  O24  1  0.22134453  0.75000000  0.55731094  1
  O  O25  1  0.52865547  0.75000000  0.94268906  1
  O  O26  1  0.77865547  0.25000000  0.44268906  1
  O  O27  1  0.47134453  0.25000000  0.05731094  1
  O  O28  1  0.77364116  0.91013750  0.48259314  1
  O  O29  1  0.74376570  0.58986250  0.48259314  1
  O  O30  1  0.81622134  0.91013750  0.01740686  1
  O  O31  1  0.16637180  0.58986250  0.01740686  1
  O  O32  1  0.22635884  0.08986250  0.51740686  1
  O  O33  1  0.25623430  0.41013750  0.51740686  1
  O  O34  1  0.18377866  0.08986250  0.98259314  1
  O  O35  1  0.83362820  0.41013750  0.98259314  1
  O  O36  1  0.91780409  0.61057995  0.83532925  1
  O  O37  1  0.24686666  0.88942005  0.83532925  1
  O  O38  1  0.97161596  0.61057995  0.66467075  1
  O  O39  1  0.36371329  0.88942005  0.66467075  1
  O  O40  1  0.08219591  0.38942005  0.16467075  1
  O  O41  1  0.75313334  0.11057995  0.16467075  1
  O  O42  1  0.02838404  0.38942005  0.33532925  1
  O  O43  1  0.63628671  0.11057995  0.33532925  1
  O  O44  1  0.52298683  0.92902895  0.16769362  1
  O  O45  1  0.30931955  0.57097105  0.16769362  1
  O  O46  1  0.04798422  0.92902895  0.33230638  1
  O  O47  1  0.61970940  0.57097105  0.33230638  1
  O  O48  1  0.47701317  0.07097105  0.83230638  1
  O  O49  1  0.69068045  0.42902895  0.83230638  1
  O  O50  1  0.95201578  0.07097105  0.66769362  1
  O  O51  1  0.38029060  0.42902895  0.66769362  1
