# generated using pymatgen
data_Ca5(IO6)2
_symmetry_space_group_name_H-M   'P 1'
_cell_length_a   9.77563487
_cell_length_b   9.77563487
_cell_length_c   19.14996388
_cell_angle_alpha   75.21225344
_cell_angle_beta   75.21225344
_cell_angle_gamma   59.99999709
_symmetry_Int_Tables_number   1
_chemical_formula_structural   Ca5(IO6)2
_chemical_formula_sum   'Ca30 I12 O72'
_cell_volume   1514.45575970
_cell_formula_units_Z   6
loop_
 _symmetry_equiv_pos_site_id
 _symmetry_equiv_pos_as_xyz
  1  'x, y, z'
loop_
 _atom_site_type_symbol
 _atom_site_label
 _atom_site_symmetry_multiplicity
 _atom_site_fract_x
 _atom_site_fract_y
 _atom_site_fract_z
 _atom_site_occupancy
  Ca  Ca0  1  0.02528117  0.69418548  0.94143966  1
  Ca  Ca1  1  0.69418548  0.33909369  0.94143966  1
  Ca  Ca2  1  0.33909369  0.02528117  0.94143966  1
  Ca  Ca3  1  0.52528117  0.83909369  0.44143966  1
  Ca  Ca4  1  0.83909369  0.19418548  0.44143966  1
  Ca  Ca5  1  0.19418548  0.52528117  0.44143966  1
  Ca  Ca6  1  0.97471883  0.30581452  0.05856034  1
  Ca  Ca7  1  0.30581452  0.66090631  0.05856034  1
  Ca  Ca8  1  0.66090631  0.97471883  0.05856034  1
  Ca  Ca9  1  0.47471883  0.16090631  0.55856034  1
  Ca  Ca10  1  0.16090631  0.80581452  0.55856034  1
  Ca  Ca11  1  0.80581452  0.47471883  0.55856034  1
  Ca  Ca12  1  0.22895680  0.90182991  0.35160328  1
  Ca  Ca13  1  0.90182991  0.51761001  0.35160328  1
  Ca  Ca14  1  0.51761001  0.22895680  0.35160328  1
  Ca  Ca15  1  0.72895680  0.01761001  0.85160328  1
  Ca  Ca16  1  0.01761001  0.40182991  0.85160328  1
  Ca  Ca17  1  0.40182991  0.72895680  0.85160328  1
  Ca  Ca18  1  0.77104320  0.09817009  0.64839672  1
  Ca  Ca19  1  0.09817009  0.48238999  0.64839672  1
  Ca  Ca20  1  0.48238999  0.77104320  0.64839672  1
  Ca  Ca21  1  0.27104320  0.98238999  0.14839672  1
  Ca  Ca22  1  0.98238999  0.59817009  0.14839672  1
  Ca  Ca23  1  0.59817009  0.27104320  0.14839672  1
  Ca  Ca24  1  0.60321930  0.60321930  0.19034210  1
  Ca  Ca25  1  0.10321930  0.10321930  0.69034210  1
  Ca  Ca26  1  0.39678070  0.39678070  0.80965790  1
  Ca  Ca27  1  0.89678070  0.89678070  0.30965790  1
  Ca  Ca28  1  0.75000000  0.75000000  0.75000000  1
  Ca  Ca29  1  0.25000000  0.25000000  0.25000000  1
  I  I30  1  0.42314203  0.07685797  0.75000000  1
  I  I31  1  0.07685797  0.75000000  0.75000000  1
  I  I32  1  0.75000000  0.42314203  0.75000000  1
  I  I33  1  0.92314203  0.25000000  0.25000000  1
  I  I34  1  0.25000000  0.57685797  0.25000000  1
  I  I35  1  0.57685797  0.92314203  0.25000000  1
  I  I36  1  0.66084112  0.66084112  0.01747665  1
  I  I37  1  0.16084112  0.16084112  0.51747665  1
  I  I38  1  0.33915888  0.33915888  0.98252335  1
  I  I39  1  0.83915888  0.83915888  0.48252335  1
  I  I40  1  0.50000000  0.50000000  0.50000000  1
  I  I41  1  -0.00000000  -0.00000000  0.00000000  1
  O  O42  1  0.91309573  0.72787362  0.82581799  1
  O  O43  1  0.72787362  0.53321266  0.82581799  1
  O  O44  1  0.53321266  0.91309573  0.82581799  1
  O  O45  1  0.41309573  0.03321266  0.32581799  1
  O  O46  1  0.03321266  0.22787362  0.32581799  1
  O  O47  1  0.22787362  0.41309573  0.32581799  1
  O  O48  1  0.08690427  0.27212638  0.17418201  1
  O  O49  1  0.27212638  0.46678734  0.17418201  1
  O  O50  1  0.46678734  0.08690427  0.17418201  1
  O  O51  1  0.58690427  0.96678734  0.67418201  1
  O  O52  1  0.96678734  0.77212638  0.67418201  1
  O  O53  1  0.77212638  0.58690427  0.67418201  1
  O  O54  1  0.69453412  0.48918143  0.44313037  1
  O  O55  1  0.48918143  0.37315409  0.44313037  1
  O  O56  1  0.37315409  0.69453412  0.44313037  1
  O  O57  1  0.19453412  0.87315409  0.94313037  1
  O  O58  1  0.87315409  0.98918143  0.94313037  1
  O  O59  1  0.98918143  0.19453412  0.94313037  1
  O  O60  1  0.30546588  0.51081857  0.55686963  1
  O  O61  1  0.51081857  0.62684591  0.55686963  1
  O  O62  1  0.62684591  0.30546588  0.55686963  1
  O  O63  1  0.80546588  0.12684591  0.05686963  1
  O  O64  1  0.12684591  0.01081857  0.05686963  1
  O  O65  1  0.01081857  0.80546588  0.05686963  1
  O  O66  1  0.73186172  0.81049823  0.96400448  1
  O  O67  1  0.81049823  0.49363557  0.96400448  1
  O  O68  1  0.49363557  0.73186172  0.96400448  1
  O  O69  1  0.23186172  0.99363557  0.46400448  1
  O  O70  1  0.99363557  0.31049823  0.46400448  1
  O  O71  1  0.31049823  0.23186172  0.46400448  1
  O  O72  1  0.26813828  0.18950177  0.03599552  1
  O  O73  1  0.18950177  0.50636443  0.03599552  1
  O  O74  1  0.50636443  0.26813828  0.03599552  1
  O  O75  1  0.76813828  0.00636443  0.53599552  1
  O  O76  1  0.00636443  0.68950177  0.53599552  1
  O  O77  1  0.68950177  0.76813828  0.53599552  1
  O  O78  1  0.51945370  0.81983580  0.07964877  1
  O  O79  1  0.81983580  0.58106173  0.07964877  1
  O  O80  1  0.58106173  0.51945370  0.07964877  1
  O  O81  1  0.01945370  0.08106173  0.57964877  1
  O  O82  1  0.08106173  0.31983580  0.57964877  1
  O  O83  1  0.31983580  0.01945370  0.57964877  1
  O  O84  1  0.48054630  0.18016420  0.92035123  1
  O  O85  1  0.18016420  0.41893827  0.92035123  1
  O  O86  1  0.41893827  0.48054630  0.92035123  1
  O  O87  1  0.98054630  0.91893827  0.42035123  1
  O  O88  1  0.91893827  0.68016420  0.42035123  1
  O  O89  1  0.68016420  0.98054630  0.42035123  1
  O  O90  1  0.72703681  0.81055835  0.17553990  1
  O  O91  1  0.81055835  0.28686494  0.17553990  1
  O  O92  1  0.28686494  0.72703681  0.17553990  1
  O  O93  1  0.22703681  0.78686494  0.67553990  1
  O  O94  1  0.78686494  0.31055835  0.67553990  1
  O  O95  1  0.31055835  0.22703681  0.67553990  1
  O  O96  1  0.27296319  0.18944165  0.82446010  1
  O  O97  1  0.18944165  0.71313506  0.82446010  1
  O  O98  1  0.71313506  0.27296319  0.82446010  1
  O  O99  1  0.77296319  0.21313506  0.32446010  1
  O  O100  1  0.21313506  0.68944165  0.32446010  1
  O  O101  1  0.68944165  0.77296319  0.32446010  1
  O  O102  1  0.44545882  0.82930808  0.25052193  1
  O  O103  1  0.82930808  0.47471117  0.25052193  1
  O  O104  1  0.47471117  0.44545882  0.25052193  1
  O  O105  1  0.94545882  0.97471117  0.75052193  1
  O  O106  1  0.97471117  0.32930808  0.75052193  1
  O  O107  1  0.32930808  0.94545882  0.75052193  1
  O  O108  1  0.55454118  0.17069192  0.74947807  1
  O  O109  1  0.17069192  0.52528883  0.74947807  1
  O  O110  1  0.52528883  0.55454118  0.74947807  1
  O  O111  1  0.05454118  0.02528883  0.24947807  1
  O  O112  1  0.02528883  0.67069192  0.24947807  1
  O  O113  1  0.67069192  0.05454118  0.24947807  1
