# generated using pymatgen
data_CsFeAgF6
_symmetry_space_group_name_H-M   'P 1'
_cell_length_a   7.58640306
_cell_length_b   7.72137602
_cell_length_c   10.86819580
_cell_angle_alpha   90.00000000
_cell_angle_beta   90.00000000
_cell_angle_gamma   90.00000000
_symmetry_Int_Tables_number   1
_chemical_formula_structural   CsFeAgF6
_chemical_formula_sum   'Cs4 Fe4 Ag4 F24'
_cell_volume   636.63142066
_cell_formula_units_Z   4
loop_
 _symmetry_equiv_pos_site_id
 _symmetry_equiv_pos_as_xyz
  1  'x, y, z'
loop_
 _atom_site_type_symbol
 _atom_site_label
 _atom_site_symmetry_multiplicity
 _atom_site_fract_x
 _atom_site_fract_y
 _atom_site_fract_z
 _atom_site_occupancy
  Cs  Cs0  1  0.98350708  0.25000000  0.37454485  1
  Cs  Cs1  1  0.48350708  0.25000000  0.12545515  1
  Cs  Cs2  1  0.01649292  0.75000000  0.62545515  1
  Cs  Cs3  1  0.51649292  0.75000000  0.87454485  1
  Fe  Fe4  1  0.50000000  0.00000000  0.50000000  1
  Fe  Fe5  1  -0.00000000  0.50000000  0.00000000  1
  Fe  Fe6  1  0.50000000  0.50000000  0.50000000  1
  Fe  Fe7  1  -0.00000000  0.00000000  0.00000000  1
  Ag  Ag8  1  0.79648035  0.25000000  0.74317775  1
  Ag  Ag9  1  0.29648035  0.25000000  0.75682225  1
  Ag  Ag10  1  0.20351965  0.75000000  0.25682225  1
  Ag  Ag11  1  0.70351965  0.75000000  0.24317775  1
  F  F12  1  0.55166490  0.25000000  0.82415608  1
  F  F13  1  0.05166490  0.25000000  0.67584392  1
  F  F14  1  0.44833510  0.75000000  0.17584392  1
  F  F15  1  0.94833510  0.75000000  0.32415608  1
  F  F16  1  0.94200975  0.25000000  0.01671055  1
  F  F17  1  0.44200975  0.25000000  0.48328945  1
  F  F18  1  0.05799025  0.75000000  0.98328945  1
  F  F19  1  0.55799025  0.75000000  0.51671055  1
  F  F20  1  0.62981649  0.00672622  0.34461873  1
  F  F21  1  0.12981649  0.49327378  0.15538127  1
  F  F22  1  0.37018351  0.50672622  0.65538127  1
  F  F23  1  0.87018351  0.99327378  0.84461873  1
  F  F24  1  0.37018351  0.99327378  0.65538127  1
  F  F25  1  0.87018351  0.50672622  0.84461873  1
  F  F26  1  0.62981649  0.49327378  0.34461873  1
  F  F27  1  0.12981649  0.00672622  0.15538127  1
  F  F28  1  0.71929738  0.05060296  0.58554256  1
  F  F29  1  0.21929738  0.44939704  0.91445744  1
  F  F30  1  0.28070262  0.55060296  0.41445744  1
  F  F31  1  0.78070262  0.94939704  0.08554256  1
  F  F32  1  0.28070262  0.94939704  0.41445744  1
  F  F33  1  0.78070262  0.55060296  0.08554256  1
  F  F34  1  0.71929738  0.44939704  0.58554256  1
  F  F35  1  0.21929738  0.05060296  0.91445744  1
