# generated using pymatgen
data_Ba3B6O11F2
_symmetry_space_group_name_H-M   'P 1'
_cell_length_a   6.64294680
_cell_length_b   8.60871299
_cell_length_c   9.80478951
_cell_angle_alpha   90.00000000
_cell_angle_beta   101.43391296
_cell_angle_gamma   90.00000000
_symmetry_Int_Tables_number   1
_chemical_formula_structural   Ba3B6O11F2
_chemical_formula_sum   'Ba6 B12 O22 F4'
_cell_volume   549.58085970
_cell_formula_units_Z   2
loop_
 _symmetry_equiv_pos_site_id
 _symmetry_equiv_pos_as_xyz
  1  'x, y, z'
loop_
 _atom_site_type_symbol
 _atom_site_label
 _atom_site_symmetry_multiplicity
 _atom_site_fract_x
 _atom_site_fract_y
 _atom_site_fract_z
 _atom_site_occupancy
  Ba  Ba0  1  0.49384404  0.43386338  0.26072937  1
  Ba  Ba1  1  0.50615596  0.93386338  0.73927063  1
  Ba  Ba2  1  0.06153514  0.08015633  0.04108874  1
  Ba  Ba3  1  0.93846486  0.58015633  0.95891126  1
  Ba  Ba4  1  0.93760067  0.08751581  0.46383288  1
  Ba  Ba5  1  0.06239933  0.58751581  0.53616712  1
  B  B6  1  0.42196856  0.06156821  0.36407045  1
  B  B7  1  0.57803144  0.56156821  0.63592955  1
  B  B8  1  0.50449132  0.25382239  0.95211128  1
  B  B9  1  0.49550868  0.75382239  0.04788872  1
  B  B10  1  0.21210294  0.81638848  0.29737119  1
  B  B11  1  0.78789706  0.31638848  0.70262881  1
  B  B12  1  0.41761882  0.28718755  0.56641238  1
  B  B13  1  0.58238118  0.78718755  0.43358762  1
  B  B14  1  0.80943243  0.79400113  0.23388804  1
  B  B15  1  0.19056757  0.29400113  0.76611196  1
  B  B16  1  0.59170964  0.02938998  0.13480133  1
  B  B17  1  0.40829036  0.52938998  0.86519867  1
  O  O18  1  0.78769051  0.95786835  0.19538504  1
  O  O19  1  0.21230949  0.45786835  0.80461496  1
  O  O20  1  0.32269938  0.19545346  0.87582795  1
  O  O21  1  0.67730062  0.69545346  0.12417205  1
  O  O22  1  0.49428892  0.10978172  0.23507777  1
  O  O23  1  0.50571108  0.60978172  0.76492223  1
  O  O24  1  0.38427832  0.72630788  0.34161273  1
  O  O25  1  0.61572168  0.22630788  0.65838727  1
  O  O26  1  0.23828187  0.25615778  0.63131940  1
  O  O27  1  0.76171813  0.75615778  0.36868060  1
  O  O28  1  0.03008433  0.74171992  0.23741707  1
  O  O29  1  0.96991567  0.24171992  0.76258293  1
  O  O30  1  0.55868185  0.95616979  0.45838518  1
  O  O31  1  0.44131815  0.45616979  0.54161482  1
  O  O32  1  0.64000256  0.15386162  0.03445929  1
  O  O33  1  0.35999744  0.65386162  0.96554071  1
  O  O34  1  0.21755442  0.97543798  0.31283347  1
  O  O35  1  0.78244558  0.47543798  0.68716653  1
  O  O36  1  0.37878250  0.20672025  0.43106055  1
  O  O37  1  0.62121750  0.70672025  0.56893945  1
  O  O38  1  0.55341741  0.40951093  0.94818676  1
  O  O39  1  0.44658259  0.90951093  0.05181324  1
  F  F40  1  0.86930457  0.86622801  0.88461540  1
  F  F41  1  0.13069543  0.36622801  0.11538460  1
  F  F42  1  0.85787893  0.36994907  0.38777033  1
  F  F43  1  0.14212107  0.86994907  0.61222967  1
