# generated using pymatgen
data_Ca2AlAgO5
_symmetry_space_group_name_H-M   'P 1'
_cell_length_a   5.47641730
_cell_length_b   5.84605753
_cell_length_c   8.47484593
_cell_angle_alpha   110.29470480
_cell_angle_beta   108.99585568
_cell_angle_gamma   89.84798495
_symmetry_Int_Tables_number   1
_chemical_formula_structural   Ca2AlAgO5
_chemical_formula_sum   'Ca4 Al2 Ag2 O10'
_cell_volume   238.75729098
_cell_formula_units_Z   2
loop_
 _symmetry_equiv_pos_site_id
 _symmetry_equiv_pos_as_xyz
  1  'x, y, z'
loop_
 _atom_site_type_symbol
 _atom_site_label
 _atom_site_symmetry_multiplicity
 _atom_site_fract_x
 _atom_site_fract_y
 _atom_site_fract_z
 _atom_site_occupancy
  Ca  Ca0  1  0.13551823  0.64887783  0.22954325  1
  Ca  Ca1  1  0.40646206  0.91957421  0.77111603  1
  Ca  Ca2  1  0.90795333  0.35594544  0.77109751  1
  Ca  Ca3  1  0.63488510  0.08498098  0.22914036  1
  Al  Al4  1  0.28251277  0.32852044  0.50025458  1
  Al  Al5  1  0.78213145  0.67656003  0.50041351  1
  Ag  Ag6  1  0.50533367  0.50226484  0.00007215  1
  Ag  Ag7  1  0.00512613  0.00268097  0.00033035  1
  O  O8  1  0.60880140  0.40704501  0.50043541  1
  O  O9  1  0.10843628  0.59819811  0.50009338  1
  O  O10  1  0.60510419  0.74890346  0.31225398  1
  O  O11  1  0.29321185  0.25595702  0.68777169  1
  O  O12  1  0.10671186  0.06793219  0.31077108  1
  O  O13  1  0.79442431  0.93707982  0.68946565  1
  O  O14  1  0.23313873  0.73152964  0.94038990  1
  O  O15  1  0.28696952  0.27634755  0.05700668  1
  O  O16  1  0.78859610  0.28775179  0.06077685  1
  O  O17  1  0.73434700  0.71472067  0.94294464  1
