# generated using pymatgen
data_Rb3Ni2(NO3)7
_symmetry_space_group_name_H-M   'P 1'
_cell_length_a   7.35639051
_cell_length_b   9.16242293
_cell_length_c   28.60788165
_cell_angle_alpha   90.00000000
_cell_angle_beta   90.00000000
_cell_angle_gamma   90.00000000
_symmetry_Int_Tables_number   1
_chemical_formula_structural   Rb3Ni2(NO3)7
_chemical_formula_sum   'Rb12 Ni8 N28 O84'
_cell_volume   1928.23876902
_cell_formula_units_Z   4
loop_
 _symmetry_equiv_pos_site_id
 _symmetry_equiv_pos_as_xyz
  1  'x, y, z'
loop_
 _atom_site_type_symbol
 _atom_site_label
 _atom_site_symmetry_multiplicity
 _atom_site_fract_x
 _atom_site_fract_y
 _atom_site_fract_z
 _atom_site_occupancy
  Rb  Rb0  1  0.91415371  0.98189141  0.25000000  1
  Rb  Rb1  1  0.58584629  0.48189141  0.25000000  1
  Rb  Rb2  1  0.08584629  0.01810859  0.75000000  1
  Rb  Rb3  1  0.41415371  0.51810859  0.75000000  1
  Rb  Rb4  1  0.87767170  0.99783277  0.43607764  1
  Rb  Rb5  1  0.62232830  0.49783277  0.06392236  1
  Rb  Rb6  1  0.12232830  0.00216723  0.93607764  1
  Rb  Rb7  1  0.37767170  0.50216723  0.56392236  1
  Rb  Rb8  1  0.12232830  0.00216723  0.56392236  1
  Rb  Rb9  1  0.37767170  0.50216723  0.93607764  1
  Rb  Rb10  1  0.87767170  0.99783277  0.06392236  1
  Rb  Rb11  1  0.62232830  0.49783277  0.43607764  1
  Ni  Ni12  1  0.09868527  0.36976706  0.35951296  1
  Ni  Ni13  1  0.40131473  0.86976706  0.14048704  1
  Ni  Ni14  1  0.90131473  0.63023294  0.85951296  1
  Ni  Ni15  1  0.59868527  0.13023294  0.64048704  1
  Ni  Ni16  1  0.90131473  0.63023294  0.64048704  1
  Ni  Ni17  1  0.59868527  0.13023294  0.85951296  1
  Ni  Ni18  1  0.09868527  0.36976706  0.14048704  1
  Ni  Ni19  1  0.40131473  0.86976706  0.35951296  1
  N  N20  1  0.37233104  0.87803661  0.25000000  1
  N  N21  1  0.12766896  0.37803661  0.25000000  1
  N  N22  1  0.62766896  0.12196339  0.75000000  1
  N  N23  1  0.87233104  0.62196339  0.75000000  1
  N  N24  1  0.10723387  0.34020162  0.46444316  1
  N  N25  1  0.39276613  0.84020162  0.03555684  1
  N  N26  1  0.89276613  0.65979838  0.96444316  1
  N  N27  1  0.60723387  0.15979838  0.53555684  1
  N  N28  1  0.89276613  0.65979838  0.53555684  1
  N  N29  1  0.60723387  0.15979838  0.96444316  1
  N  N30  1  0.10723387  0.34020162  0.03555684  1
  N  N31  1  0.39276613  0.84020162  0.46444316  1
  N  N32  1  0.08328700  0.68388993  0.38203802  1
  N  N33  1  0.41671300  0.18388993  0.11796198  1
  N  N34  1  0.91671300  0.31611007  0.88203802  1
  N  N35  1  0.58328700  0.81611007  0.61796198  1
  N  N36  1  0.91671300  0.31611007  0.61796198  1
  N  N37  1  0.58328700  0.81611007  0.88203802  1
  N  N38  1  0.08328700  0.68388993  0.11796198  1
  N  N39  1  0.41671300  0.18388993  0.38203802  1
  N  N40  1  0.69012110  0.75617723  0.32778830  1
  N  N41  1  0.80987890  0.25617723  0.17221170  1
  N  N42  1  0.30987890  0.24382277  0.82778830  1
  N  N43  1  0.19012110  0.74382277  0.67221170  1
  N  N44  1  0.30987890  0.24382277  0.67221170  1
  N  N45  1  0.19012110  0.74382277  0.82778830  1
  N  N46  1  0.69012110  0.75617723  0.17221170  1
  N  N47  1  0.80987890  0.25617723  0.32778830  1
  O  O48  1  0.01360204  0.31481255  0.42620664  1
  O  O49  1  0.48639796  0.81481255  0.07379336  1
  O  O50  1  0.98639796  0.68518745  0.92620664  1
  O  O51  1  0.51360204  0.18518745  0.57379336  1
  O  O52  1  0.98639796  0.68518745  0.57379336  1
  O  O53  1  0.51360204  0.18518745  0.92620664  1
  O  O54  1  0.01360204  0.31481255  0.07379336  1
  O  O55  1  0.48639796  0.81481255  0.42620664  1
  O  O56  1  0.96419891  0.34326913  0.25000000  1
  O  O57  1  0.53580109  0.84326913  0.25000000  1
  O  O58  1  0.03580109  0.65673087  0.75000000  1
  O  O59  1  0.46419891  0.15673087  0.75000000  1
  O  O60  1  0.90835444  0.74958737  0.50294359  1
  O  O61  1  0.59164556  0.24958737  0.99705641  1
  O  O62  1  0.09164556  0.25041263  0.00294359  1
  O  O63  1  0.40835444  0.75041263  0.49705641  1
  O  O64  1  0.09164556  0.25041263  0.49705641  1
  O  O65  1  0.40835444  0.75041263  0.00294359  1
  O  O66  1  0.90835444  0.74958737  0.99705641  1
  O  O67  1  0.59164556  0.24958737  0.50294359  1
  O  O68  1  0.82242347  0.70773201  0.30623329  1
  O  O69  1  0.67757653  0.20773201  0.19376671  1
  O  O70  1  0.17757653  0.29226799  0.80623329  1
  O  O71  1  0.32242347  0.79226799  0.69376671  1
  O  O72  1  0.17757653  0.29226799  0.69376671  1
  O  O73  1  0.32242347  0.79226799  0.80623329  1
  O  O74  1  0.82242347  0.70773201  0.19376671  1
  O  O75  1  0.67757653  0.20773201  0.30623329  1
  O  O76  1  0.20496211  0.45175244  0.46714213  1
  O  O77  1  0.29503789  0.95175244  0.03285787  1
  O  O78  1  0.79503789  0.54824756  0.96714213  1
  O  O79  1  0.70496211  0.04824756  0.53285787  1
  O  O80  1  0.79503789  0.54824756  0.53285787  1
  O  O81  1  0.70496211  0.04824756  0.96714213  1
  O  O82  1  0.20496211  0.45175244  0.03285787  1
  O  O83  1  0.29503789  0.95175244  0.46714213  1
  O  O84  1  0.81863270  0.39000395  0.34138609  1
  O  O85  1  0.68136730  0.89000395  0.15861391  1
  O  O86  1  0.18136730  0.60999605  0.84138609  1
  O  O87  1  0.31863270  0.10999605  0.65861391  1
  O  O88  1  0.18136730  0.60999605  0.65861391  1
  O  O89  1  0.31863270  0.10999605  0.84138609  1
  O  O90  1  0.81863270  0.39000395  0.15861391  1
  O  O91  1  0.68136730  0.89000395  0.34138609  1
  O  O92  1  0.93550505  0.65803605  0.40097485  1
  O  O93  1  0.56449495  0.15803605  0.09902515  1
  O  O94  1  0.06449495  0.34196395  0.90097485  1
  O  O95  1  0.43550505  0.84196395  0.59902515  1
  O  O96  1  0.06449495  0.34196395  0.59902515  1
  O  O97  1  0.43550505  0.84196395  0.90097485  1
  O  O98  1  0.93550505  0.65803605  0.09902515  1
  O  O99  1  0.56449495  0.15803605  0.40097485  1
  O  O100  1  0.95134942  0.17807063  0.33676279  1
  O  O101  1  0.54865058  0.67807063  0.16323721  1
  O  O102  1  0.04865058  0.82192937  0.83676279  1
  O  O103  1  0.45134942  0.32192937  0.66323721  1
  O  O104  1  0.04865058  0.82192937  0.66323721  1
  O  O105  1  0.45134942  0.32192937  0.83676279  1
  O  O106  1  0.95134942  0.17807063  0.16323721  1
  O  O107  1  0.54865058  0.67807063  0.33676279  1
  O  O108  1  0.28474641  0.89613544  0.28828352  1
  O  O109  1  0.21525359  0.39613544  0.21171648  1
  O  O110  1  0.71525359  0.10386456  0.78828352  1
  O  O111  1  0.78474641  0.60386456  0.71171648  1
  O  O112  1  0.71525359  0.10386456  0.71171648  1
  O  O113  1  0.78474641  0.60386456  0.78828352  1
  O  O114  1  0.28474641  0.89613544  0.21171648  1
  O  O115  1  0.21525359  0.39613544  0.28828352  1
  O  O116  1  0.36112336  0.31675545  0.37875730  1
  O  O117  1  0.13887664  0.81675545  0.12124270  1
  O  O118  1  0.63887664  0.68324455  0.87875730  1
  O  O119  1  0.86112336  0.18324455  0.62124270  1
  O  O120  1  0.63887664  0.68324455  0.62124270  1
  O  O121  1  0.86112336  0.18324455  0.87875730  1
  O  O122  1  0.36112336  0.31675545  0.12124270  1
  O  O123  1  0.13887664  0.81675545  0.37875730  1
  O  O124  1  0.18488328  0.58375828  0.36521466  1
  O  O125  1  0.31511672  0.08375828  0.13478534  1
  O  O126  1  0.81511672  0.41624172  0.86521466  1
  O  O127  1  0.68488328  0.91624172  0.63478534  1
  O  O128  1  0.81511672  0.41624172  0.63478534  1
  O  O129  1  0.68488328  0.91624172  0.86521466  1
  O  O130  1  0.18488328  0.58375828  0.13478534  1
  O  O131  1  0.31511672  0.08375828  0.36521466  1
