# generated using pymatgen
data_CsCu2AsS3
_symmetry_space_group_name_H-M   'P 1'
_cell_length_a   9.54435632
_cell_length_b   10.42611636
_cell_length_c   13.76025479
_cell_angle_alpha   90.00000000
_cell_angle_beta   90.00000000
_cell_angle_gamma   90.00000000
_symmetry_Int_Tables_number   1
_chemical_formula_structural   CsCu2AsS3
_chemical_formula_sum   'Cs8 Cu16 As8 S24'
_cell_volume   1369.29079163
_cell_formula_units_Z   8
loop_
 _symmetry_equiv_pos_site_id
 _symmetry_equiv_pos_as_xyz
  1  'x, y, z'
loop_
 _atom_site_type_symbol
 _atom_site_label
 _atom_site_symmetry_multiplicity
 _atom_site_fract_x
 _atom_site_fract_y
 _atom_site_fract_z
 _atom_site_occupancy
  Cs  Cs0  1  0.81808917  0.10425688  0.44095798  1
  Cs  Cs1  1  0.31808917  0.39574312  0.55904202  1
  Cs  Cs2  1  0.18191083  0.60425688  0.05904202  1
  Cs  Cs3  1  0.68191083  0.89574312  0.94095798  1
  Cs  Cs4  1  0.18191083  0.89574312  0.55904202  1
  Cs  Cs5  1  0.68191083  0.60425688  0.44095798  1
  Cs  Cs6  1  0.81808917  0.39574312  0.94095798  1
  Cs  Cs7  1  0.31808917  0.10425688  0.05904202  1
  Cu  Cu8  1  0.57498980  0.60471051  0.13692488  1
  Cu  Cu9  1  0.07498980  0.89528949  0.86307512  1
  Cu  Cu10  1  0.42501020  0.10471051  0.36307512  1
  Cu  Cu11  1  0.92501020  0.39528949  0.63692488  1
  Cu  Cu12  1  0.42501020  0.39528949  0.86307512  1
  Cu  Cu13  1  0.92501020  0.10471051  0.13692488  1
  Cu  Cu14  1  0.57498980  0.89528949  0.63692488  1
  Cu  Cu15  1  0.07498980  0.60471051  0.36307512  1
  Cu  Cu16  1  0.38441625  0.44116898  0.27156920  1
  Cu  Cu17  1  0.88441625  0.05883102  0.72843080  1
  Cu  Cu18  1  0.61558375  0.94116898  0.22843080  1
  Cu  Cu19  1  0.11558375  0.55883102  0.77156920  1
  Cu  Cu20  1  0.61558375  0.55883102  0.72843080  1
  Cu  Cu21  1  0.11558375  0.94116898  0.27156920  1
  Cu  Cu22  1  0.38441625  0.05883102  0.77156920  1
  Cu  Cu23  1  0.88441625  0.44116898  0.22843080  1
  As  As24  1  0.66253214  0.31598455  0.21472549  1
  As  As25  1  0.16253214  0.18401545  0.78527451  1
  As  As26  1  0.33746786  0.81598455  0.28527451  1
  As  As27  1  0.83746786  0.68401545  0.71472549  1
  As  As28  1  0.33746786  0.68401545  0.78527451  1
  As  As29  1  0.83746786  0.81598455  0.21472549  1
  As  As30  1  0.66253214  0.18401545  0.71472549  1
  As  As31  1  0.16253214  0.31598455  0.28527451  1
  S  S32  1  0.31096689  0.61576612  0.35189422  1
  S  S33  1  0.81096689  0.88423388  0.64810578  1
  S  S34  1  0.68903311  0.11576612  0.14810578  1
  S  S35  1  0.18903311  0.38423388  0.85189422  1
  S  S36  1  0.68903311  0.38423388  0.64810578  1
  S  S37  1  0.18903311  0.11576612  0.35189422  1
  S  S38  1  0.31096689  0.88423388  0.85189422  1
  S  S39  1  0.81096689  0.61576612  0.14810578  1
  S  S40  1  0.53760946  0.29355922  0.35529893  1
  S  S41  1  0.03760946  0.20644078  0.64470107  1
  S  S42  1  0.46239054  0.79355922  0.14470107  1
  S  S43  1  0.96239054  0.70644078  0.85529893  1
  S  S44  1  0.46239054  0.70644078  0.64470107  1
  S  S45  1  0.96239054  0.79355922  0.35529893  1
  S  S46  1  0.53760946  0.20644078  0.85529893  1
  S  S47  1  0.03760946  0.29355922  0.14470107  1
  S  S48  1  0.48820622  0.40825454  0.12109881  1
  S  S49  1  0.98820622  0.09174546  0.87890119  1
  S  S50  1  0.51179378  0.90825454  0.37890119  1
  S  S51  1  0.01179378  0.59174546  0.62109881  1
  S  S52  1  0.51179378  0.59174546  0.87890119  1
  S  S53  1  0.01179378  0.90825454  0.12109881  1
  S  S54  1  0.48820622  0.09174546  0.62109881  1
  S  S55  1  0.98820622  0.40825454  0.37890119  1
