# generated using pymatgen
data_AgAuF7
_symmetry_space_group_name_H-M   'P 1'
_cell_length_a   7.38170128
_cell_length_b   7.87178455
_cell_length_c   10.33547226
_cell_angle_alpha   90.00000000
_cell_angle_beta   90.00000000
_cell_angle_gamma   90.00000000
_symmetry_Int_Tables_number   1
_chemical_formula_structural   AgAuF7
_chemical_formula_sum   'Ag4 Au4 F28'
_cell_volume   600.56496187
_cell_formula_units_Z   4
loop_
 _symmetry_equiv_pos_site_id
 _symmetry_equiv_pos_as_xyz
  1  'x, y, z'
loop_
 _atom_site_type_symbol
 _atom_site_label
 _atom_site_symmetry_multiplicity
 _atom_site_fract_x
 _atom_site_fract_y
 _atom_site_fract_z
 _atom_site_occupancy
  Ag  Ag0  1  0.75000000  0.86693335  0.25784885  1
  Ag  Ag1  1  0.75000000  0.36693335  0.24215115  1
  Ag  Ag2  1  0.25000000  0.13306665  0.74215115  1
  Ag  Ag3  1  0.25000000  0.63306665  0.75784885  1
  Au  Au4  1  0.25000000  0.80440357  0.44357762  1
  Au  Au5  1  0.25000000  0.30440357  0.05642238  1
  Au  Au6  1  0.75000000  0.19559643  0.55642238  1
  Au  Au7  1  0.75000000  0.69559643  0.94357762  1
  F  F8  1  0.75000000  0.61333456  0.30450597  1
  F  F9  1  0.75000000  0.11333456  0.19549403  1
  F  F10  1  0.25000000  0.38666544  0.69549403  1
  F  F11  1  0.25000000  0.88666544  0.80450597  1
  F  F12  1  0.75000000  0.96701910  0.47446366  1
  F  F13  1  0.75000000  0.46701910  0.02553634  1
  F  F14  1  0.25000000  0.03298090  0.52553634  1
  F  F15  1  0.25000000  0.53298090  0.97446366  1
  F  F16  1  0.92895858  0.77403494  0.06994697  1
  F  F17  1  0.57104142  0.27403494  0.43005303  1
  F  F18  1  0.42895858  0.22596506  0.93005303  1
  F  F19  1  0.07104142  0.72596506  0.56994697  1
  F  F20  1  0.07104142  0.22596506  0.93005303  1
  F  F21  1  0.42895858  0.72596506  0.56994697  1
  F  F22  1  0.57104142  0.77403494  0.06994697  1
  F  F23  1  0.92895858  0.27403494  0.43005303  1
  F  F24  1  0.43471225  0.88054176  0.32005212  1
  F  F25  1  0.06528775  0.38054176  0.17994788  1
  F  F26  1  0.93471225  0.11945824  0.67994788  1
  F  F27  1  0.56528775  0.61945824  0.82005212  1
  F  F28  1  0.56528775  0.11945824  0.67994788  1
  F  F29  1  0.93471225  0.61945824  0.82005212  1
  F  F30  1  0.06528775  0.88054176  0.32005212  1
  F  F31  1  0.43471225  0.38054176  0.17994788  1
  F  F32  1  0.25000000  0.58221341  0.36370050  1
  F  F33  1  0.25000000  0.08221341  0.13629950  1
  F  F34  1  0.75000000  0.41778659  0.63629950  1
  F  F35  1  0.75000000  0.91778659  0.86370050  1
