# generated using pymatgen
data_Ta2H36C12N6Cl2O
_symmetry_space_group_name_H-M   'P 1'
_cell_length_a   11.70972949
_cell_length_b   13.34470976
_cell_length_c   16.99551748
_cell_angle_alpha   90.00000000
_cell_angle_beta   108.25524553
_cell_angle_gamma   90.00000000
_symmetry_Int_Tables_number   1
_chemical_formula_structural   Ta2H36C12N6Cl2O
_chemical_formula_sum   'Ta8 H144 C48 N24 Cl8 O4'
_cell_volume   2522.10587117
_cell_formula_units_Z   4
loop_
 _symmetry_equiv_pos_site_id
 _symmetry_equiv_pos_as_xyz
  1  'x, y, z'
loop_
 _atom_site_type_symbol
 _atom_site_label
 _atom_site_symmetry_multiplicity
 _atom_site_fract_x
 _atom_site_fract_y
 _atom_site_fract_z
 _atom_site_occupancy
  Ta  Ta0  1  0.39444519  0.70343848  0.31300596  1
  Ta  Ta1  1  0.89444519  0.79656152  0.81300596  1
  Ta  Ta2  1  0.60555481  0.29656152  0.68699404  1
  Ta  Ta3  1  0.10555481  0.20343848  0.18699404  1
  Ta  Ta4  1  0.67766124  0.75894911  0.31264792  1
  Ta  Ta5  1  0.17766124  0.74105089  0.81264792  1
  Ta  Ta6  1  0.32233876  0.24105089  0.68735208  1
  Ta  Ta7  1  0.82233876  0.25894911  0.18735208  1
  H  H8  1  0.73080613  0.96175518  0.47448553  1
  H  H9  1  0.23080613  0.53824482  0.97448553  1
  H  H10  1  0.26919387  0.03824482  0.52551447  1
  H  H11  1  0.76919387  0.46175518  0.02551447  1
  H  H12  1  0.61244679  0.95526097  0.37740320  1
  H  H13  1  0.11244679  0.54473903  0.87740320  1
  H  H14  1  0.38755321  0.04473903  0.62259680  1
  H  H15  1  0.88755321  0.45526097  0.12259680  1
  H  H16  1  0.74569495  0.02585754  0.38612455  1
  H  H17  1  0.24569495  0.47414246  0.88612455  1
  H  H18  1  0.25430505  0.97414246  0.61387545  1
  H  H19  1  0.75430505  0.52585754  0.11387545  1
  H  H20  1  0.93704296  0.93614744  0.39743747  1
  H  H21  1  0.43704296  0.56385256  0.89743747  1
  H  H22  1  0.06295704  0.06385256  0.60256253  1
  H  H23  1  0.56295704  0.43614744  0.10256253  1
  H  H24  1  0.94305109  0.80566655  0.42366051  1
  H  H25  1  0.44305109  0.69433345  0.92366051  1
  H  H26  1  0.05694891  0.19433345  0.57633949  1
  H  H27  1  0.55694891  0.30566655  0.07633949  1
  H  H28  1  0.91521394  0.89778949  0.49196391  1
  H  H29  1  0.41521394  0.60221051  0.99196391  1
  H  H30  1  0.08478606  0.10221051  0.50803609  1
  H  H31  1  0.58478606  0.39778949  0.00803609  1
  H  H32  1  0.87531365  0.78350998  0.17424047  1
  H  H33  1  0.37531365  0.71649002  0.67424047  1
  H  H34  1  0.12468635  0.21649002  0.82575953  1
  H  H35  1  0.62468635  0.28350998  0.32575953  1
  H  H36  1  0.88478028  0.84720532  0.26845721  1
  H  H37  1  0.38478028  0.65279468  0.76845721  1
  H  H38  1  0.11521972  0.15279468  0.73154279  1
  H  H39  1  0.61521972  0.34720532  0.23154279  1
  H  H40  1  0.80726949  0.90326246  0.17160990  1
  H  H41  1  0.30726949  0.59673754  0.67160990  1
  H  H42  1  0.19273051  0.09673754  0.82839010  1
  H  H43  1  0.69273051  0.40326246  0.32839010  1
  H  H44  1  0.61318150  0.84637817  0.09086917  1
  H  H45  1  0.11318150  0.65362183  0.59086917  1
  H  H46  1  0.38681850  0.15362183  0.90913083  1
  H  H47  1  0.88681850  0.34637817  0.40913083  1
  H  H48  1  0.55716319  0.72925609  0.11488632  1
  H  H49  1  0.05716319  0.77074391  0.61488632  1
  H  H50  1  0.44283681  0.27074391  0.88511368  1
  H  H51  1  0.94283681  0.22925609  0.38511368  1
  H  H52  1  0.68894439  0.73278786  0.08293628  1
  H  H53  1  0.18894439  0.76721214  0.58293628  1
  H  H54  1  0.31105561  0.26721214  0.91706372  1
  H  H55  1  0.81105561  0.23278786  0.41706372  1
  H  H56  1  0.80330972  0.53527709  0.43698718  1
  H  H57  1  0.30330972  0.96472291  0.93698718  1
  H  H58  1  0.19669028  0.46472291  0.56301282  1
  H  H59  1  0.69669028  0.03527709  0.06301282  1
  H  H60  1  0.76760433  0.65369722  0.47246979  1
  H  H61  1  0.26760433  0.84630278  0.97246979  1
  H  H62  1  0.23239567  0.34630278  0.52753021  1
  H  H63  1  0.73239567  0.15369722  0.02753021  1
  H  H64  1  0.91916582  0.62507136  0.47827502  1
  H  H65  1  0.41916582  0.87492864  0.97827502  1
  H  H66  1  0.08083418  0.37492864  0.52172498  1
  H  H67  1  0.58083418  0.12507136  0.02172498  1
  H  H68  1  0.97030604  0.59266758  0.36125568  1
  H  H69  1  0.47030604  0.90733242  0.86125568  1
  H  H70  1  0.02969396  0.40733242  0.63874432  1
  H  H71  1  0.52969396  0.09266758  0.13874432  1
  H  H72  1  0.88599753  0.64366845  0.26280502  1
  H  H73  1  0.38599753  0.85633155  0.76280502  1
  H  H74  1  0.11400247  0.35633155  0.73719498  1
  H  H75  1  0.61400247  0.14366845  0.23719498  1
  H  H76  1  0.84217074  0.52822716  0.29759551  1
  H  H77  1  0.34217074  0.97177284  0.79759551  1
  H  H78  1  0.15782926  0.47177284  0.70240449  1
  H  H79  1  0.65782926  0.02822716  0.20240449  1
  H  H80  1  0.23613205  0.49884957  0.41022207  1
  H  H81  1  0.73613205  0.00115043  0.91022207  1
  H  H82  1  0.76386795  0.50115043  0.58977793  1
  H  H83  1  0.26386795  0.99884957  0.08977793  1
  H  H84  1  0.20341467  0.62914049  0.39797836  1
  H  H85  1  0.70341467  0.87085951  0.89797836  1
  H  H86  1  0.79658533  0.37085951  0.60202164  1
  H  H87  1  0.29658533  0.12914049  0.10202164  1
  H  H88  1  0.32198513  0.58550002  0.48528816  1
  H  H89  1  0.82198513  0.91449998  0.98528816  1
  H  H90  1  0.67801487  0.41449998  0.51471184  1
  H  H91  1  0.17801487  0.08550002  0.01471184  1
  H  H92  1  0.46593688  0.46169632  0.43698174  1
  H  H93  1  0.96593688  0.03830368  0.93698174  1
  H  H94  1  0.53406312  0.53830368  0.56301826  1
  H  H95  1  0.03406312  0.96169632  0.06301826  1
  H  H96  1  0.48687677  0.48889017  0.33920856  1
  H  H97  1  0.98687677  0.01110983  0.83920856  1
  H  H98  1  0.51312323  0.51110983  0.66079144  1
  H  H99  1  0.01312323  0.98889017  0.16079144  1
  H  H100  1  0.35289368  0.42788330  0.34337021  1
  H  H101  1  0.85289368  0.07211670  0.84337021  1
  H  H102  1  0.64710632  0.57211670  0.65662979  1
  H  H103  1  0.14710632  0.92788330  0.15662979  1
  H  H104  1  0.06560063  0.68732597  0.16734723  1
  H  H105  1  0.56560063  0.81267403  0.66734723  1
  H  H106  1  0.93439937  0.31267403  0.83265277  1
  H  H107  1  0.43439937  0.18732597  0.33265277  1
  H  H108  1  0.13603307  0.63778825  0.26811314  1
  H  H109  1  0.63603307  0.86221175  0.76811314  1
  H  H110  1  0.86396693  0.36221175  0.73188686  1
  H  H111  1  0.36396693  0.13778825  0.23188686  1
  H  H112  1  0.13972482  0.56890108  0.17950309  1
  H  H113  1  0.63972482  0.93109892  0.67950309  1
  H  H114  1  0.86027518  0.43109892  0.82049691  1
  H  H115  1  0.36027518  0.06890108  0.32049691  1
  H  H116  1  0.23520616  0.64504457  0.08538677  1
  H  H117  1  0.73520616  0.85495543  0.58538677  1
  H  H118  1  0.76479384  0.35495543  0.91461323  1
  H  H119  1  0.26479384  0.14504457  0.41461323  1
  H  H120  1  0.33070543  0.75184566  0.11742482  1
  H  H121  1  0.83070543  0.74815434  0.61742482  1
  H  H122  1  0.66929457  0.24815434  0.88257518  1
  H  H123  1  0.16929457  0.25184566  0.38257518  1
  H  H124  1  0.17089913  0.76462040  0.09049751  1
  H  H125  1  0.67089913  0.73537960  0.59049751  1
  H  H126  1  0.82910087  0.23537960  0.90950249  1
  H  H127  1  0.32910087  0.26462040  0.40950249  1
  H  H128  1  0.19106121  0.88437073  0.40217780  1
  H  H129  1  0.69106121  0.61562927  0.90217780  1
  H  H130  1  0.80893879  0.11562927  0.59782220  1
  H  H131  1  0.30893879  0.38437073  0.09782220  1
  H  H132  1  0.13424958  0.80267768  0.31619137  1
  H  H133  1  0.63424958  0.69732232  0.81619137  1
  H  H134  1  0.86575042  0.19732232  0.68380863  1
  H  H135  1  0.36575042  0.30267768  0.18380863  1
  H  H136  1  0.21177638  0.91423484  0.30571457  1
  H  H137  1  0.71177638  0.58576516  0.80571457  1
  H  H138  1  0.78822362  0.08576516  0.69428543  1
  H  H139  1  0.28822362  0.41423484  0.19428543  1
  H  H140  1  0.40449873  0.91641260  0.45707129  1
  H  H141  1  0.90449873  0.58358740  0.95707129  1
  H  H142  1  0.59550127  0.08358740  0.54292871  1
  H  H143  1  0.09550127  0.41641260  0.04292871  1
  H  H144  1  0.48585533  0.80087384  0.47713737  1
  H  H145  1  0.98585533  0.69912616  0.97713737  1
  H  H146  1  0.51414467  0.19912616  0.52286263  1
  H  H147  1  0.01414467  0.30087384  0.02286263  1
  H  H148  1  0.34933805  0.81481826  0.50272101  1
  H  H149  1  0.84933805  0.68518174  0.00272101  1
  H  H150  1  0.65066195  0.18518174  0.49727899  1
  H  H151  1  0.15066195  0.31481826  0.99727899  1
  C  C152  1  0.71004922  0.95716722  0.40649703  1
  C  C153  1  0.21004922  0.54283278  0.90649703  1
  C  C154  1  0.28995078  0.04283278  0.59350297  1
  C  C155  1  0.78995078  0.45716722  0.09350297  1
  C  C156  1  0.89757436  0.87692203  0.42634445  1
  C  C157  1  0.39757436  0.62307797  0.92634445  1
  C  C158  1  0.10242564  0.12307797  0.57365555  1
  C  C159  1  0.60242564  0.37692203  0.07365555  1
  C  C160  1  0.82575490  0.83136178  0.20582185  1
  C  C161  1  0.32575490  0.66863822  0.70582185  1
  C  C162  1  0.17424510  0.16863822  0.79417815  1
  C  C163  1  0.67424510  0.33136178  0.29417815  1
  C  C164  1  0.63862680  0.77158235  0.11941922  1
  C  C165  1  0.13862680  0.72841765  0.61941922  1
  C  C166  1  0.36137320  0.22841765  0.88058078  1
  C  C167  1  0.86137320  0.27158235  0.38058078  1
  C  C168  1  0.82396312  0.61636322  0.44066954  1
  C  C169  1  0.32396312  0.88363678  0.94066954  1
  C  C170  1  0.17603688  0.38363678  0.55933046  1
  C  C171  1  0.67603688  0.11636322  0.05933046  1
  C  C172  1  0.87920499  0.60351627  0.31732637  1
  C  C173  1  0.37920499  0.89648373  0.81732637  1
  C  C174  1  0.12079501  0.39648373  0.68267363  1
  C  C175  1  0.62079501  0.10351627  0.18267363  1
  C  C176  1  0.27658759  0.57430361  0.41834522  1
  C  C177  1  0.77658759  0.92569639  0.91834522  1
  C  C178  1  0.72341241  0.42569639  0.58165478  1
  C  C179  1  0.22341241  0.07430361  0.08165478  1
  C  C180  1  0.42061234  0.48562621  0.37247775  1
  C  C181  1  0.92061234  0.01437379  0.87247775  1
  C  C182  1  0.57938766  0.51437379  0.62752225  1
  C  C183  1  0.07938766  0.98562621  0.12752225  1
  C  C184  1  0.14459132  0.64510683  0.20605011  1
  C  C185  1  0.64459132  0.85489317  0.70605011  1
  C  C186  1  0.85540868  0.35489317  0.79394989  1
  C  C187  1  0.35540868  0.14510683  0.29394989  1
  C  C188  1  0.24872043  0.71601927  0.12102265  1
  C  C189  1  0.74872043  0.78398073  0.62102265  1
  C  C190  1  0.75127957  0.28398073  0.87897735  1
  C  C191  1  0.25127957  0.21601927  0.37897735  1
  C  C192  1  0.20963530  0.85208915  0.34781844  1
  C  C193  1  0.70963530  0.64791085  0.84781844  1
  C  C194  1  0.79036470  0.14791085  0.65218156  1
  C  C195  1  0.29036470  0.35208915  0.15218156  1
  C  C196  1  0.39562498  0.83396752  0.45724296  1
  C  C197  1  0.89562498  0.66603248  0.95724296  1
  C  C198  1  0.60437502  0.16603248  0.54275704  1
  C  C199  1  0.10437502  0.33396752  0.04275704  1
  N  N200  1  0.36092493  0.58215781  0.37096429  1
  N  N201  1  0.86092493  0.91784219  0.87096429  1
  N  N202  1  0.63907507  0.41784219  0.62903571  1
  N  N203  1  0.13907507  0.08215781  0.12903571  1
  N  N204  1  0.25494992  0.69663494  0.20643237  1
  N  N205  1  0.75494992  0.80336506  0.70643237  1
  N  N206  1  0.74505008  0.30336506  0.79356763  1
  N  N207  1  0.24505008  0.19663494  0.29356763  1
  N  N208  1  0.32469155  0.79877464  0.37486258  1
  N  N209  1  0.82469155  0.70122536  0.87486258  1
  N  N210  1  0.67530845  0.20122536  0.62513742  1
  N  N211  1  0.17530845  0.29877464  0.12513742  1
  N  N212  1  0.80476804  0.65745286  0.35775772  1
  N  N213  1  0.30476804  0.84254714  0.85775772  1
  N  N214  1  0.19523196  0.34254714  0.64224228  1
  N  N215  1  0.69523196  0.15745286  0.14224228  1
  N  N216  1  0.71375407  0.78235783  0.20504110  1
  N  N217  1  0.21375407  0.71764217  0.70504110  1
  N  N218  1  0.28624593  0.21764217  0.79495890  1
  N  N219  1  0.78624593  0.28235783  0.29495890  1
  N  N220  1  0.76823021  0.86867509  0.38555520  1
  N  N221  1  0.26823021  0.63132491  0.88555520  1
  N  N222  1  0.23176979  0.13132491  0.61444480  1
  N  N223  1  0.73176979  0.36867509  0.11444480  1
  Cl  Cl224  1  0.51691718  0.60966165  0.22312677  1
  Cl  Cl225  1  0.01691718  0.89033835  0.72312677  1
  Cl  Cl226  1  0.48308282  0.39033835  0.77687323  1
  Cl  Cl227  1  0.98308282  0.10966165  0.27687323  1
  Cl  Cl228  1  0.47435623  0.86246925  0.23739829  1
  Cl  Cl229  1  0.97435623  0.63753075  0.73739829  1
  Cl  Cl230  1  0.52564377  0.13753075  0.76260171  1
  Cl  Cl231  1  0.02564377  0.36246925  0.26260171  1
  O  O232  1  0.56548246  0.72443020  0.37286345  1
  O  O233  1  0.06548246  0.77556980  0.87286345  1
  O  O234  1  0.43451754  0.27556980  0.62713655  1
  O  O235  1  0.93451754  0.22443020  0.12713655  1
