# generated using pymatgen
data_Ir2(Se3Cl2)3
_symmetry_space_group_name_H-M   'P 1'
_cell_length_a   12.58728808
_cell_length_b   12.58728808
_cell_length_c   14.99748804
_cell_angle_alpha   114.81227651
_cell_angle_beta   114.81227651
_cell_angle_gamma   90.00000000
_symmetry_Int_Tables_number   1
_chemical_formula_structural   Ir2(Se3Cl2)3
_chemical_formula_sum   'Ir8 Se36 Cl24'
_cell_volume   1912.49875277
_cell_formula_units_Z   4
loop_
 _symmetry_equiv_pos_site_id
 _symmetry_equiv_pos_as_xyz
  1  'x, y, z'
loop_
 _atom_site_type_symbol
 _atom_site_label
 _atom_site_symmetry_multiplicity
 _atom_site_fract_x
 _atom_site_fract_y
 _atom_site_fract_z
 _atom_site_occupancy
  Ir  Ir0  1  0.02895728  0.24988640  0.78049692  1
  Ir  Ir1  1  0.75153964  0.03061053  0.78049692  1
  Ir  Ir2  1  0.74988640  0.25153964  0.28049692  1
  Ir  Ir3  1  0.53061053  0.52895728  0.28049692  1
  Ir  Ir4  1  0.97104272  0.75011360  0.21950308  1
  Ir  Ir5  1  0.24846036  0.96938947  0.21950308  1
  Ir  Ir6  1  0.25011360  0.74846036  0.71950308  1
  Ir  Ir7  1  0.46938947  0.47104272  0.71950308  1
  Se  Se8  1  0.00624787  0.31732048  0.94645204  1
  Se  Se9  1  0.94020417  0.12913156  0.94645204  1
  Se  Se10  1  0.81732048  0.44020417  0.44645204  1
  Se  Se11  1  0.62913156  0.50624787  0.44645204  1
  Se  Se12  1  0.99375213  0.68267952  0.05354796  1
  Se  Se13  1  0.05979583  0.87086844  0.05354796  1
  Se  Se14  1  0.18267952  0.55979583  0.55354796  1
  Se  Se15  1  0.37086844  0.49375213  0.55354796  1
  Se  Se16  1  0.81531763  0.37421744  0.91591993  1
  Se  Se17  1  0.10060230  0.04170250  0.91591993  1
  Se  Se18  1  0.87421744  0.60060230  0.41591993  1
  Se  Se19  1  0.54170250  0.31531763  0.41591993  1
  Se  Se20  1  0.18468237  0.62578256  0.08408007  1
  Se  Se21  1  0.89939770  0.95829750  0.08408007  1
  Se  Se22  1  0.12578256  0.39939770  0.58408007  1
  Se  Se23  1  0.45829750  0.68468237  0.58408007  1
  Se  Se24  1  0.70160653  0.19810743  0.74486079  1
  Se  Se25  1  0.04325426  0.04675336  0.74486079  1
  Se  Se26  1  0.69810743  0.54325426  0.24486079  1
  Se  Se27  1  0.54675336  0.20160653  0.24486079  1
  Se  Se28  1  0.29839347  0.80189257  0.25513921  1
  Se  Se29  1  0.95674574  0.95324664  0.25513921  1
  Se  Se30  1  0.30189257  0.45674574  0.75513921  1
  Se  Se31  1  0.45324664  0.79839347  0.75513921  1
  Se  Se32  1  0.82337885  0.21701627  0.65007950  1
  Se  Se33  1  0.82670065  0.93306323  0.65007950  1
  Se  Se34  1  0.71701627  0.32670065  0.15007950  1
  Se  Se35  1  0.43306323  0.32337885  0.15007950  1
  Se  Se36  1  0.17662115  0.78298373  0.34992050  1
  Se  Se37  1  0.17329935  0.06693677  0.34992050  1
  Se  Se38  1  0.28298373  0.67329935  0.84992050  1
  Se  Se39  1  0.56693677  0.67662115  0.84992050  1
  Se  Se40  1  0.75957700  0.00957700  0.51915399  1
  Se  Se41  1  0.50957700  0.25957700  0.01915399  1
  Se  Se42  1  0.24042300  0.99042300  0.48084601  1
  Se  Se43  1  0.49042300  0.74042300  0.98084601  1
  Cl  Cl44  1  0.08021641  0.19711150  0.63138004  1
  Cl  Cl45  1  0.55116362  0.93426854  0.63138004  1
  Cl  Cl46  1  0.69711150  0.05116362  0.13138004  1
  Cl  Cl47  1  0.43426854  0.58021641  0.13138004  1
  Cl  Cl48  1  0.91978359  0.80288850  0.36861996  1
  Cl  Cl49  1  0.44883638  0.06573146  0.36861996  1
  Cl  Cl50  1  0.30288850  0.94883638  0.86861996  1
  Cl  Cl51  1  0.56573146  0.41978359  0.86861996  1
  Cl  Cl52  1  0.23976423  0.30507829  0.90439051  1
  Cl  Cl53  1  0.66462628  0.09931222  0.90439051  1
  Cl  Cl54  1  0.80507829  0.16462628  0.40439051  1
  Cl  Cl55  1  0.59931222  0.73976423  0.40439051  1
  Cl  Cl56  1  0.76023577  0.69492171  0.09560949  1
  Cl  Cl57  1  0.33537372  0.90068778  0.09560949  1
  Cl  Cl58  1  0.19492171  0.83537372  0.59560949  1
  Cl  Cl59  1  0.40068778  0.26023577  0.59560949  1
  Cl  Cl60  1  0.03474716  0.45463227  0.80982899  1
  Cl  Cl61  1  0.77508182  0.85519671  0.80982899  1
  Cl  Cl62  1  0.95463227  0.27508182  0.30982899  1
  Cl  Cl63  1  0.35519671  0.53474716  0.30982899  1
  Cl  Cl64  1  0.96525284  0.54536773  0.19017101  1
  Cl  Cl65  1  0.22491818  0.14480329  0.19017101  1
  Cl  Cl66  1  0.04536773  0.72491818  0.69017101  1
  Cl  Cl67  1  0.64480329  0.46525284  0.69017101  1
