# generated using pymatgen
data_Np2SeO9
_symmetry_space_group_name_H-M   'P 1'
_cell_length_a   6.93623696
_cell_length_b   7.02677271
_cell_length_c   16.16707708
_cell_angle_alpha   89.58419456
_cell_angle_beta   90.00000000
_cell_angle_gamma   90.00000000
_symmetry_Int_Tables_number   1
_chemical_formula_structural   Np2SeO9
_chemical_formula_sum   'Np8 Se4 O36'
_cell_volume   787.95224986
_cell_formula_units_Z   4
loop_
 _symmetry_equiv_pos_site_id
 _symmetry_equiv_pos_as_xyz
  1  'x, y, z'
loop_
 _atom_site_type_symbol
 _atom_site_label
 _atom_site_symmetry_multiplicity
 _atom_site_fract_x
 _atom_site_fract_y
 _atom_site_fract_z
 _atom_site_occupancy
  Np  Np0  1  0.03528063  0.74375669  0.34277453  1
  Np  Np1  1  0.53528063  0.25624331  0.15722547  1
  Np  Np2  1  0.96471937  0.25624331  0.65722547  1
  Np  Np3  1  0.46471937  0.74375669  0.84277453  1
  Np  Np4  1  0.80582457  0.25439500  0.39895416  1
  Np  Np5  1  0.30582457  0.74560500  0.10104584  1
  Np  Np6  1  0.19417543  0.74560500  0.60104584  1
  Np  Np7  1  0.69417543  0.25439500  0.89895416  1
  Se  Se8  1  0.56261297  0.75032442  0.43851666  1
  Se  Se9  1  0.06261297  0.24967558  0.06148334  1
  Se  Se10  1  0.43738703  0.24967558  0.56148334  1
  Se  Se11  1  0.93738703  0.75032442  0.93851666  1
  O  O12  1  0.53627949  0.99194853  0.14104022  1
  O  O13  1  0.03627949  0.00805147  0.35895978  1
  O  O14  1  0.46372051  0.00805147  0.85895978  1
  O  O15  1  0.96372051  0.99194853  0.64104022  1
  O  O16  1  0.68261003  0.95606274  0.43756975  1
  O  O17  1  0.18261003  0.04393726  0.06243025  1
  O  O18  1  0.31738997  0.04393726  0.56243025  1
  O  O19  1  0.81738997  0.95606274  0.93756975  1
  O  O20  1  0.83834818  0.77053802  0.26650145  1
  O  O21  1  0.33834818  0.22946198  0.23349855  1
  O  O22  1  0.16165182  0.22946198  0.73349855  1
  O  O23  1  0.66165182  0.77053802  0.76650145  1
  O  O24  1  0.19621359  0.75344410  0.20413256  1
  O  O25  1  0.69621359  0.24655590  0.29586744  1
  O  O26  1  0.80378641  0.24655590  0.79586744  1
  O  O27  1  0.30378641  0.75344410  0.70413256  1
  O  O28  1  0.12033583  0.74815983  0.87158493  1
  O  O29  1  0.62033583  0.25184017  0.62841507  1
  O  O30  1  0.87966417  0.25184017  0.12841507  1
  O  O31  1  0.37966417  0.74815983  0.37158493  1
  O  O32  1  0.08787071  0.73450060  0.49669907  1
  O  O33  1  0.58787071  0.26549940  0.00330093  1
  O  O34  1  0.91212929  0.26549940  0.50330093  1
  O  O35  1  0.41212929  0.73450060  0.99669907  1
  O  O36  1  0.00113158  0.69659832  0.03565203  1
  O  O37  1  0.50113158  0.30340168  0.46434797  1
  O  O38  1  0.99886842  0.30340168  0.96434797  1
  O  O39  1  0.49886842  0.69659832  0.53565203  1
  O  O40  1  0.73857544  0.59609176  0.41053312  1
  O  O41  1  0.23857544  0.40390824  0.08946688  1
  O  O42  1  0.26142456  0.40390824  0.58946688  1
  O  O43  1  0.76142456  0.59609176  0.91053312  1
  O  O44  1  0.05045336  0.47732001  0.34306228  1
  O  O45  1  0.55045336  0.52267999  0.15693772  1
  O  O46  1  0.94954664  0.52267999  0.65693772  1
  O  O47  1  0.44954664  0.47732001  0.84306228  1
