# generated using pymatgen
data_NaIn(IO3)4
_symmetry_space_group_name_H-M   'P 1'
_cell_length_a   5.08451966
_cell_length_b   7.31548262
_cell_length_c   15.83923598
_cell_angle_alpha   101.21440811
_cell_angle_beta   90.00000000
_cell_angle_gamma   90.00000000
_symmetry_Int_Tables_number   1
_chemical_formula_structural   NaIn(IO3)4
_chemical_formula_sum   'Na2 In2 I8 O24'
_cell_volume   577.90261292
_cell_formula_units_Z   2
loop_
 _symmetry_equiv_pos_site_id
 _symmetry_equiv_pos_as_xyz
  1  'x, y, z'
loop_
 _atom_site_type_symbol
 _atom_site_label
 _atom_site_symmetry_multiplicity
 _atom_site_fract_x
 _atom_site_fract_y
 _atom_site_fract_z
 _atom_site_occupancy
  Na  Na0  1  0.00000000  0.50000000  0.50000000  1
  Na  Na1  1  0.50000000  0.50000000  -0.00000000  1
  In  In2  1  0.00000000  -0.00000000  0.50000000  1
  In  In3  1  0.50000000  -0.00000000  -0.00000000  1
  I  I4  1  0.40594209  0.66708936  0.33632581  1
  I  I5  1  0.90594209  0.33291064  0.16367419  1
  I  I6  1  0.59405791  0.33291064  0.66367419  1
  I  I7  1  0.09405791  0.66708936  0.83632581  1
  I  I8  1  0.49223439  0.18113656  0.36268142  1
  I  I9  1  0.99223439  0.81886344  0.13731858  1
  I  I10  1  0.50776561  0.81886344  0.63731858  1
  I  I11  1  0.00776561  0.18113656  0.86268142  1
  O  O12  1  0.17217924  0.74433488  0.42715895  1
  O  O13  1  0.67217924  0.25566512  0.07284105  1
  O  O14  1  0.82782076  0.25566512  0.57284105  1
  O  O15  1  0.32782076  0.74433488  0.92715895  1
  O  O16  1  0.30219718  0.83082357  0.26845717  1
  O  O17  1  0.80219718  0.16917643  0.23154283  1
  O  O18  1  0.69780282  0.16917643  0.73154283  1
  O  O19  1  0.19780282  0.83082357  0.76845717  1
  O  O20  1  0.22659129  0.45114447  0.29334819  1
  O  O21  1  0.72659129  0.54885553  0.20665181  1
  O  O22  1  0.77340871  0.54885553  0.70665181  1
  O  O23  1  0.27340871  0.45114447  0.79334819  1
  O  O24  1  0.23958578  0.19874810  0.44973997  1
  O  O25  1  0.73958578  0.80125190  0.05026003  1
  O  O26  1  0.76041422  0.80125190  0.55026003  1
  O  O27  1  0.26041422  0.19874810  0.94973997  1
  O  O28  1  0.70839761  0.00275009  0.39644360  1
  O  O29  1  0.20839761  0.99724991  0.10355640  1
  O  O30  1  0.29160239  0.99724991  0.60355640  1
  O  O31  1  0.79160239  0.00275009  0.89644360  1
  O  O32  1  0.65389771  0.39745761  0.40880220  1
  O  O33  1  0.15389771  0.60254239  0.09119780  1
  O  O34  1  0.34610229  0.60254239  0.59119780  1
  O  O35  1  0.84610229  0.39745761  0.90880220  1
