# generated using pymatgen
data_Tb5IrCl9
_symmetry_space_group_name_H-M   'P 1'
_cell_length_a   12.48444565
_cell_length_b   12.48444565
_cell_length_c   23.91065728
_cell_angle_alpha   105.13323385
_cell_angle_beta   105.13323385
_cell_angle_gamma   90.00000000
_symmetry_Int_Tables_number   1
_chemical_formula_structural   Tb5IrCl9
_chemical_formula_sum   'Tb40 Ir8 Cl72'
_cell_volume   3463.45186695
_cell_formula_units_Z   8
loop_
 _symmetry_equiv_pos_site_id
 _symmetry_equiv_pos_as_xyz
  1  'x, y, z'
loop_
 _atom_site_type_symbol
 _atom_site_label
 _atom_site_symmetry_multiplicity
 _atom_site_fract_x
 _atom_site_fract_y
 _atom_site_fract_z
 _atom_site_occupancy
  Tb  Tb0  1  0.82764472  0.35430655  0.31301070  1
  Tb  Tb1  1  0.48536598  0.45870415  0.31301070  1
  Tb  Tb2  1  0.85430655  0.98536598  0.81301070  1
  Tb  Tb3  1  0.95870415  0.32764472  0.81301070  1
  Tb  Tb4  1  0.17235528  0.64569345  0.68698930  1
  Tb  Tb5  1  0.51463402  0.54129585  0.68698930  1
  Tb  Tb6  1  0.14569345  0.01463402  0.18698930  1
  Tb  Tb7  1  0.04129585  0.67235528  0.18698930  1
  Tb  Tb8  1  0.10875508  0.23623013  0.32220337  1
  Tb  Tb9  1  0.21344829  0.58597324  0.32220337  1
  Tb  Tb10  1  0.73623013  0.71344829  0.82220337  1
  Tb  Tb11  1  0.08597324  0.60875508  0.82220337  1
  Tb  Tb12  1  0.89124492  0.76376987  0.67779663  1
  Tb  Tb13  1  0.78655171  0.41402676  0.67779663  1
  Tb  Tb14  1  0.26376987  0.28655171  0.17779663  1
  Tb  Tb15  1  0.91402676  0.39124492  0.17779663  1
  Tb  Tb16  1  0.06997670  0.51090447  0.42612747  1
  Tb  Tb17  1  0.35615077  0.41522300  0.42612747  1
  Tb  Tb18  1  0.01090447  0.85615077  0.92612747  1
  Tb  Tb19  1  0.91522300  0.56997670  0.92612747  1
  Tb  Tb20  1  0.93002330  0.48909553  0.57387253  1
  Tb  Tb21  1  0.64384923  0.58477700  0.57387253  1
  Tb  Tb22  1  0.98909553  0.14384923  0.07387253  1
  Tb  Tb23  1  0.08477700  0.43002330  0.07387253  1
  Tb  Tb24  1  0.90975459  0.63194377  0.30672937  1
  Tb  Tb25  1  0.39697478  0.17478559  0.30672937  1
  Tb  Tb26  1  0.13194377  0.89697478  0.80672937  1
  Tb  Tb27  1  0.67478559  0.40975459  0.80672937  1
  Tb  Tb28  1  0.09024541  0.36805623  0.69327063  1
  Tb  Tb29  1  0.60302522  0.82521441  0.69327063  1
  Tb  Tb30  1  0.86805623  0.10302522  0.19327063  1
  Tb  Tb31  1  0.32521441  0.59024541  0.19327063  1
  Tb  Tb32  1  0.86825295  0.91585700  0.43372115  1
  Tb  Tb33  1  0.56546820  0.01786414  0.43372115  1
  Tb  Tb34  1  0.41585700  0.06546820  0.93372115  1
  Tb  Tb35  1  0.51786414  0.36825295  0.93372115  1
  Tb  Tb36  1  0.13174705  0.08414300  0.56627885  1
  Tb  Tb37  1  0.43453180  0.98213586  0.56627885  1
  Tb  Tb38  1  0.58414300  0.93453180  0.06627885  1
  Tb  Tb39  1  0.48213586  0.63174705  0.06627885  1
  Ir  Ir40  1  0.02290350  0.44071693  0.30336058  1
  Ir  Ir41  1  0.28045707  0.36264364  0.30336058  1
  Ir  Ir42  1  0.94071693  0.78045707  0.80336058  1
  Ir  Ir43  1  0.86264364  0.52290350  0.80336058  1
  Ir  Ir44  1  0.97709650  0.55928307  0.69663942  1
  Ir  Ir45  1  0.71954293  0.63735636  0.69663942  1
  Ir  Ir46  1  0.05928307  0.21954293  0.19663942  1
  Ir  Ir47  1  0.13735636  0.47709650  0.19663942  1
  Cl  Cl48  1  0.71480958  0.54274720  0.31835293  1
  Cl  Cl49  1  0.60354335  0.27560573  0.31835293  1
  Cl  Cl50  1  0.04274720  0.10354335  0.81835293  1
  Cl  Cl51  1  0.77560573  0.21480958  0.81835293  1
  Cl  Cl52  1  0.28519042  0.45725280  0.68164707  1
  Cl  Cl53  1  0.39645665  0.72439427  0.68164707  1
  Cl  Cl54  1  0.95725280  0.89645665  0.18164707  1
  Cl  Cl55  1  0.22439427  0.78519042  0.18164707  1
  Cl  Cl56  1  0.88547362  0.41431018  0.43883036  1
  Cl  Cl57  1  0.55335674  0.52452018  0.43883036  1
  Cl  Cl58  1  0.91431018  0.05335674  0.93883036  1
  Cl  Cl59  1  0.02452018  0.38547362  0.93883036  1
  Cl  Cl60  1  0.11452638  0.58568982  0.56116964  1
  Cl  Cl61  1  0.44664326  0.47547982  0.56116964  1
  Cl  Cl62  1  0.08568982  0.94664326  0.06116964  1
  Cl  Cl63  1  0.97547982  0.61452638  0.06116964  1
  Cl  Cl64  1  0.96861233  0.71731689  0.43187514  1
  Cl  Cl65  1  0.46326281  0.21455825  0.43187514  1
  Cl  Cl66  1  0.21731689  0.96326281  0.93187514  1
  Cl  Cl67  1  0.71455825  0.46861233  0.93187514  1
  Cl  Cl68  1  0.03138767  0.28268311  0.56812486  1
  Cl  Cl69  1  0.53673719  0.78544175  0.56812486  1
  Cl  Cl70  1  0.78268311  0.03673719  0.06812486  1
  Cl  Cl71  1  0.28544175  0.53138767  0.06812486  1
  Cl  Cl72  1  0.72499892  0.27385211  0.19117523  1
  Cl  Cl73  1  0.46617631  0.41732312  0.19117523  1
  Cl  Cl74  1  0.77385211  0.96617631  0.69117523  1
  Cl  Cl75  1  0.91732312  0.22499892  0.69117523  1
  Cl  Cl76  1  0.27500108  0.72614789  0.80882477  1
  Cl  Cl77  1  0.53382369  0.58267688  0.80882477  1
  Cl  Cl78  1  0.22614789  0.03382369  0.30882477  1
  Cl  Cl79  1  0.08267688  0.77500108  0.30882477  1
  Cl  Cl80  1  0.17963977  0.33039430  0.45398711  1
  Cl  Cl81  1  0.27434734  0.62359281  0.45398711  1
  Cl  Cl82  1  0.83039430  0.77434734  0.95398711  1
  Cl  Cl83  1  0.12359281  0.67963977  0.95398711  1
  Cl  Cl84  1  0.82036023  0.66960570  0.54601289  1
  Cl  Cl85  1  0.72565266  0.37640719  0.54601289  1
  Cl  Cl86  1  0.16960570  0.22565266  0.04601289  1
  Cl  Cl87  1  0.87640719  0.32036023  0.04601289  1
  Cl  Cl88  1  0.80591068  0.83692410  0.31872642  1
  Cl  Cl89  1  0.51281574  0.98180232  0.31872642  1
  Cl  Cl90  1  0.33692410  0.01281574  0.81872642  1
  Cl  Cl91  1  0.48180232  0.30591068  0.81872642  1
  Cl  Cl92  1  0.19408932  0.16307590  0.68127358  1
  Cl  Cl93  1  0.48718426  0.01819768  0.68127358  1
  Cl  Cl94  1  0.66307590  0.98718426  0.18127358  1
  Cl  Cl95  1  0.51819768  0.69408932  0.18127358  1
  Cl  Cl96  1  0.88687943  0.14118787  0.31422871  1
  Cl  Cl97  1  0.42734928  0.67304084  0.31422871  1
  Cl  Cl98  1  0.64118787  0.92734928  0.81422871  1
  Cl  Cl99  1  0.17304084  0.38687943  0.81422871  1
  Cl  Cl100  1  0.11312057  0.85881213  0.68577129  1
  Cl  Cl101  1  0.57265072  0.32695916  0.68577129  1
  Cl  Cl102  1  0.35881213  0.07265072  0.18577129  1
  Cl  Cl103  1  0.82695916  0.61312057  0.18577129  1
  Cl  Cl104  1  0.05636305  0.02953691  0.44452160  1
  Cl  Cl105  1  0.38815855  0.91498469  0.44452160  1
  Cl  Cl106  1  0.52953691  0.88815855  0.94452160  1
  Cl  Cl107  1  0.41498469  0.55636305  0.94452160  1
  Cl  Cl108  1  0.94363695  0.97046309  0.55547840  1
  Cl  Cl109  1  0.61184145  0.08501531  0.55547840  1
  Cl  Cl110  1  0.47046309  0.11184145  0.05547840  1
  Cl  Cl111  1  0.58501531  0.44363695  0.05547840  1
  Cl  Cl112  1  0.76632218  0.10394154  0.44146874  1
  Cl  Cl113  1  0.67514656  0.83752720  0.44146874  1
  Cl  Cl114  1  0.60394154  0.17514656  0.94146874  1
  Cl  Cl115  1  0.33752720  0.26632218  0.94146874  1
  Cl  Cl116  1  0.23367782  0.89605846  0.55853126  1
  Cl  Cl117  1  0.32485344  0.16247280  0.55853126  1
  Cl  Cl118  1  0.39605846  0.82485344  0.05853126  1
  Cl  Cl119  1  0.66247280  0.73367782  0.05853126  1
