# generated using pymatgen
data_RbTh2F9
_symmetry_space_group_name_H-M   'P 1'
_cell_length_a   7.26281001
_cell_length_b   8.97910112
_cell_length_c   12.02010308
_cell_angle_alpha   90.00000000
_cell_angle_beta   90.00000000
_cell_angle_gamma   90.00000000
_symmetry_Int_Tables_number   1
_chemical_formula_structural   RbTh2F9
_chemical_formula_sum   'Rb4 Th8 F36'
_cell_volume   783.87305826
_cell_formula_units_Z   4
loop_
 _symmetry_equiv_pos_site_id
 _symmetry_equiv_pos_as_xyz
  1  'x, y, z'
loop_
 _atom_site_type_symbol
 _atom_site_label
 _atom_site_symmetry_multiplicity
 _atom_site_fract_x
 _atom_site_fract_y
 _atom_site_fract_z
 _atom_site_occupancy
  Rb  Rb0  1  0.63905578  0.96617838  0.25000000  1
  Rb  Rb1  1  0.86094422  0.46617838  0.25000000  1
  Rb  Rb2  1  0.36094422  0.03382162  0.75000000  1
  Rb  Rb3  1  0.13905578  0.53382162  0.75000000  1
  Th  Th4  1  0.15156805  0.82514616  0.44860152  1
  Th  Th5  1  0.34843195  0.32514616  0.05139848  1
  Th  Th6  1  0.84843195  0.17485384  0.94860152  1
  Th  Th7  1  0.65156805  0.67485384  0.55139848  1
  Th  Th8  1  0.84843195  0.17485384  0.55139848  1
  Th  Th9  1  0.65156805  0.67485384  0.94860152  1
  Th  Th10  1  0.15156805  0.82514616  0.05139848  1
  Th  Th11  1  0.34843195  0.32514616  0.44860152  1
  F  F12  1  0.42646580  0.49390110  0.59569500  1
  F  F13  1  0.07353420  0.99390110  0.90430500  1
  F  F14  1  0.57353420  0.50609890  0.09569500  1
  F  F15  1  0.92646580  0.00609890  0.40430500  1
  F  F16  1  0.57353420  0.50609890  0.40430500  1
  F  F17  1  0.92646580  0.00609890  0.09569500  1
  F  F18  1  0.42646580  0.49390110  0.90430500  1
  F  F19  1  0.07353420  0.99390110  0.59569500  1
  F  F20  1  0.46697552  0.78647755  0.09312201  1
  F  F21  1  0.03302448  0.28647755  0.40687799  1
  F  F22  1  0.53302448  0.21352245  0.59312201  1
  F  F23  1  0.96697552  0.71352245  0.90687799  1
  F  F24  1  0.53302448  0.21352245  0.90687799  1
  F  F25  1  0.96697552  0.71352245  0.59312201  1
  F  F26  1  0.46697552  0.78647755  0.40687799  1
  F  F27  1  0.03302448  0.28647755  0.09312201  1
  F  F28  1  0.35249884  0.77923790  0.60336609  1
  F  F29  1  0.14750116  0.27923790  0.89663391  1
  F  F30  1  0.64750116  0.22076210  0.10336609  1
  F  F31  1  0.85249884  0.72076210  0.39663391  1
  F  F32  1  0.64750116  0.22076210  0.39663391  1
  F  F33  1  0.85249884  0.72076210  0.10336609  1
  F  F34  1  0.35249884  0.77923790  0.89663391  1
  F  F35  1  0.14750116  0.27923790  0.60336609  1
  F  F36  1  0.19551693  0.56317171  0.42062597  1
  F  F37  1  0.30448307  0.06317171  0.07937403  1
  F  F38  1  0.80448307  0.43682829  0.92062597  1
  F  F39  1  0.69551693  0.93682829  0.57937403  1
  F  F40  1  0.80448307  0.43682829  0.57937403  1
  F  F41  1  0.69551693  0.93682829  0.92062597  1
  F  F42  1  0.19551693  0.56317171  0.07937403  1
  F  F43  1  0.30448307  0.06317171  0.42062597  1
  F  F44  1  0.16090753  0.82230603  0.25000000  1
  F  F45  1  0.33909247  0.32230603  0.25000000  1
  F  F46  1  0.83909247  0.17769397  0.75000000  1
  F  F47  1  0.66090753  0.67769397  0.75000000  1
