# generated using pymatgen
data_Na2(ReSe2)3
_symmetry_space_group_name_H-M   'P 1'
_cell_length_a   9.84301188
_cell_length_b   9.84301188
_cell_length_c   12.22418222
_cell_angle_alpha   87.77992074
_cell_angle_beta   87.77992074
_cell_angle_gamma   61.95766609
_symmetry_Int_Tables_number   1
_chemical_formula_structural   Na2(ReSe2)3
_chemical_formula_sum   'Na8 Re12 Se24'
_cell_volume   1044.23015517
_cell_formula_units_Z   4
loop_
 _symmetry_equiv_pos_site_id
 _symmetry_equiv_pos_as_xyz
  1  'x, y, z'
loop_
 _atom_site_type_symbol
 _atom_site_label
 _atom_site_symmetry_multiplicity
 _atom_site_fract_x
 _atom_site_fract_y
 _atom_site_fract_z
 _atom_site_occupancy
  Na  Na0  1  0.57172248  0.42827752  0.25000000  1
  Na  Na1  1  0.42827752  0.57172248  0.75000000  1
  Na  Na2  1  0.21376621  0.78623379  0.25000000  1
  Na  Na3  1  0.78623379  0.21376621  0.75000000  1
  Na  Na4  1  0.10574787  0.65039684  0.50754058  1
  Na  Na5  1  0.34960316  0.89425213  0.99245942  1
  Na  Na6  1  0.89425213  0.34960316  0.49245942  1
  Na  Na7  1  0.65039684  0.10574787  0.00754058  1
  Re  Re8  1  0.01022541  0.30824676  0.03081725  1
  Re  Re9  1  0.69175324  0.98977459  0.46918275  1
  Re  Re10  1  0.98977459  0.69175324  0.96918275  1
  Re  Re11  1  0.30824676  0.01022541  0.53081725  1
  Re  Re12  1  0.11090944  0.47889300  0.12815752  1
  Re  Re13  1  0.52110700  0.88909056  0.37184248  1
  Re  Re14  1  0.88909056  0.52110700  0.87184248  1
  Re  Re15  1  0.47889300  0.11090944  0.62815752  1
  Re  Re16  1  0.81299868  0.59635510  0.08165246  1
  Re  Re17  1  0.40364490  0.18700132  0.41834754  1
  Re  Re18  1  0.18700132  0.40364490  0.91834754  1
  Re  Re19  1  0.59635510  0.81299868  0.58165246  1
  Se  Se20  1  0.08153181  0.24425131  0.83117514  1
  Se  Se21  1  0.75574869  0.91846819  0.66882486  1
  Se  Se22  1  0.91846819  0.75574869  0.16882486  1
  Se  Se23  1  0.24425131  0.08153181  0.33117514  1
  Se  Se24  1  0.79486394  0.70431232  0.42594087  1
  Se  Se25  1  0.29568768  0.20513606  0.07405913  1
  Se  Se26  1  0.20513606  0.29568768  0.57405913  1
  Se  Se27  1  0.70431232  0.79486394  0.92594087  1
  Se  Se28  1  0.06578662  0.61175590  0.77091080  1
  Se  Se29  1  0.38824410  0.93421338  0.72908920  1
  Se  Se30  1  0.93421338  0.38824410  0.22908920  1
  Se  Se31  1  0.61175590  0.06578662  0.27091080  1
  Se  Se32  1  0.27520618  0.57537893  0.01513616  1
  Se  Se33  1  0.42462107  0.72479382  0.48486384  1
  Se  Se34  1  0.72479382  0.42462107  0.98486384  1
  Se  Se35  1  0.57537893  0.27520618  0.51513616  1
  Se  Se36  1  0.04698205  0.02107871  0.58477538  1
  Se  Se37  1  0.97892129  0.95301795  0.91522462  1
  Se  Se38  1  0.95301795  0.97892129  0.41522462  1
  Se  Se39  1  0.02107871  0.04698205  0.08477538  1
  Se  Se40  1  0.26696524  0.45749880  0.30781943  1
  Se  Se41  1  0.54250120  0.73303476  0.19218057  1
  Se  Se42  1  0.73303476  0.54250120  0.69218057  1
  Se  Se43  1  0.45749880  0.26696524  0.80781943  1
