# generated using pymatgen
data_Cu3Ag2Bi7Pb3S16
_symmetry_space_group_name_H-M   'P 1'
_cell_length_a   4.05662970
_cell_length_b   12.81222420
_cell_length_c   29.27994593
_cell_angle_alpha   102.16262731
_cell_angle_beta   90.00000000
_cell_angle_gamma   90.00000000
_symmetry_Int_Tables_number   1
_chemical_formula_structural   Cu3Ag2Bi7Pb3S16
_chemical_formula_sum   'Cu6 Ag4 Bi14 Pb6 S32'
_cell_volume   1487.64981824
_cell_formula_units_Z   2
loop_
 _symmetry_equiv_pos_site_id
 _symmetry_equiv_pos_as_xyz
  1  'x, y, z'
loop_
 _atom_site_type_symbol
 _atom_site_label
 _atom_site_symmetry_multiplicity
 _atom_site_fract_x
 _atom_site_fract_y
 _atom_site_fract_z
 _atom_site_occupancy
  Cu  Cu0  1  0.75000000  0.77876529  0.23552292  1
  Cu  Cu1  1  0.25000000  0.22123471  0.76447708  1
  Cu  Cu2  1  0.75000000  0.46621949  0.74035792  1
  Cu  Cu3  1  0.25000000  0.53378051  0.25964208  1
  Cu  Cu4  1  0.75000000  0.26438112  0.24239683  1
  Cu  Cu5  1  0.25000000  0.73561888  0.75760317  1
  Ag  Ag6  1  0.75000000  0.61292680  0.54992180  1
  Ag  Ag7  1  0.25000000  0.38707320  0.45007820  1
  Ag  Ag8  1  0.75000000  0.43635094  0.05166361  1
  Ag  Ag9  1  0.25000000  0.56364906  0.94833639  1
  Bi  Bi10  1  0.75000000  0.98989182  0.80756109  1
  Bi  Bi11  1  0.25000000  0.01010818  0.19243891  1
  Bi  Bi12  1  0.75000000  0.94746363  0.55572500  1
  Bi  Bi13  1  0.25000000  0.05253637  0.44427500  1
  Bi  Bi14  1  0.75000000  0.76308400  0.04531809  1
  Bi  Bi15  1  0.25000000  0.23691600  0.95468191  1
  Bi  Bi16  1  0.75000000  0.47971963  0.35326116  1
  Bi  Bi17  1  0.25000000  0.52028037  0.64673884  1
  Bi  Bi18  1  0.75000000  0.36341906  0.85623307  1
  Bi  Bi19  1  0.25000000  0.63658094  0.14376693  1
  Bi  Bi20  1  0.75000000  0.28261681  0.54685130  1
  Bi  Bi21  1  0.25000000  0.71738319  0.45314870  1
  Bi  Bi22  1  0.75000000  0.10085539  0.05609058  1
  Bi  Bi23  1  0.25000000  0.89914461  0.94390942  1
  Pb  Pb24  1  0.75000000  0.81163585  0.34038874  1
  Pb  Pb25  1  0.25000000  0.18836415  0.65961126  1
  Pb  Pb26  1  0.75000000  0.67781581  0.83877792  1
  Pb  Pb27  1  0.25000000  0.32218419  0.16122208  1
  Pb  Pb28  1  0.75000000  0.13729403  0.32752614  1
  Pb  Pb29  1  0.25000000  0.86270597  0.67247386  1
  S  S30  1  0.75000000  0.95926643  0.24701485  1
  S  S31  1  0.25000000  0.04073357  0.75298515  1
  S  S32  1  0.75000000  0.87808183  0.44237563  1
  S  S33  1  0.25000000  0.12191817  0.55762437  1
  S  S34  1  0.75000000  0.80898614  0.74539731  1
  S  S35  1  0.25000000  0.19101386  0.25460269  1
  S  S36  1  0.75000000  0.78918538  0.13905818  1
  S  S37  1  0.25000000  0.21081462  0.86094182  1
  S  S38  1  0.75000000  0.74834937  0.93916772  1
  S  S39  1  0.25000000  0.25165063  0.06083228  1
  S  S40  1  0.75000000  0.65530865  0.63538955  1
  S  S41  1  0.25000000  0.34469135  0.36461045  1
  S  S42  1  0.75000000  0.57722020  0.46305780  1
  S  S43  1  0.25000000  0.42277980  0.53694220  1
  S  S44  1  0.75000000  0.47809152  0.13741624  1
  S  S45  1  0.25000000  0.52190848  0.86258376  1
  S  S46  1  0.75000000  0.44811029  0.26050786  1
  S  S47  1  0.25000000  0.55188971  0.73949214  1
  S  S48  1  0.75000000  0.38763954  0.96460095  1
  S  S49  1  0.25000000  0.61236046  0.03539905  1
  S  S50  1  0.75000000  0.34506571  0.64332392  1
  S  S51  1  0.25000000  0.65493429  0.35667608  1
  S  S52  1  0.75000000  0.30602386  0.76285674  1
  S  S53  1  0.25000000  0.69397614  0.23714326  1
  S  S54  1  0.75000000  0.19562880  0.44359461  1
  S  S55  1  0.25000000  0.80437120  0.55640539  1
  S  S56  1  0.75000000  0.14421611  0.15374607  1
  S  S57  1  0.25000000  0.85578389  0.84625393  1
  S  S58  1  0.75000000  0.06806888  0.95224642  1
  S  S59  1  0.25000000  0.93193112  0.04775358  1
  S  S60  1  0.75000000  0.00822651  0.64773778  1
  S  S61  1  0.25000000  0.99177349  0.35226222  1
