# generated using pymatgen
data_BiP2O7
_symmetry_space_group_name_H-M   'P 1'
_cell_length_a   6.98787740
_cell_length_b   7.00464313
_cell_length_c   7.40772205
_cell_angle_alpha   113.83673782
_cell_angle_beta   91.13039066
_cell_angle_gamma   84.78445186
_symmetry_Int_Tables_number   1
_chemical_formula_structural   BiP2O7
_chemical_formula_sum   'Bi2 P4 O14'
_cell_volume   330.23070907
_cell_formula_units_Z   2
loop_
 _symmetry_equiv_pos_site_id
 _symmetry_equiv_pos_as_xyz
  1  'x, y, z'
loop_
 _atom_site_type_symbol
 _atom_site_label
 _atom_site_symmetry_multiplicity
 _atom_site_fract_x
 _atom_site_fract_y
 _atom_site_fract_z
 _atom_site_occupancy
  Bi  Bi0  1  0.67152720  0.10215566  0.22970222  1
  Bi  Bi1  1  0.32852433  0.89779691  0.77030554  1
  P  P2  1  0.38602304  0.33836264  0.65453293  1
  P  P3  1  0.61384786  0.66163338  0.34541649  1
  P  P4  1  0.15902498  0.21817862  0.26494949  1
  P  P5  1  0.84100854  0.78181139  0.73516221  1
  O  O6  1  0.60960653  0.42828647  0.22012779  1
  O  O7  1  0.91917046  0.61320594  0.80209764  1
  O  O8  1  0.08079565  0.38672896  0.19796503  1
  O  O9  1  0.99932421  0.92306763  0.73771888  1
  O  O10  1  0.22784260  0.32125057  0.48748054  1
  O  O11  1  0.31986742  0.22510630  0.77717186  1
  O  O12  1  0.33764547  0.08030275  0.14045516  1
  O  O13  1  0.39042320  0.57166889  0.77980219  1
  O  O14  1  0.77216853  0.67880136  0.51252326  1
  O  O15  1  0.57943474  0.23619624  0.54599836  1
  O  O16  1  0.00084282  0.07702541  0.26226365  1
  O  O17  1  0.66232418  0.91973808  0.85957205  1
  O  O18  1  0.68007390  0.77486043  0.22270510  1
  O  O19  1  0.42052531  0.76382038  0.45405061  1
