# generated using pymatgen
data_K3Al2(AsO4)3
_symmetry_space_group_name_H-M   'P 1'
_cell_length_a   8.84571073
_cell_length_b   9.00781020
_cell_length_c   17.74218672
_cell_angle_alpha   90.00000000
_cell_angle_beta   90.00000000
_cell_angle_gamma   90.00000000
_symmetry_Int_Tables_number   1
_chemical_formula_structural   K3Al2(AsO4)3
_chemical_formula_sum   'K12 Al8 As12 O48'
_cell_volume   1413.70601336
_cell_formula_units_Z   4
loop_
 _symmetry_equiv_pos_site_id
 _symmetry_equiv_pos_as_xyz
  1  'x, y, z'
loop_
 _atom_site_type_symbol
 _atom_site_label
 _atom_site_symmetry_multiplicity
 _atom_site_fract_x
 _atom_site_fract_y
 _atom_site_fract_z
 _atom_site_occupancy
  K  K0  1  0.84007110  0.51037092  0.09792558  1
  K  K1  1  0.34007110  0.48962908  0.90207442  1
  K  K2  1  0.34007110  0.98962908  0.59792558  1
  K  K3  1  0.84007110  0.01037092  0.40207442  1
  K  K4  1  0.30891475  0.45098703  0.14439499  1
  K  K5  1  0.80891475  0.54901297  0.85560501  1
  K  K6  1  0.80891475  0.04901297  0.64439499  1
  K  K7  1  0.30891475  0.95098703  0.35560501  1
  K  K8  1  0.11717399  0.18056592  0.01112420  1
  K  K9  1  0.61717399  0.81943408  0.98887580  1
  K  K10  1  0.61717399  0.31943408  0.51112420  1
  K  K11  1  0.11717399  0.68056592  0.48887580  1
  Al  Al12  1  0.14636385  0.84799198  0.16029946  1
  Al  Al13  1  0.64636385  0.15200802  0.83970054  1
  Al  Al14  1  0.64636385  0.65200802  0.66029946  1
  Al  Al15  1  0.14636385  0.34799198  0.33970054  1
  Al  Al16  1  0.65557389  0.63223775  0.33194594  1
  Al  Al17  1  0.15557389  0.36776225  0.66805406  1
  Al  Al18  1  0.15557389  0.86776225  0.83194594  1
  Al  Al19  1  0.65557389  0.13223775  0.16805406  1
  As  As20  1  0.00096313  0.65746611  0.28539054  1
  As  As21  1  0.50096313  0.34253389  0.71460946  1
  As  As22  1  0.50096313  0.84253389  0.78539054  1
  As  As23  1  0.00096313  0.15746611  0.21460946  1
  As  As24  1  0.51255811  0.79373101  0.18624361  1
  As  As25  1  0.01255811  0.20626899  0.81375639  1
  As  As26  1  0.01255811  0.70626899  0.68624361  1
  As  As27  1  0.51255811  0.29373101  0.31375639  1
  As  As28  1  0.08405832  0.73621160  0.99720663  1
  As  As29  1  0.58405832  0.26378840  0.00279337  1
  As  As30  1  0.58405832  0.76378840  0.49720663  1
  As  As31  1  0.08405832  0.23621160  0.50279337  1
  O  O32  1  0.03251944  0.79077103  0.34934477  1
  O  O33  1  0.53251944  0.20922897  0.65065523  1
  O  O34  1  0.53251944  0.70922897  0.84934477  1
  O  O35  1  0.03251944  0.29077103  0.15065523  1
  O  O36  1  0.13506088  0.51848104  0.29132942  1
  O  O37  1  0.63506088  0.48151896  0.70867058  1
  O  O38  1  0.63506088  0.98151896  0.79132942  1
  O  O39  1  0.13506088  0.01848104  0.20867058  1
  O  O40  1  0.01008678  0.71684146  0.19237618  1
  O  O41  1  0.51008678  0.28315854  0.80762382  1
  O  O42  1  0.51008678  0.78315854  0.69237618  1
  O  O43  1  0.01008678  0.21684146  0.30762382  1
  O  O44  1  0.82652019  0.57119471  0.29040697  1
  O  O45  1  0.32652019  0.42880529  0.70959303  1
  O  O46  1  0.32652019  0.92880529  0.79040697  1
  O  O47  1  0.82652019  0.07119471  0.20959303  1
  O  O48  1  0.58728391  0.67109632  0.12627482  1
  O  O49  1  0.08728391  0.32890368  0.87372518  1
  O  O50  1  0.08728391  0.82890368  0.62627482  1
  O  O51  1  0.58728391  0.17109632  0.37372518  1
  O  O52  1  0.53723559  0.97588640  0.15909015  1
  O  O53  1  0.03723559  0.02411360  0.84090985  1
  O  O54  1  0.03723559  0.52411360  0.65909015  1
  O  O55  1  0.53723559  0.47588640  0.34090985  1
  O  O56  1  0.56929054  0.77803579  0.27942803  1
  O  O57  1  0.06929054  0.22196421  0.72057197  1
  O  O58  1  0.06929054  0.72196421  0.77942803  1
  O  O59  1  0.56929054  0.27803579  0.22057197  1
  O  O60  1  0.31899474  0.76903209  0.19060082  1
  O  O61  1  0.81899474  0.23096791  0.80939918  1
  O  O62  1  0.81899474  0.73096791  0.69060082  1
  O  O63  1  0.31899474  0.26903209  0.30939918  1
  O  O64  1  0.15405278  0.57425889  0.03066595  1
  O  O65  1  0.65405278  0.42574111  0.96933405  1
  O  O66  1  0.65405278  0.92574111  0.53066595  1
  O  O67  1  0.15405278  0.07425889  0.46933405  1
  O  O68  1  0.19704806  0.79176932  0.92086793  1
  O  O69  1  0.69704806  0.20823068  0.07913207  1
  O  O70  1  0.69704806  0.70823068  0.42086793  1
  O  O71  1  0.19704806  0.29176932  0.57913207  1
  O  O72  1  0.89955968  0.73402628  0.97350119  1
  O  O73  1  0.39955968  0.26597372  0.02649881  1
  O  O74  1  0.39955968  0.76597372  0.47350119  1
  O  O75  1  0.89955968  0.23402628  0.52649881  1
  O  O76  1  0.12067127  0.87983998  0.06305315  1
  O  O77  1  0.62067127  0.12016002  0.93694685  1
  O  O78  1  0.62067127  0.62016002  0.56305315  1
  O  O79  1  0.12067127  0.37983998  0.43694685  1
