# generated using pymatgen
data_Lu6Al43W4
_symmetry_space_group_name_H-M   'P 1'
_cell_length_a   11.03310708
_cell_length_b   11.03319015
_cell_length_c   17.51281396
_cell_angle_alpha   90.00000000
_cell_angle_beta   90.00000000
_cell_angle_gamma   119.99975227
_symmetry_Int_Tables_number   1
_chemical_formula_structural   Lu6Al43W4
_chemical_formula_sum   'Lu12 Al86 W8'
_cell_volume   1846.23332713
_cell_formula_units_Z   2
loop_
 _symmetry_equiv_pos_site_id
 _symmetry_equiv_pos_as_xyz
  1  'x, y, z'
loop_
 _atom_site_type_symbol
 _atom_site_label
 _atom_site_symmetry_multiplicity
 _atom_site_fract_x
 _atom_site_fract_y
 _atom_site_fract_z
 _atom_site_occupancy
  Lu  Lu0  1  0.53163833  0.00000000  0.59542431  1
  Lu  Lu1  1  0.46834493  0.46835052  0.59541493  1
  Lu  Lu2  1  0.99999441  0.53164948  0.59541493  1
  Lu  Lu3  1  0.46836167  1.00000000  0.40457569  1
  Lu  Lu4  1  0.53165507  0.53164948  0.40458507  1
  Lu  Lu5  1  0.00000559  0.46835052  0.40458507  1
  Lu  Lu6  1  0.46836167  1.00000000  0.09542431  1
  Lu  Lu7  1  0.53165507  0.53164948  0.09541493  1
  Lu  Lu8  1  0.00000559  0.46835052  0.09541493  1
  Lu  Lu9  1  0.53163833  0.00000000  0.90457569  1
  Lu  Lu10  1  0.46834493  0.46835052  0.90458507  1
  Lu  Lu11  1  0.99999441  0.53164948  0.90458507  1
  Al  Al12  1  0.15804968  0.39504322  0.66317580  1
  Al  Al13  1  0.23698604  0.84195289  0.66317764  1
  Al  Al14  1  0.60495506  0.76301129  0.66317815  1
  Al  Al15  1  0.76300647  0.60495678  0.66317580  1
  Al  Al16  1  0.39503315  0.15804711  0.66317764  1
  Al  Al17  1  0.84194378  0.23698871  0.66317815  1
  Al  Al18  1  0.84195032  0.60495678  0.33682420  1
  Al  Al19  1  0.76301396  0.15804711  0.33682236  1
  Al  Al20  1  0.39504494  0.23698871  0.33682185  1
  Al  Al21  1  0.23699353  0.39504322  0.33682420  1
  Al  Al22  1  0.60496685  0.84195289  0.33682236  1
  Al  Al23  1  0.15805622  0.76301129  0.33682185  1
  Al  Al24  1  0.84195032  0.60495678  0.16317580  1
  Al  Al25  1  0.76301396  0.15804711  0.16317764  1
  Al  Al26  1  0.39504494  0.23698871  0.16317815  1
  Al  Al27  1  0.23699353  0.39504322  0.16317580  1
  Al  Al28  1  0.60496685  0.84195289  0.16317764  1
  Al  Al29  1  0.15805622  0.76301129  0.16317815  1
  Al  Al30  1  0.15804968  0.39504322  0.83682420  1
  Al  Al31  1  0.23698604  0.84195289  0.83682236  1
  Al  Al32  1  0.60495506  0.76301129  0.83682185  1
  Al  Al33  1  0.76300647  0.60495678  0.83682420  1
  Al  Al34  1  0.39503315  0.15804711  0.83682236  1
  Al  Al35  1  0.84194378  0.23698871  0.83682185  1
  Al  Al36  1  0.15998441  0.00000000  0.11433347  1
  Al  Al37  1  0.84001931  0.84001596  0.11433196  1
  Al  Al38  1  0.00000335  0.15998404  0.11433196  1
  Al  Al39  1  0.84001559  1.00000000  0.88566653  1
  Al  Al40  1  0.15998069  0.15998404  0.88566804  1
  Al  Al41  1  0.99999665  0.84001596  0.88566804  1
  Al  Al42  1  0.84001559  1.00000000  0.61433347  1
  Al  Al43  1  0.15998069  0.15998404  0.61433196  1
  Al  Al44  1  0.99999665  0.84001596  0.61433196  1
  Al  Al45  1  0.15998441  0.00000000  0.38566653  1
  Al  Al46  1  0.84001931  0.84001596  0.38566804  1
  Al  Al47  1  0.00000335  0.15998404  0.38566804  1
  Al  Al48  1  0.25521781  1.00000000  0.53037911  1
  Al  Al49  1  0.74478417  0.74478150  0.53037960  1
  Al  Al50  1  0.00000267  0.25521850  0.53037960  1
  Al  Al51  1  0.74478219  0.00000000  0.46962089  1
  Al  Al52  1  0.25521583  0.25521850  0.46962040  1
  Al  Al53  1  0.99999733  0.74478150  0.46962040  1
  Al  Al54  1  0.74478219  0.00000000  0.03037911  1
  Al  Al55  1  0.25521583  0.25521850  0.03037960  1
  Al  Al56  1  0.99999733  0.74478150  0.03037960  1
  Al  Al57  1  0.25521781  1.00000000  0.96962089  1
  Al  Al58  1  0.74478417  0.74478150  0.96962040  1
  Al  Al59  1  0.00000267  0.25521850  0.96962040  1
  Al  Al60  1  0.14693610  0.59549764  0.75000000  1
  Al  Al61  1  0.44856685  0.85306537  0.75000000  1
  Al  Al62  1  0.40450076  0.55144562  0.75000000  1
  Al  Al63  1  0.55143847  0.40450236  0.75000000  1
  Al  Al64  1  0.59550148  0.14693463  0.75000000  1
  Al  Al65  1  0.85305513  0.44855438  0.75000000  1
  Al  Al66  1  0.85306390  0.40450236  0.25000000  1
  Al  Al67  1  0.55143315  0.14693463  0.25000000  1
  Al  Al68  1  0.59549924  0.44855438  0.25000000  1
  Al  Al69  1  0.44856153  0.59549764  0.25000000  1
  Al  Al70  1  0.40449852  0.85306537  0.25000000  1
  Al  Al71  1  0.14694487  0.55144562  0.25000000  1
  Al  Al72  1  0.24680998  0.49361997  0.50000000  1
  Al  Al73  1  0.24680921  0.75319140  0.49999684  1
  Al  Al74  1  0.50638220  0.75319140  0.50000316  1
  Al  Al75  1  0.75319002  0.50638003  0.50000000  1
  Al  Al76  1  0.49361780  0.24680860  0.49999684  1
  Al  Al77  1  0.75319079  0.24680860  0.50000316  1
  Al  Al78  1  0.75319002  0.50638003  0.00000000  1
  Al  Al79  1  0.75319079  0.24680860  0.99999684  1
  Al  Al80  1  0.49361780  0.24680860  0.00000316  1
  Al  Al81  1  0.24680998  0.49361997  0.00000000  1
  Al  Al82  1  0.50638220  0.75319140  0.99999684  1
  Al  Al83  1  0.24680921  0.75319140  0.00000316  1
  Al  Al84  1  0.33331892  0.66668029  0.62589494  1
  Al  Al85  1  0.66663863  0.33331971  0.62589494  1
  Al  Al86  1  0.66668108  0.33331971  0.37410506  1
  Al  Al87  1  0.33336137  0.66668029  0.37410506  1
  Al  Al88  1  0.66668108  0.33331971  0.12589494  1
  Al  Al89  1  0.33336137  0.66668029  0.12589494  1
  Al  Al90  1  0.33331892  0.66668029  0.87410506  1
  Al  Al91  1  0.66663863  0.33331971  0.87410506  1
  Al  Al92  1  0.14793212  1.00000000  0.75000000  1
  Al  Al93  1  0.85206190  0.85206353  0.75000000  1
  Al  Al94  1  -0.00000163  0.14793647  0.75000000  1
  Al  Al95  1  0.85206788  0.00000000  0.25000000  1
  Al  Al96  1  0.14793810  0.14793647  0.25000000  1
  Al  Al97  1  0.00000163  0.85206353  0.25000000  1
  W  W98  1  0.72851922  0.00000000  0.75000000  1
  W  W99  1  0.27148106  0.27148984  0.75000000  1
  W  W100  1  0.99999122  0.72851016  0.75000000  1
  W  W101  1  0.27148078  1.00000000  0.25000000  1
  W  W102  1  0.72851894  0.72851016  0.25000000  1
  W  W103  1  0.00000878  0.27148984  0.25000000  1
  W  W104  1  0.00000000  0.00000000  0.50000000  1
  W  W105  1  0.00000000  0.00000000  0.00000000  1
