# generated using pymatgen
data_Cs3PuH4O7
_symmetry_space_group_name_H-M   'P 1'
_cell_length_a   6.96118351
_cell_length_b   12.05309683
_cell_length_c   12.55244249
_cell_angle_alpha   90.00000000
_cell_angle_beta   90.45350475
_cell_angle_gamma   90.00000000
_symmetry_Int_Tables_number   1
_chemical_formula_structural   Cs3PuH4O7
_chemical_formula_sum   'Cs12 Pu4 H16 O28'
_cell_volume   1053.16487047
_cell_formula_units_Z   4
loop_
 _symmetry_equiv_pos_site_id
 _symmetry_equiv_pos_as_xyz
  1  'x, y, z'
loop_
 _atom_site_type_symbol
 _atom_site_label
 _atom_site_symmetry_multiplicity
 _atom_site_fract_x
 _atom_site_fract_y
 _atom_site_fract_z
 _atom_site_occupancy
  Cs  Cs0  1  0.79491198  0.12047276  0.55094499  1
  Cs  Cs1  1  0.29491198  0.37952724  0.05094499  1
  Cs  Cs2  1  0.20508802  0.87952724  0.44905501  1
  Cs  Cs3  1  0.70508802  0.62047276  0.94905501  1
  Cs  Cs4  1  0.77367236  0.27896328  0.25471012  1
  Cs  Cs5  1  0.27367236  0.22103672  0.75471012  1
  Cs  Cs6  1  0.22632764  0.72103672  0.74528988  1
  Cs  Cs7  1  0.72632764  0.77896328  0.24528988  1
  Cs  Cs8  1  0.82320309  0.96286514  0.86527087  1
  Cs  Cs9  1  0.32320309  0.53713486  0.36527087  1
  Cs  Cs10  1  0.17679691  0.03713486  0.13472913  1
  Cs  Cs11  1  0.67679691  0.46286514  0.63472913  1
  Pu  Pu12  1  0.78923053  0.29372962  0.90688598  1
  Pu  Pu13  1  0.28923053  0.20627038  0.40688598  1
  Pu  Pu14  1  0.21076947  0.70627038  0.09311402  1
  Pu  Pu15  1  0.71076947  0.79372962  0.59311402  1
  H  H16  1  0.04764904  0.47001963  0.86513922  1
  H  H17  1  0.54764904  0.02998037  0.36513922  1
  H  H18  1  0.95235096  0.52998037  0.13486078  1
  H  H19  1  0.45235096  0.97001963  0.63486078  1
  H  H20  1  0.49605535  0.12872007  0.95079628  1
  H  H21  1  0.99605535  0.37127993  0.45079628  1
  H  H22  1  0.50394465  0.87127993  0.04920372  1
  H  H23  1  0.00394465  0.62872007  0.54920372  1
  H  H24  1  0.12124718  0.45467261  0.70440406  1
  H  H25  1  0.62124718  0.04532739  0.20440406  1
  H  H26  1  0.87875282  0.54532739  0.29559594  1
  H  H27  1  0.37875282  0.95467261  0.79559594  1
  H  H28  1  0.15296791  0.42010136  0.58263168  1
  H  H29  1  0.65296791  0.07989864  0.08263168  1
  H  H30  1  0.84703209  0.57989864  0.41736832  1
  H  H31  1  0.34703209  0.92010136  0.91736832  1
  O  O32  1  0.76789562  0.20759498  0.77961817  1
  O  O33  1  0.26789562  0.29240502  0.27961817  1
  O  O34  1  0.23210438  0.79240502  0.22038183  1
  O  O35  1  0.73210438  0.70759498  0.72038183  1
  O  O36  1  0.57605009  0.38167602  0.86134246  1
  O  O37  1  0.07605009  0.11832398  0.36134246  1
  O  O38  1  0.42394991  0.61832398  0.13865754  1
  O  O39  1  0.92394991  0.88167602  0.63865754  1
  O  O40  1  0.81065119  0.38313320  0.03207867  1
  O  O41  1  0.31065119  0.11686680  0.53207867  1
  O  O42  1  0.18934881  0.61686680  0.96792133  1
  O  O43  1  0.68934881  0.88313320  0.46792133  1
  O  O44  1  0.00055557  0.20599600  0.95205736  1
  O  O45  1  0.50055557  0.29400400  0.45205736  1
  O  O46  1  0.99944443  0.79400400  0.04794264  1
  O  O47  1  0.49944443  0.70599600  0.54794264  1
  O  O48  1  0.00085472  0.41420747  0.81514867  1
  O  O49  1  0.50085472  0.08579253  0.31514867  1
  O  O50  1  0.99914528  0.58579253  0.18485133  1
  O  O51  1  0.49914528  0.91420747  0.68485133  1
  O  O52  1  0.57917459  0.17169537  0.99780779  1
  O  O53  1  0.07917459  0.32830463  0.49780779  1
  O  O54  1  0.42082541  0.82830463  0.00219221  1
  O  O55  1  0.92082541  0.67169537  0.50219221  1
  O  O56  1  0.19004703  0.47830574  0.63754369  1
  O  O57  1  0.69004703  0.02169426  0.13754369  1
  O  O58  1  0.80995297  0.52169426  0.36245631  1
  O  O59  1  0.30995297  0.97830574  0.86245631  1
