# generated using pymatgen
data_Gd(SO4)3
_symmetry_space_group_name_H-M   'P 1'
_cell_length_a   9.78265884
_cell_length_b   12.33983131
_cell_length_c   16.98283884
_cell_angle_alpha   90.00000000
_cell_angle_beta   90.00000000
_cell_angle_gamma   90.00000000
_symmetry_Int_Tables_number   1
_chemical_formula_structural   Gd(SO4)3
_chemical_formula_sum   'Gd8 S24 O96'
_cell_volume   2050.10648466
_cell_formula_units_Z   8
loop_
 _symmetry_equiv_pos_site_id
 _symmetry_equiv_pos_as_xyz
  1  'x, y, z'
loop_
 _atom_site_type_symbol
 _atom_site_label
 _atom_site_symmetry_multiplicity
 _atom_site_fract_x
 _atom_site_fract_y
 _atom_site_fract_z
 _atom_site_occupancy
  Gd  Gd0  1  0.83804547  0.10625496  0.23096010  1
  Gd  Gd1  1  0.66195453  0.60625496  0.76903990  1
  Gd  Gd2  1  0.33804547  0.89374504  0.26903990  1
  Gd  Gd3  1  0.16195453  0.39374504  0.73096010  1
  Gd  Gd4  1  0.16195453  0.89374504  0.76903990  1
  Gd  Gd5  1  0.33804547  0.39374504  0.23096010  1
  Gd  Gd6  1  0.66195453  0.10625496  0.73096010  1
  Gd  Gd7  1  0.83804547  0.60625496  0.26903990  1
  S  S8  1  0.10584801  0.98736316  0.10156981  1
  S  S9  1  0.39415199  0.48736316  0.89843019  1
  S  S10  1  0.60584801  0.01263684  0.39843019  1
  S  S11  1  0.89415199  0.51263684  0.60156981  1
  S  S12  1  0.89415199  0.01263684  0.89843019  1
  S  S13  1  0.60584801  0.51263684  0.10156981  1
  S  S14  1  0.39415199  0.98736316  0.60156981  1
  S  S15  1  0.10584801  0.48736316  0.39843019  1
  S  S16  1  0.98435135  0.86731105  0.34487629  1
  S  S17  1  0.51564865  0.36731105  0.65512371  1
  S  S18  1  0.48435135  0.13268895  0.15512371  1
  S  S19  1  0.01564865  0.63268895  0.84487629  1
  S  S20  1  0.01564865  0.13268895  0.65512371  1
  S  S21  1  0.48435135  0.63268895  0.34487629  1
  S  S22  1  0.51564865  0.86731105  0.84487629  1
  S  S23  1  0.98435135  0.36731105  0.15512371  1
  S  S24  1  0.66875354  0.84212217  0.16017876  1
  S  S25  1  0.83124646  0.34212217  0.83982124  1
  S  S26  1  0.16875354  0.15787783  0.33982124  1
  S  S27  1  0.33124646  0.65787783  0.66017876  1
  S  S28  1  0.33124646  0.15787783  0.83982124  1
  S  S29  1  0.16875354  0.65787783  0.16017876  1
  S  S30  1  0.83124646  0.84212217  0.66017876  1
  S  S31  1  0.66875354  0.34212217  0.33982124  1
  O  O32  1  0.99442657  0.05783380  0.13017424  1
  O  O33  1  0.50557343  0.55783380  0.86982576  1
  O  O34  1  0.49442657  0.94216620  0.36982576  1
  O  O35  1  0.00557343  0.44216620  0.63017424  1
  O  O36  1  0.00557343  0.94216620  0.86982576  1
  O  O37  1  0.49442657  0.44216620  0.13017424  1
  O  O38  1  0.50557343  0.05783380  0.63017424  1
  O  O39  1  0.99442657  0.55783380  0.36982576  1
  O  O40  1  0.04891293  0.89039294  0.06099549  1
  O  O41  1  0.45108707  0.39039294  0.93900451  1
  O  O42  1  0.54891293  0.10960706  0.43900451  1
  O  O43  1  0.95108707  0.60960706  0.56099549  1
  O  O44  1  0.95108707  0.10960706  0.93900451  1
  O  O45  1  0.54891293  0.60960706  0.06099549  1
  O  O46  1  0.45108707  0.89039294  0.56099549  1
  O  O47  1  0.04891293  0.39039294  0.43900451  1
  O  O48  1  0.18475554  0.04120872  0.03782269  1
  O  O49  1  0.31524446  0.54120872  0.96217731  1
  O  O50  1  0.68475554  0.95879128  0.46217731  1
  O  O51  1  0.81524446  0.45879128  0.53782269  1
  O  O52  1  0.81524446  0.95879128  0.96217731  1
  O  O53  1  0.68475554  0.45879128  0.03782269  1
  O  O54  1  0.31524446  0.04120872  0.53782269  1
  O  O55  1  0.18475554  0.54120872  0.46217731  1
  O  O56  1  0.19519753  0.95644770  0.16766481  1
  O  O57  1  0.30480247  0.45644770  0.83233519  1
  O  O58  1  0.69519753  0.04355230  0.33233519  1
  O  O59  1  0.80480247  0.54355230  0.66766481  1
  O  O60  1  0.80480247  0.04355230  0.83233519  1
  O  O61  1  0.69519753  0.54355230  0.16766481  1
  O  O62  1  0.30480247  0.95644770  0.66766481  1
  O  O63  1  0.19519753  0.45644770  0.33233519  1
  O  O64  1  0.94197822  0.94625283  0.28365421  1
  O  O65  1  0.55802178  0.44625283  0.71634579  1
  O  O66  1  0.44197822  0.05374717  0.21634579  1
  O  O67  1  0.05802178  0.55374717  0.78365421  1
  O  O68  1  0.05802178  0.05374717  0.71634579  1
  O  O69  1  0.44197822  0.55374717  0.28365421  1
  O  O70  1  0.55802178  0.94625283  0.78365421  1
  O  O71  1  0.94197822  0.44625283  0.21634579  1
  O  O72  1  0.97875232  0.91773717  0.42372885  1
  O  O73  1  0.52124768  0.41773717  0.57627115  1
  O  O74  1  0.47875232  0.08226283  0.07627115  1
  O  O75  1  0.02124768  0.58226283  0.92372885  1
  O  O76  1  0.02124768  0.08226283  0.57627115  1
  O  O77  1  0.47875232  0.58226283  0.42372885  1
  O  O78  1  0.52124768  0.91773717  0.92372885  1
  O  O79  1  0.97875232  0.41773717  0.07627115  1
  O  O80  1  0.12911384  0.83403431  0.33140453  1
  O  O81  1  0.37088616  0.33403431  0.66859547  1
  O  O82  1  0.62911384  0.16596569  0.16859547  1
  O  O83  1  0.87088616  0.66596569  0.83140453  1
  O  O84  1  0.87088616  0.16596569  0.66859547  1
  O  O85  1  0.62911384  0.66596569  0.33140453  1
  O  O86  1  0.37088616  0.83403431  0.83140453  1
  O  O87  1  0.12911384  0.33403431  0.16859547  1
  O  O88  1  0.89441820  0.77093066  0.34053765  1
  O  O89  1  0.60558180  0.27093066  0.65946235  1
  O  O90  1  0.39441820  0.22906934  0.15946235  1
  O  O91  1  0.10558180  0.72906934  0.84053765  1
  O  O92  1  0.10558180  0.22906934  0.65946235  1
  O  O93  1  0.39441820  0.72906934  0.34053765  1
  O  O94  1  0.60558180  0.77093066  0.84053765  1
  O  O95  1  0.89441820  0.27093066  0.15946235  1
  O  O96  1  0.73312106  0.95027157  0.16724495  1
  O  O97  1  0.76687894  0.45027157  0.83275505  1
  O  O98  1  0.23312106  0.04972843  0.33275505  1
  O  O99  1  0.26687894  0.54972843  0.66724495  1
  O  O100  1  0.26687894  0.04972843  0.83275505  1
  O  O101  1  0.23312106  0.54972843  0.16724495  1
  O  O102  1  0.76687894  0.95027157  0.66724495  1
  O  O103  1  0.73312106  0.45027157  0.33275505  1
  O  O104  1  0.64567025  0.81771057  0.07617777  1
  O  O105  1  0.85432975  0.31771057  0.92382223  1
  O  O106  1  0.14567025  0.18228943  0.42382223  1
  O  O107  1  0.35432975  0.68228943  0.57617777  1
  O  O108  1  0.35432975  0.18228943  0.92382223  1
  O  O109  1  0.14567025  0.68228943  0.07617777  1
  O  O110  1  0.85432975  0.81771057  0.57617777  1
  O  O111  1  0.64567025  0.31771057  0.42382223  1
  O  O112  1  0.76509232  0.75897119  0.19116637  1
  O  O113  1  0.73490768  0.25897119  0.80883363  1
  O  O114  1  0.26509232  0.24102881  0.30883363  1
  O  O115  1  0.23490768  0.74102881  0.69116637  1
  O  O116  1  0.23490768  0.24102881  0.80883363  1
  O  O117  1  0.26509232  0.74102881  0.19116637  1
  O  O118  1  0.73490768  0.75897119  0.69116637  1
  O  O119  1  0.76509232  0.25897119  0.30883363  1
  O  O120  1  0.53932439  0.83752166  0.20510008  1
  O  O121  1  0.96067561  0.33752166  0.79489992  1
  O  O122  1  0.03932439  0.16247834  0.29489992  1
  O  O123  1  0.46067561  0.66247834  0.70510008  1
  O  O124  1  0.46067561  0.16247834  0.79489992  1
  O  O125  1  0.03932439  0.66247834  0.20510008  1
  O  O126  1  0.96067561  0.83752166  0.70510008  1
  O  O127  1  0.53932439  0.33752166  0.29489992  1
