# generated using pymatgen
data_ZnP14Pb
_symmetry_space_group_name_H-M   'P 1'
_cell_length_a   9.90031329
_cell_length_b   10.66246985
_cell_length_c   12.94600598
_cell_angle_alpha   90.00000000
_cell_angle_beta   90.00000000
_cell_angle_gamma   90.00000000
_symmetry_Int_Tables_number   1
_chemical_formula_structural   ZnP14Pb
_chemical_formula_sum   'Zn4 P56 Pb4'
_cell_volume   1366.60358998
_cell_formula_units_Z   4
loop_
 _symmetry_equiv_pos_site_id
 _symmetry_equiv_pos_as_xyz
  1  'x, y, z'
loop_
 _atom_site_type_symbol
 _atom_site_label
 _atom_site_symmetry_multiplicity
 _atom_site_fract_x
 _atom_site_fract_y
 _atom_site_fract_z
 _atom_site_occupancy
  Zn  Zn0  1  0.25000000  0.00371000  0.82190423  1
  Zn  Zn1  1  0.25000000  0.49629000  0.32190423  1
  Zn  Zn2  1  0.75000000  0.99629000  0.17809577  1
  Zn  Zn3  1  0.75000000  0.50371000  0.67809577  1
  P  P4  1  0.25000000  0.84607333  0.96503000  1
  P  P5  1  0.25000000  0.65392667  0.46503000  1
  P  P6  1  0.75000000  0.15392667  0.03497000  1
  P  P7  1  0.75000000  0.34607333  0.53497000  1
  P  P8  1  0.25000000  0.85776347  0.67472396  1
  P  P9  1  0.25000000  0.64223653  0.17472396  1
  P  P10  1  0.75000000  0.14223653  0.32527604  1
  P  P11  1  0.75000000  0.35776347  0.82527604  1
  P  P12  1  0.05321982  0.13272943  0.86254335  1
  P  P13  1  0.44678018  0.36727057  0.36254335  1
  P  P14  1  0.55321982  0.86727057  0.13745665  1
  P  P15  1  0.94678018  0.63272943  0.63745665  1
  P  P16  1  0.94678018  0.86727057  0.13745665  1
  P  P17  1  0.55321982  0.63272943  0.63745665  1
  P  P18  1  0.44678018  0.13272943  0.86254335  1
  P  P19  1  0.05321982  0.36727057  0.36254335  1
  P  P20  1  0.07757131  0.35053514  0.53093428  1
  P  P21  1  0.42242869  0.14946486  0.03093428  1
  P  P22  1  0.57757131  0.64946486  0.46906572  1
  P  P23  1  0.92242869  0.85053514  0.96906572  1
  P  P24  1  0.92242869  0.64946486  0.46906572  1
  P  P25  1  0.57757131  0.85053514  0.96906572  1
  P  P26  1  0.42242869  0.35053514  0.53093428  1
  P  P27  1  0.07757131  0.14946486  0.03093428  1
  P  P28  1  0.25000000  0.22114631  0.55954571  1
  P  P29  1  0.25000000  0.27885369  0.05954571  1
  P  P30  1  0.75000000  0.77885369  0.44045429  1
  P  P31  1  0.75000000  0.72114631  0.94045429  1
  P  P32  1  0.58429796  0.21196381  0.56763670  1
  P  P33  1  0.91570204  0.28803619  0.06763670  1
  P  P34  1  0.08429796  0.78803619  0.43236330  1
  P  P35  1  0.41570204  0.71196381  0.93236330  1
  P  P36  1  0.41570204  0.78803619  0.43236330  1
  P  P37  1  0.08429796  0.71196381  0.93236330  1
  P  P38  1  0.91570204  0.21196381  0.56763670  1
  P  P39  1  0.58429796  0.28803619  0.06763670  1
  P  P40  1  0.25000000  0.40204698  0.91966205  1
  P  P41  1  0.25000000  0.09795302  0.41966205  1
  P  P42  1  0.75000000  0.59795302  0.08033795  1
  P  P43  1  0.75000000  0.90204698  0.58033795  1
  P  P44  1  0.08015259  0.91786882  0.57402433  1
  P  P45  1  0.41984741  0.58213118  0.07402433  1
  P  P46  1  0.58015259  0.08213118  0.42597567  1
  P  P47  1  0.91984741  0.41786882  0.92597567  1
  P  P48  1  0.91984741  0.08213118  0.42597567  1
  P  P49  1  0.58015259  0.41786882  0.92597567  1
  P  P50  1  0.41984741  0.91786882  0.57402433  1
  P  P51  1  0.08015259  0.58213118  0.07402433  1
  P  P52  1  0.07836966  0.33276843  0.82535233  1
  P  P53  1  0.42163034  0.16723157  0.32535233  1
  P  P54  1  0.57836966  0.66723157  0.17464767  1
  P  P55  1  0.92163034  0.83276843  0.67464767  1
  P  P56  1  0.92163034  0.66723157  0.17464767  1
  P  P57  1  0.57836966  0.83276843  0.67464767  1
  P  P58  1  0.42163034  0.33276843  0.82535233  1
  P  P59  1  0.07836966  0.16723157  0.32535233  1
  Pb  Pb60  1  0.25000000  0.90871358  0.17696581  1
  Pb  Pb61  1  0.25000000  0.59128642  0.67696581  1
  Pb  Pb62  1  0.75000000  0.09128642  0.82303419  1
  Pb  Pb63  1  0.75000000  0.40871358  0.32303419  1
