# generated using pymatgen
data_Tm6Al43Cr4
_symmetry_space_group_name_H-M   'P 1'
_cell_length_a   10.92829934
_cell_length_b   10.92868989
_cell_length_c   17.43908907
_cell_angle_alpha   90.00000000
_cell_angle_beta   90.00000000
_cell_angle_gamma   119.99882024
_symmetry_Int_Tables_number   1
_chemical_formula_structural   Tm6Al43Cr4
_chemical_formula_sum   'Tm12 Al86 Cr8'
_cell_volume   1803.76632641
_cell_formula_units_Z   2
loop_
 _symmetry_equiv_pos_site_id
 _symmetry_equiv_pos_as_xyz
  1  'x, y, z'
loop_
 _atom_site_type_symbol
 _atom_site_label
 _atom_site_symmetry_multiplicity
 _atom_site_fract_x
 _atom_site_fract_y
 _atom_site_fract_z
 _atom_site_occupancy
  Tm  Tm0  1  0.53021275  0.00000000  0.59522365  1
  Tm  Tm1  1  0.46979746  0.46980394  0.59523925  1
  Tm  Tm2  1  -0.00000648  0.53019606  0.59523925  1
  Tm  Tm3  1  0.46978725  1.00000000  0.40477635  1
  Tm  Tm4  1  0.53020254  0.53019606  0.40476075  1
  Tm  Tm5  1  0.00000648  0.46980394  0.40476075  1
  Tm  Tm6  1  0.46978725  1.00000000  0.09522365  1
  Tm  Tm7  1  0.53020254  0.53019606  0.09523925  1
  Tm  Tm8  1  0.00000648  0.46980394  0.09523925  1
  Tm  Tm9  1  0.53021275  0.00000000  0.90477635  1
  Tm  Tm10  1  0.46979746  0.46980394  0.90476075  1
  Tm  Tm11  1  -0.00000648  0.53019606  0.90476075  1
  Al  Al12  1  0.15893406  0.39111323  0.66502922  1
  Al  Al13  1  0.23218644  0.84102057  0.66502128  1
  Al  Al14  1  0.60878392  0.76786015  0.66502826  1
  Al  Al15  1  0.76782083  0.60888677  0.66502922  1
  Al  Al16  1  0.39116587  0.15897943  0.66502128  1
  Al  Al17  1  0.84092377  0.23213985  0.66502826  1
  Al  Al18  1  0.84106594  0.60888677  0.33497078  1
  Al  Al19  1  0.76781356  0.15897943  0.33497872  1
  Al  Al20  1  0.39121608  0.23213985  0.33497174  1
  Al  Al21  1  0.23217917  0.39111323  0.33497078  1
  Al  Al22  1  0.60883413  0.84102057  0.33497872  1
  Al  Al23  1  0.15907623  0.76786015  0.33497174  1
  Al  Al24  1  0.84106594  0.60888677  0.16502922  1
  Al  Al25  1  0.76781356  0.15897943  0.16502128  1
  Al  Al26  1  0.39121608  0.23213985  0.16502826  1
  Al  Al27  1  0.23217917  0.39111323  0.16502922  1
  Al  Al28  1  0.60883413  0.84102057  0.16502128  1
  Al  Al29  1  0.15907623  0.76786015  0.16502826  1
  Al  Al30  1  0.15893406  0.39111323  0.83497078  1
  Al  Al31  1  0.23218644  0.84102057  0.83497872  1
  Al  Al32  1  0.60878392  0.76786015  0.83497174  1
  Al  Al33  1  0.76782083  0.60888677  0.83497078  1
  Al  Al34  1  0.39116587  0.15897943  0.83497872  1
  Al  Al35  1  0.84092377  0.23213985  0.83497174  1
  Al  Al36  1  0.15494917  0.00000000  0.11598299  1
  Al  Al37  1  0.84515616  0.84512047  0.11599737  1
  Al  Al38  1  0.00003569  0.15487953  0.11599737  1
  Al  Al39  1  0.84505083  1.00000000  0.88401701  1
  Al  Al40  1  0.15484384  0.15487953  0.88400263  1
  Al  Al41  1  0.99996431  0.84512047  0.88400263  1
  Al  Al42  1  0.84505083  1.00000000  0.61598299  1
  Al  Al43  1  0.15484384  0.15487953  0.61599737  1
  Al  Al44  1  0.99996431  0.84512047  0.61599737  1
  Al  Al45  1  0.15494917  0.00000000  0.38401701  1
  Al  Al46  1  0.84515616  0.84512047  0.38400263  1
  Al  Al47  1  0.00003569  0.15487953  0.38400263  1
  Al  Al48  1  0.25191468  0.00000000  0.53060978  1
  Al  Al49  1  0.74807328  0.74812371  0.53066971  1
  Al  Al50  1  0.99994957  0.25187629  0.53066971  1
  Al  Al51  1  0.74808532  1.00000000  0.46939022  1
  Al  Al52  1  0.25192672  0.25187629  0.46933029  1
  Al  Al53  1  0.00005043  0.74812371  0.46933029  1
  Al  Al54  1  0.74808532  1.00000000  0.03060978  1
  Al  Al55  1  0.25192672  0.25187629  0.03066971  1
  Al  Al56  1  0.00005043  0.74812371  0.03066971  1
  Al  Al57  1  0.25191468  0.00000000  0.96939022  1
  Al  Al58  1  0.74807328  0.74812371  0.96933029  1
  Al  Al59  1  0.99994957  0.25187629  0.96933029  1
  Al  Al60  1  0.14461720  0.59654322  0.75000000  1
  Al  Al61  1  0.45191626  0.85546228  0.75000000  1
  Al  Al62  1  0.40350728  0.54810212  0.75000000  1
  Al  Al63  1  0.54807398  0.40345678  0.75000000  1
  Al  Al64  1  0.59645398  0.14453772  0.75000000  1
  Al  Al65  1  0.85540517  0.45189788  0.75000000  1
  Al  Al66  1  0.85538280  0.40345678  0.25000000  1
  Al  Al67  1  0.54808374  0.14453772  0.25000000  1
  Al  Al68  1  0.59649272  0.45189788  0.25000000  1
  Al  Al69  1  0.45192602  0.59654322  0.25000000  1
  Al  Al70  1  0.40354602  0.85546228  0.25000000  1
  Al  Al71  1  0.14459483  0.54810212  0.25000000  1
  Al  Al72  1  0.24686400  0.49372800  0.50000000  1
  Al  Al73  1  0.24687892  0.75316214  0.49999835  1
  Al  Al74  1  0.50628323  0.75316214  0.50000165  1
  Al  Al75  1  0.75313600  0.50627200  0.50000000  1
  Al  Al76  1  0.49371677  0.24683786  0.49999835  1
  Al  Al77  1  0.75312108  0.24683786  0.50000165  1
  Al  Al78  1  0.75313600  0.50627200  0.00000000  1
  Al  Al79  1  0.75312108  0.24683786  0.99999835  1
  Al  Al80  1  0.49371677  0.24683786  0.00000165  1
  Al  Al81  1  0.24686400  0.49372800  0.00000000  1
  Al  Al82  1  0.50628323  0.75316214  0.99999835  1
  Al  Al83  1  0.24687892  0.75316214  0.00000165  1
  Al  Al84  1  0.33338679  0.66671422  0.62727197  1
  Al  Al85  1  0.66667258  0.33328578  0.62727197  1
  Al  Al86  1  0.66661321  0.33328578  0.37272803  1
  Al  Al87  1  0.33332742  0.66671422  0.37272803  1
  Al  Al88  1  0.66661321  0.33328578  0.12727197  1
  Al  Al89  1  0.33332742  0.66671422  0.12727197  1
  Al  Al90  1  0.33338679  0.66671422  0.87272803  1
  Al  Al91  1  0.66667258  0.33328578  0.87272803  1
  Al  Al92  1  0.14521196  1.00000000  0.75000000  1
  Al  Al93  1  0.85467159  0.85466999  0.75000000  1
  Al  Al94  1  0.00000160  0.14533001  0.75000000  1
  Al  Al95  1  0.85478804  0.00000000  0.25000000  1
  Al  Al96  1  0.14532841  0.14533001  0.25000000  1
  Al  Al97  1  -0.00000160  0.85466999  0.25000000  1
  Cr  Cr98  1  0.72964620  0.00000000  0.75000000  1
  Cr  Cr99  1  0.27012224  0.27015159  0.75000000  1
  Cr  Cr100  1  0.99997064  0.72984841  0.75000000  1
  Cr  Cr101  1  0.27035380  1.00000000  0.25000000  1
  Cr  Cr102  1  0.72987776  0.72984841  0.25000000  1
  Cr  Cr103  1  0.00002936  0.27015159  0.25000000  1
  Cr  Cr104  1  0.00000000  0.00000000  0.50000000  1
  Cr  Cr105  1  0.00000000  0.00000000  0.00000000  1
