# generated using pymatgen
data_PW4Cl11
_symmetry_space_group_name_H-M   'P 1'
_cell_length_a   8.85678986
_cell_length_b   8.85678986
_cell_length_c   11.53326846
_cell_angle_alpha   89.35029916
_cell_angle_beta   89.35029916
_cell_angle_gamma   69.40774261
_symmetry_Int_Tables_number   1
_chemical_formula_structural   PW4Cl11
_chemical_formula_sum   'P2 W8 Cl22'
_cell_volume   846.81646556
_cell_formula_units_Z   2
loop_
 _symmetry_equiv_pos_site_id
 _symmetry_equiv_pos_as_xyz
  1  'x, y, z'
loop_
 _atom_site_type_symbol
 _atom_site_label
 _atom_site_symmetry_multiplicity
 _atom_site_fract_x
 _atom_site_fract_y
 _atom_site_fract_z
 _atom_site_occupancy
  P  P0  1  0.67708237  0.67708237  0.25183443  1
  P  P1  1  0.32291763  0.32291763  0.74816557  1
  W  W2  1  0.90363404  0.64440694  0.12739663  1
  W  W3  1  0.64440694  0.90363404  0.12739663  1
  W  W4  1  0.09636596  0.35559306  0.87260337  1
  W  W5  1  0.35559306  0.09636596  0.87260337  1
  W  W6  1  0.90396746  0.64422468  0.37238881  1
  W  W7  1  0.64422468  0.90396746  0.37238881  1
  W  W8  1  0.09603254  0.35577532  0.62761119  1
  W  W9  1  0.35577532  0.09603254  0.62761119  1
  Cl  Cl10  1  0.06413270  0.75105729  0.24754629  1
  Cl  Cl11  1  0.75105729  0.06413270  0.24754629  1
  Cl  Cl12  1  0.93586730  0.24894271  0.75245371  1
  Cl  Cl13  1  0.24894271  0.93586730  0.75245371  1
  Cl  Cl14  1  0.53691012  0.53691012  0.25272457  1
  Cl  Cl15  1  0.46308988  0.46308988  0.74727543  1
  Cl  Cl16  1  0.00899220  0.39612732  0.25119499  1
  Cl  Cl17  1  0.39612732  0.00899220  0.25119499  1
  Cl  Cl18  1  0.99100780  0.60387268  0.74880501  1
  Cl  Cl19  1  0.60387268  0.99100780  0.74880501  1
  Cl  Cl20  1  0.86883754  0.86883754  0.99584324  1
  Cl  Cl21  1  0.13116246  0.13116246  0.00415676  1
  Cl  Cl22  1  0.82517480  0.48228278  0.98697701  1
  Cl  Cl23  1  0.48228278  0.82517480  0.98697701  1
  Cl  Cl24  1  0.17482520  0.51771722  0.01302299  1
  Cl  Cl25  1  0.51771722  0.17482520  0.01302299  1
  Cl  Cl26  1  0.86860895  0.86860895  0.50123074  1
  Cl  Cl27  1  0.13139105  0.13139105  0.49876926  1
  Cl  Cl28  1  0.82529185  0.48271543  0.51691389  1
  Cl  Cl29  1  0.48271543  0.82529185  0.51691389  1
  Cl  Cl30  1  0.17470815  0.51728457  0.48308611  1
  Cl  Cl31  1  0.51728457  0.17470815  0.48308611  1
