# generated using pymatgen
data_K2LiIn(MoO4)3
_symmetry_space_group_name_H-M   'P 1'
_cell_length_a   7.15186610
_cell_length_b   9.43258948
_cell_length_c   10.35271658
_cell_angle_alpha   90.00000000
_cell_angle_beta   107.49403574
_cell_angle_gamma   90.00000000
_symmetry_Int_Tables_number   1
_chemical_formula_structural   K2LiIn(MoO4)3
_chemical_formula_sum   'K4 Li2 In2 Mo6 O24'
_cell_volume   666.09839403
_cell_formula_units_Z   2
loop_
 _symmetry_equiv_pos_site_id
 _symmetry_equiv_pos_as_xyz
  1  'x, y, z'
loop_
 _atom_site_type_symbol
 _atom_site_label
 _atom_site_symmetry_multiplicity
 _atom_site_fract_x
 _atom_site_fract_y
 _atom_site_fract_z
 _atom_site_occupancy
  K  K0  1  0.84037737  0.49767854  0.20282996  1
  K  K1  1  0.15962263  0.99767854  0.79717004  1
  K  K2  1  0.54635972  0.99347950  0.57995022  1
  K  K3  1  0.45364028  0.49347950  0.42004978  1
  Li  Li4  1  0.05016826  0.64924354  0.87087152  1
  Li  Li5  1  0.94983174  0.14924354  0.12912848  1
  In  In6  1  0.27754008  0.40450485  0.73864954  1
  In  In7  1  0.72245992  0.90450485  0.26135046  1
  Mo  Mo8  1  0.19558060  0.82861886  0.18795551  1
  Mo  Mo9  1  0.80441940  0.32861886  0.81204449  1
  Mo  Mo10  1  0.42837464  0.21533266  0.07913753  1
  Mo  Mo11  1  0.57162536  0.71533266  0.92086247  1
  Mo  Mo12  1  0.04771151  0.71298330  0.54194149  1
  Mo  Mo13  1  0.95228849  0.21298330  0.45805851  1
  O  O14  1  0.16847141  0.65787971  0.24929058  1
  O  O15  1  0.83152859  0.15787971  0.75070942  1
  O  O16  1  0.17616880  0.80792322  0.01380372  1
  O  O17  1  0.82383120  0.30792322  0.98619628  1
  O  O18  1  0.98963035  0.93557132  0.20551258  1
  O  O19  1  0.01036965  0.43557132  0.79448742  1
  O  O20  1  0.43647614  0.89354457  0.29101803  1
  O  O21  1  0.56352386  0.39354457  0.70898197  1
  O  O22  1  0.47050159  0.37411242  0.17312022  1
  O  O23  1  0.52949841  0.87411242  0.82687978  1
  O  O24  1  0.21644342  0.12985471  0.09651456  1
  O  O25  1  0.78355658  0.62985471  0.90348544  1
  O  O26  1  0.37680999  0.25003929  0.89857878  1
  O  O27  1  0.62319001  0.75003929  0.10142122  1
  O  O28  1  0.64052448  0.09686214  0.14070994  1
  O  O29  1  0.35947552  0.59686214  0.85929006  1
  O  O30  1  0.21403362  0.84604554  0.53090763  1
  O  O31  1  0.78596638  0.34604554  0.46909237  1
  O  O32  1  0.97573911  0.75013518  0.68819675  1
  O  O33  1  0.02426089  0.25013518  0.31180325  1
  O  O34  1  0.16971008  0.53950699  0.55828691  1
  O  O35  1  0.83028992  0.03950699  0.44171309  1
  O  O36  1  0.82928894  0.72056366  0.39252915  1
  O  O37  1  0.17071106  0.22056366  0.60747085  1
