# generated using pymatgen
data_MgCoAsO5
_symmetry_space_group_name_H-M   'P 1'
_cell_length_a   7.64750740
_cell_length_b   5.84778690
_cell_length_c   8.48913193
_cell_angle_alpha   90.00881984
_cell_angle_beta   90.00215451
_cell_angle_gamma   89.90441732
_symmetry_Int_Tables_number   1
_chemical_formula_structural   MgCoAsO5
_chemical_formula_sum   'Mg4 Co4 As4 O20'
_cell_volume   379.64188200
_cell_formula_units_Z   4
loop_
 _symmetry_equiv_pos_site_id
 _symmetry_equiv_pos_as_xyz
  1  'x, y, z'
loop_
 _atom_site_type_symbol
 _atom_site_label
 _atom_site_symmetry_multiplicity
 _atom_site_fract_x
 _atom_site_fract_y
 _atom_site_fract_z
 _atom_site_occupancy
  Mg  Mg0  1  0.90629711  0.69501247  0.07429497  1
  Mg  Mg1  1  0.59661618  0.30614860  0.57717073  1
  Mg  Mg2  1  0.40730370  0.80433480  0.92574791  1
  Mg  Mg3  1  0.09538780  0.19438434  0.42337896  1
  Co  Co4  1  0.99416406  0.49306158  0.74904199  1
  Co  Co5  1  0.50513165  0.50654558  0.25065181  1
  Co  Co6  1  0.49433204  0.00695550  0.25115773  1
  Co  Co7  1  0.00490107  0.99339684  0.74960611  1
  As  As8  1  0.64149813  0.27597534  0.92802683  1
  As  As9  1  0.85906589  0.72423971  0.42628460  1
  As  As10  1  0.14167314  0.22329492  0.07221641  1
  As  As11  1  0.35851239  0.77634169  0.57342554  1
  O  O12  1  0.82318436  0.23239774  0.80819419  1
  O  O13  1  0.67327113  0.76601180  0.31196787  1
  O  O14  1  0.32439184  0.26761219  0.19056529  1
  O  O15  1  0.17298530  0.73399199  0.68763241  1
  O  O16  1  0.48749065  0.36829434  0.79722250  1
  O  O17  1  0.01110660  0.63391333  0.29386734  1
  O  O18  1  0.98835717  0.13262407  0.20313483  1
  O  O19  1  0.51089730  0.86627343  0.70618351  1
  O  O20  1  0.59431397  0.02376047  0.02336932  1
  O  O21  1  0.90588138  0.97763446  0.52038391  1
  O  O22  1  0.09329989  0.47542145  0.97642709  1
  O  O23  1  0.40656078  0.52310146  0.47961293  1
  O  O24  1  0.67645107  0.49523230  0.05999518  1
  O  O25  1  0.82616426  0.50469118  0.55880840  1
  O  O26  1  0.17667417  0.00384575  0.94012971  1
  O  O27  1  0.32524497  0.99568056  0.44093452  1
  O  O28  1  0.88815765  0.75279161  0.83794228  1
  O  O29  1  0.61121410  0.24790609  0.33957263  1
  O  O30  1  0.38840651  0.74771847  0.16211689  1
  O  O31  1  0.11106174  0.25140795  0.66093559  1
