# generated using pymatgen
data_NaFe(SeO3)2
_symmetry_space_group_name_H-M   'P 1'
_cell_length_a   5.45858637
_cell_length_b   8.05348046
_cell_length_c   12.76201867
_cell_angle_alpha   90.00000000
_cell_angle_beta   90.00000000
_cell_angle_gamma   90.00000000
_symmetry_Int_Tables_number   1
_chemical_formula_structural   NaFe(SeO3)2
_chemical_formula_sum   'Na4 Fe4 Se8 O24'
_cell_volume   561.02623621
_cell_formula_units_Z   4
loop_
 _symmetry_equiv_pos_site_id
 _symmetry_equiv_pos_as_xyz
  1  'x, y, z'
loop_
 _atom_site_type_symbol
 _atom_site_label
 _atom_site_symmetry_multiplicity
 _atom_site_fract_x
 _atom_site_fract_y
 _atom_site_fract_z
 _atom_site_occupancy
  Na  Na0  1  0.25000000  0.98955884  0.38631676  1
  Na  Na1  1  0.25000000  0.51044116  0.88631676  1
  Na  Na2  1  0.75000000  0.01044116  0.61368324  1
  Na  Na3  1  0.75000000  0.48955884  0.11368324  1
  Fe  Fe4  1  0.25000000  0.79793254  0.10102318  1
  Fe  Fe5  1  0.25000000  0.70206746  0.60102318  1
  Fe  Fe6  1  0.75000000  0.20206746  0.89897682  1
  Fe  Fe7  1  0.75000000  0.29793254  0.39897682  1
  Se  Se8  1  0.25000000  0.21273477  0.06772589  1
  Se  Se9  1  0.25000000  0.28726523  0.56772589  1
  Se  Se10  1  0.75000000  0.78726523  0.93227411  1
  Se  Se11  1  0.75000000  0.71273477  0.43227411  1
  Se  Se12  1  0.25000000  0.99476171  0.79352221  1
  Se  Se13  1  0.25000000  0.50523829  0.29352221  1
  Se  Se14  1  0.75000000  0.00523829  0.20647779  1
  Se  Se15  1  0.75000000  0.49476171  0.70647779  1
  O  O16  1  0.00738568  0.30016406  0.99998832  1
  O  O17  1  0.49261432  0.19983594  0.49998832  1
  O  O18  1  0.50738568  0.69983594  0.00001168  1
  O  O19  1  0.99261432  0.80016406  0.50001168  1
  O  O20  1  0.99261432  0.69983594  0.00001168  1
  O  O21  1  0.50738568  0.80016406  0.50001168  1
  O  O22  1  0.49261432  0.30016406  0.99998832  1
  O  O23  1  0.00738568  0.19983594  0.49998832  1
  O  O24  1  0.25000000  0.01153915  0.02251611  1
  O  O25  1  0.25000000  0.48846085  0.52251611  1
  O  O26  1  0.75000000  0.98846085  0.97748389  1
  O  O27  1  0.75000000  0.51153915  0.47748389  1
  O  O28  1  0.00154848  0.12864405  0.78895768  1
  O  O29  1  0.49845152  0.37135595  0.28895768  1
  O  O30  1  0.50154848  0.87135595  0.21104232  1
  O  O31  1  0.99845152  0.62864405  0.71104232  1
  O  O32  1  0.99845152  0.87135595  0.21104232  1
  O  O33  1  0.50154848  0.62864405  0.71104232  1
  O  O34  1  0.49845152  0.12864405  0.78895768  1
  O  O35  1  0.00154848  0.37135595  0.28895768  1
  O  O36  1  0.25000000  0.93755029  0.66275726  1
  O  O37  1  0.25000000  0.56244971  0.16275726  1
  O  O38  1  0.75000000  0.06244971  0.33724274  1
  O  O39  1  0.75000000  0.43755029  0.83724274  1
