# generated using pymatgen
data_RbSb3Se5
_symmetry_space_group_name_H-M   'P 1'
_cell_length_a   4.12598801
_cell_length_b   12.32992010
_cell_length_c   22.54599085
_cell_angle_alpha   90.00000000
_cell_angle_beta   90.00000000
_cell_angle_gamma   90.00000000
_symmetry_Int_Tables_number   1
_chemical_formula_structural   RbSb3Se5
_chemical_formula_sum   'Rb4 Sb12 Se20'
_cell_volume   1146.98450341
_cell_formula_units_Z   4
loop_
 _symmetry_equiv_pos_site_id
 _symmetry_equiv_pos_as_xyz
  1  'x, y, z'
loop_
 _atom_site_type_symbol
 _atom_site_label
 _atom_site_symmetry_multiplicity
 _atom_site_fract_x
 _atom_site_fract_y
 _atom_site_fract_z
 _atom_site_occupancy
  Rb  Rb0  1  0.25000000  0.65061702  0.58965890  1
  Rb  Rb1  1  0.25000000  0.84938298  0.08965890  1
  Rb  Rb2  1  0.75000000  0.34938298  0.41034110  1
  Rb  Rb3  1  0.75000000  0.15061702  0.91034110  1
  Sb  Sb4  1  0.25000000  0.94969419  0.69440453  1
  Sb  Sb5  1  0.25000000  0.55030581  0.19440453  1
  Sb  Sb6  1  0.75000000  0.05030581  0.30559547  1
  Sb  Sb7  1  0.75000000  0.44969419  0.80559547  1
  Sb  Sb8  1  0.75000000  0.80600276  0.83204022  1
  Sb  Sb9  1  0.75000000  0.69399724  0.33204022  1
  Sb  Sb10  1  0.25000000  0.19399724  0.16795978  1
  Sb  Sb11  1  0.25000000  0.30600276  0.66795978  1
  Sb  Sb12  1  0.75000000  0.10851108  0.56078205  1
  Sb  Sb13  1  0.75000000  0.39148892  0.06078205  1
  Sb  Sb14  1  0.25000000  0.89148892  0.43921795  1
  Sb  Sb15  1  0.25000000  0.60851108  0.93921795  1
  Se  Se16  1  0.75000000  0.79760337  0.69851645  1
  Se  Se17  1  0.75000000  0.70239663  0.19851645  1
  Se  Se18  1  0.25000000  0.20239663  0.30148355  1
  Se  Se19  1  0.25000000  0.29760337  0.80148355  1
  Se  Se20  1  0.75000000  0.13202330  0.68251101  1
  Se  Se21  1  0.75000000  0.36797670  0.18251101  1
  Se  Se22  1  0.25000000  0.86797670  0.31748899  1
  Se  Se23  1  0.25000000  0.63202330  0.81748899  1
  Se  Se24  1  0.25000000  0.96142415  0.82764622  1
  Se  Se25  1  0.25000000  0.53857585  0.32764622  1
  Se  Se26  1  0.75000000  0.03857585  0.17235378  1
  Se  Se27  1  0.75000000  0.46142415  0.67235378  1
  Se  Se28  1  0.75000000  0.77536844  0.95480243  1
  Se  Se29  1  0.75000000  0.72463156  0.45480243  1
  Se  Se30  1  0.25000000  0.22463156  0.04519757  1
  Se  Se31  1  0.25000000  0.27536844  0.54519757  1
  Se  Se32  1  0.25000000  0.94364821  0.57136173  1
  Se  Se33  1  0.25000000  0.55635179  0.07136173  1
  Se  Se34  1  0.75000000  0.05635179  0.42863827  1
  Se  Se35  1  0.75000000  0.44364821  0.92863827  1
