# generated using pymatgen
data_HfHg4(AsCl3)2
_symmetry_space_group_name_H-M   'P 1'
_cell_length_a   13.72049340
_cell_length_b   13.81802206
_cell_length_c   17.22305488
_cell_angle_alpha   90.00000000
_cell_angle_beta   90.00000000
_cell_angle_gamma   90.00000000
_symmetry_Int_Tables_number   1
_chemical_formula_structural   HfHg4(AsCl3)2
_chemical_formula_sum   'Hf8 Hg32 As16 Cl48'
_cell_volume   3265.32036073
_cell_formula_units_Z   8
loop_
 _symmetry_equiv_pos_site_id
 _symmetry_equiv_pos_as_xyz
  1  'x, y, z'
loop_
 _atom_site_type_symbol
 _atom_site_label
 _atom_site_symmetry_multiplicity
 _atom_site_fract_x
 _atom_site_fract_y
 _atom_site_fract_z
 _atom_site_occupancy
  Hf  Hf0  1  0.70364753  0.99509752  0.11620175  1
  Hf  Hf1  1  0.20364753  0.50490248  0.88379825  1
  Hf  Hf2  1  0.29635247  0.49509752  0.38379825  1
  Hf  Hf3  1  0.79635247  0.00490248  0.61620175  1
  Hf  Hf4  1  0.29635247  0.00490248  0.88379825  1
  Hf  Hf5  1  0.79635247  0.49509752  0.11620175  1
  Hf  Hf6  1  0.70364753  0.50490248  0.61620175  1
  Hf  Hf7  1  0.20364753  0.99509752  0.38379825  1
  Hg  Hg8  1  0.73041035  0.23399010  0.87231731  1
  Hg  Hg9  1  0.23041035  0.26600990  0.12768269  1
  Hg  Hg10  1  0.26958965  0.73399010  0.62768269  1
  Hg  Hg11  1  0.76958965  0.76600990  0.37231731  1
  Hg  Hg12  1  0.26958965  0.76600990  0.12768269  1
  Hg  Hg13  1  0.76958965  0.73399010  0.87231731  1
  Hg  Hg14  1  0.73041035  0.26600990  0.37231731  1
  Hg  Hg15  1  0.23041035  0.23399010  0.62768269  1
  Hg  Hg16  1  0.47922540  0.28280574  0.99737155  1
  Hg  Hg17  1  0.97922540  0.21719426  0.00262845  1
  Hg  Hg18  1  0.52077460  0.78280574  0.50262845  1
  Hg  Hg19  1  0.02077460  0.71719426  0.49737155  1
  Hg  Hg20  1  0.52077460  0.71719426  0.00262845  1
  Hg  Hg21  1  0.02077460  0.78280574  0.99737155  1
  Hg  Hg22  1  0.47922540  0.21719426  0.49737155  1
  Hg  Hg23  1  0.97922540  0.28280574  0.50262845  1
  Hg  Hg24  1  0.58611437  0.49031913  0.85793786  1
  Hg  Hg25  1  0.08611437  0.00968087  0.14206214  1
  Hg  Hg26  1  0.41388563  0.99031913  0.64206214  1
  Hg  Hg27  1  0.91388563  0.50968087  0.35793786  1
  Hg  Hg28  1  0.41388563  0.50968087  0.14206214  1
  Hg  Hg29  1  0.91388563  0.99031913  0.85793786  1
  Hg  Hg30  1  0.58611437  0.00968087  0.35793786  1
  Hg  Hg31  1  0.08611437  0.49031913  0.64206214  1
  Hg  Hg32  1  0.47688691  0.24499338  0.74843981  1
  Hg  Hg33  1  0.97688691  0.25500662  0.25156019  1
  Hg  Hg34  1  0.52311309  0.74499338  0.75156019  1
  Hg  Hg35  1  0.02311309  0.75500662  0.24843981  1
  Hg  Hg36  1  0.52311309  0.75500662  0.25156019  1
  Hg  Hg37  1  0.02311309  0.74499338  0.74843981  1
  Hg  Hg38  1  0.47688691  0.25500662  0.24843981  1
  Hg  Hg39  1  0.97688691  0.24499338  0.75156019  1
  As  As40  1  0.56243724  0.30796261  0.86737919  1
  As  As41  1  0.06243724  0.19203739  0.13262081  1
  As  As42  1  0.43756276  0.80796261  0.63262081  1
  As  As43  1  0.93756276  0.69203739  0.36737919  1
  As  As44  1  0.43756276  0.69203739  0.13262081  1
  As  As45  1  0.93756276  0.80796261  0.86737919  1
  As  As46  1  0.56243724  0.19203739  0.36737919  1
  As  As47  1  0.06243724  0.30796261  0.63262081  1
  As  As48  1  0.90288920  0.17310948  0.87292931  1
  As  As49  1  0.40288920  0.32689052  0.12707069  1
  As  As50  1  0.09711080  0.67310948  0.62707069  1
  As  As51  1  0.59711080  0.82689052  0.37292931  1
  As  As52  1  0.09711080  0.82689052  0.12707069  1
  As  As53  1  0.59711080  0.67310948  0.87292931  1
  As  As54  1  0.90288920  0.32689052  0.37292931  1
  As  As55  1  0.40288920  0.17310948  0.62707069  1
  Cl  Cl56  1  0.77272420  0.07923418  0.22938560  1
  Cl  Cl57  1  0.27272420  0.42076582  0.77061440  1
  Cl  Cl58  1  0.22727580  0.57923418  0.27061440  1
  Cl  Cl59  1  0.72727580  0.92076582  0.72938560  1
  Cl  Cl60  1  0.22727580  0.92076582  0.77061440  1
  Cl  Cl61  1  0.72727580  0.57923418  0.22938560  1
  Cl  Cl62  1  0.77272420  0.42076582  0.72938560  1
  Cl  Cl63  1  0.27272420  0.07923418  0.27061440  1
  Cl  Cl64  1  0.86985381  0.99220984  0.05479733  1
  Cl  Cl65  1  0.36985381  0.50779016  0.94520267  1
  Cl  Cl66  1  0.13014619  0.49220984  0.44520267  1
  Cl  Cl67  1  0.63014619  0.00779016  0.55479733  1
  Cl  Cl68  1  0.13014619  0.00779016  0.94520267  1
  Cl  Cl69  1  0.63014619  0.49220984  0.05479733  1
  Cl  Cl70  1  0.86985381  0.50779016  0.55479733  1
  Cl  Cl71  1  0.36985381  0.99220984  0.44520267  1
  Cl  Cl72  1  0.53940378  0.99641177  0.17439237  1
  Cl  Cl73  1  0.03940378  0.50358823  0.82560763  1
  Cl  Cl74  1  0.46059622  0.49641177  0.32560763  1
  Cl  Cl75  1  0.96059622  0.00358823  0.67439237  1
  Cl  Cl76  1  0.46059622  0.00358823  0.82560763  1
  Cl  Cl77  1  0.96059622  0.49641177  0.17439237  1
  Cl  Cl78  1  0.53940378  0.50358823  0.67439237  1
  Cl  Cl79  1  0.03940378  0.99641177  0.32560763  1
  Cl  Cl80  1  0.66947698  0.14878335  0.04894247  1
  Cl  Cl81  1  0.16947698  0.35121665  0.95105753  1
  Cl  Cl82  1  0.33052302  0.64878335  0.45105753  1
  Cl  Cl83  1  0.83052302  0.85121665  0.54894247  1
  Cl  Cl84  1  0.33052302  0.85121665  0.95105753  1
  Cl  Cl85  1  0.83052302  0.64878335  0.04894247  1
  Cl  Cl86  1  0.66947698  0.35121665  0.54894247  1
  Cl  Cl87  1  0.16947698  0.14878335  0.45105753  1
  Cl  Cl88  1  0.64331274  0.90281368  0.00172788  1
  Cl  Cl89  1  0.14331274  0.59718632  0.99827212  1
  Cl  Cl90  1  0.35668726  0.40281368  0.49827212  1
  Cl  Cl91  1  0.85668726  0.09718632  0.50172788  1
  Cl  Cl92  1  0.35668726  0.09718632  0.99827212  1
  Cl  Cl93  1  0.85668726  0.40281368  0.00172788  1
  Cl  Cl94  1  0.64331274  0.59718632  0.50172788  1
  Cl  Cl95  1  0.14331274  0.90281368  0.49827212  1
  Cl  Cl96  1  0.73790670  0.84011964  0.18145362  1
  Cl  Cl97  1  0.23790670  0.65988036  0.81854638  1
  Cl  Cl98  1  0.26209330  0.34011964  0.31854638  1
  Cl  Cl99  1  0.76209330  0.15988036  0.68145362  1
  Cl  Cl100  1  0.26209330  0.15988036  0.81854638  1
  Cl  Cl101  1  0.76209330  0.34011964  0.18145362  1
  Cl  Cl102  1  0.73790670  0.65988036  0.68145362  1
  Cl  Cl103  1  0.23790670  0.84011964  0.31854638  1
