# generated using pymatgen
data_Sr5(Sb11O19)2
_symmetry_space_group_name_H-M   'P 1'
_cell_length_a   11.92011671
_cell_length_b   12.21667975
_cell_length_c   16.63525119
_cell_angle_alpha   90.00000000
_cell_angle_beta   91.41411992
_cell_angle_gamma   90.00000000
_symmetry_Int_Tables_number   1
_chemical_formula_structural   Sr5(Sb11O19)2
_chemical_formula_sum   'Sr10 Sb44 O76'
_cell_volume   2421.75815238
_cell_formula_units_Z   2
loop_
 _symmetry_equiv_pos_site_id
 _symmetry_equiv_pos_as_xyz
  1  'x, y, z'
loop_
 _atom_site_type_symbol
 _atom_site_label
 _atom_site_symmetry_multiplicity
 _atom_site_fract_x
 _atom_site_fract_y
 _atom_site_fract_z
 _atom_site_occupancy
  Sr  Sr0  1  0.16458709  0.68144773  0.33320132  1
  Sr  Sr1  1  0.66458709  0.81855227  0.83320132  1
  Sr  Sr2  1  0.83541291  0.31855227  0.66679868  1
  Sr  Sr3  1  0.33541291  0.18144773  0.16679868  1
  Sr  Sr4  1  0.18237516  0.34908881  0.33063876  1
  Sr  Sr5  1  0.68237516  0.15091119  0.83063876  1
  Sr  Sr6  1  0.81762484  0.65091119  0.66936124  1
  Sr  Sr7  1  0.31762484  0.84908881  0.16936124  1
  Sr  Sr8  1  -0.00000000  0.50000000  0.50000000  1
  Sr  Sr9  1  0.50000000  -0.00000000  -0.00000000  1
  Sb  Sb10  1  0.85688642  0.36073107  0.32108297  1
  Sb  Sb11  1  0.35688642  0.13926893  0.82108297  1
  Sb  Sb12  1  0.14311358  0.63926893  0.67891703  1
  Sb  Sb13  1  0.64311358  0.86073107  0.17891703  1
  Sb  Sb14  1  0.84543294  0.66029945  0.33633389  1
  Sb  Sb15  1  0.34543294  0.83970055  0.83633389  1
  Sb  Sb16  1  0.15456706  0.33970055  0.66366611  1
  Sb  Sb17  1  0.65456706  0.16029945  0.16366611  1
  Sb  Sb18  1  0.02425979  0.14969828  0.16974280  1
  Sb  Sb19  1  0.52425979  0.35030172  0.66974280  1
  Sb  Sb20  1  0.97574021  0.85030172  0.83025720  1
  Sb  Sb21  1  0.47574021  0.64969828  0.33025720  1
  Sb  Sb22  1  0.15203118  0.68058645  0.00262576  1
  Sb  Sb23  1  0.65203118  0.81941355  0.50262576  1
  Sb  Sb24  1  0.84796882  0.31941355  0.99737424  1
  Sb  Sb25  1  0.34796882  0.18058645  0.49737424  1
  Sb  Sb26  1  0.66392828  0.46625000  0.15497648  1
  Sb  Sb27  1  0.16392828  0.03375000  0.65497648  1
  Sb  Sb28  1  0.33607172  0.53375000  0.84502352  1
  Sb  Sb29  1  0.83607172  0.96625000  0.34502352  1
  Sb  Sb30  1  0.31735151  0.83102580  0.49717413  1
  Sb  Sb31  1  0.81735151  0.66897420  0.99717413  1
  Sb  Sb32  1  0.68264849  0.16897420  0.50282587  1
  Sb  Sb33  1  0.18264849  0.33102580  0.00282587  1
  Sb  Sb34  1  0.17711133  0.00831549  0.01241204  1
  Sb  Sb35  1  0.67711133  0.49168451  0.51241204  1
  Sb  Sb36  1  0.82288867  0.99168451  0.98758796  1
  Sb  Sb37  1  0.32288867  0.50831549  0.48758796  1
  Sb  Sb38  1  0.99720998  0.50911351  0.18258403  1
  Sb  Sb39  1  0.49720998  0.99088649  0.68258403  1
  Sb  Sb40  1  0.00279002  0.49088649  0.81741597  1
  Sb  Sb41  1  0.50279002  0.00911351  0.31741597  1
  Sb  Sb42  1  0.99415760  0.86990312  0.19293691  1
  Sb  Sb43  1  0.49415760  0.63009688  0.69293691  1
  Sb  Sb44  1  0.00584240  0.13009688  0.80706309  1
  Sb  Sb45  1  0.50584240  0.36990312  0.30706309  1
  Sb  Sb46  1  0.20004617  0.03403974  0.34433980  1
  Sb  Sb47  1  0.70004617  0.46596026  0.84433980  1
  Sb  Sb48  1  0.79995383  0.96596026  0.65566020  1
  Sb  Sb49  1  0.29995383  0.53403974  0.15566020  1
  Sb  Sb50  1  0.99759343  0.80259135  0.50516761  1
  Sb  Sb51  1  0.49759343  0.69740865  0.00516761  1
  Sb  Sb52  1  0.00240657  0.19740865  0.49483239  1
  Sb  Sb53  1  0.50240657  0.30259135  0.99483239  1
  O  O54  1  0.33679835  0.01881018  0.27689150  1
  O  O55  1  0.83679835  0.48118982  0.77689150  1
  O  O56  1  0.66320165  0.98118982  0.72310850  1
  O  O57  1  0.16320165  0.51881018  0.22310850  1
  O  O58  1  0.96387712  0.68300453  0.42524368  1
  O  O59  1  0.46387712  0.81699547  0.92524368  1
  O  O60  1  0.03612288  0.31699547  0.57475632  1
  O  O61  1  0.53612288  0.18300453  0.07475632  1
  O  O62  1  0.94324984  0.01735008  0.23616596  1
  O  O63  1  0.44324984  0.48264992  0.73616596  1
  O  O64  1  0.05675016  0.98264992  0.76383404  1
  O  O65  1  0.55675016  0.51735008  0.26383404  1
  O  O66  1  0.15004739  0.15551048  0.25100580  1
  O  O67  1  0.65004739  0.34448952  0.75100580  1
  O  O68  1  0.84995261  0.84448952  0.74899420  1
  O  O69  1  0.34995261  0.65551048  0.24899420  1
  O  O70  1  0.14027967  0.85101386  0.24601653  1
  O  O71  1  0.64027967  0.64898614  0.74601653  1
  O  O72  1  0.85972033  0.14898614  0.75398347  1
  O  O73  1  0.35972033  0.35101386  0.25398347  1
  O  O74  1  0.97511351  0.62951536  0.26182572  1
  O  O75  1  0.47511351  0.87048464  0.76182572  1
  O  O76  1  0.02488649  0.37048464  0.73817428  1
  O  O77  1  0.52488649  0.12951536  0.23817428  1
  O  O78  1  0.85698739  0.49637970  0.38503582  1
  O  O79  1  0.35698739  0.00362030  0.88503582  1
  O  O80  1  0.14301261  0.50362030  0.61496418  1
  O  O81  1  0.64301261  0.99637970  0.11496418  1
  O  O82  1  0.59521756  0.33086664  0.20042366  1
  O  O83  1  0.09521756  0.16913336  0.70042366  1
  O  O84  1  0.40478244  0.66913336  0.79957634  1
  O  O85  1  0.90478244  0.83086664  0.29957634  1
  O  O86  1  0.31606949  0.01423441  0.07663086  1
  O  O87  1  0.81606949  0.48576559  0.57663086  1
  O  O88  1  0.68393051  0.98576559  0.92336914  1
  O  O89  1  0.18393051  0.51423441  0.42336914  1
  O  O90  1  0.99722664  0.38080999  0.25768253  1
  O  O91  1  0.49722664  0.11919001  0.75768253  1
  O  O92  1  0.00277336  0.61919001  0.74231747  1
  O  O93  1  0.50277336  0.88080999  0.24231747  1
  O  O94  1  0.80291500  0.47196162  0.22239162  1
  O  O95  1  0.30291500  0.02803838  0.72239162  1
  O  O96  1  0.19708500  0.52803838  0.77760838  1
  O  O97  1  0.69708500  0.97196162  0.27760838  1
  O  O98  1  0.31722860  0.97465939  0.44428064  1
  O  O99  1  0.81722860  0.52534061  0.94428064  1
  O  O100  1  0.68277140  0.02534061  0.55571936  1
  O  O101  1  0.18277140  0.47465939  0.05571936  1
  O  O102  1  0.00953335  0.69256458  0.59158377  1
  O  O103  1  0.50953335  0.80743542  0.09158377  1
  O  O104  1  0.99046665  0.30743542  0.40841623  1
  O  O105  1  0.49046665  0.19256458  0.90841623  1
  O  O106  1  0.25071512  0.67685652  0.10110849  1
  O  O107  1  0.75071512  0.82314348  0.60110849  1
  O  O108  1  0.74928488  0.32314348  0.89889151  1
  O  O109  1  0.24928488  0.17685652  0.39889151  1
  O  O110  1  0.07381733  0.01071808  0.11078582  1
  O  O111  1  0.57381733  0.48928192  0.61078582  1
  O  O112  1  0.92618267  0.98928192  0.88921418  1
  O  O113  1  0.42618267  0.51071808  0.38921418  1
  O  O114  1  0.15624314  0.79346284  0.46970354  1
  O  O115  1  0.65624314  0.70653716  0.96970354  1
  O  O116  1  0.84375686  0.20653716  0.53029646  1
  O  O117  1  0.34375686  0.29346284  0.03029646  1
  O  O118  1  0.26785126  0.65342642  0.92288966  1
  O  O119  1  0.76785126  0.84657358  0.42288966  1
  O  O120  1  0.73214874  0.34657358  0.07711034  1
  O  O121  1  0.23214874  0.15342642  0.57711034  1
  O  O122  1  0.35515347  0.73360144  0.40755052  1
  O  O123  1  0.85515347  0.76639856  0.90755052  1
  O  O124  1  0.64484653  0.26639856  0.59244948  1
  O  O125  1  0.14484653  0.23360144  0.09244948  1
  O  O126  1  0.17736026  0.84465194  0.00671494  1
  O  O127  1  0.67736026  0.65534806  0.50671494  1
  O  O128  1  0.82263974  0.15534806  0.99328506  1
  O  O129  1  0.32263974  0.34465194  0.49328506  1
