# generated using pymatgen
data_Tb6Al43Cr4
_symmetry_space_group_name_H-M   'P 1'
_cell_length_a   10.96129879
_cell_length_b   10.96122890
_cell_length_c   17.55535312
_cell_angle_alpha   90.00000000
_cell_angle_beta   90.00000000
_cell_angle_gamma   120.00021443
_symmetry_Int_Tables_number   1
_chemical_formula_structural   Tb6Al43Cr4
_chemical_formula_sum   'Tb12 Al86 Cr8'
_cell_volume   1826.67180870
_cell_formula_units_Z   2
loop_
 _symmetry_equiv_pos_site_id
 _symmetry_equiv_pos_as_xyz
  1  'x, y, z'
loop_
 _atom_site_type_symbol
 _atom_site_label
 _atom_site_symmetry_multiplicity
 _atom_site_fract_x
 _atom_site_fract_y
 _atom_site_fract_z
 _atom_site_occupancy
  Tb  Tb0  1  0.52939557  0.00000000  0.59523636  1
  Tb  Tb1  1  0.47061069  0.47060653  0.59522972  1
  Tb  Tb2  1  0.00000416  0.52939347  0.59522972  1
  Tb  Tb3  1  0.47060443  1.00000000  0.40476364  1
  Tb  Tb4  1  0.52938931  0.52939347  0.40477028  1
  Tb  Tb5  1  0.99999584  0.47060653  0.40477028  1
  Tb  Tb6  1  0.47060443  1.00000000  0.09523636  1
  Tb  Tb7  1  0.52938931  0.52939347  0.09522972  1
  Tb  Tb8  1  0.99999584  0.47060653  0.09522972  1
  Tb  Tb9  1  0.52939557  0.00000000  0.90476364  1
  Tb  Tb10  1  0.47061069  0.47060653  0.90477028  1
  Tb  Tb11  1  0.00000416  0.52939347  0.90477028  1
  Al  Al12  1  0.15974820  0.39073643  0.66541853  1
  Al  Al13  1  0.23101684  0.84026696  0.66541734  1
  Al  Al14  1  0.60930493  0.76907332  0.66544498  1
  Al  Al15  1  0.76901177  0.60926357  0.66541853  1
  Al  Al16  1  0.39074988  0.15973304  0.66541734  1
  Al  Al17  1  0.84023161  0.23092668  0.66544498  1
  Al  Al18  1  0.84025180  0.60926357  0.33458147  1
  Al  Al19  1  0.76898316  0.15973304  0.33458266  1
  Al  Al20  1  0.39069507  0.23092668  0.33455502  1
  Al  Al21  1  0.23098823  0.39073643  0.33458147  1
  Al  Al22  1  0.60925012  0.84026696  0.33458266  1
  Al  Al23  1  0.15976839  0.76907332  0.33455502  1
  Al  Al24  1  0.84025180  0.60926357  0.16541853  1
  Al  Al25  1  0.76898316  0.15973304  0.16541734  1
  Al  Al26  1  0.39069507  0.23092668  0.16544498  1
  Al  Al27  1  0.23098823  0.39073643  0.16541853  1
  Al  Al28  1  0.60925012  0.84026696  0.16541734  1
  Al  Al29  1  0.15976839  0.76907332  0.16544498  1
  Al  Al30  1  0.15974820  0.39073643  0.83458147  1
  Al  Al31  1  0.23101684  0.84026696  0.83458266  1
  Al  Al32  1  0.60930493  0.76907332  0.83455502  1
  Al  Al33  1  0.76901177  0.60926357  0.83458147  1
  Al  Al34  1  0.39074988  0.15973304  0.83458266  1
  Al  Al35  1  0.84023161  0.23092668  0.83455502  1
  Al  Al36  1  0.15449922  0.00000000  0.11571865  1
  Al  Al37  1  0.84549900  0.84550427  0.11569187  1
  Al  Al38  1  0.99999472  0.15449573  0.11569187  1
  Al  Al39  1  0.84550078  1.00000000  0.88428135  1
  Al  Al40  1  0.15450100  0.15449573  0.88430813  1
  Al  Al41  1  0.00000528  0.84550427  0.88430813  1
  Al  Al42  1  0.84550078  1.00000000  0.61571865  1
  Al  Al43  1  0.15450100  0.15449573  0.61569187  1
  Al  Al44  1  0.00000528  0.84550427  0.61569187  1
  Al  Al45  1  0.15449922  0.00000000  0.38428135  1
  Al  Al46  1  0.84549900  0.84550427  0.38430813  1
  Al  Al47  1  0.99999472  0.15449573  0.38430813  1
  Al  Al48  1  0.25129839  0.00000000  0.53074961  1
  Al  Al49  1  0.74870406  0.74871140  0.53076918  1
  Al  Al50  1  0.99999266  0.25128860  0.53076918  1
  Al  Al51  1  0.74870161  1.00000000  0.46925039  1
  Al  Al52  1  0.25129594  0.25128860  0.46923082  1
  Al  Al53  1  0.00000734  0.74871140  0.46923082  1
  Al  Al54  1  0.74870161  1.00000000  0.03074961  1
  Al  Al55  1  0.25129594  0.25128860  0.03076918  1
  Al  Al56  1  0.00000734  0.74871140  0.03076918  1
  Al  Al57  1  0.25129839  0.00000000  0.96925039  1
  Al  Al58  1  0.74870406  0.74871140  0.96923082  1
  Al  Al59  1  0.99999266  0.25128860  0.96923082  1
  Al  Al60  1  0.14460997  0.59563999  0.75000000  1
  Al  Al61  1  0.45113656  0.85543531  0.75000000  1
  Al  Al62  1  0.40435695  0.54897579  0.75000000  1
  Al  Al63  1  0.54896998  0.40436001  0.75000000  1
  Al  Al64  1  0.59570124  0.14456469  0.75000000  1
  Al  Al65  1  0.85538116  0.45102421  0.75000000  1
  Al  Al66  1  0.85539003  0.40436001  0.25000000  1
  Al  Al67  1  0.54886344  0.14456469  0.25000000  1
  Al  Al68  1  0.59564305  0.45102421  0.25000000  1
  Al  Al69  1  0.45103002  0.59563999  0.25000000  1
  Al  Al70  1  0.40429876  0.85543531  0.25000000  1
  Al  Al71  1  0.14461884  0.54897579  0.25000000  1
  Al  Al72  1  0.24690028  0.49380056  0.50000000  1
  Al  Al73  1  0.24690021  0.75310415  0.49999628  1
  Al  Al74  1  0.50620395  0.75310415  0.50000372  1
  Al  Al75  1  0.75309972  0.50619944  0.50000000  1
  Al  Al76  1  0.49379605  0.24689585  0.49999628  1
  Al  Al77  1  0.75309979  0.24689585  0.50000372  1
  Al  Al78  1  0.75309972  0.50619944  -0.00000000  1
  Al  Al79  1  0.75309979  0.24689585  0.99999628  1
  Al  Al80  1  0.49379605  0.24689585  0.00000372  1
  Al  Al81  1  0.24690028  0.49380056  -0.00000000  1
  Al  Al82  1  0.50620395  0.75310415  0.99999628  1
  Al  Al83  1  0.24690021  0.75310415  0.00000372  1
  Al  Al84  1  0.33335669  0.66670178  0.62785771  1
  Al  Al85  1  0.66665491  0.33329822  0.62785771  1
  Al  Al86  1  0.66664331  0.33329822  0.37214229  1
  Al  Al87  1  0.33334509  0.66670178  0.37214229  1
  Al  Al88  1  0.66664331  0.33329822  0.12785771  1
  Al  Al89  1  0.33334509  0.66670178  0.12785771  1
  Al  Al90  1  0.33335669  0.66670178  0.87214229  1
  Al  Al91  1  0.66665491  0.33329822  0.87214229  1
  Al  Al92  1  0.14460442  1.00000000  0.75000000  1
  Al  Al93  1  0.85538445  0.85543429  0.75000000  1
  Al  Al94  1  0.99995016  0.14456571  0.75000000  1
  Al  Al95  1  0.85539558  0.00000000  0.25000000  1
  Al  Al96  1  0.14461555  0.14456571  0.25000000  1
  Al  Al97  1  0.00004984  0.85543429  0.25000000  1
  Cr  Cr98  1  0.73044679  0.00000000  0.75000000  1
  Cr  Cr99  1  0.26958255  0.26955888  0.75000000  1
  Cr  Cr100  1  0.00002366  0.73044112  0.75000000  1
  Cr  Cr101  1  0.26955321  1.00000000  0.25000000  1
  Cr  Cr102  1  0.73041745  0.73044112  0.25000000  1
  Cr  Cr103  1  0.99997634  0.26955888  0.25000000  1
  Cr  Cr104  1  0.00000000  0.00000000  0.50000000  1
  Cr  Cr105  1  0.00000000  0.00000000  -0.00000000  1
