# generated using pymatgen
data_Ba6Y2Fe4O15
_symmetry_space_group_name_H-M   'P 1'
_cell_length_a   6.07213315
_cell_length_b   8.16756935
_cell_length_c   18.70458690
_cell_angle_alpha   91.09517678
_cell_angle_beta   90.00000000
_cell_angle_gamma   90.00000000
_symmetry_Int_Tables_number   1
_chemical_formula_structural   Ba6Y2Fe4O15
_chemical_formula_sum   'Ba12 Y4 Fe8 O30'
_cell_volume   927.47646022
_cell_formula_units_Z   2
loop_
 _symmetry_equiv_pos_site_id
 _symmetry_equiv_pos_as_xyz
  1  'x, y, z'
loop_
 _atom_site_type_symbol
 _atom_site_label
 _atom_site_symmetry_multiplicity
 _atom_site_fract_x
 _atom_site_fract_y
 _atom_site_fract_z
 _atom_site_occupancy
  Ba  Ba0  1  0.27844908  0.00000000  0.25000000  1
  Ba  Ba1  1  0.72155092  0.00000000  0.75000000  1
  Ba  Ba2  1  0.32715736  0.50000000  0.25000000  1
  Ba  Ba3  1  0.67284264  0.50000000  0.75000000  1
  Ba  Ba4  1  0.75091914  0.97407434  0.41120475  1
  Ba  Ba5  1  0.75091914  0.02592566  0.08879525  1
  Ba  Ba6  1  0.24908086  0.02592566  0.58879525  1
  Ba  Ba7  1  0.24908086  0.97407434  0.91120475  1
  Ba  Ba8  1  0.25006982  0.50095155  0.92255044  1
  Ba  Ba9  1  0.25006982  0.49904845  0.57744956  1
  Ba  Ba10  1  0.74993018  0.49904845  0.07744956  1
  Ba  Ba11  1  0.74993018  0.50095155  0.42255044  1
  Y  Y12  1  0.25188655  0.75364068  0.09080940  1
  Y  Y13  1  0.25188655  0.24635932  0.40919060  1
  Y  Y14  1  0.74811345  0.24635932  0.90919060  1
  Y  Y15  1  0.74811345  0.75364068  0.59080940  1
  Fe  Fe16  1  0.25369589  0.75439542  0.44042699  1
  Fe  Fe17  1  0.25369589  0.24560458  0.05957301  1
  Fe  Fe18  1  0.74630411  0.24560458  0.55957301  1
  Fe  Fe19  1  0.74630411  0.75439542  0.94042699  1
  Fe  Fe20  1  0.77440676  0.76955330  0.23444989  1
  Fe  Fe21  1  0.77440676  0.23044670  0.26555011  1
  Fe  Fe22  1  0.22559324  0.23044670  0.76555011  1
  Fe  Fe23  1  0.22559324  0.76955330  0.73444989  1
  O  O24  1  0.79883646  0.00000000  0.25000000  1
  O  O25  1  0.20116354  0.00000000  0.75000000  1
  O  O26  1  0.76508822  0.95754239  0.89101160  1
  O  O27  1  0.76508822  0.04245761  0.60898840  1
  O  O28  1  0.23491178  0.04245761  0.10898840  1
  O  O29  1  0.23491178  0.95754239  0.39101160  1
  O  O30  1  0.24500432  0.52861873  0.41049768  1
  O  O31  1  0.24500432  0.47138127  0.08950232  1
  O  O32  1  0.75499568  0.47138127  0.58950232  1
  O  O33  1  0.75499568  0.52861873  0.91049768  1
  O  O34  1  0.05300576  0.72387058  0.19322127  1
  O  O35  1  0.05300576  0.27612942  0.30677873  1
  O  O36  1  0.94699424  0.27612942  0.80677873  1
  O  O37  1  0.94699424  0.72387058  0.69322127  1
  O  O38  1  0.55398942  0.74863893  0.16211274  1
  O  O39  1  0.55398942  0.25136107  0.33788726  1
  O  O40  1  0.44601058  0.25136107  0.83788726  1
  O  O41  1  0.44601058  0.74863893  0.66211274  1
  O  O42  1  0.48872443  0.76538460  0.99842695  1
  O  O43  1  0.48872443  0.23461540  0.50157305  1
  O  O44  1  0.51127557  0.23461540  0.00157305  1
  O  O45  1  0.51127557  0.76538460  0.49842695  1
  O  O46  1  0.01315458  0.76904871  0.50731817  1
  O  O47  1  0.01315458  0.23095129  0.99268183  1
  O  O48  1  0.98684542  0.23095129  0.49268183  1
  O  O49  1  0.98684542  0.76904871  0.00731817  1
  O  O50  1  0.33705847  0.69313045  0.81998580  1
  O  O51  1  0.33705847  0.30686955  0.68001420  1
  O  O52  1  0.66294153  0.30686955  0.18001420  1
  O  O53  1  0.66294153  0.69313045  0.31998580  1
