# generated using pymatgen
data_KAsW2O9
_symmetry_space_group_name_H-M   'P 1'
_cell_length_a   5.06527286
_cell_length_b   9.37930318
_cell_length_c   17.14962226
_cell_angle_alpha   90.00000000
_cell_angle_beta   90.00000000
_cell_angle_gamma   90.00000000
_symmetry_Int_Tables_number   1
_chemical_formula_structural   KAsW2O9
_chemical_formula_sum   'K4 As4 W8 O36'
_cell_volume   814.75677087
_cell_formula_units_Z   4
loop_
 _symmetry_equiv_pos_site_id
 _symmetry_equiv_pos_as_xyz
  1  'x, y, z'
loop_
 _atom_site_type_symbol
 _atom_site_label
 _atom_site_symmetry_multiplicity
 _atom_site_fract_x
 _atom_site_fract_y
 _atom_site_fract_z
 _atom_site_occupancy
  K  K0  1  0.27744433  0.05000116  0.09192681  1
  K  K1  1  0.22255567  0.94999884  0.59192681  1
  K  K2  1  0.77744433  0.44999884  0.90807319  1
  K  K3  1  0.72255567  0.55000116  0.40807319  1
  As  As4  1  0.35101620  0.26817117  0.27553811  1
  As  As5  1  0.14898380  0.73182883  0.77553811  1
  As  As6  1  0.85101620  0.23182883  0.72446189  1
  As  As7  1  0.64898380  0.76817117  0.22446189  1
  W  W8  1  0.36238744  0.63423256  0.05086953  1
  W  W9  1  0.13761256  0.36576744  0.55086953  1
  W  W10  1  0.86238744  0.86576744  0.94913047  1
  W  W11  1  0.63761256  0.13423256  0.44913047  1
  W  W12  1  0.88296316  0.43416222  0.16640292  1
  W  W13  1  0.61703684  0.56583778  0.66640292  1
  W  W14  1  0.38296316  0.06583778  0.83359708  1
  W  W15  1  0.11703684  0.93416222  0.33359708  1
  O  O16  1  0.12424362  0.78414424  0.02284288  1
  O  O17  1  0.37575638  0.21585576  0.52284288  1
  O  O18  1  0.62424362  0.71585576  0.97715712  1
  O  O19  1  0.87575638  0.28414424  0.47715712  1
  O  O20  1  0.65406514  0.51384395  0.09046591  1
  O  O21  1  0.84593486  0.48615605  0.59046591  1
  O  O22  1  0.15406514  0.98615605  0.90953409  1
  O  O23  1  0.34593486  0.01384395  0.40953409  1
  O  O24  1  0.15022439  0.57309518  0.13959253  1
  O  O25  1  0.34977561  0.42690482  0.63959253  1
  O  O26  1  0.65022439  0.92690482  0.86040747  1
  O  O27  1  0.84977561  0.07309518  0.36040747  1
  O  O28  1  0.08384777  0.38382235  0.26561827  1
  O  O29  1  0.41615223  0.61617765  0.76561827  1
  O  O30  1  0.58384777  0.11617765  0.73438173  1
  O  O31  1  0.91615223  0.88382235  0.23438173  1
  O  O32  1  0.58206357  0.31402171  0.20581251  1
  O  O33  1  0.91793643  0.68597829  0.70581251  1
  O  O34  1  0.08206357  0.18597829  0.79418749  1
  O  O35  1  0.41793643  0.81402171  0.29418749  1
  O  O36  1  0.24957057  0.50279225  0.98550401  1
  O  O37  1  0.25042943  0.49720775  0.48550401  1
  O  O38  1  0.74957057  0.99720775  0.01449599  1
  O  O39  1  0.75042943  0.00279225  0.51449599  1
  O  O40  1  0.47630942  0.29168262  0.36664346  1
  O  O41  1  0.02369058  0.70831738  0.86664346  1
  O  O42  1  0.97630942  0.20831738  0.63335654  1
  O  O43  1  0.52369058  0.79168262  0.13335654  1
  O  O44  1  0.26592946  0.09623455  0.25360253  1
  O  O45  1  0.23407054  0.90376545  0.75360253  1
  O  O46  1  0.76592946  0.40376545  0.74639747  1
  O  O47  1  0.73407054  0.59623455  0.24639747  1
  O  O48  1  0.01282618  0.29359882  0.11040770  1
  O  O49  1  0.48717382  0.70640118  0.61040770  1
  O  O50  1  0.51282618  0.20640118  0.88959230  1
  O  O51  1  0.98717382  0.79359882  0.38959230  1
