# generated using pymatgen
data_Cu7P12S9Br7
_symmetry_space_group_name_H-M   'P 1'
_cell_length_a   6.47715944
_cell_length_b   16.96338202
_cell_length_c   16.96337334
_cell_angle_alpha   120.00100149
_cell_angle_beta   90.00000000
_cell_angle_gamma   90.00000000
_symmetry_Int_Tables_number   1
_chemical_formula_structural   Cu7P12S9Br7
_chemical_formula_sum   'Cu14 P24 S18 Br14'
_cell_volume   1614.11881443
_cell_formula_units_Z   2
loop_
 _symmetry_equiv_pos_site_id
 _symmetry_equiv_pos_as_xyz
  1  'x, y, z'
loop_
 _atom_site_type_symbol
 _atom_site_label
 _atom_site_symmetry_multiplicity
 _atom_site_fract_x
 _atom_site_fract_y
 _atom_site_fract_z
 _atom_site_occupancy
  Cu  Cu0  1  0.63487066  0.33333180  0.66666639  1
  Cu  Cu1  1  0.13487066  0.66666820  0.33333361  1
  Cu  Cu2  1  0.08925290  0.45324415  0.54675052  1
  Cu  Cu3  1  0.08926373  0.09350817  0.54675486  1
  Cu  Cu4  1  0.08926234  0.45324931  0.90649300  1
  Cu  Cu5  1  0.58925290  0.54675585  0.45324948  1
  Cu  Cu6  1  0.58926373  0.90649183  0.45324514  1
  Cu  Cu7  1  0.58926234  0.54675069  0.09350700  1
  Cu  Cu8  1  0.60210031  0.08116716  0.16232168  1
  Cu  Cu9  1  0.60207890  0.08116716  0.91883155  1
  Cu  Cu10  1  0.60208356  0.83766954  0.91883610  1
  Cu  Cu11  1  0.10210031  0.91883284  0.83767832  1
  Cu  Cu12  1  0.10207890  0.91883284  0.08116845  1
  Cu  Cu13  1  0.10208356  0.16233046  0.08116390  1
  P  P14  1  0.48524840  0.15088007  0.30176032  1
  P  P15  1  0.48524891  0.15088063  0.84911929  1
  P  P16  1  0.48524741  0.69823928  0.84911954  1
  P  P17  1  0.98524840  0.84911993  0.69823968  1
  P  P18  1  0.98524891  0.84911937  0.15088071  1
  P  P19  1  0.98524741  0.30176072  0.15088046  1
  P  P20  1  0.22364348  0.30666943  0.47474417  1
  P  P21  1  0.22364276  0.16807262  0.69333135  1
  P  P22  1  0.22364337  0.52525672  0.83192620  1
  P  P23  1  0.22364542  0.16807349  0.47474276  1
  P  P24  1  0.22364257  0.52525575  0.69333005  1
  P  P25  1  0.22364180  0.30666911  0.83192741  1
  P  P26  1  0.72364348  0.69333057  0.52525583  1
  P  P27  1  0.72364276  0.83192738  0.30666865  1
  P  P28  1  0.72364337  0.47474328  0.16807380  1
  P  P29  1  0.72364542  0.83192651  0.52525724  1
  P  P30  1  0.72364257  0.47474425  0.30666995  1
  P  P31  1  0.72364180  0.69333089  0.16807259  1
  P  P32  1  0.50307158  0.26065385  0.52130879  1
  P  P33  1  0.50306878  0.26065264  0.73934703  1
  P  P34  1  0.50307005  0.47869063  0.73934522  1
  P  P35  1  0.00307158  0.73934615  0.47869121  1
  P  P36  1  0.00306878  0.73934736  0.26065297  1
  P  P37  1  0.00307005  0.52130937  0.26065478  1
  S  S38  1  0.70247993  0.20487689  0.40975455  1
  S  S39  1  0.70247977  0.20487675  0.79512305  1
  S  S40  1  0.70248110  0.59024432  0.79512210  1
  S  S41  1  0.20247993  0.79512311  0.59024545  1
  S  S42  1  0.20247977  0.79512325  0.20487695  1
  S  S43  1  0.20248110  0.40975568  0.20487790  1
  S  S44  1  0.29915327  0.26728504  0.34022624  1
  S  S45  1  0.29915224  0.07293961  0.73271475  1
  S  S46  1  0.29915422  0.65977525  0.92705937  1
  S  S47  1  0.29915406  0.07294018  0.34022460  1
  S  S48  1  0.29915348  0.65977320  0.73271463  1
  S  S49  1  0.29915401  0.26728531  0.92705993  1
  S  S50  1  0.79915327  0.73271496  0.65977376  1
  S  S51  1  0.79915224  0.92706039  0.26728525  1
  S  S52  1  0.79915422  0.34022475  0.07294063  1
  S  S53  1  0.79915406  0.92705982  0.65977540  1
  S  S54  1  0.79915348  0.34022680  0.26728537  1
  S  S55  1  0.79915401  0.73271469  0.07294007  1
  Br  Br56  1  0.01038532  0.33333281  0.66666705  1
  Br  Br57  1  0.51038532  0.66666719  0.33333295  1
  Br  Br58  1  0.71643543  0.46690337  0.53309684  1
  Br  Br59  1  0.71645476  0.06619471  0.53309754  1
  Br  Br60  1  0.71644498  0.46690140  0.93380490  1
  Br  Br61  1  0.21643543  0.53309663  0.46690316  1
  Br  Br62  1  0.21645476  0.93380529  0.46690246  1
  Br  Br63  1  0.21644498  0.53309860  0.06619510  1
  Br  Br64  1  0.48299359  0.15717484  0.07858628  1
  Br  Br65  1  0.48299354  0.92141155  0.84282506  1
  Br  Br66  1  0.48299339  0.92141332  0.07858759  1
  Br  Br67  1  0.98299359  0.84282516  0.92141372  1
  Br  Br68  1  0.98299354  0.07858845  0.15717494  1
  Br  Br69  1  0.98299339  0.07858668  0.92141241  1
