# generated using pymatgen
data_Mg3Cr6(FeO6)4
_symmetry_space_group_name_H-M   'P 1'
_cell_length_a   6.69328981
_cell_length_b   8.15055762
_cell_length_c   9.82946345
_cell_angle_alpha   104.80703399
_cell_angle_beta   105.89604554
_cell_angle_gamma   102.07778213
_symmetry_Int_Tables_number   1
_chemical_formula_structural   Mg3Cr6(FeO6)4
_chemical_formula_sum   'Mg3 Cr6 Fe4 O24'
_cell_volume   475.58991759
_cell_formula_units_Z   1
loop_
 _symmetry_equiv_pos_site_id
 _symmetry_equiv_pos_as_xyz
  1  'x, y, z'
loop_
 _atom_site_type_symbol
 _atom_site_label
 _atom_site_symmetry_multiplicity
 _atom_site_fract_x
 _atom_site_fract_y
 _atom_site_fract_z
 _atom_site_occupancy
  Mg  Mg0  1  0.00000000  0.50000000  0.50000000  1
  Mg  Mg1  1  0.27829137  0.29056513  0.79101658  1
  Mg  Mg2  1  0.72170863  0.70943487  0.20898342  1
  Cr  Cr3  1  0.77767149  0.34386491  0.72811345  1
  Cr  Cr4  1  0.22232851  0.65613509  0.27188655  1
  Cr  Cr5  1  0.89814546  0.90257011  0.66822687  1
  Cr  Cr6  1  0.39798797  0.72615587  0.86949917  1
  Cr  Cr7  1  0.10185454  0.09742989  0.33177313  1
  Cr  Cr8  1  0.60201203  0.27384413  0.13050083  1
  Fe  Fe9  1  0.37940516  0.95499881  0.60799153  1
  Fe  Fe10  1  0.62059484  0.04500119  0.39200847  1
  Fe  Fe11  1  0.04507531  0.21158322  0.01616107  1
  Fe  Fe12  1  0.95492469  0.78841678  0.98383893  1
  O  O13  1  0.87497732  0.69311835  0.58280173  1
  O  O14  1  0.12502268  0.30688165  0.41719827  1
  O  O15  1  0.26625472  0.51603696  0.74160361  1
  O  O16  1  0.73374528  0.48396304  0.25839639  1
  O  O17  1  0.78374915  0.30126200  0.54537277  1
  O  O18  1  0.21625085  0.69873800  0.45462723  1
  O  O19  1  0.66878369  0.96007908  0.57608165  1
  O  O20  1  0.33121631  0.03992092  0.42391835  1
  O  O21  1  0.64505123  0.73783879  0.99931269  1
  O  O22  1  0.35494877  0.26216121  0.00068731  1
  O  O23  1  0.47341668  0.77123834  0.27275392  1
  O  O24  1  0.52658332  0.22876166  0.72724608  1
  O  O25  1  0.13150746  0.03117861  0.65405137  1
  O  O26  1  0.07144068  0.05038267  0.14293329  1
  O  O27  1  0.92855932  0.94961733  0.85706671  1
  O  O28  1  0.55723480  0.13349759  0.22621298  1
  O  O29  1  0.44276520  0.86650241  0.77378702  1
  O  O30  1  0.17888292  0.44176989  0.18398420  1
  O  O31  1  0.82111708  0.55823011  0.81601580  1
  O  O32  1  0.98860702  0.28295411  0.83304149  1
  O  O33  1  0.01139298  0.71704589  0.16695851  1
  O  O34  1  0.23619541  0.78213902  0.96656002  1
  O  O35  1  0.76380459  0.21786098  0.03343998  1
  O  O36  1  0.86849254  0.96882139  0.34594863  1
