# generated using pymatgen
data_Cu3P4H8N2(O3F)4
_symmetry_space_group_name_H-M   'P 1'
_cell_length_a   7.99334900
_cell_length_b   9.22726496
_cell_length_c   9.67635112
_cell_angle_alpha   90.00000000
_cell_angle_beta   90.00000000
_cell_angle_gamma   94.72946763
_symmetry_Int_Tables_number   1
_chemical_formula_structural   Cu3P4H8N2(O3F)4
_chemical_formula_sum   'Cu6 P8 H16 N4 O24 F8'
_cell_volume   711.26614721
_cell_formula_units_Z   2
loop_
 _symmetry_equiv_pos_site_id
 _symmetry_equiv_pos_as_xyz
  1  'x, y, z'
loop_
 _atom_site_type_symbol
 _atom_site_label
 _atom_site_symmetry_multiplicity
 _atom_site_fract_x
 _atom_site_fract_y
 _atom_site_fract_z
 _atom_site_occupancy
  Cu  Cu0  1  0.61351403  0.18162521  0.85456154  1
  Cu  Cu1  1  0.38648597  0.31837479  0.35456154  1
  Cu  Cu2  1  0.38648597  0.81837479  0.14543846  1
  Cu  Cu3  1  0.61351403  0.68162521  0.64543846  1
  Cu  Cu4  1  0.50000000  0.50000000  -0.00000000  1
  Cu  Cu5  1  0.50000000  0.00000000  0.50000000  1
  P  P6  1  0.18728125  0.52047350  0.17706622  1
  P  P7  1  0.81271875  0.97952650  0.67706622  1
  P  P8  1  0.81271875  0.47952650  0.82293378  1
  P  P9  1  0.18728125  0.02047350  0.32293378  1
  P  P10  1  0.39477780  0.38746130  0.69130795  1
  P  P11  1  0.60522220  0.11253870  0.19130795  1
  P  P12  1  0.60522220  0.61253870  0.30869205  1
  P  P13  1  0.39477780  0.88746130  0.80869205  1
  H  H14  1  0.18210686  0.28126710  0.99725294  1
  H  H15  1  0.81789314  0.21873290  0.49725294  1
  H  H16  1  0.81789314  0.71873290  0.00274706  1
  H  H17  1  0.18210686  0.78126710  0.50274706  1
  H  H18  1  0.12588825  0.10759488  0.04106112  1
  H  H19  1  0.87411175  0.39240512  0.54106112  1
  H  H20  1  0.87411175  0.89240512  0.95893888  1
  H  H21  1  0.12588825  0.60759488  0.45893888  1
  H  H22  1  0.00872015  0.19563102  0.92261444  1
  H  H23  1  0.99127985  0.30436898  0.42261444  1
  H  H24  1  0.99127985  0.80436898  0.07738556  1
  H  H25  1  0.00872015  0.69563102  0.57738556  1
  H  H26  1  0.20469895  0.14480557  0.88564689  1
  H  H27  1  0.79530105  0.35519443  0.38564689  1
  H  H28  1  0.79530105  0.85519443  0.11435311  1
  H  H29  1  0.20469895  0.64480557  0.61435311  1
  N  N30  1  0.12672203  0.18157427  0.96094021  1
  N  N31  1  0.87327797  0.31842573  0.46094021  1
  N  N32  1  0.87327797  0.81842573  0.03905979  1
  N  N33  1  0.12672203  0.68157427  0.53905979  1
  O  O34  1  0.46985344  0.35512736  0.83612573  1
  O  O35  1  0.53014656  0.14487264  0.33612573  1
  O  O36  1  0.53014656  0.64487264  0.16387427  1
  O  O37  1  0.46985344  0.85512736  0.66387427  1
  O  O38  1  0.27864969  0.44076679  0.06414030  1
  O  O39  1  0.72135031  0.05923321  0.56414030  1
  O  O40  1  0.72135031  0.55923321  0.93585970  1
  O  O41  1  0.27864969  0.94076679  0.43585970  1
  O  O42  1  0.40987412  0.55078624  0.66185500  1
  O  O43  1  0.59012588  0.94921376  0.16185500  1
  O  O44  1  0.59012588  0.44921376  0.33814500  1
  O  O45  1  0.40987412  0.05078624  0.83814500  1
  O  O46  1  0.18291386  0.68408359  0.15698619  1
  O  O47  1  0.81708614  0.81591641  0.65698619  1
  O  O48  1  0.81708614  0.31591641  0.84301381  1
  O  O49  1  0.18291386  0.18408359  0.34301381  1
  O  O50  1  0.23244846  0.47831330  0.32512365  1
  O  O51  1  0.76755154  0.02168670  0.82512365  1
  O  O52  1  0.76755154  0.52168670  0.67487635  1
  O  O53  1  0.23244846  0.97831330  0.17487635  1
  O  O54  1  0.44357489  0.28469999  0.58121881  1
  O  O55  1  0.55642511  0.21530001  0.08121881  1
  O  O56  1  0.55642511  0.71530001  0.41878119  1
  O  O57  1  0.44357489  0.78469999  0.91878119  1
  F  F58  1  0.99895306  0.45636466  0.15576178  1
  F  F59  1  0.00104694  0.04363534  0.65576178  1
  F  F60  1  0.00104694  0.54363534  0.84423822  1
  F  F61  1  0.99895306  0.95636466  0.34423822  1
  F  F62  1  0.19638442  0.35583605  0.71256989  1
  F  F63  1  0.80361558  0.14416395  0.21256989  1
  F  F64  1  0.80361558  0.64416395  0.28743011  1
  F  F65  1  0.19638442  0.85583605  0.78743011  1
