# generated using pymatgen
data_Dy5(Si5Ir2)2
_symmetry_space_group_name_H-M   'P 1'
_cell_length_a   4.27371504
_cell_length_b   12.62907073
_cell_length_c   12.62907073
_cell_angle_alpha   90.00000000
_cell_angle_beta   90.00000000
_cell_angle_gamma   90.00000000
_symmetry_Int_Tables_number   1
_chemical_formula_structural   Dy5(Si5Ir2)2
_chemical_formula_sum   'Dy10 Si20 Ir8'
_cell_volume   681.62945990
_cell_formula_units_Z   2
loop_
 _symmetry_equiv_pos_site_id
 _symmetry_equiv_pos_as_xyz
  1  'x, y, z'
loop_
 _atom_site_type_symbol
 _atom_site_label
 _atom_site_symmetry_multiplicity
 _atom_site_fract_x
 _atom_site_fract_y
 _atom_site_fract_z
 _atom_site_occupancy
  Dy  Dy0  1  0.00000000  0.50000000  0.50000000  1
  Dy  Dy1  1  -0.00000000  0.00000000  -0.00000000  1
  Dy  Dy2  1  0.50000000  0.17576487  0.67576487  1
  Dy  Dy3  1  0.50000000  0.82423513  0.32423513  1
  Dy  Dy4  1  0.50000000  0.32423513  0.17576487  1
  Dy  Dy5  1  0.50000000  0.67576487  0.82423513  1
  Dy  Dy6  1  0.50000000  0.38373437  0.88373437  1
  Dy  Dy7  1  0.50000000  0.61626563  0.11626563  1
  Dy  Dy8  1  0.50000000  0.11626563  0.38373437  1
  Dy  Dy9  1  0.50000000  0.88373437  0.61626563  1
  Si  Si10  1  0.00000000  0.06556599  0.56556599  1
  Si  Si11  1  0.00000000  0.93443401  0.43443401  1
  Si  Si12  1  -0.00000000  0.43443401  0.06556599  1
  Si  Si13  1  -0.00000000  0.56556599  0.93443401  1
  Si  Si14  1  -0.00000000  0.70072731  0.66349259  1
  Si  Si15  1  0.00000000  0.29927269  0.33650741  1
  Si  Si16  1  0.00000000  0.79927269  0.16349259  1
  Si  Si17  1  -0.00000000  0.20072731  0.83650741  1
  Si  Si18  1  -0.00000000  0.66349259  0.29927269  1
  Si  Si19  1  -0.00000000  0.33650741  0.70072731  1
  Si  Si20  1  0.00000000  0.16349259  0.20072731  1
  Si  Si21  1  0.00000000  0.83650741  0.79927269  1
  Si  Si22  1  0.50000000  0.50328227  0.65700011  1
  Si  Si23  1  0.50000000  0.49671773  0.34299989  1
  Si  Si24  1  0.50000000  0.99671773  0.15700011  1
  Si  Si25  1  0.50000000  0.00328227  0.84299989  1
  Si  Si26  1  0.50000000  0.65700011  0.49671773  1
  Si  Si27  1  0.50000000  0.34299989  0.50328227  1
  Si  Si28  1  0.50000000  0.15700011  0.00328227  1
  Si  Si29  1  0.50000000  0.84299989  0.99671773  1
  Ir  Ir30  1  -0.00000000  0.52040895  0.74545491  1
  Ir  Ir31  1  -0.00000000  0.47959105  0.25454509  1
  Ir  Ir32  1  0.00000000  0.97959105  0.24545491  1
  Ir  Ir33  1  -0.00000000  0.02040895  0.75454509  1
  Ir  Ir34  1  -0.00000000  0.74545491  0.47959105  1
  Ir  Ir35  1  -0.00000000  0.25454509  0.52040895  1
  Ir  Ir36  1  -0.00000000  0.24545491  0.02040895  1
  Ir  Ir37  1  0.00000000  0.75454509  0.97959105  1
