# generated using pymatgen
data_K2SmMoPO8
_symmetry_space_group_name_H-M   'P 1'
_cell_length_a   7.09922344
_cell_length_b   12.32024280
_cell_length_c   12.32024280
_cell_angle_alpha   60.87240703
_cell_angle_beta   73.25503510
_cell_angle_gamma   73.25503510
_symmetry_Int_Tables_number   1
_chemical_formula_structural   K2SmMoPO8
_chemical_formula_sum   'K8 Sm4 Mo4 P4 O32'
_cell_volume   887.19637521
_cell_formula_units_Z   4
loop_
 _symmetry_equiv_pos_site_id
 _symmetry_equiv_pos_as_xyz
  1  'x, y, z'
loop_
 _atom_site_type_symbol
 _atom_site_label
 _atom_site_symmetry_multiplicity
 _atom_site_fract_x
 _atom_site_fract_y
 _atom_site_fract_z
 _atom_site_occupancy
  K  K0  1  0.68992671  0.26539565  0.92305169  1
  K  K1  1  0.81007329  0.57694831  0.23460435  1
  K  K2  1  0.87837404  0.23460435  0.57694831  1
  K  K3  1  0.62162596  0.92305169  0.26539565  1
  K  K4  1  0.31007329  0.73460435  0.07694831  1
  K  K5  1  0.18992671  0.42305169  0.76539565  1
  K  K6  1  0.12162596  0.76539565  0.42305169  1
  K  K7  1  0.37837404  0.07694831  0.73460435  1
  Sm  Sm8  1  0.75000000  0.67367641  0.82632359  1
  Sm  Sm9  1  0.25000000  0.82632359  0.67367641  1
  Sm  Sm10  1  0.25000000  0.32632359  0.17367641  1
  Sm  Sm11  1  0.75000000  0.17367641  0.32632359  1
  Mo  Mo12  1  0.66740141  0.58259859  0.58259859  1
  Mo  Mo13  1  0.83259859  0.91740141  0.91740141  1
  Mo  Mo14  1  0.33259859  0.41740141  0.41740141  1
  Mo  Mo15  1  0.16740141  0.08259859  0.08259859  1
  P  P16  1  0.75000000  0.42814146  0.07185854  1
  P  P17  1  0.25000000  0.07185854  0.42814146  1
  P  P18  1  0.25000000  0.57185854  0.92814146  1
  P  P19  1  0.75000000  0.92814146  0.57185854  1
  O  O20  1  0.90963566  0.35938558  0.16031611  1
  O  O21  1  0.59036434  0.33968389  0.14061442  1
  O  O22  1  0.42933735  0.14061442  0.33968389  1
  O  O23  1  0.07066265  0.16031611  0.35938558  1
  O  O24  1  0.09036434  0.64061442  0.83968389  1
  O  O25  1  0.40963566  0.66031611  0.85938558  1
  O  O26  1  0.57066265  0.85938558  0.66031611  1
  O  O27  1  0.92933735  0.83968389  0.64061442  1
  O  O28  1  0.83490178  0.44093205  0.93639429  1
  O  O29  1  0.66509822  0.56360571  0.05906795  1
  O  O30  1  0.21222813  0.05906795  0.56360571  1
  O  O31  1  0.28777187  0.93639429  0.44093205  1
  O  O32  1  0.16509822  0.55906795  0.06360571  1
  O  O33  1  0.33490178  0.43639429  0.94093205  1
  O  O34  1  0.78777187  0.94093205  0.43639429  1
  O  O35  1  0.71222813  0.06360571  0.55906795  1
  O  O36  1  0.82073594  0.60217980  0.66519572  1
  O  O37  1  0.67926406  0.83480428  0.89782020  1
  O  O38  1  0.08811146  0.89782020  0.83480428  1
  O  O39  1  0.41188854  0.66519572  0.60217980  1
  O  O40  1  0.17926406  0.39782020  0.33480428  1
  O  O41  1  0.32073594  0.16519572  0.10217980  1
  O  O42  1  0.91188854  0.10217980  0.16519572  1
  O  O43  1  0.58811146  0.33480428  0.39782020  1
  O  O44  1  0.65918915  0.41915746  0.64516302  1
  O  O45  1  0.84081085  0.85483698  0.08084254  1
  O  O46  1  0.72350963  0.08084254  0.85483698  1
  O  O47  1  0.77649037  0.64516302  0.41915746  1
  O  O48  1  0.34081085  0.58084254  0.35483698  1
  O  O49  1  0.15918915  0.14516302  0.91915746  1
  O  O50  1  0.27649037  0.91915746  0.14516302  1
  O  O51  1  0.22350963  0.35483698  0.58084254  1
