# generated using pymatgen
data_ZnAg2P2O9
_symmetry_space_group_name_H-M   'P 1'
_cell_length_a   6.47710252
_cell_length_b   7.17557952
_cell_length_c   15.79103446
_cell_angle_alpha   90.25838310
_cell_angle_beta   89.99995424
_cell_angle_gamma   90.00001507
_symmetry_Int_Tables_number   1
_chemical_formula_structural   ZnAg2P2O9
_chemical_formula_sum   'Zn4 Ag8 P8 O36'
_cell_volume   733.91188001
_cell_formula_units_Z   4
loop_
 _symmetry_equiv_pos_site_id
 _symmetry_equiv_pos_as_xyz
  1  'x, y, z'
loop_
 _atom_site_type_symbol
 _atom_site_label
 _atom_site_symmetry_multiplicity
 _atom_site_fract_x
 _atom_site_fract_y
 _atom_site_fract_z
 _atom_site_occupancy
  Zn  Zn0  1  0.74999923  0.90727109  0.77554806  1
  Zn  Zn1  1  0.74999924  0.59207255  0.27496991  1
  Zn  Zn2  1  0.25000194  0.40790525  0.72501192  1
  Zn  Zn3  1  0.25000268  0.09274502  0.22432799  1
  Ag  Ag4  1  0.75000172  0.36787955  0.88244735  1
  Ag  Ag5  1  0.25000010  0.63184805  0.11746500  1
  Ag  Ag6  1  0.24999915  0.86920938  0.61780541  1
  Ag  Ag7  1  0.75000160  0.13020200  0.38228945  1
  Ag  Ag8  1  0.49999652  0.00018840  0.00003122  1
  Ag  Ag9  1  0.50005389  0.50018633  0.49995439  1
  Ag  Ag10  1  -0.00005396  0.50018662  0.49995410  1
  Ag  Ag11  1  0.00000358  0.00018806  0.00003124  1
  P  P12  1  0.25000121  0.37879259  0.92248450  1
  P  P13  1  0.74999946  0.62152215  0.07767834  1
  P  P14  1  0.74999908  0.87929998  0.57817033  1
  P  P15  1  0.25000164  0.12088397  0.42190979  1
  P  P16  1  0.75000142  0.38236093  0.70731661  1
  P  P17  1  0.74999958  0.11818077  0.20686291  1
  P  P18  1  0.25000044  0.88204216  0.79307458  1
  P  P19  1  0.24999986  0.61762968  0.29266382  1
  O  O20  1  0.04439771  0.61223291  0.34309249  1
  O  O21  1  0.54438494  0.38773196  0.65694067  1
  O  O22  1  0.95558834  0.11157983  0.15637451  1
  O  O23  1  0.45558077  0.88830415  0.84353130  1
  O  O24  1  0.95561357  0.38773241  0.65694014  1
  O  O25  1  0.45560404  0.61223246  0.34309220  1
  O  O26  1  0.04442070  0.88830432  0.84353187  1
  O  O27  1  0.54440959  0.11158015  0.15637538  1
  O  O28  1  0.25000079  0.30458502  0.47649395  1
  O  O29  1  0.74999924  0.69561295  0.52346515  1
  O  O30  1  0.74999895  0.80410834  0.02337588  1
  O  O31  1  0.25000086  0.19608597  0.97669055  1
  O  O32  1  0.75000004  0.11671020  0.94398341  1
  O  O33  1  0.25000026  0.88333662  0.05593526  1
  O  O34  1  0.24999973  0.61837207  0.55555034  1
  O  O35  1  0.75000002  0.38126946  0.44467417  1
  O  O36  1  0.75000152  0.19965691  0.76317974  1
  O  O37  1  0.25000031  0.80043485  0.23695907  1
  O  O38  1  0.24999992  0.69844264  0.73759767  1
  O  O39  1  0.75000029  0.30207381  0.26193585  1
  O  O40  1  0.42749207  0.12531130  0.35535468  1
  O  O41  1  0.92762635  0.87435904  0.64480452  1
  O  O42  1  0.57267075  0.62505621  0.14414560  1
  O  O43  1  0.07247312  0.37486432  0.85578478  1
  O  O44  1  0.57237171  0.87435958  0.64480428  1
  O  O45  1  0.07251125  0.12531139  0.35535441  1
  O  O46  1  0.42752986  0.37486306  0.85578497  1
  O  O47  1  0.92732804  0.62505732  0.14414571  1
  O  O48  1  0.75000035  0.45422814  0.01881377  1
  O  O49  1  0.24999971  0.04936097  0.72742059  1
  O  O50  1  0.24999958  0.44990735  0.22672603  1
  O  O51  1  0.75000032  0.55003954  0.77339103  1
  O  O52  1  0.75000017  0.04476607  0.51999888  1
  O  O53  1  0.25000102  0.95505036  0.48034232  1
  O  O54  1  0.25000087  0.54558928  0.98098135  1
  O  O55  1  0.75000082  0.95089053  0.27242862  1
