# generated using pymatgen
data_Cs2CuH8(SeO6)2
_symmetry_space_group_name_H-M   'P 1'
_cell_length_a   7.67957405
_cell_length_b   8.29116021
_cell_length_c   12.09529492
_cell_angle_alpha   90.00000000
_cell_angle_beta   108.48430348
_cell_angle_gamma   90.00000000
_symmetry_Int_Tables_number   1
_chemical_formula_structural   Cs2CuH8(SeO6)2
_chemical_formula_sum   'Cs4 Cu2 H16 Se4 O24'
_cell_volume   730.40758862
_cell_formula_units_Z   2
loop_
 _symmetry_equiv_pos_site_id
 _symmetry_equiv_pos_as_xyz
  1  'x, y, z'
loop_
 _atom_site_type_symbol
 _atom_site_label
 _atom_site_symmetry_multiplicity
 _atom_site_fract_x
 _atom_site_fract_y
 _atom_site_fract_z
 _atom_site_occupancy
  Cs  Cs0  1  0.45616054  0.89534777  0.73929130  1
  Cs  Cs1  1  0.95616054  0.60465223  0.23929130  1
  Cs  Cs2  1  0.54383946  0.10465223  0.26070870  1
  Cs  Cs3  1  0.04383946  0.39534777  0.76070870  1
  Cu  Cu4  1  0.50000000  0.50000000  0.50000000  1
  Cu  Cu5  1  0.00000000  0.00000000  0.00000000  1
  H  H6  1  0.53935954  0.44542593  0.71538693  1
  H  H7  1  0.03935954  0.05457407  0.21538693  1
  H  H8  1  0.46064046  0.55457407  0.28461307  1
  H  H9  1  0.96064046  0.94542593  0.78461307  1
  H  H10  1  0.37198729  0.34278369  0.62549174  1
  H  H11  1  0.87198729  0.15721631  0.12549174  1
  H  H12  1  0.62801271  0.65721631  0.37450826  1
  H  H13  1  0.12801271  0.84278369  0.87450826  1
  H  H14  1  0.25749908  0.85261220  0.43483932  1
  H  H15  1  0.75749908  0.64738780  0.93483932  1
  H  H16  1  0.74250092  0.14738780  0.56516068  1
  H  H17  1  0.24250092  0.35261220  0.06516068  1
  H  H18  1  0.18496026  0.73211710  0.51125651  1
  H  H19  1  0.68496026  0.76788290  0.01125651  1
  H  H20  1  0.81503974  0.26788290  0.48874349  1
  H  H21  1  0.31503974  0.23211710  0.98874349  1
  Se  Se22  1  0.67147168  0.28101985  0.93131923  1
  Se  Se23  1  0.17147168  0.21898015  0.43131923  1
  Se  Se24  1  0.32852832  0.71898015  0.06868077  1
  Se  Se25  1  0.82852832  0.78101985  0.56868077  1
  O  O26  1  0.45298174  0.22060317  0.88896389  1
  O  O27  1  0.95298174  0.27939683  0.38896389  1
  O  O28  1  0.54701826  0.77939683  0.11103611  1
  O  O29  1  0.04701826  0.72060317  0.61103611  1
  O  O30  1  0.24942128  0.68530507  0.92516203  1
  O  O31  1  0.74942128  0.81469493  0.42516203  1
  O  O32  1  0.75057872  0.31469493  0.07483797  1
  O  O33  1  0.25057872  0.18530507  0.57483797  1
  O  O34  1  0.80162847  0.94648709  0.64242728  1
  O  O35  1  0.30162847  0.55351291  0.14242728  1
  O  O36  1  0.19837153  0.05351291  0.35757272  1
  O  O37  1  0.69837153  0.44648709  0.85757272  1
  O  O38  1  0.70341410  0.63200660  0.60438312  1
  O  O39  1  0.20341410  0.86799340  0.10438312  1
  O  O40  1  0.29658590  0.36799340  0.39561688  1
  O  O41  1  0.79658590  0.13200660  0.89561688  1
  O  O42  1  0.43407051  0.45220324  0.64112823  1
  O  O43  1  0.93407051  0.04779676  0.14112823  1
  O  O44  1  0.56592949  0.54779676  0.35887177  1
  O  O45  1  0.06592949  0.95220324  0.85887177  1
  O  O46  1  0.27138154  0.74153651  0.46615455  1
  O  O47  1  0.77138154  0.75846349  0.96615455  1
  O  O48  1  0.72861846  0.25846349  0.53384545  1
  O  O49  1  0.22861846  0.24153651  0.03384545  1
