# generated using pymatgen
data_ZrMnGe2
_symmetry_space_group_name_H-M   'P 1'
_cell_length_a   8.13850180
_cell_length_b   9.33406862
_cell_length_c   10.20230347
_cell_angle_alpha   90.00000000
_cell_angle_beta   90.00000000
_cell_angle_gamma   90.00000000
_symmetry_Int_Tables_number   1
_chemical_formula_structural   ZrMnGe2
_chemical_formula_sum   'Zr12 Mn12 Ge24'
_cell_volume   775.02139337
_cell_formula_units_Z   12
loop_
 _symmetry_equiv_pos_site_id
 _symmetry_equiv_pos_as_xyz
  1  'x, y, z'
loop_
 _atom_site_type_symbol
 _atom_site_label
 _atom_site_symmetry_multiplicity
 _atom_site_fract_x
 _atom_site_fract_y
 _atom_site_fract_z
 _atom_site_occupancy
  Zr  Zr0  1  0.74615501  0.82829108  0.04700298  1
  Zr  Zr1  1  0.74615501  0.17170892  0.95299702  1
  Zr  Zr2  1  0.25384499  0.67170892  0.54700298  1
  Zr  Zr3  1  0.25384499  0.32829108  0.45299702  1
  Zr  Zr4  1  0.25384499  0.17170892  0.95299702  1
  Zr  Zr5  1  0.25384499  0.82829108  0.04700298  1
  Zr  Zr6  1  0.74615501  0.32829108  0.45299702  1
  Zr  Zr7  1  0.74615501  0.67170892  0.54700298  1
  Zr  Zr8  1  0.50000000  0.83552403  0.32082433  1
  Zr  Zr9  1  0.50000000  0.16447597  0.67917567  1
  Zr  Zr10  1  0.50000000  0.66447597  0.82082433  1
  Zr  Zr11  1  0.50000000  0.33552403  0.17917567  1
  Mn  Mn12  1  0.75041534  0.58782949  0.24771351  1
  Mn  Mn13  1  0.75041534  0.41217051  0.75228649  1
  Mn  Mn14  1  0.24958466  0.91217051  0.74771351  1
  Mn  Mn15  1  0.24958466  0.08782949  0.25228649  1
  Mn  Mn16  1  0.24958466  0.41217051  0.75228649  1
  Mn  Mn17  1  0.24958466  0.58782949  0.24771351  1
  Mn  Mn18  1  0.75041534  0.08782949  0.25228649  1
  Mn  Mn19  1  0.75041534  0.91217051  0.74771351  1
  Mn  Mn20  1  0.74594950  0.00000000  0.50000000  1
  Mn  Mn21  1  0.25405050  0.50000000  -0.00000000  1
  Mn  Mn22  1  0.25405050  0.00000000  0.50000000  1
  Mn  Mn23  1  0.74594950  0.50000000  -0.00000000  1
  Ge  Ge24  1  0.84270610  0.83837387  0.31820375  1
  Ge  Ge25  1  0.84270610  0.16162613  0.68179625  1
  Ge  Ge26  1  0.15729390  0.66162613  0.81820375  1
  Ge  Ge27  1  0.15729390  0.33837387  0.18179625  1
  Ge  Ge28  1  0.15729390  0.16162613  0.68179625  1
  Ge  Ge29  1  0.15729390  0.83837387  0.31820375  1
  Ge  Ge30  1  0.84270610  0.33837387  0.18179625  1
  Ge  Ge31  1  0.84270610  0.66162613  0.81820375  1
  Ge  Ge32  1  0.50000000  0.54155108  0.37937498  1
  Ge  Ge33  1  0.50000000  0.45844892  0.62062502  1
  Ge  Ge34  1  0.50000000  0.95844892  0.87937498  1
  Ge  Ge35  1  0.50000000  0.04155108  0.12062502  1
  Ge  Ge36  1  0.00000000  0.55148251  0.38040745  1
  Ge  Ge37  1  0.00000000  0.44851749  0.61959255  1
  Ge  Ge38  1  0.00000000  0.94851749  0.88040745  1
  Ge  Ge39  1  0.00000000  0.05148251  0.11959255  1
  Ge  Ge40  1  0.50000000  0.63003016  0.10286963  1
  Ge  Ge41  1  0.50000000  0.36996984  0.89713037  1
  Ge  Ge42  1  0.50000000  0.86996984  0.60286963  1
  Ge  Ge43  1  0.50000000  0.13003016  0.39713037  1
  Ge  Ge44  1  0.00000000  0.62383622  0.09906445  1
  Ge  Ge45  1  0.00000000  0.37616378  0.90093555  1
  Ge  Ge46  1  0.00000000  0.87616378  0.59906445  1
  Ge  Ge47  1  0.00000000  0.12383622  0.40093555  1
