# generated using pymatgen
data_AgSbS(OF3)2
_symmetry_space_group_name_H-M   'P 1'
_cell_length_a   7.83621444
_cell_length_b   8.40833832
_cell_length_c   11.40313317
_cell_angle_alpha   90.00000000
_cell_angle_beta   90.85353870
_cell_angle_gamma   90.00000000
_symmetry_Int_Tables_number   1
_chemical_formula_structural   AgSbS(OF3)2
_chemical_formula_sum   'Ag4 Sb4 S4 O8 F24'
_cell_volume   751.26385539
_cell_formula_units_Z   4
loop_
 _symmetry_equiv_pos_site_id
 _symmetry_equiv_pos_as_xyz
  1  'x, y, z'
loop_
 _atom_site_type_symbol
 _atom_site_label
 _atom_site_symmetry_multiplicity
 _atom_site_fract_x
 _atom_site_fract_y
 _atom_site_fract_z
 _atom_site_occupancy
  Ag  Ag0  1  0.75758960  0.26056460  0.46675607  1
  Ag  Ag1  1  0.25758960  0.23943540  0.96675607  1
  Ag  Ag2  1  0.24241040  0.73943540  0.53324393  1
  Ag  Ag3  1  0.74241040  0.76056460  0.03324393  1
  Sb  Sb4  1  0.25584909  0.23974589  0.62352591  1
  Sb  Sb5  1  0.75584909  0.26025411  0.12352591  1
  Sb  Sb6  1  0.74415091  0.76025411  0.37647409  1
  Sb  Sb7  1  0.24415091  0.73974589  0.87647409  1
  S  S8  1  0.77258003  0.43027834  0.77298943  1
  S  S9  1  0.27258003  0.06972166  0.27298943  1
  S  S10  1  0.22741997  0.56972166  0.22701057  1
  S  S11  1  0.72741997  0.93027834  0.72701057  1
  O  O12  1  0.77553950  0.45753539  0.64729496  1
  O  O13  1  0.27553950  0.04246461  0.14729496  1
  O  O14  1  0.22446050  0.54246461  0.35270504  1
  O  O15  1  0.72446050  0.95753539  0.85270504  1
  O  O16  1  0.76739395  0.57141215  0.84636296  1
  O  O17  1  0.26739395  0.92858785  0.34636296  1
  O  O18  1  0.23260605  0.42858785  0.15363704  1
  O  O19  1  0.73260605  0.07141215  0.65363704  1
  F  F20  1  0.42743168  0.27524455  0.50726340  1
  F  F21  1  0.92743168  0.22475545  0.00726340  1
  F  F22  1  0.57256832  0.72475545  0.49273660  1
  F  F23  1  0.07256832  0.77524455  0.99273660  1
  F  F24  1  0.09116743  0.20457837  0.74410158  1
  F  F25  1  0.59116743  0.29542163  0.24410158  1
  F  F26  1  0.90883257  0.79542163  0.25589842  1
  F  F27  1  0.40883257  0.70457837  0.75589842  1
  F  F28  1  0.19606473  0.46141130  0.61733087  1
  F  F29  1  0.69606473  0.03858870  0.11733087  1
  F  F30  1  0.80393527  0.53858870  0.38266913  1
  F  F31  1  0.30393527  0.96141130  0.88266913  1
  F  F32  1  0.42085882  0.27920421  0.74669401  1
  F  F33  1  0.92085882  0.22079579  0.24669401  1
  F  F34  1  0.57914118  0.72079579  0.25330599  1
  F  F35  1  0.07914118  0.77920421  0.75330599  1
  F  F36  1  0.31470779  0.01735420  0.62160582  1
  F  F37  1  0.81470779  0.48264580  0.12160582  1
  F  F38  1  0.68529221  0.98264580  0.37839418  1
  F  F39  1  0.18529221  0.51735420  0.87839418  1
  F  F40  1  0.08272573  0.19870349  0.50545687  1
  F  F41  1  0.58272573  0.30129651  0.00545687  1
  F  F42  1  0.91727427  0.80129651  0.49454313  1
  F  F43  1  0.41727427  0.69870349  0.99454313  1
