# generated using pymatgen
data_Sr2V2Se3O13
_symmetry_space_group_name_H-M   'P 1'
_cell_length_a   8.57845173
_cell_length_b   9.93660322
_cell_length_c   15.06162653
_cell_angle_alpha   90.00000000
_cell_angle_beta   96.90517064
_cell_angle_gamma   90.00000000
_symmetry_Int_Tables_number   1
_chemical_formula_structural   Sr2V2Se3O13
_chemical_formula_sum   'Sr8 V8 Se12 O52'
_cell_volume   1274.55064582
_cell_formula_units_Z   4
loop_
 _symmetry_equiv_pos_site_id
 _symmetry_equiv_pos_as_xyz
  1  'x, y, z'
loop_
 _atom_site_type_symbol
 _atom_site_label
 _atom_site_symmetry_multiplicity
 _atom_site_fract_x
 _atom_site_fract_y
 _atom_site_fract_z
 _atom_site_occupancy
  Sr  Sr0  1  0.35651822  0.18267946  0.95890101  1
  Sr  Sr1  1  0.14348178  0.68267946  0.04109899  1
  Sr  Sr2  1  0.64348178  0.81732054  0.04109899  1
  Sr  Sr3  1  0.85651822  0.31732054  0.95890101  1
  Sr  Sr4  1  0.40577922  0.27976399  0.64648187  1
  Sr  Sr5  1  0.09422078  0.77976399  0.35351813  1
  Sr  Sr6  1  0.59422078  0.72023601  0.35351813  1
  Sr  Sr7  1  0.90577922  0.22023601  0.64648187  1
  V  V8  1  0.45879851  0.50771112  0.86564595  1
  V  V9  1  0.04120149  0.00771112  0.13435405  1
  V  V10  1  0.54120149  0.49228888  0.13435405  1
  V  V11  1  0.95879851  0.99228888  0.86564595  1
  V  V12  1  0.40413566  0.05284330  0.41644710  1
  V  V13  1  0.09586434  0.55284330  0.58355290  1
  V  V14  1  0.59586434  0.94715670  0.58355290  1
  V  V15  1  0.90413566  0.44715670  0.41644710  1
  Se  Se16  1  0.40307043  0.95750281  0.21139229  1
  Se  Se17  1  0.09692957  0.45750281  0.78860771  1
  Se  Se18  1  0.59692957  0.04249719  0.78860771  1
  Se  Se19  1  0.90307043  0.54249719  0.21139229  1
  Se  Se20  1  0.20294193  0.95777650  0.58081412  1
  Se  Se21  1  0.29705807  0.45777650  0.41918588  1
  Se  Se22  1  0.79705807  0.04222350  0.41918588  1
  Se  Se23  1  0.70294193  0.54222350  0.58081412  1
  Se  Se24  1  0.29101781  0.82417176  0.85405757  1
  Se  Se25  1  0.20898219  0.32417176  0.14594243  1
  Se  Se26  1  0.70898219  0.17582824  0.14594243  1
  Se  Se27  1  0.79101781  0.67582824  0.85405757  1
  O  O28  1  0.49098682  0.48136131  0.76097125  1
  O  O29  1  0.00901318  0.98136131  0.23902875  1
  O  O30  1  0.50901318  0.51863869  0.23902875  1
  O  O31  1  0.99098682  0.01863869  0.76097125  1
  O  O32  1  0.56278161  0.39310439  0.93190104  1
  O  O33  1  0.93721839  0.89310439  0.06809896  1
  O  O34  1  0.43721839  0.60689561  0.06809896  1
  O  O35  1  0.06278161  0.10689561  0.93190104  1
  O  O36  1  0.10455805  0.83864201  0.89180315  1
  O  O37  1  0.39544195  0.33864201  0.10819685  1
  O  O38  1  0.89544195  0.16135799  0.10819685  1
  O  O39  1  0.60455805  0.66135799  0.89180315  1
  O  O40  1  0.23802104  0.90120313  0.13573725  1
  O  O41  1  0.26197896  0.40120313  0.86426275  1
  O  O42  1  0.76197896  0.09879687  0.86426275  1
  O  O43  1  0.73802104  0.59879687  0.13573725  1
  O  O44  1  0.30465118  0.65674089  0.88932426  1
  O  O45  1  0.19534882  0.15674089  0.11067574  1
  O  O46  1  0.69534882  0.34325911  0.11067574  1
  O  O47  1  0.80465118  0.84325911  0.88932426  1
  O  O48  1  0.31046819  0.16568659  0.34999923  1
  O  O49  1  0.18953181  0.66568659  0.65000077  1
  O  O50  1  0.68953181  0.83431341  0.65000077  1
  O  O51  1  0.81046819  0.33431341  0.34999923  1
  O  O52  1  0.46755620  0.13176338  0.51537568  1
  O  O53  1  0.03244380  0.63176338  0.48462432  1
  O  O54  1  0.53244380  0.86823662  0.48462432  1
  O  O55  1  0.96755620  0.36823662  0.51537568  1
  O  O56  1  0.39474437  0.94590608  0.63534840  1
  O  O57  1  0.10525563  0.44590608  0.36465160  1
  O  O58  1  0.60525563  0.05409392  0.36465160  1
  O  O59  1  0.89474437  0.55409392  0.63534840  1
  O  O60  1  0.22750158  0.95705410  0.46497214  1
  O  O61  1  0.27249842  0.45705410  0.53502786  1
  O  O62  1  0.77249842  0.04294590  0.53502786  1
  O  O63  1  0.72750158  0.54294590  0.46497214  1
  O  O64  1  0.35357378  0.89339254  0.31250282  1
  O  O65  1  0.14642622  0.39339254  0.68749718  1
  O  O66  1  0.64642622  0.10660746  0.68749718  1
  O  O67  1  0.85357378  0.60660746  0.31250282  1
  O  O68  1  0.54022774  0.84260423  0.19057364  1
  O  O69  1  0.95977226  0.34260423  0.80942636  1
  O  O70  1  0.45977226  0.15739577  0.80942636  1
  O  O71  1  0.04022774  0.65739577  0.19057364  1
  O  O72  1  0.40245752  0.90998360  0.93694226  1
  O  O73  1  0.09754248  0.40998360  0.06305774  1
  O  O74  1  0.59754248  0.09001640  0.06305774  1
  O  O75  1  0.90245752  0.59001640  0.93694226  1
  O  O76  1  0.16395082  0.12073881  0.60198221  1
  O  O77  1  0.33604918  0.62073881  0.39801779  1
  O  O78  1  0.83604918  0.87926119  0.39801779  1
  O  O79  1  0.66395082  0.37926119  0.60198221  1
