# generated using pymatgen
data_Dy2ZrS5
_symmetry_space_group_name_H-M   'P 1'
_cell_length_a   7.25767913
_cell_length_b   7.76742072
_cell_length_c   11.58261409
_cell_angle_alpha   90.00000000
_cell_angle_beta   90.00000000
_cell_angle_gamma   90.00000000
_symmetry_Int_Tables_number   1
_chemical_formula_structural   Dy2ZrS5
_chemical_formula_sum   'Dy8 Zr4 S20'
_cell_volume   652.95188446
_cell_formula_units_Z   4
loop_
 _symmetry_equiv_pos_site_id
 _symmetry_equiv_pos_as_xyz
  1  'x, y, z'
loop_
 _atom_site_type_symbol
 _atom_site_label
 _atom_site_symmetry_multiplicity
 _atom_site_fract_x
 _atom_site_fract_y
 _atom_site_fract_z
 _atom_site_occupancy
  Dy  Dy0  1  0.97841559  0.00244963  0.17896627  1
  Dy  Dy1  1  0.52158441  0.49755037  0.67896627  1
  Dy  Dy2  1  0.02158441  0.50244963  0.82103373  1
  Dy  Dy3  1  0.47841559  0.99755037  0.32103373  1
  Dy  Dy4  1  0.02158441  0.99755037  0.82103373  1
  Dy  Dy5  1  0.47841559  0.50244963  0.32103373  1
  Dy  Dy6  1  0.97841559  0.49755037  0.17896627  1
  Dy  Dy7  1  0.52158441  0.00244963  0.67896627  1
  Zr  Zr8  1  0.42066835  0.75000000  0.00699806  1
  Zr  Zr9  1  0.07933165  0.75000000  0.50699806  1
  Zr  Zr10  1  0.57933165  0.25000000  0.99300194  1
  Zr  Zr11  1  0.92066835  0.25000000  0.49300194  1
  S  S12  1  0.66058723  0.53787660  0.90528107  1
  S  S13  1  0.83941277  0.96212340  0.40528107  1
  S  S14  1  0.33941277  0.03787660  0.09471893  1
  S  S15  1  0.16058723  0.46212340  0.59471893  1
  S  S16  1  0.33941277  0.46212340  0.09471893  1
  S  S17  1  0.16058723  0.03787660  0.59471893  1
  S  S18  1  0.66058723  0.96212340  0.90528107  1
  S  S19  1  0.83941277  0.53787660  0.40528107  1
  S  S20  1  0.66868353  0.75000000  0.18257845  1
  S  S21  1  0.83131647  0.75000000  0.68257845  1
  S  S22  1  0.33131647  0.25000000  0.81742155  1
  S  S23  1  0.16868353  0.25000000  0.31742155  1
  S  S24  1  0.04946884  0.75000000  0.00259509  1
  S  S25  1  0.45053116  0.75000000  0.50259509  1
  S  S26  1  0.95053116  0.25000000  0.99740491  1
  S  S27  1  0.54946884  0.25000000  0.49740491  1
  S  S28  1  0.30817932  0.75000000  0.79112745  1
  S  S29  1  0.19182068  0.75000000  0.29112745  1
  S  S30  1  0.69182068  0.25000000  0.20887255  1
  S  S31  1  0.80817932  0.25000000  0.70887255  1
