# generated using pymatgen
data_GdCo5P3
_symmetry_space_group_name_H-M   'P 1'
_cell_length_a   3.65231680
_cell_length_b   10.30404566
_cell_length_c   11.73597081
_cell_angle_alpha   90.00000000
_cell_angle_beta   90.00000000
_cell_angle_gamma   90.00000000
_symmetry_Int_Tables_number   1
_chemical_formula_structural   GdCo5P3
_chemical_formula_sum   'Gd4 Co20 P12'
_cell_volume   441.66728962
_cell_formula_units_Z   4
loop_
 _symmetry_equiv_pos_site_id
 _symmetry_equiv_pos_as_xyz
  1  'x, y, z'
loop_
 _atom_site_type_symbol
 _atom_site_label
 _atom_site_symmetry_multiplicity
 _atom_site_fract_x
 _atom_site_fract_y
 _atom_site_fract_z
 _atom_site_occupancy
  Gd  Gd0  1  0.25000000  0.58307858  0.70273513  1
  Gd  Gd1  1  0.25000000  0.91692142  0.20273513  1
  Gd  Gd2  1  0.75000000  0.41692142  0.29726487  1
  Gd  Gd3  1  0.75000000  0.08307858  0.79726487  1
  Co  Co4  1  0.25000000  0.71565500  0.99072656  1
  Co  Co5  1  0.25000000  0.78434500  0.49072656  1
  Co  Co6  1  0.75000000  0.28434500  0.00927344  1
  Co  Co7  1  0.75000000  0.21565500  0.50927344  1
  Co  Co8  1  0.25000000  0.40634153  0.48814691  1
  Co  Co9  1  0.25000000  0.09365847  0.98814691  1
  Co  Co10  1  0.75000000  0.59365847  0.51185309  1
  Co  Co11  1  0.75000000  0.90634153  0.01185309  1
  Co  Co12  1  0.25000000  0.22086071  0.17572964  1
  Co  Co13  1  0.25000000  0.27913929  0.67572964  1
  Co  Co14  1  0.75000000  0.77913929  0.82427036  1
  Co  Co15  1  0.75000000  0.72086071  0.32427036  1
  Co  Co16  1  0.25000000  0.88222406  0.69773873  1
  Co  Co17  1  0.25000000  0.61777594  0.19773873  1
  Co  Co18  1  0.75000000  0.11777594  0.30226127  1
  Co  Co19  1  0.75000000  0.38222406  0.80226127  1
  Co  Co20  1  0.25000000  0.46774649  0.93229102  1
  Co  Co21  1  0.25000000  0.03225351  0.43229102  1
  Co  Co22  1  0.75000000  0.53225351  0.06770898  1
  Co  Co23  1  0.75000000  0.96774649  0.56770898  1
  P  P24  1  0.25000000  0.41844160  0.11155497  1
  P  P25  1  0.25000000  0.08155840  0.61155497  1
  P  P26  1  0.75000000  0.58155840  0.88844503  1
  P  P27  1  0.75000000  0.91844160  0.38844503  1
  P  P28  1  0.25000000  0.27165621  0.86991639  1
  P  P29  1  0.25000000  0.22834379  0.36991639  1
  P  P30  1  0.75000000  0.72834379  0.13008361  1
  P  P31  1  0.75000000  0.77165621  0.63008361  1
  P  P32  1  0.25000000  0.60273092  0.39146208  1
  P  P33  1  0.25000000  0.89726908  0.89146208  1
  P  P34  1  0.75000000  0.39726908  0.60853792  1
  P  P35  1  0.75000000  0.10273092  0.10853792  1
