# generated using pymatgen
data_Be17Os3
_symmetry_space_group_name_H-M   'P 1'
_cell_length_a   9.82073050
_cell_length_b   9.82073050
_cell_length_c   9.82073050
_cell_angle_alpha   109.47122063
_cell_angle_beta   109.47122063
_cell_angle_gamma   109.47122063
_symmetry_Int_Tables_number   1
_chemical_formula_structural   Be17Os3
_chemical_formula_sum   'Be68 Os12'
_cell_volume   729.13759210
_cell_formula_units_Z   4
loop_
 _symmetry_equiv_pos_site_id
 _symmetry_equiv_pos_as_xyz
  1  'x, y, z'
loop_
 _atom_site_type_symbol
 _atom_site_label
 _atom_site_symmetry_multiplicity
 _atom_site_fract_x
 _atom_site_fract_y
 _atom_site_fract_z
 _atom_site_occupancy
  Be  Be0  1  0.59679625  0.00000000  0.59679625  1
  Be  Be1  1  0.40320375  -0.00000000  0.40320375  1
  Be  Be2  1  -0.00000000  0.59679625  0.59679625  1
  Be  Be3  1  -0.00000000  0.40320375  0.40320375  1
  Be  Be4  1  0.59679625  0.59679625  -0.00000000  1
  Be  Be5  1  0.40320375  0.40320375  -0.00000000  1
  Be  Be6  1  0.30412852  0.50000000  0.80412852  1
  Be  Be7  1  0.69587148  0.50000000  0.19587148  1
  Be  Be8  1  0.50000000  0.80412852  0.30412852  1
  Be  Be9  1  0.50000000  0.19587148  0.69587148  1
  Be  Be10  1  0.80412852  0.30412852  0.50000000  1
  Be  Be11  1  0.19587148  0.69587148  0.50000000  1
  Be  Be12  1  -0.00000000  -0.00000000  0.67192218  1
  Be  Be13  1  0.67192218  0.00000000  0.00000000  1
  Be  Be14  1  -0.00000000  0.67192218  -0.00000000  1
  Be  Be15  1  0.32807782  0.32807782  0.32807782  1
  Be  Be16  1  -0.00000000  0.00000000  0.32807782  1
  Be  Be17  1  0.32807782  0.00000000  -0.00000000  1
  Be  Be18  1  0.00000000  0.32807782  0.00000000  1
  Be  Be19  1  0.67192218  0.67192218  0.67192218  1
  Be  Be20  1  0.09316377  0.86067283  0.76750906  1
  Be  Be21  1  0.90683623  0.13932717  0.23249094  1
  Be  Be22  1  0.90683623  0.67434529  0.76750906  1
  Be  Be23  1  0.09316377  0.32565471  0.23249094  1
  Be  Be24  1  0.86067283  0.76750906  0.09316377  1
  Be  Be25  1  0.13932717  0.23249094  0.90683623  1
  Be  Be26  1  0.67434529  0.76750906  0.90683623  1
  Be  Be27  1  0.32565471  0.23249094  0.09316377  1
  Be  Be28  1  0.76750906  0.09316377  0.86067283  1
  Be  Be29  1  0.23249094  0.90683623  0.13932717  1
  Be  Be30  1  0.76750906  0.90683623  0.67434529  1
  Be  Be31  1  0.23249094  0.09316377  0.32565471  1
  Be  Be32  1  0.34962647  0.94512562  0.59549914  1
  Be  Be33  1  0.65037353  0.05487438  0.40450086  1
  Be  Be34  1  0.65037353  0.24587267  0.59549914  1
  Be  Be35  1  0.34962647  0.75412733  0.40450086  1
  Be  Be36  1  0.94512562  0.59549914  0.34962647  1
  Be  Be37  1  0.05487438  0.40450086  0.65037353  1
  Be  Be38  1  0.24587267  0.59549914  0.65037353  1
  Be  Be39  1  0.75412733  0.40450086  0.34962647  1
  Be  Be40  1  0.59549914  0.34962647  0.94512562  1
  Be  Be41  1  0.40450086  0.65037353  0.05487438  1
  Be  Be42  1  0.59549914  0.65037353  0.24587267  1
  Be  Be43  1  0.40450086  0.34962647  0.75412733  1
  Be  Be44  1  0.14012749  0.22706380  0.68497559  1
  Be  Be45  1  0.45791179  0.77293620  0.91306368  1
  Be  Be46  1  0.85987251  0.54484810  0.08693632  1
  Be  Be47  1  0.54208821  0.45515190  0.31502441  1
  Be  Be48  1  0.22706380  0.68497559  0.14012749  1
  Be  Be49  1  0.77293620  0.91306368  0.45791179  1
  Be  Be50  1  0.54484810  0.08693632  0.85987251  1
  Be  Be51  1  0.45515190  0.31502441  0.54208821  1
  Be  Be52  1  0.68497559  0.14012749  0.22706380  1
  Be  Be53  1  0.91306368  0.45791179  0.77293620  1
  Be  Be54  1  0.08693632  0.85987251  0.54484810  1
  Be  Be55  1  0.31502441  0.54208821  0.45515190  1
  Be  Be56  1  0.85987251  0.77293620  0.31502441  1
  Be  Be57  1  0.54208821  0.22706380  0.08693632  1
  Be  Be58  1  0.14012749  0.45515190  0.91306368  1
  Be  Be59  1  0.45791179  0.54484810  0.68497559  1
  Be  Be60  1  0.77293620  0.31502441  0.85987251  1
  Be  Be61  1  0.22706380  0.08693632  0.54208821  1
  Be  Be62  1  0.45515190  0.91306368  0.14012749  1
  Be  Be63  1  0.54484810  0.68497559  0.45791179  1
  Be  Be64  1  0.31502441  0.85987251  0.77293620  1
  Be  Be65  1  0.08693632  0.54208821  0.22706380  1
  Be  Be66  1  0.91306368  0.14012749  0.45515190  1
  Be  Be67  1  0.68497559  0.45791179  0.54484810  1
  Os  Os68  1  0.30092336  0.11278092  0.81185756  1
  Os  Os69  1  0.69907664  0.88721908  0.18814244  1
  Os  Os70  1  0.69907664  0.51093420  0.81185756  1
  Os  Os71  1  0.30092336  0.48906580  0.18814244  1
  Os  Os72  1  0.11278092  0.81185756  0.30092336  1
  Os  Os73  1  0.88721908  0.18814244  0.69907664  1
  Os  Os74  1  0.51093420  0.81185756  0.69907664  1
  Os  Os75  1  0.48906580  0.18814244  0.30092336  1
  Os  Os76  1  0.81185756  0.30092336  0.11278092  1
  Os  Os77  1  0.18814244  0.69907664  0.88721908  1
  Os  Os78  1  0.81185756  0.69907664  0.51093420  1
  Os  Os79  1  0.18814244  0.30092336  0.48906580  1
