# generated using pymatgen
data_SmB7(HO2)8
_symmetry_space_group_name_H-M   'P 1'
_cell_length_a   6.87583480
_cell_length_b   7.26349207
_cell_length_c   12.86852091
_cell_angle_alpha   94.83058036
_cell_angle_beta   98.24185354
_cell_angle_gamma   102.18413314
_symmetry_Int_Tables_number   1
_chemical_formula_structural   SmB7(HO2)8
_chemical_formula_sum   'Sm2 B14 H16 O32'
_cell_volume   617.35419504
_cell_formula_units_Z   2
loop_
 _symmetry_equiv_pos_site_id
 _symmetry_equiv_pos_as_xyz
  1  'x, y, z'
loop_
 _atom_site_type_symbol
 _atom_site_label
 _atom_site_symmetry_multiplicity
 _atom_site_fract_x
 _atom_site_fract_y
 _atom_site_fract_z
 _atom_site_occupancy
  Sm  Sm0  1  0.77969621  0.76330872  0.54476764  1
  Sm  Sm1  1  0.22030379  0.23669128  0.45523236  1
  B  B2  1  0.68308618  0.69800677  0.30052961  1
  B  B3  1  0.31691382  0.30199323  0.69947039  1
  B  B4  1  0.65571439  0.38435560  0.62935158  1
  B  B5  1  0.34428561  0.61564440  0.37064842  1
  B  B6  1  0.93180591  0.17851401  0.63383182  1
  B  B7  1  0.06819409  0.82148599  0.36616818  1
  B  B8  1  0.26259304  0.75914169  0.53913545  1
  B  B9  1  0.73740696  0.24085831  0.46086455  1
  B  B10  1  0.57641331  0.60573788  0.76595634  1
  B  B11  1  0.42358669  0.39426212  0.23404366  1
  B  B12  1  0.88376252  0.97914968  0.23218209  1
  B  B13  1  0.11623748  0.02085032  0.76781791  1
  B  B14  1  0.71190402  0.33972583  0.98057784  1
  B  B15  1  0.28809598  0.66027417  0.01942216  1
  H  H16  1  0.12248519  0.58433599  0.63727034  1
  H  H17  1  0.87751481  0.41566401  0.36272966  1
  H  H18  1  0.79111305  0.27248318  0.76783515  1
  H  H19  1  0.20888695  0.72751682  0.23216485  1
  H  H20  1  0.47722078  0.98171603  0.62409922  1
  H  H21  1  0.52277922  0.01828397  0.37590078  1
  H  H22  1  0.04248808  0.15758524  0.15405157  1
  H  H23  1  0.95751192  0.84241476  0.84594843  1
  H  H24  1  0.60123726  0.76209873  0.90540211  1
  H  H25  1  0.39876274  0.23790127  0.09459789  1
  H  H26  1  0.73450399  0.47721994  0.12621279  1
  H  H27  1  0.26549601  0.52278006  0.87378721  1
  H  H28  1  0.43921112  0.18324341  0.90983365  1
  H  H29  1  0.56078888  0.81675659  0.09016635  1
  H  H30  1  0.95358619  0.40347515  0.91185324  1
  H  H31  1  0.04641381  0.59652485  0.08814676  1
  O  O32  1  0.54849233  0.72704373  0.37788794  1
  O  O33  1  0.45150767  0.27295627  0.62211206  1
  O  O34  1  0.70657692  0.84934727  0.23087286  1
  O  O35  1  0.29342308  0.15065273  0.76912714  1
  O  O36  1  0.82429049  0.10621608  0.52646399  1
  O  O37  1  0.17570951  0.89378392  0.47353601  1
  O  O38  1  0.68412067  0.57697119  0.68413139  1
  O  O39  1  0.31587933  0.42302881  0.31586861  1
  O  O40  1  0.71560722  0.40955296  0.52733456  1
  O  O41  1  0.28439278  0.59044704  0.47266544  1
  O  O42  1  0.60547409  0.51436646  0.23180441  1
  O  O43  1  0.39452591  0.48563354  0.76819559  1
  O  O44  1  0.11268130  0.70389710  0.60877327  1
  O  O45  1  0.88731870  0.29610290  0.39122673  1
  O  O46  1  0.94948091  0.01274012  0.68870203  1
  O  O47  1  0.05051909  0.98725988  0.31129797  1
  O  O48  1  0.80158097  0.28446360  0.69093453  1
  O  O49  1  0.19841903  0.71553640  0.30906547  1
  O  O50  1  0.46799686  0.85010831  0.59575627  1
  O  O51  1  0.53200314  0.14989169  0.40424373  1
  O  O52  1  0.87461440  0.69754792  0.37038544  1
  O  O53  1  0.12538560  0.30245208  0.62961456  1
  O  O54  1  0.90132955  0.09201251  0.15352100  1
  O  O55  1  0.09867045  0.90798749  0.84647900  1
  O  O56  1  0.66996534  0.75039053  0.84342000  1
  O  O57  1  0.33003466  0.24960947  0.15658000  1
  O  O58  1  0.81366077  0.46278515  0.06822944  1
  O  O59  1  0.18633923  0.53721485  0.93177056  1
  O  O60  1  0.51589872  0.24479700  0.97922258  1
  O  O61  1  0.48410128  0.75520300  0.02077742  1
  O  O62  1  0.81265751  0.32145411  0.89591301  1
  O  O63  1  0.18734249  0.67854589  0.10408699  1
