# generated using pymatgen
data_MgH18Br2O9
_symmetry_space_group_name_H-M   'P 1'
_cell_length_a   6.52246831
_cell_length_b   6.86002292
_cell_length_c   16.15618538
_cell_angle_alpha   92.40963268
_cell_angle_beta   90.00000000
_cell_angle_gamma   118.38520021
_symmetry_Int_Tables_number   1
_chemical_formula_structural   MgH18Br2O9
_chemical_formula_sum   'Mg2 H36 Br4 O18'
_cell_volume   635.25738246
_cell_formula_units_Z   2
loop_
 _symmetry_equiv_pos_site_id
 _symmetry_equiv_pos_as_xyz
  1  'x, y, z'
loop_
 _atom_site_type_symbol
 _atom_site_label
 _atom_site_symmetry_multiplicity
 _atom_site_fract_x
 _atom_site_fract_y
 _atom_site_fract_z
 _atom_site_occupancy
  Mg  Mg0  1  0.50000000  -0.00000000  -0.00000000  1
  Mg  Mg1  1  0.50000000  -0.00000000  0.50000000  1
  H  H2  1  0.72521932  0.44994568  0.95717402  1
  H  H3  1  0.27527364  0.55005432  0.54282598  1
  H  H4  1  0.27478068  0.55005432  0.04282598  1
  H  H5  1  0.72472636  0.44994568  0.45717402  1
  H  H6  1  0.72832866  0.43723790  0.05511846  1
  H  H7  1  0.29109076  0.56276210  0.44488154  1
  H  H8  1  0.27167134  0.56276210  0.94488154  1
  H  H9  1  0.70890924  0.43723790  0.55511846  1
  H  H10  1  0.82493123  0.61615778  0.82538443  1
  H  H11  1  0.20877344  0.38384222  0.67461557  1
  H  H12  1  0.17506877  0.38384222  0.17461557  1
  H  H13  1  0.79122656  0.61615778  0.32538443  1
  H  H14  1  0.52548268  0.97185554  0.83132333  1
  H  H15  1  0.55362713  0.02814446  0.66867667  1
  H  H16  1  0.47451732  0.02814446  0.16867667  1
  H  H17  1  0.44637287  0.97185554  0.33132333  1
  H  H18  1  0.06872641  0.86446606  0.92646196  1
  H  H19  1  0.20426034  0.13553394  0.57353804  1
  H  H20  1  0.93127359  0.13553394  0.07353804  1
  H  H21  1  0.79573966  0.86446606  0.42646196  1
  H  H22  1  0.78743401  0.09291866  0.86480875  1
  H  H23  1  0.69451535  0.90708134  0.63519125  1
  H  H24  1  0.21256599  0.90708134  0.13519125  1
  H  H25  1  0.30548465  0.09291866  0.36480875  1
  H  H26  1  0.33017666  0.12251708  0.76681626  1
  H  H27  1  0.20765958  0.87748292  0.73318374  1
  H  H28  1  0.66982334  0.87748292  0.23318374  1
  H  H29  1  0.79234042  0.12251708  0.26681626  1
  H  H30  1  0.21491665  0.12235896  0.91738129  1
  H  H31  1  0.09255769  0.87764104  0.58261871  1
  H  H32  1  0.78508335  0.87764104  0.08261871  1
  H  H33  1  0.90744231  0.12235896  0.41738129  1
  H  H34  1  0.71226068  0.72688700  0.88172189  1
  H  H35  1  0.98537368  0.27311300  0.61827811  1
  H  H36  1  0.28773932  0.27311300  0.11827811  1
  H  H37  1  0.01462632  0.72688700  0.38172189  1
  Br  Br38  1  0.83322109  0.65555254  0.17786368  1
  Br  Br39  1  0.17766855  0.34444746  0.32213632  1
  Br  Br40  1  0.16677891  0.34444746  0.82213632  1
  Br  Br41  1  0.82233145  0.65555254  0.67786368  1
  O  O42  1  0.21125284  0.99904611  0.94775923  1
  O  O43  1  0.21220673  0.00095389  0.55224077  1
  O  O44  1  0.78874716  0.00095389  0.05224077  1
  O  O45  1  0.78779327  0.99904611  0.44775923  1
  O  O46  1  0.67970017  0.34554202  0.00276848  1
  O  O47  1  0.33415815  0.65445798  0.49723152  1
  O  O48  1  0.32029983  0.65445798  0.99723152  1
  O  O49  1  0.66584185  0.34554202  0.50276848  1
  O  O50  1  0.62818859  0.97898722  0.87856880  1
  O  O51  1  0.64920137  0.02101278  0.62143120  1
  O  O52  1  0.37181141  0.02101278  0.12143120  1
  O  O53  1  0.35079863  0.97898722  0.37856880  1
  O  O54  1  0.81063244  0.65399306  0.88409791  1
  O  O55  1  0.15663938  0.34600694  0.61590209  1
  O  O56  1  0.18936756  0.34600694  0.11590209  1
  O  O57  1  0.84336062  0.65399306  0.38409791  1
  O  O58  1  0.36360601  -0.00000000  0.75000000  1
  O  O59  1  0.63639399  -0.00000000  0.25000000  1
