# generated using pymatgen
data_FeH8N3O13
_symmetry_space_group_name_H-M   'P 1'
_cell_length_a   7.28204496
_cell_length_b   9.74294350
_cell_length_c   15.35902322
_cell_angle_alpha   90.00000000
_cell_angle_beta   90.00000000
_cell_angle_gamma   95.33826446
_symmetry_Int_Tables_number   1
_chemical_formula_structural   FeH8N3O13
_chemical_formula_sum   'Fe4 H32 N12 O52'
_cell_volume   1084.97420435
_cell_formula_units_Z   4
loop_
 _symmetry_equiv_pos_site_id
 _symmetry_equiv_pos_as_xyz
  1  'x, y, z'
loop_
 _atom_site_type_symbol
 _atom_site_label
 _atom_site_symmetry_multiplicity
 _atom_site_fract_x
 _atom_site_fract_y
 _atom_site_fract_z
 _atom_site_occupancy
  Fe  Fe0  1  0.82859904  0.72120096  0.09591294  1
  Fe  Fe1  1  0.32859904  0.22120096  0.40408706  1
  Fe  Fe2  1  0.17140096  0.27879904  0.90408706  1
  Fe  Fe3  1  0.67140096  0.77879904  0.59591294  1
  H  H4  1  0.94639493  0.82320602  0.25518500  1
  H  H5  1  0.44639493  0.32320602  0.24481500  1
  H  H6  1  0.05360507  0.17679398  0.74481500  1
  H  H7  1  0.55360507  0.67679398  0.75518500  1
  H  H8  1  0.00570025  0.93565110  0.17808714  1
  H  H9  1  0.50570025  0.43565110  0.32191286  1
  H  H10  1  0.99429975  0.06434890  0.82191286  1
  H  H11  1  0.49429975  0.56434890  0.67808714  1
  H  H12  1  0.70474909  0.49297851  0.00260010  1
  H  H13  1  0.20474909  0.99297851  0.49739990  1
  H  H14  1  0.29525091  0.50702149  0.99739990  1
  H  H15  1  0.79525091  0.00702149  0.50260010  1
  H  H16  1  0.63859889  0.62699841  0.95065111  1
  H  H17  1  0.13859889  0.12699841  0.54934889  1
  H  H18  1  0.36140111  0.37300159  0.04934889  1
  H  H19  1  0.86140111  0.87300159  0.45065111  1
  H  H20  1  0.94968770  0.86799026  0.95399901  1
  H  H21  1  0.44968770  0.36799026  0.54600099  1
  H  H22  1  0.05031230  0.13200974  0.04600099  1
  H  H23  1  0.55031230  0.63200974  0.45399901  1
  H  H24  1  0.11388399  0.78862650  0.99188681  1
  H  H25  1  0.61388399  0.28862650  0.50811319  1
  H  H26  1  0.88611601  0.21137350  0.00811319  1
  H  H27  1  0.38611601  0.71137350  0.49188681  1
  H  H28  1  0.96946764  0.84004253  0.81337991  1
  H  H29  1  0.46946764  0.34004253  0.68662009  1
  H  H30  1  0.03053236  0.15995747  0.18662009  1
  H  H31  1  0.53053236  0.65995747  0.31337991  1
  H  H32  1  0.77532380  0.89078974  0.83350926  1
  H  H33  1  0.27532380  0.39078974  0.66649074  1
  H  H34  1  0.22467620  0.10921026  0.16649074  1
  H  H35  1  0.72467620  0.60921026  0.33350926  1
  N  N36  1  0.52212515  0.82852323  0.11582341  1
  N  N37  1  0.02212515  0.32852323  0.38417659  1
  N  N38  1  0.47787485  0.17147677  0.88417659  1
  N  N39  1  0.97787485  0.67147677  0.61582341  1
  N  N40  1  0.37688420  0.74229017  0.88457916  1
  N  N41  1  0.87688420  0.24229017  0.61542084  1
  N  N42  1  0.62311580  0.25770983  0.11542084  1
  N  N43  1  0.12311580  0.75770983  0.38457916  1
  N  N44  1  0.99724681  0.51935694  0.15697267  1
  N  N45  1  0.49724681  0.01935694  0.34302733  1
  N  N46  1  0.00275319  0.48064306  0.84302733  1
  N  N47  1  0.50275319  0.98064306  0.65697267  1
  O  O48  1  0.93844237  0.84362520  0.19170032  1
  O  O49  1  0.43844237  0.34362520  0.30829968  1
  O  O50  1  0.06155763  0.15637480  0.80829968  1
  O  O51  1  0.56155763  0.65637480  0.69170032  1
  O  O52  1  0.99906565  0.83036327  0.00894731  1
  O  O53  1  0.49906565  0.33036327  0.49105269  1
  O  O54  1  0.00093435  0.16963673  0.99105269  1
  O  O55  1  0.50093435  0.66963673  0.50894731  1
  O  O56  1  0.70317468  0.59385009  0.00350967  1
  O  O57  1  0.20317468  0.09385009  0.49649033  1
  O  O58  1  0.29682532  0.40614991  0.99649033  1
  O  O59  1  0.79682532  0.90614991  0.50350967  1
  O  O60  1  0.90643078  0.90599429  0.84806120  1
  O  O61  1  0.40643078  0.40599429  0.65193880  1
  O  O62  1  0.09356922  0.09400571  0.15193880  1
  O  O63  1  0.59356922  0.59400571  0.34806120  1
  O  O64  1  0.06468727  0.59881506  0.09549881  1
  O  O65  1  0.56468727  0.09881506  0.40450119  1
  O  O66  1  0.93531273  0.40118494  0.90450119  1
  O  O67  1  0.43531273  0.90118494  0.59549881  1
  O  O68  1  0.83606379  0.55015722  0.18366034  1
  O  O69  1  0.33606379  0.05015722  0.31633966  1
  O  O70  1  0.16393621  0.44984278  0.81633966  1
  O  O71  1  0.66393621  0.94984278  0.68366034  1
  O  O72  1  0.07483797  0.42462439  0.18670465  1
  O  O73  1  0.57483797  0.92462439  0.31329535  1
  O  O74  1  0.92516203  0.57537561  0.81329535  1
  O  O75  1  0.42516203  0.07537561  0.68670465  1
  O  O76  1  0.64739315  0.87065299  0.05904614  1
  O  O77  1  0.14739315  0.37065299  0.44095386  1
  O  O78  1  0.35260685  0.12934701  0.94095386  1
  O  O79  1  0.85260685  0.62934701  0.55904614  1
  O  O80  1  0.56394940  0.72262750  0.16010651  1
  O  O81  1  0.06394940  0.22262750  0.33989349  1
  O  O82  1  0.43605060  0.27737250  0.83989349  1
  O  O83  1  0.93605060  0.77737250  0.66010651  1
  O  O84  1  0.38033713  0.88323282  0.12594899  1
  O  O85  1  0.88033713  0.38323282  0.37405101  1
  O  O86  1  0.61966287  0.11676718  0.87405101  1
  O  O87  1  0.11966287  0.61676718  0.62594899  1
  O  O88  1  0.30121176  0.70025741  0.95592556  1
  O  O89  1  0.80121176  0.20025741  0.54407444  1
  O  O90  1  0.69878824  0.29974259  0.04407444  1
  O  O91  1  0.19878824  0.79974259  0.45592556  1
  O  O92  1  0.53791961  0.70221639  0.86628769  1
  O  O93  1  0.03791961  0.20221639  0.63371231  1
  O  O94  1  0.46208039  0.29778361  0.13371231  1
  O  O95  1  0.96208039  0.79778361  0.36628769  1
  O  O96  1  0.30229713  0.81819480  0.83362821  1
  O  O97  1  0.80229713  0.31819480  0.66637179  1
  O  O98  1  0.69770287  0.18180520  0.16637179  1
  O  O99  1  0.19770287  0.68180520  0.33362821  1
