# generated using pymatgen
data_Cs3Ag(AsSe2)4
_symmetry_space_group_name_H-M   'P 1'
_cell_length_a   8.95264510
_cell_length_b   13.65517147
_cell_length_c   21.17107161
_cell_angle_alpha   80.26498239
_cell_angle_beta   77.79349421
_cell_angle_gamma   70.86400494
_symmetry_Int_Tables_number   1
_chemical_formula_structural   Cs3Ag(AsSe2)4
_chemical_formula_sum   'Cs12 Ag4 As16 Se32'
_cell_volume   2375.87355839
_cell_formula_units_Z   4
loop_
 _symmetry_equiv_pos_site_id
 _symmetry_equiv_pos_as_xyz
  1  'x, y, z'
loop_
 _atom_site_type_symbol
 _atom_site_label
 _atom_site_symmetry_multiplicity
 _atom_site_fract_x
 _atom_site_fract_y
 _atom_site_fract_z
 _atom_site_occupancy
  Cs  Cs0  1  -0.00000000  0.50000000  -0.00000000  1
  Cs  Cs1  1  0.50000000  -0.00000000  0.50000000  1
  Cs  Cs2  1  0.44610287  0.66437598  0.72986060  1
  Cs  Cs3  1  0.84033945  0.83562402  0.77013940  1
  Cs  Cs4  1  0.55389713  0.33562402  0.27013940  1
  Cs  Cs5  1  0.15966055  0.16437598  0.22986060  1
  Cs  Cs6  1  0.74893410  0.85360220  0.00545126  1
  Cs  Cs7  1  0.60798756  0.64639780  0.49454874  1
  Cs  Cs8  1  0.25106590  0.14639780  0.99454874  1
  Cs  Cs9  1  0.39201244  0.35360220  0.50545126  1
  Cs  Cs10  1  0.71132898  0.25000000  0.75000000  1
  Cs  Cs11  1  0.28867102  0.75000000  0.25000000  1
  Ag  Ag12  1  0.41072782  0.58139585  0.91207376  1
  Ag  Ag13  1  0.90419744  0.91860415  0.58792624  1
  Ag  Ag14  1  0.58927218  0.41860415  0.08792624  1
  Ag  Ag15  1  0.09580256  0.08139585  0.41207376  1
  As  As16  1  0.03888295  0.65409488  0.61646324  1
  As  As17  1  0.30944108  0.84590512  0.88353676  1
  As  As18  1  0.96111705  0.34590512  0.38353676  1
  As  As19  1  0.69055892  0.15409488  0.11646324  1
  As  As20  1  0.82104821  0.48767100  0.81799409  1
  As  As21  1  0.12671331  0.01232900  0.68200591  1
  As  As22  1  0.17895179  0.51232900  0.18200591  1
  As  As23  1  0.87328669  0.98767100  0.31799409  1
  As  As24  1  0.63450995  0.34543102  0.96803983  1
  As  As25  1  0.94798080  0.15456898  0.53196017  1
  As  As26  1  0.36549005  0.65456898  0.03196017  1
  As  As27  1  0.05201920  0.84543102  0.46803983  1
  As  As28  1  0.19917010  0.39741701  0.70073382  1
  As  As29  1  0.29732093  0.10258299  0.79926618  1
  As  As30  1  0.80082990  0.60258299  0.29926618  1
  As  As31  1  0.70267907  0.89741701  0.20073382  1
  Se  Se32  1  0.01043737  0.47952672  0.62231679  1
  Se  Se33  1  0.11228089  0.02047328  0.87768321  1
  Se  Se34  1  0.98956263  0.52047328  0.37768321  1
  Se  Se35  1  0.88771911  0.97952672  0.12231679  1
  Se  Se36  1  0.15115222  0.73472070  0.88296351  1
  Se  Se37  1  0.76883643  0.76527930  0.61703649  1
  Se  Se38  1  0.84884778  0.26527930  0.11703649  1
  Se  Se39  1  0.23116357  0.23472070  0.38296351  1
  Se  Se40  1  0.16045438  0.65727736  0.50009052  1
  Se  Se41  1  0.31782226  0.84272264  0.99990948  1
  Se  Se42  1  0.83954562  0.34272264  0.49990948  1
  Se  Se43  1  0.68217774  0.15727736  0.00009052  1
  Se  Se44  1  0.43532960  0.38847644  0.90120648  1
  Se  Se45  1  0.72501252  0.11152356  0.59879352  1
  Se  Se46  1  0.56467040  0.61152356  0.09879352  1
  Se  Se47  1  0.27498748  0.88847644  0.40120648  1
  Se  Se48  1  0.89619623  0.32349312  0.89161834  1
  Se  Se49  1  0.11130769  0.17650688  0.60838166  1
  Se  Se50  1  0.10380377  0.67650688  0.10838166  1
  Se  Se51  1  0.88869231  0.82349312  0.39161834  1
  Se  Se52  1  0.69107171  0.62774345  0.88288638  1
  Se  Se53  1  0.20170155  0.87225655  0.61711362  1
  Se  Se54  1  0.30892829  0.37225655  0.11711362  1
  Se  Se55  1  0.79829845  0.12774345  0.38288638  1
  Se  Se56  1  0.08413882  0.51514469  0.78906692  1
  Se  Se57  1  0.38835044  0.98485531  0.71093308  1
  Se  Se58  1  0.91586118  0.48485531  0.21093308  1
  Se  Se59  1  0.61164956  0.01514469  0.28906692  1
  Se  Se60  1  0.42805056  0.44711243  0.65371943  1
  Se  Se61  1  0.52888243  0.05288757  0.84628057  1
  Se  Se62  1  0.57194944  0.55288757  0.34628057  1
  Se  Se63  1  0.47111757  0.94711243  0.15371943  1
