# generated using pymatgen
data_SmCo3P2
_symmetry_space_group_name_H-M   'P 1'
_cell_length_a   3.74557193
_cell_length_b   10.61547132
_cell_length_c   12.29569646
_cell_angle_alpha   90.00000000
_cell_angle_beta   90.00000000
_cell_angle_gamma   90.00000000
_symmetry_Int_Tables_number   1
_chemical_formula_structural   SmCo3P2
_chemical_formula_sum   'Sm6 Co18 P12'
_cell_volume   488.88932712
_cell_formula_units_Z   6
loop_
 _symmetry_equiv_pos_site_id
 _symmetry_equiv_pos_as_xyz
  1  'x, y, z'
loop_
 _atom_site_type_symbol
 _atom_site_label
 _atom_site_symmetry_multiplicity
 _atom_site_fract_x
 _atom_site_fract_y
 _atom_site_fract_z
 _atom_site_occupancy
  Sm  Sm0  1  0.75000000  0.25000000  0.47642394  1
  Sm  Sm1  1  0.25000000  0.75000000  0.52357606  1
  Sm  Sm2  1  0.25000000  0.93371253  0.79441046  1
  Sm  Sm3  1  0.25000000  0.56628747  0.79441046  1
  Sm  Sm4  1  0.75000000  0.06628747  0.20558954  1
  Sm  Sm5  1  0.75000000  0.43371253  0.20558954  1
  Co  Co6  1  0.25000000  0.25000000  0.84155062  1
  Co  Co7  1  0.75000000  0.75000000  0.15844938  1
  Co  Co8  1  0.25000000  0.25000000  0.29675155  1
  Co  Co9  1  0.75000000  0.75000000  0.70324845  1
  Co  Co10  1  0.75000000  0.25000000  0.01364007  1
  Co  Co11  1  0.25000000  0.75000000  0.98635993  1
  Co  Co12  1  0.25000000  0.41645881  0.00562280  1
  Co  Co13  1  0.25000000  0.08354119  0.00562280  1
  Co  Co14  1  0.75000000  0.58354119  0.99437720  1
  Co  Co15  1  0.75000000  0.91645881  0.99437720  1
  Co  Co16  1  0.25000000  0.45400458  0.56872861  1
  Co  Co17  1  0.25000000  0.04599542  0.56872861  1
  Co  Co18  1  0.75000000  0.54599542  0.43127139  1
  Co  Co19  1  0.75000000  0.95400458  0.43127139  1
  Co  Co20  1  0.25000000  0.86947571  0.29172600  1
  Co  Co21  1  0.25000000  0.63052429  0.29172600  1
  Co  Co22  1  0.75000000  0.13052429  0.70827400  1
  Co  Co23  1  0.75000000  0.36947571  0.70827400  1
  P  P24  1  0.25000000  0.25000000  0.11574842  1
  P  P25  1  0.75000000  0.75000000  0.88425158  1
  P  P26  1  0.25000000  0.25000000  0.65687720  1
  P  P27  1  0.75000000  0.75000000  0.34312280  1
  P  P28  1  0.25000000  0.44201225  0.38535343  1
  P  P29  1  0.25000000  0.05798775  0.38535343  1
  P  P30  1  0.75000000  0.55798775  0.61464657  1
  P  P31  1  0.75000000  0.94201225  0.61464657  1
  P  P32  1  0.25000000  0.90034303  0.10545827  1
  P  P33  1  0.25000000  0.59965697  0.10545827  1
  P  P34  1  0.75000000  0.09965697  0.89454173  1
  P  P35  1  0.75000000  0.40034303  0.89454173  1
