# generated using pymatgen
data_Pr2H8S3O16
_symmetry_space_group_name_H-M   'P 1'
_cell_length_a   7.31732201
_cell_length_b   13.37125200
_cell_length_c   13.49572608
_cell_angle_alpha   94.28435552
_cell_angle_beta   90.00000000
_cell_angle_gamma   90.00000000
_symmetry_Int_Tables_number   1
_chemical_formula_structural   Pr2H8S3O16
_chemical_formula_sum   'Pr8 H32 S12 O64'
_cell_volume   1316.75565123
_cell_formula_units_Z   4
loop_
 _symmetry_equiv_pos_site_id
 _symmetry_equiv_pos_as_xyz
  1  'x, y, z'
loop_
 _atom_site_type_symbol
 _atom_site_label
 _atom_site_symmetry_multiplicity
 _atom_site_fract_x
 _atom_site_fract_y
 _atom_site_fract_z
 _atom_site_occupancy
  Pr  Pr0  1  0.25758014  0.08629418  0.03369818  1
  Pr  Pr1  1  0.24241986  0.58629418  0.53369818  1
  Pr  Pr2  1  0.74241986  0.91370582  0.96630182  1
  Pr  Pr3  1  0.75758014  0.41370582  0.46630182  1
  Pr  Pr4  1  0.25740743  0.07665629  0.65590716  1
  Pr  Pr5  1  0.24259257  0.57665629  0.15590716  1
  Pr  Pr6  1  0.74259257  0.92334371  0.34409284  1
  Pr  Pr7  1  0.75740743  0.42334371  0.84409284  1
  H  H8  1  0.09919990  0.21343004  0.85375594  1
  H  H9  1  0.40080010  0.71343004  0.35375594  1
  H  H10  1  0.90080010  0.78656996  0.14624406  1
  H  H11  1  0.59919990  0.28656996  0.64624406  1
  H  H12  1  0.98399409  0.11565324  0.85480839  1
  H  H13  1  0.51600591  0.61565324  0.35480839  1
  H  H14  1  0.01600591  0.88434676  0.14519161  1
  H  H15  1  0.48399409  0.38434676  0.64519161  1
  H  H16  1  0.08473711  0.19650703  0.49416360  1
  H  H17  1  0.41526289  0.69650703  0.99416360  1
  H  H18  1  0.91526289  0.80349297  0.50583640  1
  H  H19  1  0.58473711  0.30349297  0.00583640  1
  H  H20  1  0.24377612  0.13165991  0.44375926  1
  H  H21  1  0.25622388  0.63165991  0.94375926  1
  H  H22  1  0.75622388  0.86834009  0.55624074  1
  H  H23  1  0.74377612  0.36834009  0.05624074  1
  H  H24  1  0.24216366  0.21013364  0.24092451  1
  H  H25  1  0.25783634  0.71013364  0.74092451  1
  H  H26  1  0.75783634  0.78986636  0.75907549  1
  H  H27  1  0.74216366  0.28986636  0.25907549  1
  H  H28  1  0.36023118  0.11919905  0.26510772  1
  H  H29  1  0.13976882  0.61919905  0.76510772  1
  H  H30  1  0.63976882  0.88080095  0.73489228  1
  H  H31  1  0.86023118  0.38080095  0.23489228  1
  H  H32  1  0.83602659  0.04985437  0.70326020  1
  H  H33  1  0.66397341  0.54985437  0.20326020  1
  H  H34  1  0.16397341  0.95014563  0.29673980  1
  H  H35  1  0.33602659  0.45014563  0.79673980  1
  H  H36  1  0.85910400  0.06014038  0.58658490  1
  H  H37  1  0.64089600  0.56014038  0.08658490  1
  H  H38  1  0.14089600  0.93985962  0.41341510  1
  H  H39  1  0.35910400  0.43985962  0.91341510  1
  S  S40  1  0.24184171  0.90406735  0.86296864  1
  S  S41  1  0.25815829  0.40406735  0.36296864  1
  S  S42  1  0.75815829  0.09593265  0.13703136  1
  S  S43  1  0.74184171  0.59593265  0.63703136  1
  S  S44  1  0.39688980  0.86062249  0.53470401  1
  S  S45  1  0.10311020  0.36062249  0.03470401  1
  S  S46  1  0.60311020  0.13937751  0.46529599  1
  S  S47  1  0.89688980  0.63937751  0.96529599  1
  S  S48  1  0.38558370  0.84821976  0.14839043  1
  S  S49  1  0.11441630  0.34821976  0.64839043  1
  S  S50  1  0.61441630  0.15178024  0.85160957  1
  S  S51  1  0.88558370  0.65178024  0.35160957  1
  O  O52  1  0.26092109  0.79567191  0.86127359  1
  O  O53  1  0.23907891  0.29567191  0.36127359  1
  O  O54  1  0.73907891  0.20432809  0.13872641  1
  O  O55  1  0.76092109  0.70432809  0.63872641  1
  O  O56  1  0.21984304  0.93769602  0.76211009  1
  O  O57  1  0.28015696  0.43769602  0.26211009  1
  O  O58  1  0.78015696  0.06230398  0.23788991  1
  O  O59  1  0.71984304  0.56230398  0.73788991  1
  O  O60  1  0.08205992  0.94307341  0.92700703  1
  O  O61  1  0.41794008  0.44307341  0.42700703  1
  O  O62  1  0.91794008  0.05692659  0.07299297  1
  O  O63  1  0.58205992  0.55692659  0.57299297  1
  O  O64  1  0.40518700  0.95742335  0.91370943  1
  O  O65  1  0.09481300  0.45742335  0.41370943  1
  O  O66  1  0.59481300  0.04257665  0.08629057  1
  O  O67  1  0.90518700  0.54257665  0.58629057  1
  O  O68  1  0.48177511  0.84990728  0.43429593  1
  O  O69  1  0.01822489  0.34990728  0.93429593  1
  O  O70  1  0.51822489  0.15009272  0.56570407  1
  O  O71  1  0.98177511  0.65009272  0.06570407  1
  O  O72  1  0.33196204  0.76084987  0.56077920  1
  O  O73  1  0.16803796  0.26084987  0.06077920  1
  O  O74  1  0.66803796  0.23915013  0.43922080  1
  O  O75  1  0.83196204  0.73915013  0.93922080  1
  O  O76  1  0.52676787  0.90603024  0.61021035  1
  O  O77  1  0.97323213  0.40603024  0.11021035  1
  O  O78  1  0.47323213  0.09396976  0.38978965  1
  O  O79  1  0.02676787  0.59396976  0.88978965  1
  O  O80  1  0.23816862  0.93160329  0.53119200  1
  O  O81  1  0.26183138  0.43160329  0.03119200  1
  O  O82  1  0.76183138  0.06839671  0.46880800  1
  O  O83  1  0.73816862  0.56839671  0.96880800  1
  O  O84  1  0.49609226  0.88758398  0.23378496  1
  O  O85  1  0.00390774  0.38758398  0.73378496  1
  O  O86  1  0.50390774  0.11241602  0.76621504  1
  O  O87  1  0.99609226  0.61241602  0.26621504  1
  O  O88  1  0.99548662  0.32263235  0.56050359  1
  O  O89  1  0.50451338  0.82263235  0.06050359  1
  O  O90  1  0.00451338  0.67736765  0.43949641  1
  O  O91  1  0.49548662  0.17736765  0.93949641  1
  O  O92  1  0.28382989  0.75852647  0.17495055  1
  O  O93  1  0.21617011  0.25852647  0.67495055  1
  O  O94  1  0.71617011  0.24147353  0.82504945  1
  O  O95  1  0.78382989  0.74147353  0.32504945  1
  O  O96  1  0.24760715  0.92751728  0.12702044  1
  O  O97  1  0.25239285  0.42751728  0.62702044  1
  O  O98  1  0.75239285  0.07248272  0.87297956  1
  O  O99  1  0.74760715  0.57248272  0.37297956  1
  O  O100  1  0.11209221  0.13995087  0.85125963  1
  O  O101  1  0.38790779  0.63995087  0.35125963  1
  O  O102  1  0.88790779  0.86004913  0.14874037  1
  O  O103  1  0.61209221  0.36004913  0.64874037  1
  O  O104  1  0.14352658  0.13034851  0.49233389  1
  O  O105  1  0.35647342  0.63034851  0.99233389  1
  O  O106  1  0.85647342  0.86965149  0.50766611  1
  O  O107  1  0.64352658  0.36965149  0.00766611  1
  O  O108  1  0.28173437  0.14350696  0.21267546  1
  O  O109  1  0.21826563  0.64350696  0.71267546  1
  O  O110  1  0.71826563  0.85649304  0.78732454  1
  O  O111  1  0.78173437  0.35649304  0.28732454  1
  O  O112  1  0.92323515  0.06468699  0.65183467  1
  O  O113  1  0.57676485  0.56468699  0.15183467  1
  O  O114  1  0.07676485  0.93531301  0.34816533  1
  O  O115  1  0.42323515  0.43531301  0.84816533  1
