# generated using pymatgen
data_Yb2(SO4)3
_symmetry_space_group_name_H-M   'P 1'
_cell_length_a   13.44995714
_cell_length_b   13.44995714
_cell_length_c   13.44995714
_cell_angle_alpha   87.59211698
_cell_angle_beta   92.40788300
_cell_angle_gamma   92.40788302
_symmetry_Int_Tables_number   1
_chemical_formula_structural   Yb2(SO4)3
_chemical_formula_sum   'Yb16 S24 O96'
_cell_volume   2426.84567379
_cell_formula_units_Z   8
loop_
 _symmetry_equiv_pos_site_id
 _symmetry_equiv_pos_as_xyz
  1  'x, y, z'
loop_
 _atom_site_type_symbol
 _atom_site_label
 _atom_site_symmetry_multiplicity
 _atom_site_fract_x
 _atom_site_fract_y
 _atom_site_fract_z
 _atom_site_occupancy
  Yb  Yb0  1  0.35021737  0.64978263  0.64978263  1
  Yb  Yb1  1  0.85021737  0.14978263  0.14978263  1
  Yb  Yb2  1  0.86193832  0.65056941  0.13644234  1
  Yb  Yb3  1  0.86355766  0.13806168  0.65056941  1
  Yb  Yb4  1  0.34943059  0.13644234  0.13806168  1
  Yb  Yb5  1  0.36193832  0.63644234  0.15056941  1
  Yb  Yb6  1  0.84943059  0.63806168  0.63644234  1
  Yb  Yb7  1  0.36355766  0.15056941  0.63806168  1
  Yb  Yb8  1  0.63409035  0.36590965  0.36590965  1
  Yb  Yb9  1  0.13409035  0.86590965  0.86590965  1
  Yb  Yb10  1  0.15227963  0.36711814  0.85864992  1
  Yb  Yb11  1  0.14135008  0.84772037  0.36711814  1
  Yb  Yb12  1  0.63288186  0.85864992  0.84772037  1
  Yb  Yb13  1  0.65227963  0.35864992  0.86711814  1
  Yb  Yb14  1  0.13288186  0.34772037  0.35864992  1
  Yb  Yb15  1  0.64135008  0.86711814  0.34772037  1
  S  S16  1  0.38277680  0.89728555  0.76468303  1
  S  S17  1  0.23531697  0.61722320  0.89728555  1
  S  S18  1  0.10271445  0.76468303  0.61722320  1
  S  S19  1  0.88277680  0.26468303  0.39728555  1
  S  S20  1  0.60271445  0.11722320  0.26468303  1
  S  S21  1  0.73531697  0.39728555  0.11722320  1
  S  S22  1  0.89660494  0.89915457  0.24826952  1
  S  S23  1  0.75173048  0.10339506  0.89915457  1
  S  S24  1  0.10084543  0.24826952  0.10339506  1
  S  S25  1  0.39660494  0.74826952  0.39915457  1
  S  S26  1  0.60084543  0.60339506  0.74826952  1
  S  S27  1  0.25173048  0.39915457  0.60339506  1
  S  S28  1  0.89744900  0.39120042  0.75948167  1
  S  S29  1  0.24051833  0.10255100  0.39120042  1
  S  S30  1  0.60879958  0.75948167  0.10255100  1
  S  S31  1  0.39744900  0.25948167  0.89120042  1
  S  S32  1  0.10879958  0.60255100  0.25948167  1
  S  S33  1  0.74051833  0.89120042  0.60255100  1
  S  S34  1  0.38192887  0.37791402  0.25267619  1
  S  S35  1  0.74732381  0.61807113  0.37791402  1
  S  S36  1  0.62208598  0.25267619  0.61807113  1
  S  S37  1  0.88192887  0.75267619  0.87791402  1
  S  S38  1  0.12208598  0.11807113  0.75267619  1
  S  S39  1  0.24732381  0.87791402  0.11807113  1
  O  O40  1  0.38847903  0.80992948  0.70203448  1
  O  O41  1  0.29796552  0.61152097  0.80992948  1
  O  O42  1  0.19007052  0.70203448  0.61152097  1
  O  O43  1  0.88847903  0.20203448  0.30992948  1
  O  O44  1  0.69007052  0.11152097  0.20203448  1
  O  O45  1  0.79796552  0.30992948  0.11152097  1
  O  O46  1  0.89486311  0.81247904  0.18326446  1
  O  O47  1  0.81673554  0.10513689  0.81247904  1
  O  O48  1  0.18752096  0.18326446  0.10513689  1
  O  O49  1  0.39486311  0.68326446  0.31247904  1
  O  O50  1  0.68752096  0.60513689  0.68326446  1
  O  O51  1  0.31673554  0.31247904  0.60513689  1
  O  O52  1  0.89594429  0.29803531  0.70424804  1
  O  O53  1  0.29575196  0.10405571  0.29803531  1
  O  O54  1  0.70196469  0.70424804  0.10405571  1
  O  O55  1  0.39594429  0.20424804  0.79803531  1
  O  O56  1  0.20196469  0.60405571  0.20424804  1
  O  O57  1  0.79575196  0.79803531  0.60405571  1
  O  O58  1  0.37187494  0.29963322  0.17795311  1
  O  O59  1  0.82204689  0.62812506  0.29963322  1
  O  O60  1  0.70036678  0.17795311  0.62812506  1
  O  O61  1  0.87187494  0.67795311  0.79963322  1
  O  O62  1  0.20036678  0.12812506  0.67795311  1
  O  O63  1  0.32204689  0.79963322  0.12812506  1
  O  O64  1  0.62111447  0.20071313  0.33310810  1
  O  O65  1  0.66689190  0.37888553  0.20071313  1
  O  O66  1  0.79928687  0.33310810  0.37888553  1
  O  O67  1  0.12111447  0.83310810  0.70071313  1
  O  O68  1  0.29928687  0.87888553  0.83310810  1
  O  O69  1  0.16689190  0.70071313  0.87888553  1
  O  O70  1  0.12707484  0.20717573  0.81305722  1
  O  O71  1  0.18694278  0.87292516  0.20717573  1
  O  O72  1  0.79282427  0.81305722  0.87292516  1
  O  O73  1  0.62707484  0.31305722  0.70717573  1
  O  O74  1  0.29282427  0.37292516  0.31305722  1
  O  O75  1  0.68694278  0.70717573  0.37292516  1
  O  O76  1  0.11432152  0.68344019  0.33115904  1
  O  O77  1  0.66884096  0.88567848  0.68344019  1
  O  O78  1  0.31655981  0.33115904  0.88567848  1
  O  O79  1  0.61432152  0.83115904  0.18344019  1
  O  O80  1  0.81655981  0.38567848  0.83115904  1
  O  O81  1  0.16884096  0.18344019  0.38567848  1
  O  O82  1  0.60134099  0.69746291  0.80137249  1
  O  O83  1  0.19862751  0.39865901  0.69746291  1
  O  O84  1  0.30253709  0.80137249  0.39865901  1
  O  O85  1  0.10134099  0.30137249  0.19746291  1
  O  O86  1  0.80253709  0.89865901  0.30137249  1
  O  O87  1  0.69862751  0.19746291  0.89865901  1
  O  O88  1  0.31277314  0.49231236  0.59100372  1
  O  O89  1  0.40899628  0.68722686  0.49231236  1
  O  O90  1  0.50768764  0.59100372  0.68722686  1
  O  O91  1  0.81277314  0.09100372  0.99231236  1
  O  O92  1  0.00768764  0.18722686  0.09100372  1
  O  O93  1  0.90899628  0.99231236  0.18722686  1
  O  O94  1  0.79846746  0.48805138  0.13477351  1
  O  O95  1  0.86522649  0.20153254  0.48805138  1
  O  O96  1  0.51194862  0.13477351  0.20153254  1
  O  O97  1  0.29846746  0.63477351  0.98805138  1
  O  O98  1  0.01194862  0.70153254  0.63477351  1
  O  O99  1  0.36522649  0.98805138  0.70153254  1
  O  O100  1  0.81172898  0.97660506  0.61698419  1
  O  O101  1  0.38301581  0.18827102  0.97660506  1
  O  O102  1  0.02339494  0.61698419  0.18827102  1
  O  O103  1  0.31172898  0.11698419  0.47660506  1
  O  O104  1  0.52339494  0.68827102  0.11698419  1
  O  O105  1  0.88301581  0.47660506  0.68827102  1
  O  O106  1  0.29917070  0.97650654  0.10714086  1
  O  O107  1  0.89285914  0.70082930  0.97650654  1
  O  O108  1  0.02349346  0.10714086  0.70082930  1
  O  O109  1  0.79917070  0.60714086  0.47650654  1
  O  O110  1  0.52349346  0.20082930  0.60714086  1
  O  O111  1  0.39285914  0.47650654  0.20082930  1
  O  O112  1  0.68113476  0.52987540  0.35849773  1
  O  O113  1  0.64150227  0.31886524  0.52987540  1
  O  O114  1  0.47012460  0.35849773  0.31886524  1
  O  O115  1  0.18113476  0.85849773  0.02987540  1
  O  O116  1  0.97012460  0.81886524  0.85849773  1
  O  O117  1  0.14150227  0.02987540  0.81886524  1
  O  O118  1  0.17407834  0.52444612  0.91220692  1
  O  O119  1  0.08779308  0.82592166  0.52444612  1
  O  O120  1  0.47555388  0.91220692  0.82592166  1
  O  O121  1  0.67407834  0.41220692  0.02444612  1
  O  O122  1  0.97555388  0.32592166  0.41220692  1
  O  O123  1  0.58779308  0.02444612  0.32592166  1
  O  O124  1  0.18495866  0.00595419  0.40359846  1
  O  O125  1  0.59640154  0.81504134  0.00595419  1
  O  O126  1  0.99404581  0.40359846  0.81504134  1
  O  O127  1  0.68495866  0.90359846  0.50595419  1
  O  O128  1  0.49404581  0.31504134  0.90359846  1
  O  O129  1  0.09640154  0.50595419  0.31504134  1
  O  O130  1  0.67801317  0.01857948  0.89096205  1
  O  O131  1  0.10903795  0.32198683  0.01857948  1
  O  O132  1  0.98142052  0.89096205  0.32198683  1
  O  O133  1  0.17801317  0.39096205  0.51857948  1
  O  O134  1  0.48142052  0.82198683  0.39096205  1
  O  O135  1  0.60903795  0.51857948  0.82198683  1
