# generated using pymatgen
data_K4Np3H8Cl7O10
_symmetry_space_group_name_H-M   'P 1'
_cell_length_a   8.97646332
_cell_length_b   12.32408251
_cell_length_c   12.47059375
_cell_angle_alpha   66.19079744
_cell_angle_beta   70.23885139
_cell_angle_gamma   74.78958398
_symmetry_Int_Tables_number   1
_chemical_formula_structural   K4Np3H8Cl7O10
_chemical_formula_sum   'K8 Np6 H16 Cl14 O20'
_cell_volume   1175.07956708
_cell_formula_units_Z   2
loop_
 _symmetry_equiv_pos_site_id
 _symmetry_equiv_pos_as_xyz
  1  'x, y, z'
loop_
 _atom_site_type_symbol
 _atom_site_label
 _atom_site_symmetry_multiplicity
 _atom_site_fract_x
 _atom_site_fract_y
 _atom_site_fract_z
 _atom_site_occupancy
  K  K0  1  0.95185417  0.21653335  0.86944899  1
  K  K1  1  0.04814583  0.78346665  0.13055101  1
  K  K2  1  0.45037255  0.71573498  0.85983135  1
  K  K3  1  0.54962745  0.28426502  0.14016865  1
  K  K4  1  0.36033969  0.39660578  0.82559654  1
  K  K5  1  0.63966031  0.60339422  0.17440346  1
  K  K6  1  0.89325258  0.93850794  0.73909970  1
  K  K7  1  0.10674742  0.06149206  0.26090030  1
  Np  Np8  1  0.59500041  0.92930389  0.16992348  1
  Np  Np9  1  0.40499959  0.07069611  0.83007652  1
  Np  Np10  1  0.72740757  0.75609015  0.50711661  1
  Np  Np11  1  0.27259243  0.24390985  0.49288339  1
  Np  Np12  1  0.90195510  0.56928279  0.82855346  1
  Np  Np13  1  0.09804490  0.43071721  0.17144654  1
  H  H14  1  0.33092326  0.75040573  0.32296456  1
  H  H15  1  0.66907674  0.24959427  0.67703544  1
  H  H16  1  0.18283103  0.71425518  0.64963810  1
  H  H17  1  0.81716897  0.28574482  0.35036190  1
  H  H18  1  0.51707624  0.92512860  0.64361285  1
  H  H19  1  0.48292376  0.07487140  0.35638715  1
  H  H20  1  0.84737447  0.49125381  0.51588263  1
  H  H21  1  0.15262553  0.50874619  0.48411737  1
  H  H22  1  0.39119140  0.90982746  0.58820367  1
  H  H23  1  0.60880860  0.09017254  0.41179633  1
  H  H24  1  0.04753685  0.75523342  0.58355357  1
  H  H25  1  0.95246315  0.24476658  0.41644643  1
  H  H26  1  0.86089554  0.56117383  0.37622789  1
  H  H27  1  0.13910446  0.43882617  0.62377211  1
  H  H28  1  0.45033880  0.71443578  0.40236444  1
  H  H29  1  0.54966120  0.28556422  0.59763556  1
  Cl  Cl30  1  0.12669230  0.60399164  0.92667325  1
  Cl  Cl31  1  0.87330770  0.39600836  0.07332675  1
  Cl  Cl32  1  0.63564053  0.09979928  0.92536225  1
  Cl  Cl33  1  0.36435947  0.90020072  0.07463775  1
  Cl  Cl34  1  0.83909594  0.05106467  0.13907446  1
  Cl  Cl35  1  0.16090406  0.94893533  0.86092554  1
  Cl  Cl36  1  0.66398029  0.44027344  0.86555145  1
  Cl  Cl37  1  0.33601971  0.55972656  0.13444855  1
  Cl  Cl38  1  0.80555627  0.97266462  0.48521747  1
  Cl  Cl39  1  0.19444373  0.02733538  0.51478253  1
  Cl  Cl40  1  0.44453916  0.64460805  0.59446334  1
  Cl  Cl41  1  0.55546084  0.35539195  0.40553666  1
  Cl  Cl42  1  0.06741438  0.74294216  0.39597897  1
  Cl  Cl43  1  0.93258562  0.25705784  0.60402103  1
  O  O44  1  0.75592019  0.67516547  0.89574677  1
  O  O45  1  0.24407981  0.32483453  0.10425323  1
  O  O46  1  0.74250439  0.81947604  0.11004050  1
  O  O47  1  0.25749561  0.18052396  0.88995950  1
  O  O48  1  0.05350866  0.46079265  0.76308127  1
  O  O49  1  0.94649134  0.53920735  0.23691873  1
  O  O50  1  0.44631520  0.03922658  0.23117410  1
  O  O51  1  0.55368480  0.96077342  0.76882590  1
  O  O52  1  0.78409425  0.67759931  0.65441419  1
  O  O53  1  0.21590575  0.32240069  0.34558581  1
  O  O54  1  0.44472647  0.74629630  0.31663639  1
  O  O55  1  0.55527353  0.25370370  0.68336361  1
  O  O56  1  0.06494303  0.73489999  0.66392131  1
  O  O57  1  0.93505697  0.26510001  0.33607869  1
  O  O58  1  0.67512292  0.83058240  0.35782642  1
  O  O59  1  0.32487708  0.16941760  0.64217358  1
  O  O60  1  0.48877386  0.86920620  0.61750959  1
  O  O61  1  0.51122614  0.13079380  0.38249041  1
  O  O62  1  0.81775228  0.56973161  0.45774312  1
  O  O63  1  0.18224772  0.43026839  0.54225688  1
