# generated using pymatgen
data_TcAsH2(OF5)2
_symmetry_space_group_name_H-M   'P 1'
_cell_length_a   5.43383466
_cell_length_b   8.50716952
_cell_length_c   20.83620417
_cell_angle_alpha   90.00000000
_cell_angle_beta   91.16591142
_cell_angle_gamma   90.00000000
_symmetry_Int_Tables_number   1
_chemical_formula_structural   TcAsH2(OF5)2
_chemical_formula_sum   'Tc4 As4 H8 O8 F40'
_cell_volume   962.98647556
_cell_formula_units_Z   4
loop_
 _symmetry_equiv_pos_site_id
 _symmetry_equiv_pos_as_xyz
  1  'x, y, z'
loop_
 _atom_site_type_symbol
 _atom_site_label
 _atom_site_symmetry_multiplicity
 _atom_site_fract_x
 _atom_site_fract_y
 _atom_site_fract_z
 _atom_site_occupancy
  Tc  Tc0  1  0.41350100  0.08627414  0.64611054  1
  Tc  Tc1  1  0.58649900  0.58627414  0.85388946  1
  Tc  Tc2  1  0.58649900  0.91372586  0.35388946  1
  Tc  Tc3  1  0.41350100  0.41372586  0.14611054  1
  As  As4  1  0.68930284  0.66663844  0.63575071  1
  As  As5  1  0.31069716  0.16663844  0.86424929  1
  As  As6  1  0.31069716  0.33336156  0.36424929  1
  As  As7  1  0.68930284  0.83336156  0.13575071  1
  H  H8  1  0.70527027  0.23310323  0.54112815  1
  H  H9  1  0.29472973  0.73310323  0.95887185  1
  H  H10  1  0.29472973  0.76689677  0.45887185  1
  H  H11  1  0.70527027  0.26689677  0.04112815  1
  H  H12  1  0.96868885  0.31148699  0.48247167  1
  H  H13  1  0.03131115  0.81148699  0.01752833  1
  H  H14  1  0.03131115  0.68851301  0.51752833  1
  H  H15  1  0.96868885  0.18851301  0.98247167  1
  O  O16  1  0.30795392  0.26878675  0.65920767  1
  O  O17  1  0.69204608  0.76878675  0.84079233  1
  O  O18  1  0.69204608  0.73121325  0.34079233  1
  O  O19  1  0.30795392  0.23121325  0.15920767  1
  O  O20  1  0.32502619  0.98511996  0.71094781  1
  O  O21  1  0.67497381  0.48511996  0.78905219  1
  O  O22  1  0.67497381  0.01488004  0.28905219  1
  O  O23  1  0.32502619  0.51488004  0.21094781  1
  F  F24  1  0.74328161  0.11619458  0.66687522  1
  F  F25  1  0.25671839  0.61619458  0.83312478  1
  F  F26  1  0.25671839  0.88380542  0.33312478  1
  F  F27  1  0.74328161  0.38380542  0.16687522  1
  F  F28  1  0.18034065  0.01779493  0.58639528  1
  F  F29  1  0.81965935  0.51779493  0.91360472  1
  F  F30  1  0.81965935  0.98220507  0.41360472  1
  F  F31  1  0.18034065  0.48220507  0.08639528  1
  F  F32  1  0.55850309  0.16263218  0.55081104  1
  F  F33  1  0.44149691  0.66263218  0.94918896  1
  F  F34  1  0.44149691  0.83736782  0.44918896  1
  F  F35  1  0.55850309  0.33736782  0.05081104  1
  F  F36  1  0.90588109  0.32005190  0.52669160  1
  F  F37  1  0.09411891  0.82005190  0.97330840  1
  F  F38  1  0.09411891  0.67994810  0.47330840  1
  F  F39  1  0.90588109  0.17994810  0.02669160  1
  F  F40  1  0.43623330  0.65635709  0.68633648  1
  F  F41  1  0.56376670  0.15635709  0.81366352  1
  F  F42  1  0.56376670  0.34364291  0.31366352  1
  F  F43  1  0.43623330  0.84364291  0.18633648  1
  F  F44  1  0.51692718  0.58971309  0.57131392  1
  F  F45  1  0.48307282  0.08971309  0.92868608  1
  F  F46  1  0.48307282  0.41028691  0.42868608  1
  F  F47  1  0.51692718  0.91028691  0.07131392  1
  F  F48  1  0.80611883  0.48301245  0.65744439  1
  F  F49  1  0.19388117  0.98301245  0.84255561  1
  F  F50  1  0.19388117  0.51698755  0.34255561  1
  F  F51  1  0.80611883  0.01698755  0.15744439  1
  F  F52  1  0.85991930  0.76539364  0.69543110  1
  F  F53  1  0.14008070  0.26539364  0.80456890  1
  F  F54  1  0.14008070  0.23460636  0.30456890  1
  F  F55  1  0.85991930  0.73460636  0.19543110  1
  F  F56  1  0.94539914  0.69843874  0.58250543  1
  F  F57  1  0.05460086  0.19843874  0.91749457  1
  F  F58  1  0.05460086  0.30156126  0.41749457  1
  F  F59  1  0.94539914  0.80156126  0.08250543  1
  F  F60  1  0.58025845  0.86531881  0.60705904  1
  F  F61  1  0.41974155  0.36531881  0.89294096  1
  F  F62  1  0.41974155  0.13468119  0.39294096  1
  F  F63  1  0.58025845  0.63468119  0.10705904  1
