# generated using pymatgen
data_Ho10Mn13C18
_symmetry_space_group_name_H-M   'P 1'
_cell_length_a   8.69120187
_cell_length_b   8.69120187
_cell_length_c   8.69120187
_cell_angle_alpha   109.47122063
_cell_angle_beta   109.47122063
_cell_angle_gamma   109.47122063
_symmetry_Int_Tables_number   1
_chemical_formula_structural   Ho10Mn13C18
_chemical_formula_sum   'Ho10 Mn13 C18'
_cell_volume   505.37950019
_cell_formula_units_Z   1
loop_
 _symmetry_equiv_pos_site_id
 _symmetry_equiv_pos_as_xyz
  1  'x, y, z'
loop_
 _atom_site_type_symbol
 _atom_site_label
 _atom_site_symmetry_multiplicity
 _atom_site_fract_x
 _atom_site_fract_y
 _atom_site_fract_z
 _atom_site_occupancy
  Ho  Ho0  1  0.50000000  0.75000000  0.25000000  1
  Ho  Ho1  1  0.75000000  0.50000000  0.25000000  1
  Ho  Ho2  1  0.25000000  0.75000000  0.50000000  1
  Ho  Ho3  1  0.25000000  0.50000000  0.75000000  1
  Ho  Ho4  1  0.50000000  0.25000000  0.75000000  1
  Ho  Ho5  1  0.75000000  0.25000000  0.50000000  1
  Ho  Ho6  1  0.40869741  -0.00000000  0.00000000  1
  Ho  Ho7  1  0.00000000  0.40869741  -0.00000000  1
  Ho  Ho8  1  -0.00000000  0.00000000  0.40869741  1
  Ho  Ho9  1  0.59130259  0.59130259  0.59130259  1
  Mn  Mn10  1  0.00000000  -0.00000000  0.00000000  1
  Mn  Mn11  1  0.66648979  0.82025862  0.00000000  1
  Mn  Mn12  1  0.84623118  0.17974138  0.17974138  1
  Mn  Mn13  1  0.66648979  0.00000000  0.82025862  1
  Mn  Mn14  1  0.82025862  0.66648979  -0.00000000  1
  Mn  Mn15  1  0.00000000  0.66648979  0.82025862  1
  Mn  Mn16  1  0.17974138  0.84623118  0.17974138  1
  Mn  Mn17  1  0.17974138  0.17974138  0.84623118  1
  Mn  Mn18  1  0.00000000  0.82025862  0.66648979  1
  Mn  Mn19  1  0.82025862  -0.00000000  0.66648979  1
  Mn  Mn20  1  0.33351021  0.33351021  0.15376882  1
  Mn  Mn21  1  0.15376882  0.33351021  0.33351021  1
  Mn  Mn22  1  0.33351021  0.15376882  0.33351021  1
  C  C23  1  0.70317682  0.21971287  -0.00000000  1
  C  C24  1  0.48346395  0.78028713  0.78028713  1
  C  C25  1  0.70317682  -0.00000000  0.21971287  1
  C  C26  1  0.21971287  0.70317682  0.00000000  1
  C  C27  1  -0.00000000  0.70317682  0.21971287  1
  C  C28  1  0.78028713  0.48346395  0.78028713  1
  C  C29  1  0.78028713  0.78028713  0.48346395  1
  C  C30  1  -0.00000000  0.21971287  0.70317682  1
  C  C31  1  0.21971287  0.00000000  0.70317682  1
  C  C32  1  0.29682318  0.29682318  0.51653605  1
  C  C33  1  0.51653605  0.29682318  0.29682318  1
  C  C34  1  0.29682318  0.51653605  0.29682318  1
  C  C35  1  0.56888133  0.56888133  0.00000000  1
  C  C36  1  -0.00000000  0.43111867  0.43111867  1
  C  C37  1  0.56888133  0.00000000  0.56888133  1
  C  C38  1  0.00000000  0.56888133  0.56888133  1
  C  C39  1  0.43111867  -0.00000000  0.43111867  1
  C  C40  1  0.43111867  0.43111867  -0.00000000  1
