# generated using pymatgen
data_Cs5As(PSe3)4
_symmetry_space_group_name_H-M   'P 1'
_cell_length_a   7.76650374
_cell_length_b   14.24338674
_cell_length_c   14.24338674
_cell_angle_alpha   90.00000000
_cell_angle_beta   90.00000000
_cell_angle_gamma   90.00000000
_symmetry_Int_Tables_number   1
_chemical_formula_structural   Cs5As(PSe3)4
_chemical_formula_sum   'Cs10 As2 P8 Se24'
_cell_volume   1575.62219098
_cell_formula_units_Z   2
loop_
 _symmetry_equiv_pos_site_id
 _symmetry_equiv_pos_as_xyz
  1  'x, y, z'
loop_
 _atom_site_type_symbol
 _atom_site_label
 _atom_site_symmetry_multiplicity
 _atom_site_fract_x
 _atom_site_fract_y
 _atom_site_fract_z
 _atom_site_occupancy
  Cs  Cs0  1  0.50000000  -0.00000000  -0.00000000  1
  Cs  Cs1  1  0.00000000  -0.00000000  -0.00000000  1
  Cs  Cs2  1  0.50000000  0.34292700  0.31766227  1
  Cs  Cs3  1  0.50000000  0.65707300  0.68233773  1
  Cs  Cs4  1  0.00000000  0.31766227  0.65707300  1
  Cs  Cs5  1  0.00000000  0.68233773  0.34292700  1
  Cs  Cs6  1  0.50000000  0.96770258  0.32230797  1
  Cs  Cs7  1  0.50000000  0.03229742  0.67769203  1
  Cs  Cs8  1  0.00000000  0.32230797  0.03229742  1
  Cs  Cs9  1  0.00000000  0.67769203  0.96770258  1
  As  As10  1  0.50000000  0.50000000  -0.00000000  1
  As  As11  1  0.00000000  -0.00000000  0.50000000  1
  P  P12  1  0.50000000  0.60842903  0.20112419  1
  P  P13  1  0.50000000  0.39157097  0.79887581  1
  P  P14  1  0.00000000  0.20112419  0.39157097  1
  P  P15  1  0.00000000  0.79887581  0.60842903  1
  P  P16  1  0.50000000  0.74471397  0.11478767  1
  P  P17  1  0.50000000  0.25528603  0.88521233  1
  P  P18  1  0.00000000  0.11478767  0.25528603  1
  P  P19  1  0.00000000  0.88521233  0.74471397  1
  Se  Se20  1  0.26252729  0.81930115  0.15024431  1
  Se  Se21  1  0.26252729  0.18069885  0.84975569  1
  Se  Se22  1  0.76252729  0.15024431  0.18069885  1
  Se  Se23  1  0.76252729  0.84975569  0.81930115  1
  Se  Se24  1  0.73747271  0.18069885  0.84975569  1
  Se  Se25  1  0.73747271  0.81930115  0.15024431  1
  Se  Se26  1  0.23747271  0.84975569  0.81930115  1
  Se  Se27  1  0.23747271  0.15024431  0.18069885  1
  Se  Se28  1  0.50000000  0.31063001  0.03277107  1
  Se  Se29  1  0.50000000  0.68936999  0.96722893  1
  Se  Se30  1  0.00000000  0.03277107  0.68936999  1
  Se  Se31  1  0.00000000  0.96722893  0.31063001  1
  Se  Se32  1  0.50000000  0.63386848  0.34989762  1
  Se  Se33  1  0.50000000  0.36613152  0.65010238  1
  Se  Se34  1  0.00000000  0.34989762  0.36613152  1
  Se  Se35  1  0.00000000  0.65010238  0.63386848  1
  Se  Se36  1  0.27191854  0.52874837  0.14733852  1
  Se  Se37  1  0.27191854  0.47125163  0.85266148  1
  Se  Se38  1  0.77191854  0.14733852  0.47125163  1
  Se  Se39  1  0.77191854  0.85266148  0.52874837  1
  Se  Se40  1  0.72808146  0.47125163  0.85266148  1
  Se  Se41  1  0.72808146  0.52874837  0.14733852  1
  Se  Se42  1  0.22808146  0.85266148  0.52874837  1
  Se  Se43  1  0.22808146  0.14733852  0.47125163  1
