# generated using pymatgen
data_U4Ga20Pt11
_symmetry_space_group_name_H-M   'P 1'
_cell_length_a   4.18602399
_cell_length_b   10.96583584
_cell_length_c   13.80031615
_cell_angle_alpha   83.00799510
_cell_angle_beta   81.27662630
_cell_angle_gamma   78.99663665
_symmetry_Int_Tables_number   1
_chemical_formula_structural   U4Ga20Pt11
_chemical_formula_sum   'U4 Ga20 Pt11'
_cell_volume   611.82342546
_cell_formula_units_Z   1
loop_
 _symmetry_equiv_pos_site_id
 _symmetry_equiv_pos_as_xyz
  1  'x, y, z'
loop_
 _atom_site_type_symbol
 _atom_site_label
 _atom_site_symmetry_multiplicity
 _atom_site_fract_x
 _atom_site_fract_y
 _atom_site_fract_z
 _atom_site_occupancy
  U  U0  1  0.12134791  0.09141494  0.66588925  1
  U  U1  1  0.87865209  0.90858506  0.33411075  1
  U  U2  1  0.77473223  0.63085918  0.81967636  1
  U  U3  1  0.22526777  0.36914082  0.18032364  1
  Ga  Ga4  1  0.00701652  0.07210127  0.91386569  1
  Ga  Ga5  1  0.99298348  0.92789873  0.08613431  1
  Ga  Ga6  1  0.06528743  0.67084463  0.19858051  1
  Ga  Ga7  1  0.93471257  0.32915537  0.80141949  1
  Ga  Ga8  1  0.10206140  0.34221699  0.45366021  1
  Ga  Ga9  1  0.89793860  0.65778301  0.54633979  1
  Ga  Ga10  1  0.20063682  0.60650816  0.99221820  1
  Ga  Ga11  1  0.79936318  0.39349184  0.00778180  1
  Ga  Ga12  1  0.25561914  0.78337352  0.70538820  1
  Ga  Ga13  1  0.74438086  0.21662648  0.29461180  1
  Ga  Ga14  1  0.30120041  0.90053966  0.49705952  1
  Ga  Ga15  1  0.69879959  0.09946034  0.50294048  1
  Ga  Ga16  1  0.38768985  0.52661791  0.69800240  1
  Ga  Ga17  1  0.61231015  0.47338209  0.30199760  1
  Ga  Ga18  1  0.39765973  0.20682033  0.99786020  1
  Ga  Ga19  1  0.60234027  0.79317967  0.00213980  1
  Ga  Ga20  1  0.54396018  0.28649500  0.62558464  1
  Ga  Ga21  1  0.45603982  0.71350500  0.37441536  1
  Ga  Ga22  1  0.63436171  0.93441855  0.79685802  1
  Ga  Ga23  1  0.36563829  0.06558145  0.20314198  1
  Pt  Pt24  1  0.50000000  0.50000000  0.50000000  1
  Pt  Pt25  1  0.02758707  0.57370626  0.37111960  1
  Pt  Pt26  1  0.97241293  0.42629374  0.62888040  1
  Pt  Pt27  1  0.13585504  0.83479922  0.89349069  1
  Pt  Pt28  1  0.86414496  0.16520078  0.10650931  1
  Pt  Pt29  1  0.24143834  0.12805210  0.38907121  1
  Pt  Pt30  1  0.75856166  0.87194790  0.61092879  1
  Pt  Pt31  1  0.34476782  0.42015519  0.89030917  1
  Pt  Pt32  1  0.65523218  0.57984481  0.10969083  1
  Pt  Pt33  1  0.50634065  0.17273503  0.81458367  1
  Pt  Pt34  1  0.49365935  0.82726497  0.18541633  1
