# generated using pymatgen
data_V4Cr2O13
_symmetry_space_group_name_H-M   'P 1'
_cell_length_a   8.48419604
_cell_length_b   9.55155060
_cell_length_c   14.90447933
_cell_angle_alpha   90.00000000
_cell_angle_beta   103.11223361
_cell_angle_gamma   90.00000000
_symmetry_Int_Tables_number   1
_chemical_formula_structural   V4Cr2O13
_chemical_formula_sum   'V16 Cr8 O52'
_cell_volume   1176.32692195
_cell_formula_units_Z   4
loop_
 _symmetry_equiv_pos_site_id
 _symmetry_equiv_pos_as_xyz
  1  'x, y, z'
loop_
 _atom_site_type_symbol
 _atom_site_label
 _atom_site_symmetry_multiplicity
 _atom_site_fract_x
 _atom_site_fract_y
 _atom_site_fract_z
 _atom_site_occupancy
  V  V0  1  0.53487024  0.28926416  0.09184027  1
  V  V1  1  0.46512976  0.78926416  0.40815973  1
  V  V2  1  0.46512976  0.71073584  0.90815973  1
  V  V3  1  0.53487024  0.21073584  0.59184027  1
  V  V4  1  0.74260597  0.27518117  0.32867902  1
  V  V5  1  0.25739403  0.77518117  0.17132098  1
  V  V6  1  0.25739403  0.72481883  0.67132098  1
  V  V7  1  0.74260597  0.22481883  0.82867902  1
  V  V8  1  0.14146546  0.25865705  0.32757364  1
  V  V9  1  0.85853454  0.75865705  0.17242636  1
  V  V10  1  0.85853454  0.74134295  0.67242636  1
  V  V11  1  0.14146546  0.24134295  0.82757364  1
  V  V12  1  0.95669862  0.70937450  0.40776985  1
  V  V13  1  0.04330138  0.20937450  0.09223015  1
  V  V14  1  0.04330138  0.29062550  0.59223015  1
  V  V15  1  0.95669862  0.79062550  0.90776985  1
  Cr  Cr16  1  0.19005272  0.00084901  0.50944524  1
  Cr  Cr17  1  0.80994728  0.50084901  0.99055476  1
  Cr  Cr18  1  0.80994728  0.99915099  0.49055476  1
  Cr  Cr19  1  0.19005272  0.49915099  0.00944524  1
  Cr  Cr20  1  0.31057806  0.50169323  0.48681329  1
  Cr  Cr21  1  0.68942194  0.00169323  0.01318671  1
  Cr  Cr22  1  0.68942194  0.49830677  0.51318671  1
  Cr  Cr23  1  0.31057806  0.99830677  0.98681329  1
  O  O24  1  0.34785035  0.88475103  0.46288012  1
  O  O25  1  0.65214965  0.38475103  0.03711988  1
  O  O26  1  0.65214965  0.11524897  0.53711988  1
  O  O27  1  0.34785035  0.61524897  0.96288012  1
  O  O28  1  0.23735398  0.88765585  0.62529603  1
  O  O29  1  0.76264602  0.38765585  0.87470397  1
  O  O30  1  0.76264602  0.11234415  0.37470397  1
  O  O31  1  0.23735398  0.61234415  0.12529603  1
  O  O32  1  0.34947502  0.13613842  0.57568074  1
  O  O33  1  0.65052498  0.63613842  0.92431926  1
  O  O34  1  0.65052498  0.86386158  0.42431926  1
  O  O35  1  0.34947502  0.36386158  0.07568074  1
  O  O36  1  0.01048603  0.11531723  0.54721034  1
  O  O37  1  0.98951397  0.61531723  0.95278966  1
  O  O38  1  0.98951397  0.88468277  0.45278966  1
  O  O39  1  0.01048603  0.38468277  0.04721034  1
  O  O40  1  0.16335314  0.11375155  0.39438821  1
  O  O41  1  0.83664686  0.61375155  0.10561179  1
  O  O42  1  0.83664686  0.88624845  0.60561179  1
  O  O43  1  0.16335314  0.38624845  0.89438821  1
  O  O44  1  0.27790666  0.38465657  0.37283710  1
  O  O45  1  0.72209334  0.88465657  0.12716290  1
  O  O46  1  0.72209334  0.61534343  0.62716290  1
  O  O47  1  0.27790666  0.11534343  0.87283710  1
  O  O48  1  0.50833823  0.38564182  0.54665554  1
  O  O49  1  0.49166177  0.88564182  0.95334446  1
  O  O50  1  0.49166177  0.61435818  0.45334446  1
  O  O51  1  0.50833823  0.11435818  0.04665554  1
  O  O52  1  0.32672009  0.61230625  0.60178188  1
  O  O53  1  0.67327991  0.11230625  0.89821812  1
  O  O54  1  0.67327991  0.38769375  0.39821812  1
  O  O55  1  0.32672009  0.88769375  0.10178188  1
  O  O56  1  0.14154439  0.63372906  0.41855705  1
  O  O57  1  0.85845561  0.13372906  0.08144295  1
  O  O58  1  0.85845561  0.36627094  0.58144295  1
  O  O59  1  0.14154439  0.86627094  0.91855705  1
  O  O60  1  0.15124321  0.21314497  0.21181001  1
  O  O61  1  0.84875679  0.71314497  0.28818999  1
  O  O62  1  0.84875679  0.78685503  0.78818999  1
  O  O63  1  0.15124321  0.28685503  0.71181001  1
  O  O64  1  0.94347243  0.32940178  0.32248231  1
  O  O65  1  0.05652757  0.82940178  0.17751769  1
  O  O66  1  0.05652757  0.67059822  0.67751769  1
  O  O67  1  0.94347243  0.17059822  0.82248231  1
  O  O68  1  0.61950368  0.27920341  0.21404568  1
  O  O69  1  0.38049632  0.77920341  0.28595432  1
  O  O70  1  0.38049632  0.72079659  0.78595432  1
  O  O71  1  0.61950368  0.22079659  0.71404568  1
  O  O72  1  0.84917729  0.61758985  0.47029712  1
  O  O73  1  0.15082271  0.11758985  0.02970288  1
  O  O74  1  0.15082271  0.38241015  0.52970288  1
  O  O75  1  0.84917729  0.88241015  0.97029712  1
