# generated using pymatgen
data_BHS3O11
_symmetry_space_group_name_H-M   'P 1'
_cell_length_a   8.78285092
_cell_length_b   11.88376422
_cell_length_c   16.15802079
_cell_angle_alpha   90.00000000
_cell_angle_beta   90.26058950
_cell_angle_gamma   90.00000000
_symmetry_Int_Tables_number   1
_chemical_formula_structural   BHS3O11
_chemical_formula_sum   'B8 H8 S24 O88'
_cell_volume   1686.44898637
_cell_formula_units_Z   8
loop_
 _symmetry_equiv_pos_site_id
 _symmetry_equiv_pos_as_xyz
  1  'x, y, z'
loop_
 _atom_site_type_symbol
 _atom_site_label
 _atom_site_symmetry_multiplicity
 _atom_site_fract_x
 _atom_site_fract_y
 _atom_site_fract_z
 _atom_site_occupancy
  B  B0  1  0.05069258  0.19025067  0.62172953  1
  B  B1  1  0.44930742  0.69025067  0.37827047  1
  B  B2  1  0.94930742  0.80974933  0.37827047  1
  B  B3  1  0.55069258  0.30974933  0.62172953  1
  B  B4  1  0.41759386  0.79925293  0.88713493  1
  B  B5  1  0.08240614  0.29925293  0.11286507  1
  B  B6  1  0.58240614  0.20074707  0.11286507  1
  B  B7  1  0.91759386  0.70074707  0.88713493  1
  H  H8  1  0.14407079  0.75821583  0.09178213  1
  H  H9  1  0.35592921  0.25821583  0.90821787  1
  H  H10  1  0.85592921  0.24178417  0.90821787  1
  H  H11  1  0.64407079  0.74178417  0.09178213  1
  H  H12  1  0.90234420  0.29547272  0.41906333  1
  H  H13  1  0.59765580  0.79547272  0.58093667  1
  H  H14  1  0.09765580  0.70452728  0.58093667  1
  H  H15  1  0.40234420  0.20452728  0.41906333  1
  S  S16  1  0.14038236  0.82559271  0.96887015  1
  S  S17  1  0.35961764  0.32559271  0.03112985  1
  S  S18  1  0.85961764  0.17440729  0.03112985  1
  S  S19  1  0.64038236  0.67440729  0.96887015  1
  S  S20  1  0.42672805  0.86130495  0.72612908  1
  S  S21  1  0.07327195  0.36130495  0.27387092  1
  S  S22  1  0.57327195  0.13869505  0.27387092  1
  S  S23  1  0.92672805  0.63869505  0.72612908  1
  S  S24  1  0.56986886  0.98679012  0.85569709  1
  S  S25  1  0.93013114  0.48679012  0.14430291  1
  S  S26  1  0.43013114  0.01320988  0.14430291  1
  S  S27  1  0.06986886  0.51320988  0.85569709  1
  S  S28  1  0.83061908  0.32305934  0.54658693  1
  S  S29  1  0.66938092  0.82305934  0.45341307  1
  S  S30  1  0.16938092  0.67694066  0.45341307  1
  S  S31  1  0.33061908  0.17694066  0.54658693  1
  S  S32  1  0.03723681  0.12796194  0.78179572  1
  S  S33  1  0.46276319  0.62796194  0.21820428  1
  S  S34  1  0.96276319  0.87203806  0.21820428  1
  S  S35  1  0.53723681  0.37203806  0.78179572  1
  S  S36  1  0.88502295  0.00769350  0.65162324  1
  S  S37  1  0.61497705  0.50769350  0.34837676  1
  S  S38  1  0.11497705  0.99230650  0.34837676  1
  S  S39  1  0.38502295  0.49230650  0.65162324  1
  O  O40  1  0.14548822  0.93782867  0.99795191  1
  O  O41  1  0.35451178  0.43782867  0.00204809  1
  O  O42  1  0.85451178  0.06217133  0.00204809  1
  O  O43  1  0.64548822  0.56217133  0.99795191  1
  O  O44  1  0.18007368  0.73620729  0.03476786  1
  O  O45  1  0.31992632  0.23620729  0.96523214  1
  O  O46  1  0.81992632  0.26379271  0.96523214  1
  O  O47  1  0.68007368  0.76379271  0.03476786  1
  O  O48  1  0.55242715  0.84197853  0.67132855  1
  O  O49  1  0.94757285  0.34197853  0.32867145  1
  O  O50  1  0.44757285  0.15802147  0.32867145  1
  O  O51  1  0.05242715  0.65802147  0.67132855  1
  O  O52  1  0.27518237  0.86816881  0.69523093  1
  O  O53  1  0.22481763  0.36816881  0.30476907  1
  O  O54  1  0.72481763  0.13183119  0.30476907  1
  O  O55  1  0.77518237  0.63183119  0.69523093  1
  O  O56  1  0.55606513  0.09925175  0.88433319  1
  O  O57  1  0.94393487  0.59925175  0.11566681  1
  O  O58  1  0.44393487  0.90074825  0.11566681  1
  O  O59  1  0.05606513  0.40074825  0.88433319  1
  O  O60  1  0.71259537  0.93718482  0.83513012  1
  O  O61  1  0.78740463  0.43718482  0.16486988  1
  O  O62  1  0.28740463  0.06281518  0.16486988  1
  O  O63  1  0.21259537  0.56281518  0.83513012  1
  O  O64  1  0.83306515  0.44174216  0.53605036  1
  O  O65  1  0.66693485  0.94174216  0.46394964  1
  O  O66  1  0.16693485  0.55825784  0.46394964  1
  O  O67  1  0.33306515  0.05825784  0.53605036  1
  O  O68  1  0.87871715  0.25249494  0.47214885  1
  O  O69  1  0.62128285  0.75249494  0.52785115  1
  O  O70  1  0.12128285  0.74750506  0.52785115  1
  O  O71  1  0.37871715  0.24750506  0.47214885  1
  O  O72  1  0.90409922  0.18823619  0.80889115  1
  O  O73  1  0.59590078  0.68823619  0.19110885  1
  O  O74  1  0.09590078  0.81176381  0.19110885  1
  O  O75  1  0.40409922  0.31176381  0.80889115  1
  O  O76  1  0.15337154  0.09748627  0.83899170  1
  O  O77  1  0.34662846  0.59748627  0.16100830  1
  O  O78  1  0.84662846  0.90251373  0.16100830  1
  O  O79  1  0.65337154  0.40251373  0.83899170  1
  O  O80  1  0.89311966  0.89390503  0.62516523  1
  O  O81  1  0.60688034  0.39390503  0.37483477  1
  O  O82  1  0.10688034  0.10609497  0.37483477  1
  O  O83  1  0.39311966  0.60609497  0.62516523  1
  O  O84  1  0.74421048  0.06475364  0.66498263  1
  O  O85  1  0.75578952  0.56475364  0.33501737  1
  O  O86  1  0.25578952  0.93524636  0.33501737  1
  O  O87  1  0.24421048  0.43524636  0.66498263  1
  O  O88  1  0.24671261  0.79514037  0.89876283  1
  O  O89  1  0.25328739  0.29514037  0.10123717  1
  O  O90  1  0.75328739  0.20485963  0.10123717  1
  O  O91  1  0.74671261  0.70485963  0.89876283  1
  O  O92  1  0.98232293  0.79775867  0.93487070  1
  O  O93  1  0.51767707  0.29775867  0.06512930  1
  O  O94  1  0.01767707  0.20224133  0.06512930  1
  O  O95  1  0.48232293  0.70224133  0.93487070  1
  O  O96  1  0.44373072  0.77642401  0.79918814  1
  O  O97  1  0.05626928  0.27642401  0.20081186  1
  O  O98  1  0.55626928  0.22357599  0.20081186  1
  O  O99  1  0.94373072  0.72357599  0.79918814  1
  O  O100  1  0.47749226  0.90745138  0.91503022  1
  O  O101  1  0.02250774  0.40745138  0.08496978  1
  O  O102  1  0.52250774  0.09254862  0.08496978  1
  O  O103  1  0.97749226  0.59254862  0.91503022  1
  O  O104  1  0.93261835  0.28320216  0.61709417  1
  O  O105  1  0.56738165  0.78320216  0.38290583  1
  O  O106  1  0.06738165  0.71679784  0.38290583  1
  O  O107  1  0.43261835  0.21679784  0.61709417  1
  O  O108  1  0.67338883  0.27419888  0.56459304  1
  O  O109  1  0.82661117  0.77419888  0.43540696  1
  O  O110  1  0.32661117  0.72580112  0.43540696  1
  O  O111  1  0.17338883  0.22580112  0.56459304  1
  O  O112  1  0.99215931  0.08045090  0.59560065  1
  O  O113  1  0.50784069  0.58045090  0.40439935  1
  O  O114  1  0.00784069  0.91954910  0.40439935  1
  O  O115  1  0.49215931  0.41954910  0.59560065  1
  O  O116  1  0.11008777  0.18935463  0.70651412  1
  O  O117  1  0.38991223  0.68935463  0.29348588  1
  O  O118  1  0.88991223  0.81064537  0.29348588  1
  O  O119  1  0.61008777  0.31064537  0.70651412  1
  O  O120  1  0.45586451  0.98214318  0.77311456  1
  O  O121  1  0.04413549  0.48214318  0.22688544  1
  O  O122  1  0.54413549  0.01785682  0.22688544  1
  O  O123  1  0.95586451  0.51785682  0.77311456  1
  O  O124  1  0.98538246  0.00871555  0.73938844  1
  O  O125  1  0.51461754  0.50871555  0.26061156  1
  O  O126  1  0.01461754  0.99128445  0.26061156  1
  O  O127  1  0.48538246  0.49128445  0.73938844  1
