# generated using pymatgen
data_K3Ta2Cu3Se8
_symmetry_space_group_name_H-M   'P 1'
_cell_length_a   5.73873463
_cell_length_b   12.66718342
_cell_length_c   14.19988395
_cell_angle_alpha   68.43745378
_cell_angle_beta   78.34198180
_cell_angle_gamma   76.90774038
_symmetry_Int_Tables_number   1
_chemical_formula_structural   K3Ta2Cu3Se8
_chemical_formula_sum   'K6 Ta4 Cu6 Se16'
_cell_volume   926.96864796
_cell_formula_units_Z   2
loop_
 _symmetry_equiv_pos_site_id
 _symmetry_equiv_pos_as_xyz
  1  'x, y, z'
loop_
 _atom_site_type_symbol
 _atom_site_label
 _atom_site_symmetry_multiplicity
 _atom_site_fract_x
 _atom_site_fract_y
 _atom_site_fract_z
 _atom_site_occupancy
  K  K0  1  0.73027198  0.71138062  0.90552503  1
  K  K1  1  0.34717763  0.78861938  0.59447497  1
  K  K2  1  0.26972802  0.28861938  0.09447497  1
  K  K3  1  0.65282237  0.21138062  0.40552503  1
  K  K4  1  0.00000000  0.50000000  0.50000000  1
  K  K5  1  0.00000000  0.00000000  -0.00000000  1
  Ta  Ta6  1  0.15770331  0.46992476  0.77936817  1
  Ta  Ta7  1  0.40699624  0.03007524  0.72063183  1
  Ta  Ta8  1  0.84229669  0.53007524  0.22063183  1
  Ta  Ta9  1  0.59300376  0.96992476  0.27936817  1
  Cu  Cu10  1  0.27721599  0.25000000  0.75000000  1
  Cu  Cu11  1  0.72278401  0.75000000  0.25000000  1
  Cu  Cu12  1  0.90478437  0.03509989  0.71913006  1
  Cu  Cu13  1  0.65901431  0.46490011  0.78086994  1
  Cu  Cu14  1  0.09521563  0.96490011  0.28086994  1
  Cu  Cu15  1  0.34098569  0.53509989  0.21913006  1
  Se  Se16  1  0.95323703  0.30461805  0.87585480  1
  Se  Se17  1  0.13370989  0.19538195  0.62414520  1
  Se  Se18  1  0.04676297  0.69538195  0.12414520  1
  Se  Se19  1  0.86629011  0.80461805  0.37585480  1
  Se  Se20  1  0.48660200  0.41633043  0.65743276  1
  Se  Se21  1  0.56036519  0.08366957  0.84256724  1
  Se  Se22  1  0.51339800  0.58366957  0.34256724  1
  Se  Se23  1  0.43963481  0.91633043  0.15743276  1
  Se  Se24  1  0.87249227  0.62939417  0.68618800  1
  Se  Se25  1  0.18807444  0.87060583  0.81381200  1
  Se  Se26  1  0.12750773  0.37060583  0.31381200  1
  Se  Se27  1  0.81192556  0.12939417  0.18618800  1
  Se  Se28  1  0.74110429  0.97007749  0.60729023  1
  Se  Se29  1  0.31847202  0.52992251  0.89270977  1
  Se  Se30  1  0.25889571  0.02992251  0.39270977  1
  Se  Se31  1  0.68152798  0.47007749  0.10729023  1
