# generated using pymatgen
data_InSb3F18
_symmetry_space_group_name_H-M   'P 1'
_cell_length_a   9.04380413
_cell_length_b   9.04380413
_cell_length_c   9.80641899
_cell_angle_alpha   90.00000000
_cell_angle_beta   90.00000000
_cell_angle_gamma   119.99999771
_symmetry_Int_Tables_number   1
_chemical_formula_structural   InSb3F18
_chemical_formula_sum   'In2 Sb6 F36'
_cell_volume   694.61375982
_cell_formula_units_Z   2
loop_
 _symmetry_equiv_pos_site_id
 _symmetry_equiv_pos_as_xyz
  1  'x, y, z'
loop_
 _atom_site_type_symbol
 _atom_site_label
 _atom_site_symmetry_multiplicity
 _atom_site_fract_x
 _atom_site_fract_y
 _atom_site_fract_z
 _atom_site_occupancy
  In  In0  1  0.00000000  0.00000000  0.50000000  1
  In  In1  1  0.00000000  0.00000000  -0.00000000  1
  Sb  Sb2  1  0.34632503  0.34632503  0.75000000  1
  Sb  Sb3  1  0.65367497  0.00000000  0.75000000  1
  Sb  Sb4  1  0.00000000  0.65367497  0.75000000  1
  Sb  Sb5  1  0.34632503  1.00000000  0.25000000  1
  Sb  Sb6  1  1.00000000  0.34632503  0.25000000  1
  Sb  Sb7  1  0.65367497  0.65367497  0.25000000  1
  F  F8  1  0.53070900  0.43216250  0.62840247  1
  F  F9  1  0.56783750  0.09854650  0.62840247  1
  F  F10  1  0.90145350  0.46929100  0.62840247  1
  F  F11  1  0.53070900  0.09854650  0.12840247  1
  F  F12  1  0.90145350  0.43216250  0.12840247  1
  F  F13  1  0.56783750  0.46929100  0.12840247  1
  F  F14  1  0.46929100  0.56783750  0.37159753  1
  F  F15  1  0.43216250  0.90145350  0.37159753  1
  F  F16  1  0.09854650  0.53070900  0.37159753  1
  F  F17  1  0.46929100  0.90145350  0.87159753  1
  F  F18  1  0.09854650  0.56783750  0.87159753  1
  F  F19  1  0.43216250  0.53070900  0.87159753  1
  F  F20  1  0.21530283  0.13220606  0.63002152  1
  F  F21  1  0.86779394  0.08309677  0.63002152  1
  F  F22  1  0.91690323  0.78469717  0.63002152  1
  F  F23  1  0.21530283  0.08309677  0.13002152  1
  F  F24  1  0.91690323  0.13220606  0.13002152  1
  F  F25  1  0.86779394  0.78469717  0.13002152  1
  F  F26  1  0.78469717  0.86779394  0.36997848  1
  F  F27  1  0.13220606  0.91690323  0.36997848  1
  F  F28  1  0.08309677  0.21530283  0.36997848  1
  F  F29  1  0.78469717  0.91690323  0.86997848  1
  F  F30  1  0.08309677  0.86779394  0.86997848  1
  F  F31  1  0.13220606  0.21530283  0.86997848  1
  F  F32  1  0.21794785  0.42063460  0.64925958  1
  F  F33  1  0.57936540  0.79731325  0.64925958  1
  F  F34  1  0.20268675  0.78205215  0.64925958  1
  F  F35  1  0.21794785  0.79731325  0.14925958  1
  F  F36  1  0.20268675  0.42063460  0.14925958  1
  F  F37  1  0.57936540  0.78205215  0.14925958  1
  F  F38  1  0.78205215  0.57936540  0.35074042  1
  F  F39  1  0.42063460  0.20268675  0.35074042  1
  F  F40  1  0.79731325  0.21794785  0.35074042  1
  F  F41  1  0.78205215  0.20268675  0.85074042  1
  F  F42  1  0.79731325  0.57936540  0.85074042  1
  F  F43  1  0.42063460  0.21794785  0.85074042  1
