# generated using pymatgen
data_Rb3NpH4O7
_symmetry_space_group_name_H-M   'P 1'
_cell_length_a   6.64239136
_cell_length_b   11.56371909
_cell_length_c   12.24708420
_cell_angle_alpha   90.00000000
_cell_angle_beta   90.89605732
_cell_angle_gamma   90.00000000
_symmetry_Int_Tables_number   1
_chemical_formula_structural   Rb3NpH4O7
_chemical_formula_sum   'Rb12 Np4 H16 O28'
_cell_volume   940.59265729
_cell_formula_units_Z   4
loop_
 _symmetry_equiv_pos_site_id
 _symmetry_equiv_pos_as_xyz
  1  'x, y, z'
loop_
 _atom_site_type_symbol
 _atom_site_label
 _atom_site_symmetry_multiplicity
 _atom_site_fract_x
 _atom_site_fract_y
 _atom_site_fract_z
 _atom_site_occupancy
  Rb  Rb0  1  0.79332309  0.12088346  0.55174002  1
  Rb  Rb1  1  0.29332309  0.37911654  0.05174002  1
  Rb  Rb2  1  0.20667691  0.87911654  0.44825998  1
  Rb  Rb3  1  0.70667691  0.62088346  0.94825998  1
  Rb  Rb4  1  0.76582215  0.27948698  0.25812003  1
  Rb  Rb5  1  0.26582215  0.22051302  0.75812003  1
  Rb  Rb6  1  0.23417785  0.72051302  0.74187997  1
  Rb  Rb7  1  0.73417785  0.77948698  0.24187997  1
  Rb  Rb8  1  0.82777297  0.96100514  0.86358015  1
  Rb  Rb9  1  0.32777297  0.53899486  0.36358015  1
  Rb  Rb10  1  0.17222703  0.03899486  0.13641985  1
  Rb  Rb11  1  0.67222703  0.46100514  0.63641985  1
  Np  Np12  1  0.78154042  0.29385742  0.90838421  1
  Np  Np13  1  0.28154042  0.20614258  0.40838421  1
  Np  Np14  1  0.21845958  0.70614258  0.09161579  1
  Np  Np15  1  0.71845958  0.79385742  0.59161579  1
  H  H16  1  0.05999056  0.48155496  0.86419919  1
  H  H17  1  0.55999056  0.01844504  0.36419919  1
  H  H18  1  0.94000944  0.51844504  0.13580081  1
  H  H19  1  0.44000944  0.98155496  0.63580081  1
  H  H20  1  0.46641293  0.12020586  0.95084809  1
  H  H21  1  0.96641293  0.37979414  0.45084809  1
  H  H22  1  0.53358707  0.87979414  0.04915191  1
  H  H23  1  0.03358707  0.62020586  0.54915191  1
  H  H24  1  0.13487937  0.45674650  0.70657682  1
  H  H25  1  0.63487937  0.04325350  0.20657682  1
  H  H26  1  0.86512063  0.54325350  0.29342318  1
  H  H27  1  0.36512063  0.95674650  0.79342318  1
  H  H28  1  0.16064506  0.42237527  0.58239294  1
  H  H29  1  0.66064506  0.07762473  0.08239294  1
  H  H30  1  0.83935494  0.57762473  0.41760706  1
  H  H31  1  0.33935494  0.92237527  0.91760706  1
  O  O32  1  0.76418978  0.20692004  0.77476975  1
  O  O33  1  0.26418978  0.29307996  0.27476975  1
  O  O34  1  0.23581022  0.79307996  0.22523025  1
  O  O35  1  0.73581022  0.70692004  0.72523025  1
  O  O36  1  0.56010330  0.38718293  0.85972012  1
  O  O37  1  0.06010330  0.11281707  0.35972012  1
  O  O38  1  0.43989670  0.61281707  0.14027988  1
  O  O39  1  0.93989670  0.88718293  0.64027988  1
  O  O40  1  0.80198187  0.38429933  0.04000938  1
  O  O41  1  0.30198187  0.11570067  0.54000938  1
  O  O42  1  0.19801813  0.61570067  0.95999062  1
  O  O43  1  0.69801813  0.88429933  0.45999062  1
  O  O44  1  0.00081260  0.19917672  0.95761450  1
  O  O45  1  0.50081260  0.30082328  0.45761450  1
  O  O46  1  0.99918740  0.80082328  0.04238550  1
  O  O47  1  0.49918740  0.69917672  0.54238550  1
  O  O48  1  0.00549417  0.41980768  0.81730581  1
  O  O49  1  0.50549417  0.08019232  0.31730581  1
  O  O50  1  0.99450583  0.58019232  0.18269419  1
  O  O51  1  0.49450583  0.91980768  0.68269419  1
  O  O52  1  0.55357924  0.16851708  0.99714702  1
  O  O53  1  0.05357924  0.33148292  0.49714702  1
  O  O54  1  0.44642076  0.83148292  0.00285298  1
  O  O55  1  0.94642076  0.66851708  0.50285298  1
  O  O56  1  0.21221853  0.47936465  0.63943709  1
  O  O57  1  0.71221853  0.02063535  0.13943709  1
  O  O58  1  0.78778147  0.52063535  0.36056291  1
  O  O59  1  0.28778147  0.97936465  0.86056291  1
