# generated using pymatgen
data_RbNa8(GaAs2)3
_symmetry_space_group_name_H-M   'P 1'
_cell_length_a   4.85919702
_cell_length_b   17.05933342
_cell_length_c   23.10214898
_cell_angle_alpha   90.00000000
_cell_angle_beta   90.00000000
_cell_angle_gamma   90.00000000
_symmetry_Int_Tables_number   1
_chemical_formula_structural   RbNa8(GaAs2)3
_chemical_formula_sum   'Rb4 Na32 Ga12 As24'
_cell_volume   1915.04483389
_cell_formula_units_Z   4
loop_
 _symmetry_equiv_pos_site_id
 _symmetry_equiv_pos_as_xyz
  1  'x, y, z'
loop_
 _atom_site_type_symbol
 _atom_site_label
 _atom_site_symmetry_multiplicity
 _atom_site_fract_x
 _atom_site_fract_y
 _atom_site_fract_z
 _atom_site_occupancy
  Rb  Rb0  1  0.25000000  0.80873435  0.50246533  1
  Rb  Rb1  1  0.25000000  0.69126565  0.00246533  1
  Rb  Rb2  1  0.75000000  0.19126565  0.49753467  1
  Rb  Rb3  1  0.75000000  0.30873435  0.99753467  1
  Na  Na4  1  0.25000000  0.03256976  0.55212086  1
  Na  Na5  1  0.25000000  0.46743024  0.05212086  1
  Na  Na6  1  0.75000000  0.96743024  0.44787914  1
  Na  Na7  1  0.75000000  0.53256976  0.94787914  1
  Na  Na8  1  0.25000000  0.35119978  0.55720932  1
  Na  Na9  1  0.25000000  0.14880022  0.05720932  1
  Na  Na10  1  0.75000000  0.64880022  0.44279068  1
  Na  Na11  1  0.75000000  0.85119978  0.94279068  1
  Na  Na12  1  0.25000000  0.92074928  0.67925203  1
  Na  Na13  1  0.25000000  0.57925072  0.17925203  1
  Na  Na14  1  0.75000000  0.07925072  0.32074797  1
  Na  Na15  1  0.75000000  0.42074928  0.82074797  1
  Na  Na16  1  0.25000000  0.69225654  0.68153444  1
  Na  Na17  1  0.25000000  0.80774346  0.18153444  1
  Na  Na18  1  0.75000000  0.30774346  0.31846556  1
  Na  Na19  1  0.75000000  0.19225654  0.81846556  1
  Na  Na20  1  0.25000000  0.45795966  0.69062961  1
  Na  Na21  1  0.25000000  0.04204034  0.19062961  1
  Na  Na22  1  0.75000000  0.54204034  0.30937039  1
  Na  Na23  1  0.75000000  0.95795966  0.80937039  1
  Na  Na24  1  0.25000000  0.79862197  0.83732206  1
  Na  Na25  1  0.25000000  0.70137803  0.33732206  1
  Na  Na26  1  0.75000000  0.20137803  0.16267794  1
  Na  Na27  1  0.75000000  0.29862197  0.66267794  1
  Na  Na28  1  0.25000000  0.58166581  0.84103455  1
  Na  Na29  1  0.25000000  0.91833419  0.34103455  1
  Na  Na30  1  0.75000000  0.41833419  0.15896545  1
  Na  Na31  1  0.75000000  0.08166581  0.65896545  1
  Na  Na32  1  0.25000000  0.94478915  0.04077485  1
  Na  Na33  1  0.25000000  0.55521085  0.54077485  1
  Na  Na34  1  0.75000000  0.05521085  0.95922515  1
  Na  Na35  1  0.75000000  0.44478915  0.45922515  1
  Ga  Ga36  1  0.25000000  0.19084311  0.71546178  1
  Ga  Ga37  1  0.25000000  0.30915689  0.21546178  1
  Ga  Ga38  1  0.75000000  0.80915689  0.28453822  1
  Ga  Ga39  1  0.75000000  0.69084311  0.78453822  1
  Ga  Ga40  1  0.25000000  0.06935395  0.86405362  1
  Ga  Ga41  1  0.25000000  0.43064605  0.36405362  1
  Ga  Ga42  1  0.75000000  0.93064605  0.13594638  1
  Ga  Ga43  1  0.75000000  0.56935395  0.63594638  1
  Ga  Ga44  1  0.25000000  0.30926474  0.87234453  1
  Ga  Ga45  1  0.25000000  0.19073526  0.37234453  1
  Ga  Ga46  1  0.75000000  0.69073526  0.12765547  1
  Ga  Ga47  1  0.75000000  0.80926474  0.62765547  1
  As  As48  1  0.25000000  0.19191050  0.61298347  1
  As  As49  1  0.25000000  0.30808950  0.11298347  1
  As  As50  1  0.75000000  0.80808950  0.38701653  1
  As  As51  1  0.75000000  0.69191050  0.88701653  1
  As  As52  1  0.25000000  0.06210228  0.75965773  1
  As  As53  1  0.25000000  0.43789772  0.25965773  1
  As  As54  1  0.75000000  0.93789772  0.24034227  1
  As  As55  1  0.75000000  0.56210228  0.74034227  1
  As  As56  1  0.25000000  0.31537601  0.76661765  1
  As  As57  1  0.25000000  0.18462399  0.26661765  1
  As  As58  1  0.75000000  0.68462399  0.23338235  1
  As  As59  1  0.75000000  0.81537601  0.73338235  1
  As  As60  1  0.25000000  0.94437531  0.91060596  1
  As  As61  1  0.25000000  0.55562469  0.41060596  1
  As  As62  1  0.75000000  0.05562469  0.08939404  1
  As  As63  1  0.75000000  0.44437531  0.58939404  1
  As  As64  1  0.25000000  0.43564364  0.91707710  1
  As  As65  1  0.25000000  0.06435636  0.41707710  1
  As  As66  1  0.75000000  0.56435636  0.08292290  1
  As  As67  1  0.75000000  0.93564364  0.58292290  1
  As  As68  1  0.25000000  0.18453879  0.92531311  1
  As  As69  1  0.25000000  0.31546121  0.42531311  1
  As  As70  1  0.75000000  0.81546121  0.07468689  1
  As  As71  1  0.75000000  0.68453879  0.57468689  1
