# generated using pymatgen
data_La6Co13Bi
_symmetry_space_group_name_H-M   'P 1'
_cell_length_a   8.10965719
_cell_length_b   8.10965719
_cell_length_c   12.97341626
_cell_angle_alpha   108.21291390
_cell_angle_beta   108.21291390
_cell_angle_gamma   90.00000000
_symmetry_Int_Tables_number   1
_chemical_formula_structural   La6Co13Bi
_chemical_formula_sum   'La12 Co26 Bi2'
_cell_volume   765.34356326
_cell_formula_units_Z   2
loop_
 _symmetry_equiv_pos_site_id
 _symmetry_equiv_pos_as_xyz
  1  'x, y, z'
loop_
 _atom_site_type_symbol
 _atom_site_label
 _atom_site_symmetry_multiplicity
 _atom_site_fract_x
 _atom_site_fract_y
 _atom_site_fract_z
 _atom_site_occupancy
  La  La0  1  0.59930272  0.59930272  0.19860544  1
  La  La1  1  0.09930272  0.09930272  0.19860544  1
  La  La2  1  0.40069728  0.40069728  0.80139456  1
  La  La3  1  0.90069728  0.90069728  0.80139456  1
  La  La4  1  0.98084862  0.48084862  0.64254581  1
  La  La5  1  0.66169720  0.16169720  0.64254581  1
  La  La6  1  0.16169720  0.98084862  0.64254581  1
  La  La7  1  0.48084862  0.66169720  0.64254581  1
  La  La8  1  0.01915138  0.51915138  0.35745419  1
  La  La9  1  0.33830280  0.83830280  0.35745419  1
  La  La10  1  0.83830280  0.01915138  0.35745419  1
  La  La11  1  0.51915138  0.33830280  0.35745419  1
  Co  Co12  1  0.00000000  0.50000000  0.00000000  1
  Co  Co13  1  0.50000000  -0.00000000  0.00000000  1
  Co  Co14  1  0.71312168  0.56524527  0.00000000  1
  Co  Co15  1  0.28687832  0.43475473  0.00000000  1
  Co  Co16  1  0.78687832  0.06524527  0.00000000  1
  Co  Co17  1  0.21312168  0.93475473  0.00000000  1
  Co  Co18  1  0.56524527  0.28687832  0.00000000  1
  Co  Co19  1  0.43475473  0.71312168  0.00000000  1
  Co  Co20  1  0.06524527  0.21312168  0.00000000  1
  Co  Co21  1  0.93475473  0.78687832  0.00000000  1
  Co  Co22  1  0.12097565  0.62097565  0.88862227  1
  Co  Co23  1  0.76764662  0.26764662  0.88862227  1
  Co  Co24  1  0.26764662  0.12097565  0.88862227  1
  Co  Co25  1  0.62097565  0.76764662  0.88862227  1
  Co  Co26  1  0.87902435  0.37902435  0.11137773  1
  Co  Co27  1  0.23235338  0.73235338  0.11137773  1
  Co  Co28  1  0.73235338  0.87902435  0.11137773  1
  Co  Co29  1  0.37902435  0.23235338  0.11137773  1
  Co  Co30  1  0.29772043  0.79772043  0.82399908  1
  Co  Co31  1  0.52627864  0.02627864  0.82399908  1
  Co  Co32  1  0.02627864  0.29772043  0.82399908  1
  Co  Co33  1  0.79772043  0.52627864  0.82399908  1
  Co  Co34  1  0.70227957  0.20227957  0.17600092  1
  Co  Co35  1  0.47372136  0.97372136  0.17600092  1
  Co  Co36  1  0.97372136  0.70227957  0.17600092  1
  Co  Co37  1  0.20227957  0.47372136  0.17600092  1
  Bi  Bi38  1  0.25000000  0.25000000  0.50000000  1
  Bi  Bi39  1  0.75000000  0.75000000  0.50000000  1
