# generated using pymatgen
data_LuFe5P3
_symmetry_space_group_name_H-M   'P 1'
_cell_length_a   3.63126186
_cell_length_b   10.21477829
_cell_length_c   11.74761655
_cell_angle_alpha   90.00000000
_cell_angle_beta   90.00000000
_cell_angle_gamma   90.00000000
_symmetry_Int_Tables_number   1
_chemical_formula_structural   LuFe5P3
_chemical_formula_sum   'Lu4 Fe20 P12'
_cell_volume   435.74887585
_cell_formula_units_Z   4
loop_
 _symmetry_equiv_pos_site_id
 _symmetry_equiv_pos_as_xyz
  1  'x, y, z'
loop_
 _atom_site_type_symbol
 _atom_site_label
 _atom_site_symmetry_multiplicity
 _atom_site_fract_x
 _atom_site_fract_y
 _atom_site_fract_z
 _atom_site_occupancy
  Lu  Lu0  1  0.25000000  0.58158190  0.70520014  1
  Lu  Lu1  1  0.25000000  0.91841810  0.20520014  1
  Lu  Lu2  1  0.75000000  0.41841810  0.29479986  1
  Lu  Lu3  1  0.75000000  0.08158190  0.79479986  1
  Fe  Fe4  1  0.25000000  0.70758210  0.98744727  1
  Fe  Fe5  1  0.25000000  0.79241790  0.48744727  1
  Fe  Fe6  1  0.75000000  0.29241790  0.01255273  1
  Fe  Fe7  1  0.75000000  0.20758210  0.51255273  1
  Fe  Fe8  1  0.25000000  0.40588873  0.48969781  1
  Fe  Fe9  1  0.25000000  0.09411127  0.98969781  1
  Fe  Fe10  1  0.75000000  0.59411127  0.51030219  1
  Fe  Fe11  1  0.75000000  0.90588873  0.01030219  1
  Fe  Fe12  1  0.25000000  0.21945785  0.17670933  1
  Fe  Fe13  1  0.25000000  0.28054215  0.67670933  1
  Fe  Fe14  1  0.75000000  0.78054215  0.82329067  1
  Fe  Fe15  1  0.75000000  0.71945785  0.32329067  1
  Fe  Fe16  1  0.25000000  0.87745349  0.69995009  1
  Fe  Fe17  1  0.25000000  0.62254651  0.19995009  1
  Fe  Fe18  1  0.75000000  0.12254651  0.30004991  1
  Fe  Fe19  1  0.75000000  0.37745349  0.80004991  1
  Fe  Fe20  1  0.25000000  0.46330192  0.93292489  1
  Fe  Fe21  1  0.25000000  0.03669808  0.43292489  1
  Fe  Fe22  1  0.75000000  0.53669808  0.06707511  1
  Fe  Fe23  1  0.75000000  0.96330192  0.56707511  1
  P  P24  1  0.25000000  0.42107493  0.11376589  1
  P  P25  1  0.25000000  0.07892507  0.61376589  1
  P  P26  1  0.75000000  0.57892507  0.88623411  1
  P  P27  1  0.75000000  0.92107493  0.38623411  1
  P  P28  1  0.25000000  0.26498097  0.87063522  1
  P  P29  1  0.25000000  0.23501903  0.37063522  1
  P  P30  1  0.75000000  0.73501903  0.12936478  1
  P  P31  1  0.75000000  0.76498097  0.62936478  1
  P  P32  1  0.25000000  0.60005183  0.39373071  1
  P  P33  1  0.25000000  0.89994817  0.89373071  1
  P  P34  1  0.75000000  0.39994817  0.60626929  1
  P  P35  1  0.75000000  0.10005183  0.10626929  1
