# generated using pymatgen
data_Pr(SiP3)2
_symmetry_space_group_name_H-M   'P 1'
_cell_length_a   10.18758304
_cell_length_b   10.41025245
_cell_length_c   14.97794539
_cell_angle_alpha   90.00000000
_cell_angle_beta   109.88211982
_cell_angle_gamma   90.00000000
_symmetry_Int_Tables_number   1
_chemical_formula_structural   Pr(SiP3)2
_chemical_formula_sum   'Pr8 Si16 P48'
_cell_volume   1493.80756740
_cell_formula_units_Z   8
loop_
 _symmetry_equiv_pos_site_id
 _symmetry_equiv_pos_as_xyz
  1  'x, y, z'
loop_
 _atom_site_type_symbol
 _atom_site_label
 _atom_site_symmetry_multiplicity
 _atom_site_fract_x
 _atom_site_fract_y
 _atom_site_fract_z
 _atom_site_occupancy
  Pr  Pr0  1  0.31080790  0.24086912  0.62161581  1
  Pr  Pr1  1  0.68919210  0.74086912  0.37838419  1
  Pr  Pr2  1  0.58065259  0.14750773  0.16130518  1
  Pr  Pr3  1  0.41934741  0.64750773  0.83869482  1
  Pr  Pr4  1  0.76593612  0.26147089  0.53187224  1
  Pr  Pr5  1  0.23406388  0.76147089  0.46812776  1
  Pr  Pr6  1  0.95947865  0.72304844  0.91895730  1
  Pr  Pr7  1  0.04052135  0.22304844  0.08104270  1
  Si  Si8  1  0.98783868  0.36443902  0.33036425  1
  Si  Si9  1  0.01216132  0.86443902  0.66963575  1
  Si  Si10  1  0.65747443  0.86443902  0.66963575  1
  Si  Si11  1  0.34252557  0.36443902  0.33036425  1
  Si  Si12  1  0.00670533  0.03156621  0.35670204  1
  Si  Si13  1  0.99329467  0.53156621  0.64329796  1
  Si  Si14  1  0.65000329  0.53156621  0.64329796  1
  Si  Si15  1  0.34999671  0.03156621  0.35670204  1
  Si  Si16  1  0.07987024  0.32346198  0.83868715  1
  Si  Si17  1  0.92012976  0.82346198  0.16131285  1
  Si  Si18  1  0.24118309  0.82346198  0.16131285  1
  Si  Si19  1  0.75881691  0.32346198  0.83868715  1
  Si  Si20  1  0.26314144  0.00471233  0.86706941  1
  Si  Si21  1  0.73685856  0.50471233  0.13293059  1
  Si  Si22  1  0.39607203  0.50471233  0.13293059  1
  Si  Si23  1  0.60392797  0.00471233  0.86706941  1
  P  P24  1  0.03538975  0.33404706  0.48549317  1
  P  P25  1  0.96461025  0.83404706  0.51450683  1
  P  P26  1  0.54989657  0.83404706  0.51450683  1
  P  P27  1  0.45010343  0.33404706  0.48549317  1
  P  P28  1  0.80016625  0.50049761  0.29271895  1
  P  P29  1  0.19983375  0.00049761  0.70728105  1
  P  P30  1  0.50744729  0.00049761  0.70728105  1
  P  P31  1  0.49255271  0.50049761  0.29271895  1
  P  P32  1  0.84354876  0.99956795  0.68709753  1
  P  P33  1  0.15645124  0.49956795  0.31290247  1
  P  P34  1  0.95825665  0.42506696  0.91651329  1
  P  P35  1  0.04174335  0.92506696  0.08348671  1
  P  P36  1  0.89777209  0.03369201  0.46663291  1
  P  P37  1  0.10222791  0.53369201  0.53336709  1
  P  P38  1  0.43113918  0.53369201  0.53336709  1
  P  P39  1  0.56886082  0.03369201  0.46663291  1
  P  P40  1  0.10625892  0.12450512  0.90699077  1
  P  P41  1  0.89374108  0.62450512  0.09300923  1
  P  P42  1  0.19926815  0.62450512  0.09300923  1
  P  P43  1  0.80073185  0.12450512  0.90699077  1
  P  P44  1  0.42456576  0.28444175  0.84913151  1
  P  P45  1  0.57543424  0.78444175  0.15086849  1
  P  P46  1  0.77249564  0.54738807  0.54499127  1
  P  P47  1  0.22750436  0.04738807  0.45500873  1
  P  P48  1  0.46936505  0.10876946  0.93873011  1
  P  P49  1  0.53063495  0.60876946  0.06126989  1
  P  P50  1  0.91521669  0.18318706  0.24315675  1
  P  P51  1  0.08478331  0.68318706  0.75684325  1
  P  P52  1  0.67205994  0.68318706  0.75684325  1
  P  P53  1  0.32794006  0.18318706  0.24315675  1
  P  P54  1  0.29847786  0.39979560  0.91541277  1
  P  P55  1  0.70152214  0.89979560  0.08458723  1
  P  P56  1  0.38306509  0.89979560  0.08458723  1
  P  P57  1  0.61693491  0.39979560  0.91541277  1
  P  P58  1  0.65480038  0.35215017  0.30960076  1
  P  P59  1  0.34519962  0.85215017  0.69039924  1
  P  P60  1  0.92255887  0.00022311  0.84511775  1
  P  P61  1  0.07744113  0.50022311  0.15488225  1
  P  P62  1  0.68156308  0.02248056  0.36312617  1
  P  P63  1  0.31843692  0.52248056  0.63687383  1
  P  P64  1  0.72990457  0.31653831  0.05906161  1
  P  P65  1  0.27009543  0.81653831  0.94093839  1
  P  P66  1  0.67084296  0.81653831  0.94093839  1
  P  P67  1  0.32915704  0.31653831  0.05906161  1
  P  P68  1  0.04688529  0.32275060  0.68563270  1
  P  P69  1  0.95311471  0.82275060  0.31436730  1
  P  P70  1  0.36125259  0.82275060  0.31436730  1
  P  P71  1  0.63874741  0.32275060  0.68563270  1
