# generated using pymatgen
data_Np2SO9
_symmetry_space_group_name_H-M   'P 1'
_cell_length_a   6.63802967
_cell_length_b   6.93784631
_cell_length_c   15.98125460
_cell_angle_alpha   90.00000000
_cell_angle_beta   90.00000000
_cell_angle_gamma   90.00000000
_symmetry_Int_Tables_number   1
_chemical_formula_structural   Np2SO9
_chemical_formula_sum   'Np8 S4 O36'
_cell_volume   735.99478072
_cell_formula_units_Z   4
loop_
 _symmetry_equiv_pos_site_id
 _symmetry_equiv_pos_as_xyz
  1  'x, y, z'
loop_
 _atom_site_type_symbol
 _atom_site_label
 _atom_site_symmetry_multiplicity
 _atom_site_fract_x
 _atom_site_fract_y
 _atom_site_fract_z
 _atom_site_occupancy
  Np  Np0  1  0.80563350  0.75000000  0.10252021  1
  Np  Np1  1  0.69436650  0.75000000  0.60252021  1
  Np  Np2  1  0.19436650  0.25000000  0.89747979  1
  Np  Np3  1  0.30563350  0.25000000  0.39747979  1
  Np  Np4  1  0.52820668  0.75000000  0.34497498  1
  Np  Np5  1  0.97179332  0.75000000  0.84497498  1
  Np  Np6  1  0.47179332  0.25000000  0.65502502  1
  Np  Np7  1  0.02820668  0.25000000  0.15502502  1
  S  S8  1  0.43506754  0.75000000  0.93402130  1
  S  S9  1  0.06493246  0.75000000  0.43402130  1
  S  S10  1  0.56493246  0.25000000  0.06597870  1
  S  S11  1  0.93506754  0.25000000  0.56597870  1
  O  O12  1  0.91997062  0.75000000  0.99731667  1
  O  O13  1  0.58002938  0.75000000  0.49731667  1
  O  O14  1  0.08002938  0.25000000  0.00268333  1
  O  O15  1  0.41997062  0.25000000  0.50268333  1
  O  O16  1  0.69804528  0.75000000  0.20775006  1
  O  O17  1  0.80195472  0.75000000  0.70775006  1
  O  O18  1  0.30195472  0.25000000  0.79224994  1
  O  O19  1  0.19804528  0.25000000  0.29224994  1
  O  O20  1  0.54820599  0.02035252  0.35044222  1
  O  O21  1  0.95179401  0.47964748  0.85044222  1
  O  O22  1  0.45179401  0.52035252  0.64955778  1
  O  O23  1  0.04820599  0.97964748  0.14955778  1
  O  O24  1  0.45179401  0.97964748  0.64955778  1
  O  O25  1  0.04820599  0.52035252  0.14955778  1
  O  O26  1  0.54820599  0.47964748  0.35044222  1
  O  O27  1  0.95179401  0.02035252  0.85044222  1
  O  O28  1  0.49559286  0.75000000  0.02289320  1
  O  O29  1  0.00440714  0.75000000  0.52289320  1
  O  O30  1  0.50440714  0.25000000  0.97710680  1
  O  O31  1  0.99559286  0.25000000  0.47710680  1
  O  O32  1  0.30110057  0.91914995  0.91717177  1
  O  O33  1  0.19889943  0.58085005  0.41717177  1
  O  O34  1  0.69889943  0.41914995  0.08282823  1
  O  O35  1  0.80110057  0.08085005  0.58282823  1
  O  O36  1  0.69889943  0.08085005  0.08282823  1
  O  O37  1  0.80110057  0.41914995  0.58282823  1
  O  O38  1  0.30110057  0.58085005  0.91717177  1
  O  O39  1  0.19889943  0.91914995  0.41717177  1
  O  O40  1  0.60938856  0.75000000  0.87706744  1
  O  O41  1  0.89061144  0.75000000  0.37706744  1
  O  O42  1  0.39061144  0.25000000  0.12293256  1
  O  O43  1  0.10938856  0.25000000  0.62293256  1
  O  O44  1  0.32679826  0.75000000  0.26592240  1
  O  O45  1  0.17320174  0.75000000  0.76592240  1
  O  O46  1  0.67320174  0.25000000  0.73407760  1
  O  O47  1  0.82679826  0.25000000  0.23407760  1
