# generated using pymatgen
data_Pr(BRu)4
_symmetry_space_group_name_H-M   'P 1'
_cell_length_a   7.57638184
_cell_length_b   7.57638184
_cell_length_c   9.27694268
_cell_angle_alpha   114.10090071
_cell_angle_beta   114.10090071
_cell_angle_gamma   90.00000000
_symmetry_Int_Tables_number   1
_chemical_formula_structural   Pr(BRu)4
_chemical_formula_sum   'Pr4 B16 Ru16'
_cell_volume   434.74200242
_cell_formula_units_Z   4
loop_
 _symmetry_equiv_pos_site_id
 _symmetry_equiv_pos_as_xyz
  1  'x, y, z'
loop_
 _atom_site_type_symbol
 _atom_site_label
 _atom_site_symmetry_multiplicity
 _atom_site_fract_x
 _atom_site_fract_y
 _atom_site_fract_z
 _atom_site_occupancy
  Pr  Pr0  1  0.12500000  0.37500000  0.25000000  1
  Pr  Pr1  1  0.62500000  0.87500000  0.25000000  1
  Pr  Pr2  1  0.87500000  0.62500000  0.75000000  1
  Pr  Pr3  1  0.37500000  0.12500000  0.75000000  1
  B  B4  1  0.78971579  0.35012371  0.91369357  1
  B  B5  1  0.62397778  0.85012371  0.91369357  1
  B  B6  1  0.85012371  0.28971579  0.41369357  1
  B  B7  1  0.06356986  0.78971579  0.41369357  1
  B  B8  1  0.21028421  0.64987629  0.08630643  1
  B  B9  1  0.37602222  0.14987629  0.08630643  1
  B  B10  1  0.14987629  0.71028421  0.58630643  1
  B  B11  1  0.93643014  0.21028421  0.58630643  1
  B  B12  1  0.28971579  0.56356986  0.91369357  1
  B  B13  1  0.12397778  0.06356986  0.91369357  1
  B  B14  1  0.35012371  0.12397778  0.41369357  1
  B  B15  1  0.56356986  0.62397778  0.41369357  1
  B  B16  1  0.71028421  0.43643014  0.08630643  1
  B  B17  1  0.87602222  0.93643014  0.08630643  1
  B  B18  1  0.64987629  0.87602222  0.58630643  1
  B  B19  1  0.43643014  0.37602222  0.58630643  1
  Ru  Ru20  1  0.94741348  0.66875758  0.12633845  1
  Ru  Ru21  1  0.67892497  0.16875758  0.12633845  1
  Ru  Ru22  1  0.16875758  0.44741348  0.62633845  1
  Ru  Ru23  1  0.95758087  0.94741348  0.62633845  1
  Ru  Ru24  1  0.05258652  0.33124242  0.87366155  1
  Ru  Ru25  1  0.32107503  0.83124242  0.87366155  1
  Ru  Ru26  1  0.83124242  0.55258652  0.37366155  1
  Ru  Ru27  1  0.04241913  0.05258652  0.37366155  1
  Ru  Ru28  1  0.44741348  0.45758087  0.12633845  1
  Ru  Ru29  1  0.17892497  0.95758087  0.12633845  1
  Ru  Ru30  1  0.66875758  0.17892497  0.62633845  1
  Ru  Ru31  1  0.45758087  0.67892497  0.62633845  1
  Ru  Ru32  1  0.55258652  0.54241913  0.87366155  1
  Ru  Ru33  1  0.82107503  0.04241913  0.87366155  1
  Ru  Ru34  1  0.33124242  0.82107503  0.37366155  1
  Ru  Ru35  1  0.54241913  0.32107503  0.37366155  1
