# generated using pymatgen
data_Sc13Os3Br16
_symmetry_space_group_name_H-M   'P 1'
_cell_length_a   9.02664931
_cell_length_b   10.75920205
_cell_length_c   19.32272467
_cell_angle_alpha   90.00000000
_cell_angle_beta   90.00000000
_cell_angle_gamma   90.00000000
_symmetry_Int_Tables_number   1
_chemical_formula_structural   Sc13Os3Br16
_chemical_formula_sum   'Sc26 Os6 Br32'
_cell_volume   1876.61420417
_cell_formula_units_Z   2
loop_
 _symmetry_equiv_pos_site_id
 _symmetry_equiv_pos_as_xyz
  1  'x, y, z'
loop_
 _atom_site_type_symbol
 _atom_site_label
 _atom_site_symmetry_multiplicity
 _atom_site_fract_x
 _atom_site_fract_y
 _atom_site_fract_z
 _atom_site_occupancy
  Sc  Sc0  1  0.82066260  0.60390101  0.39690016  1
  Sc  Sc1  1  0.82066260  0.39609899  0.60309984  1
  Sc  Sc2  1  0.67933740  0.10390101  0.10309984  1
  Sc  Sc3  1  0.67933740  0.89609899  0.89690016  1
  Sc  Sc4  1  0.17933740  0.39609899  0.60309984  1
  Sc  Sc5  1  0.17933740  0.60390101  0.39690016  1
  Sc  Sc6  1  0.32066260  0.89609899  0.89690016  1
  Sc  Sc7  1  0.32066260  0.10390101  0.10309984  1
  Sc  Sc8  1  0.81796173  0.32249448  0.43993924  1
  Sc  Sc9  1  0.81796173  0.67750552  0.56006076  1
  Sc  Sc10  1  0.68203827  0.82249448  0.06006076  1
  Sc  Sc11  1  0.68203827  0.17750552  0.93993924  1
  Sc  Sc12  1  0.18203827  0.67750552  0.56006076  1
  Sc  Sc13  1  0.18203827  0.32249448  0.43993924  1
  Sc  Sc14  1  0.31796173  0.17750552  0.93993924  1
  Sc  Sc15  1  0.31796173  0.82249448  0.06006076  1
  Sc  Sc16  1  0.50000000  0.29838919  0.52944472  1
  Sc  Sc17  1  0.50000000  0.70161081  0.47055528  1
  Sc  Sc18  1  -0.00000000  0.79838919  0.97055528  1
  Sc  Sc19  1  -0.00000000  0.20161081  0.02944472  1
  Sc  Sc20  1  0.50000000  0.44687111  0.38249196  1
  Sc  Sc21  1  0.50000000  0.55312889  0.61750804  1
  Sc  Sc22  1  -0.00000000  0.94687111  0.11750804  1
  Sc  Sc23  1  -0.00000000  0.05312889  0.88249196  1
  Sc  Sc24  1  -0.00000000  -0.00000000  0.50000000  1
  Sc  Sc25  1  0.50000000  0.50000000  -0.00000000  1
  Os  Os26  1  0.66256860  0.50000000  0.50000000  1
  Os  Os27  1  0.83743140  -0.00000000  -0.00000000  1
  Os  Os28  1  0.33743140  0.50000000  0.50000000  1
  Os  Os29  1  0.16256860  -0.00000000  -0.00000000  1
  Os  Os30  1  -0.00000000  0.50000000  0.50000000  1
  Os  Os31  1  0.50000000  -0.00000000  -0.00000000  1
  Br  Br32  1  -0.00000000  0.13135656  0.38149394  1
  Br  Br33  1  -0.00000000  0.86864344  0.61850606  1
  Br  Br34  1  0.50000000  0.63135656  0.11850606  1
  Br  Br35  1  0.50000000  0.36864344  0.88149394  1
  Br  Br36  1  0.76465221  0.40990690  0.30567505  1
  Br  Br37  1  0.76465221  0.59009310  0.69432495  1
  Br  Br38  1  0.73534779  0.90990690  0.19432495  1
  Br  Br39  1  0.73534779  0.09009310  0.80567505  1
  Br  Br40  1  0.23534779  0.59009310  0.69432495  1
  Br  Br41  1  0.23534779  0.40990690  0.30567505  1
  Br  Br42  1  0.26465221  0.09009310  0.80567505  1
  Br  Br43  1  0.26465221  0.90990690  0.19432495  1
  Br  Br44  1  0.77367219  0.14111957  0.55132932  1
  Br  Br45  1  0.77367219  0.85888043  0.44867068  1
  Br  Br46  1  0.72632781  0.64111957  0.94867068  1
  Br  Br47  1  0.72632781  0.35888043  0.05132932  1
  Br  Br48  1  0.22632781  0.85888043  0.44867068  1
  Br  Br49  1  0.22632781  0.14111957  0.55132932  1
  Br  Br50  1  0.27367219  0.35888043  0.05132932  1
  Br  Br51  1  0.27367219  0.64111957  0.94867068  1
  Br  Br52  1  -0.00000000  0.71112969  0.30213491  1
  Br  Br53  1  -0.00000000  0.28887031  0.69786509  1
  Br  Br54  1  0.50000000  0.21112969  0.19786509  1
  Br  Br55  1  0.50000000  0.78887031  0.80213491  1
  Br  Br56  1  0.50000000  0.18680280  0.40093977  1
  Br  Br57  1  0.50000000  0.81319720  0.59906023  1
  Br  Br58  1  -0.00000000  0.68680280  0.09906023  1
  Br  Br59  1  -0.00000000  0.31319720  0.90093977  1
  Br  Br60  1  0.50000000  0.31147793  0.67172601  1
  Br  Br61  1  0.50000000  0.68852207  0.32827399  1
  Br  Br62  1  -0.00000000  0.81147793  0.82827399  1
  Br  Br63  1  -0.00000000  0.18852207  0.17172601  1
