# generated using pymatgen
data_Cs2GaP4H3O14
_symmetry_space_group_name_H-M   'P 1'
_cell_length_a   5.14979630
_cell_length_b   8.12510008
_cell_length_c   17.16590973
_cell_angle_alpha   90.00000000
_cell_angle_beta   97.72009262
_cell_angle_gamma   90.00000000
_symmetry_Int_Tables_number   1
_chemical_formula_structural   Cs2GaP4H3O14
_chemical_formula_sum   'Cs4 Ga2 P8 H6 O28'
_cell_volume   711.75621327
_cell_formula_units_Z   2
loop_
 _symmetry_equiv_pos_site_id
 _symmetry_equiv_pos_as_xyz
  1  'x, y, z'
loop_
 _atom_site_type_symbol
 _atom_site_label
 _atom_site_symmetry_multiplicity
 _atom_site_fract_x
 _atom_site_fract_y
 _atom_site_fract_z
 _atom_site_occupancy
  Cs  Cs0  1  0.40691546  0.58416872  0.36478681  1
  Cs  Cs1  1  0.90691546  0.91583128  0.86478681  1
  Cs  Cs2  1  0.59308454  0.41583128  0.63521319  1
  Cs  Cs3  1  0.09308454  0.08416872  0.13521319  1
  Ga  Ga4  1  0.00000000  0.50000000  0.00000000  1
  Ga  Ga5  1  0.50000000  -0.00000000  0.50000000  1
  P  P6  1  0.51636644  0.72553331  0.04185737  1
  P  P7  1  0.01636644  0.77446669  0.54185737  1
  P  P8  1  0.48363356  0.27446669  0.95814263  1
  P  P9  1  0.98363356  0.22553331  0.45814263  1
  P  P10  1  0.84010758  0.55699717  0.17420910  1
  P  P11  1  0.34010758  0.94300283  0.67420910  1
  P  P12  1  0.15989242  0.44300283  0.82579090  1
  P  P13  1  0.65989242  0.05699717  0.32579090  1
  H  H14  1  0.00000000  0.50000000  0.50000000  1
  H  H15  1  0.50000000  0.00000000  0.00000000  1
  H  H16  1  0.90878795  0.79004382  0.24139870  1
  H  H17  1  0.40878795  0.70995618  0.74139870  1
  H  H18  1  0.09121205  0.20995618  0.75860130  1
  H  H19  1  0.59121205  0.29004382  0.25860130  1
  O  O20  1  0.58266079  0.64571765  0.12832733  1
  O  O21  1  0.08266079  0.85428235  0.62832733  1
  O  O22  1  0.41733921  0.35428235  0.87167267  1
  O  O23  1  0.91733921  0.14571765  0.37167267  1
  O  O24  1  0.57604179  0.91094780  0.05441313  1
  O  O25  1  0.07604179  0.58905220  0.55441313  1
  O  O26  1  0.42395821  0.08905220  0.94558687  1
  O  O27  1  0.92395821  0.41094780  0.44558687  1
  O  O28  1  0.22311001  0.70232901  0.01621825  1
  O  O29  1  0.72311001  0.79767099  0.51621825  1
  O  O30  1  0.77688999  0.29767099  0.98378175  1
  O  O31  1  0.27688999  0.20232901  0.48378175  1
  O  O32  1  0.18989074  0.85359098  0.48642795  1
  O  O33  1  0.68989074  0.64640902  0.98642795  1
  O  O34  1  0.81010926  0.14640902  0.51357205  1
  O  O35  1  0.31010926  0.35359098  0.01357205  1
  O  O36  1  0.50452391  0.97608417  0.38456532  1
  O  O37  1  0.00452391  0.52391583  0.88456532  1
  O  O38  1  0.49547609  0.02391583  0.61543468  1
  O  O39  1  0.99547609  0.47608417  0.11543468  1
  O  O40  1  0.01192214  0.70424836  0.21485480  1
  O  O41  1  0.51192214  0.79575164  0.71485480  1
  O  O42  1  0.98807786  0.29575164  0.78514520  1
  O  O43  1  0.48807786  0.20424836  0.28514520  1
  O  O44  1  0.74916296  0.94522855  0.26471874  1
  O  O45  1  0.24916296  0.55477145  0.76471874  1
  O  O46  1  0.25083704  0.05477145  0.73528126  1
  O  O47  1  0.75083704  0.44522855  0.23528126  1
