# generated using pymatgen
data_Zr5Ge4
_symmetry_space_group_name_H-M   'P 1'
_cell_length_a   7.30477546
_cell_length_b   7.30477546
_cell_length_c   13.24265467
_cell_angle_alpha   90.00000000
_cell_angle_beta   90.00000000
_cell_angle_gamma   90.00000000
_symmetry_Int_Tables_number   1
_chemical_formula_structural   Zr5Ge4
_chemical_formula_sum   'Zr20 Ge16'
_cell_volume   706.62466997
_cell_formula_units_Z   4
loop_
 _symmetry_equiv_pos_site_id
 _symmetry_equiv_pos_as_xyz
  1  'x, y, z'
loop_
 _atom_site_type_symbol
 _atom_site_label
 _atom_site_symmetry_multiplicity
 _atom_site_fract_x
 _atom_site_fract_y
 _atom_site_fract_z
 _atom_site_occupancy
  Zr  Zr0  1  0.82890150  0.17109850  0.75000000  1
  Zr  Zr1  1  0.17109850  0.82890150  0.25000000  1
  Zr  Zr2  1  0.67109850  0.67109850  0.50000000  1
  Zr  Zr3  1  0.32890150  0.32890150  0.00000000  1
  Zr  Zr4  1  0.99781925  0.34367380  0.52993296  1
  Zr  Zr5  1  0.00218075  0.65632620  0.02993296  1
  Zr  Zr6  1  0.84367380  0.50218075  0.27993296  1
  Zr  Zr7  1  0.15632620  0.49781925  0.77993296  1
  Zr  Zr8  1  0.65632620  0.00218075  0.97006704  1
  Zr  Zr9  1  0.34367380  0.99781925  0.47006704  1
  Zr  Zr10  1  0.50218075  0.84367380  0.72006704  1
  Zr  Zr11  1  0.49781925  0.15632620  0.22006704  1
  Zr  Zr12  1  0.50236480  0.34473069  0.62183306  1
  Zr  Zr13  1  0.49763520  0.65526931  0.12183306  1
  Zr  Zr14  1  0.84473069  0.99763520  0.37183306  1
  Zr  Zr15  1  0.15526931  0.00236480  0.87183306  1
  Zr  Zr16  1  0.65526931  0.49763520  0.87816694  1
  Zr  Zr17  1  0.34473069  0.50236480  0.37816694  1
  Zr  Zr18  1  0.99763520  0.84473069  0.62816694  1
  Zr  Zr19  1  0.00236480  0.15526931  0.12816694  1
  Ge  Ge20  1  0.63993828  0.29928631  0.42051496  1
  Ge  Ge21  1  0.36006172  0.70071369  0.92051496  1
  Ge  Ge22  1  0.79928631  0.86006172  0.17051496  1
  Ge  Ge23  1  0.20071369  0.13993828  0.67051496  1
  Ge  Ge24  1  0.70071369  0.36006172  0.07948504  1
  Ge  Ge25  1  0.29928631  0.63993828  0.57948504  1
  Ge  Ge26  1  0.86006172  0.79928631  0.82948504  1
  Ge  Ge27  1  0.13993828  0.20071369  0.32948504  1
  Ge  Ge28  1  0.69778681  0.03755259  0.56630513  1
  Ge  Ge29  1  0.30221319  0.96244741  0.06630513  1
  Ge  Ge30  1  0.53755259  0.80221319  0.31630513  1
  Ge  Ge31  1  0.46244741  0.19778681  0.81630513  1
  Ge  Ge32  1  0.96244741  0.30221319  0.93369487  1
  Ge  Ge33  1  0.03755259  0.69778681  0.43369487  1
  Ge  Ge34  1  0.80221319  0.53755259  0.68369487  1
  Ge  Ge35  1  0.19778681  0.46244741  0.18369487  1
