# generated using pymatgen
data_CsInSe2
_symmetry_space_group_name_H-M   'P 1'
_cell_length_a   8.43479363
_cell_length_b   8.43479363
_cell_length_c   17.27948672
_cell_angle_alpha   97.00044738
_cell_angle_beta   97.00044738
_cell_angle_gamma   89.99082042
_symmetry_Int_Tables_number   1
_chemical_formula_structural   CsInSe2
_chemical_formula_sum   'Cs8 In8 Se16'
_cell_volume   1210.96623342
_cell_formula_units_Z   8
loop_
 _symmetry_equiv_pos_site_id
 _symmetry_equiv_pos_as_xyz
  1  'x, y, z'
loop_
 _atom_site_type_symbol
 _atom_site_label
 _atom_site_symmetry_multiplicity
 _atom_site_fract_x
 _atom_site_fract_y
 _atom_site_fract_z
 _atom_site_occupancy
  Cs  Cs0  1  0.65069451  0.27617572  0.10439504  1
  Cs  Cs1  1  0.72382428  0.34930549  0.39560496  1
  Cs  Cs2  1  0.34930549  0.72382428  0.89560496  1
  Cs  Cs3  1  0.27617572  0.65069451  0.60439504  1
  Cs  Cs4  1  0.27716934  0.15200681  0.60831129  1
  Cs  Cs5  1  0.84799319  0.72283066  0.89168871  1
  Cs  Cs6  1  0.72283066  0.84799319  0.39168871  1
  Cs  Cs7  1  0.15200681  0.27716934  0.10831129  1
  In  In8  1  0.58496132  0.20868770  0.83358547  1
  In  In9  1  0.79131230  0.41503868  0.66641453  1
  In  In10  1  0.41503868  0.79131230  0.16641453  1
  In  In11  1  0.20868770  0.58496132  0.33358547  1
  In  In12  1  0.08191543  0.20825287  0.83308289  1
  In  In13  1  0.79174713  0.91808457  0.66691711  1
  In  In14  1  0.91808457  0.79174713  0.16691711  1
  In  In15  1  0.20825287  0.08191543  0.33308289  1
  Se  Se16  1  0.55146303  0.44853697  0.75000000  1
  Se  Se17  1  0.44853697  0.55146303  0.25000000  1
  Se  Se18  1  0.55134780  0.92679319  0.75000279  1
  Se  Se19  1  0.07320681  0.44865220  0.74999721  1
  Se  Se20  1  0.44865220  0.07320681  0.24999721  1
  Se  Se21  1  0.92679319  0.55134780  0.25000279  1
  Se  Se22  1  0.07359325  0.92640675  0.75000000  1
  Se  Se23  1  0.92640675  0.07359325  0.25000000  1
  Se  Se24  1  0.35653052  0.23230785  0.92655283  1
  Se  Se25  1  0.76769215  0.64346948  0.57344717  1
  Se  Se26  1  0.64346948  0.76769215  0.07344717  1
  Se  Se27  1  0.23230785  0.35653052  0.42655283  1
  Se  Se28  1  0.85733496  0.23204926  0.92765960  1
  Se  Se29  1  0.76795074  0.14266504  0.57234040  1
  Se  Se30  1  0.14266504  0.76795074  0.07234040  1
  Se  Se31  1  0.23204926  0.85733496  0.42765960  1
