# generated using pymatgen
data_CsInP2O7
_symmetry_space_group_name_H-M   'P 1'
_cell_length_a   7.86151361
_cell_length_b   8.74167875
_cell_length_c   10.52464013
_cell_angle_alpha   90.00000000
_cell_angle_beta   90.00000000
_cell_angle_gamma   104.58324452
_symmetry_Int_Tables_number   1
_chemical_formula_structural   CsInP2O7
_chemical_formula_sum   'Cs4 In4 P8 O28'
_cell_volume   699.98089556
_cell_formula_units_Z   4
loop_
 _symmetry_equiv_pos_site_id
 _symmetry_equiv_pos_as_xyz
  1  'x, y, z'
loop_
 _atom_site_type_symbol
 _atom_site_label
 _atom_site_symmetry_multiplicity
 _atom_site_fract_x
 _atom_site_fract_y
 _atom_site_fract_z
 _atom_site_occupancy
  Cs  Cs0  1  0.30435720  0.45797876  0.80007183  1
  Cs  Cs1  1  0.69564280  0.04202124  0.30007183  1
  Cs  Cs2  1  0.69564280  0.54202124  0.19992817  1
  Cs  Cs3  1  0.30435720  0.95797876  0.69992817  1
  In  In4  1  0.73839333  0.25762086  0.89837458  1
  In  In5  1  0.26160667  0.24237914  0.39837458  1
  In  In6  1  0.26160667  0.74237914  0.10162542  1
  In  In7  1  0.73839333  0.75762086  0.60162542  1
  P  P8  1  0.63414567  0.32999505  0.59176247  1
  P  P9  1  0.36585433  0.17000495  0.09176247  1
  P  P10  1  0.36585433  0.67000495  0.40823753  1
  P  P11  1  0.63414567  0.82999505  0.90823753  1
  P  P12  1  0.07266171  0.31728616  0.12906848  1
  P  P13  1  0.92733829  0.18271384  0.62906848  1
  P  P14  1  0.92733829  0.68271384  0.87093152  1
  P  P15  1  0.07266171  0.81728616  0.37093152  1
  O  O16  1  0.50290866  0.23109244  0.49643852  1
  O  O17  1  0.49709134  0.26890756  0.99643852  1
  O  O18  1  0.49709134  0.76890756  0.50356148  1
  O  O19  1  0.50290866  0.73109244  0.00356148  1
  O  O20  1  0.17527391  0.20119504  0.05603107  1
  O  O21  1  0.82472609  0.29880496  0.55603107  1
  O  O22  1  0.82472609  0.79880496  0.94396893  1
  O  O23  1  0.17527391  0.70119504  0.44396893  1
  O  O24  1  0.58635373  0.26698369  0.72718043  1
  O  O25  1  0.41364627  0.23301631  0.22718043  1
  O  O26  1  0.41364627  0.73301631  0.27281957  1
  O  O27  1  0.58635373  0.76698369  0.77281957  1
  O  O28  1  0.05759983  0.27175496  0.27053315  1
  O  O29  1  0.94240017  0.22824504  0.77053315  1
  O  O30  1  0.94240017  0.72824504  0.72946685  1
  O  O31  1  0.05759983  0.77175496  0.22946685  1
  O  O32  1  0.88680949  0.27509791  0.07300759  1
  O  O33  1  0.11319051  0.22490209  0.57300759  1
  O  O34  1  0.11319051  0.72490209  0.92699241  1
  O  O35  1  0.88680949  0.77509791  0.42699241  1
  O  O36  1  0.65402525  0.50601733  0.57890224  1
  O  O37  1  0.34597475  0.99398267  0.07890224  1
  O  O38  1  0.34597475  0.49398267  0.42109776  1
  O  O39  1  0.65402525  0.00601733  0.92109776  1
  O  O40  1  0.17984361  0.48500832  0.10211737  1
  O  O41  1  0.82015639  0.01499168  0.60211737  1
  O  O42  1  0.82015639  0.51499168  0.89788263  1
  O  O43  1  0.17984361  0.98500832  0.39788263  1
