# generated using pymatgen
data_BaSm2Sc2O7
_symmetry_space_group_name_H-M   'P 1'
_cell_length_a   5.83841751
_cell_length_b   5.83841751
_cell_length_c   20.23614021
_cell_angle_alpha   90.00000000
_cell_angle_beta   90.00000000
_cell_angle_gamma   90.00000000
_symmetry_Int_Tables_number   1
_chemical_formula_structural   BaSm2Sc2O7
_chemical_formula_sum   'Ba4 Sm8 Sc8 O28'
_cell_volume   689.79171987
_cell_formula_units_Z   4
loop_
 _symmetry_equiv_pos_site_id
 _symmetry_equiv_pos_as_xyz
  1  'x, y, z'
loop_
 _atom_site_type_symbol
 _atom_site_label
 _atom_site_symmetry_multiplicity
 _atom_site_fract_x
 _atom_site_fract_y
 _atom_site_fract_z
 _atom_site_occupancy
  Ba  Ba0  1  0.23774650  0.76225350  0.50000000  1
  Ba  Ba1  1  0.76225350  0.23774650  0.50000000  1
  Ba  Ba2  1  0.26225350  0.26225350  -0.00000000  1
  Ba  Ba3  1  0.73774650  0.73774650  -0.00000000  1
  Sm  Sm4  1  0.21943768  0.78056232  0.31490509  1
  Sm  Sm5  1  0.78056232  0.21943768  0.31490509  1
  Sm  Sm6  1  0.28056232  0.28056232  0.81490509  1
  Sm  Sm7  1  0.71943768  0.71943768  0.81490509  1
  Sm  Sm8  1  0.78056232  0.21943768  0.68509491  1
  Sm  Sm9  1  0.21943768  0.78056232  0.68509491  1
  Sm  Sm10  1  0.71943768  0.71943768  0.18509491  1
  Sm  Sm11  1  0.28056232  0.28056232  0.18509491  1
  Sc  Sc12  1  0.24009810  0.75990190  0.10343564  1
  Sc  Sc13  1  0.75990190  0.24009810  0.10343564  1
  Sc  Sc14  1  0.25990190  0.25990190  0.60343564  1
  Sc  Sc15  1  0.74009810  0.74009810  0.60343564  1
  Sc  Sc16  1  0.75990190  0.24009810  0.89656436  1
  Sc  Sc17  1  0.24009810  0.75990190  0.89656436  1
  Sc  Sc18  1  0.74009810  0.74009810  0.39656436  1
  Sc  Sc19  1  0.25990190  0.25990190  0.39656436  1
  O  O20  1  0.28712550  0.28712550  0.50000000  1
  O  O21  1  0.71287450  0.71287450  0.50000000  1
  O  O22  1  0.21287450  0.78712550  0.00000000  1
  O  O23  1  0.78712550  0.21287450  0.00000000  1
  O  O24  1  0.31868064  0.68131936  0.21161725  1
  O  O25  1  0.68131936  0.31868064  0.21161725  1
  O  O26  1  0.18131936  0.18131936  0.71161725  1
  O  O27  1  0.81868064  0.81868064  0.71161725  1
  O  O28  1  0.68131936  0.31868064  0.78838275  1
  O  O29  1  0.31868064  0.68131936  0.78838275  1
  O  O30  1  0.81868064  0.81868064  0.28838275  1
  O  O31  1  0.18131936  0.18131936  0.28838275  1
  O  O32  1  0.00000000  0.50000000  0.38382070  1
  O  O33  1  0.50000000  0.00000000  0.88382070  1
  O  O34  1  0.00000000  0.50000000  0.61617930  1
  O  O35  1  0.50000000  0.00000000  0.11617930  1
  O  O36  1  0.50000000  -0.00000000  0.38382070  1
  O  O37  1  0.00000000  0.50000000  0.88382070  1
  O  O38  1  0.50000000  -0.00000000  0.61617930  1
  O  O39  1  0.00000000  0.50000000  0.11617930  1
  O  O40  1  0.50000000  0.50000000  0.36786196  1
  O  O41  1  0.00000000  -0.00000000  0.86786196  1
  O  O42  1  0.50000000  0.50000000  0.63213804  1
  O  O43  1  0.00000000  0.00000000  0.13213804  1
  O  O44  1  0.50000000  0.50000000  0.09515556  1
  O  O45  1  0.00000000  0.00000000  0.59515556  1
  O  O46  1  0.50000000  0.50000000  0.90484444  1
  O  O47  1  0.00000000  0.00000000  0.40484444  1
