# generated using pymatgen
data_SrTe(HO2)2
_symmetry_space_group_name_H-M   'P 1'
_cell_length_a   7.25689029
_cell_length_b   7.97914479
_cell_length_c   8.40403613
_cell_angle_alpha   107.27315461
_cell_angle_beta   90.00000000
_cell_angle_gamma   90.00000000
_symmetry_Int_Tables_number   1
_chemical_formula_structural   SrTe(HO2)2
_chemical_formula_sum   'Sr4 Te4 H8 O16'
_cell_volume   464.67865095
_cell_formula_units_Z   4
loop_
 _symmetry_equiv_pos_site_id
 _symmetry_equiv_pos_as_xyz
  1  'x, y, z'
loop_
 _atom_site_type_symbol
 _atom_site_label
 _atom_site_symmetry_multiplicity
 _atom_site_fract_x
 _atom_site_fract_y
 _atom_site_fract_z
 _atom_site_occupancy
  Sr  Sr0  1  0.86103788  0.60075722  0.83704886  1
  Sr  Sr1  1  0.36103788  0.39924278  0.66295114  1
  Sr  Sr2  1  0.13896212  0.39924278  0.16295114  1
  Sr  Sr3  1  0.63896212  0.60075722  0.33704886  1
  Te  Te4  1  0.67241179  0.21915167  0.99372667  1
  Te  Te5  1  0.17241179  0.78084833  0.50627333  1
  Te  Te6  1  0.32758821  0.78084833  0.00627333  1
  Te  Te7  1  0.82758821  0.21915167  0.49372667  1
  H  H8  1  0.94260471  0.80629104  0.20494007  1
  H  H9  1  0.44260471  0.19370896  0.29505993  1
  H  H10  1  0.05739529  0.19370896  0.79505993  1
  H  H11  1  0.55739529  0.80629104  0.70494007  1
  H  H12  1  0.91404517  0.98624039  0.16136867  1
  H  H13  1  0.41404517  0.01375961  0.33863133  1
  H  H14  1  0.08595483  0.01375961  0.83863133  1
  H  H15  1  0.58595483  0.98624039  0.66136867  1
  O  O16  1  0.80293158  0.43526071  0.05032359  1
  O  O17  1  0.30293158  0.56473929  0.44967641  1
  O  O18  1  0.19706842  0.56473929  0.94967641  1
  O  O19  1  0.69706842  0.43526071  0.55032359  1
  O  O20  1  0.47731613  0.30611695  0.14804768  1
  O  O21  1  0.97731613  0.69388305  0.35195232  1
  O  O22  1  0.52268387  0.69388305  0.85195232  1
  O  O23  1  0.02268387  0.30611695  0.64804768  1
  O  O24  1  0.57245204  0.22149014  0.78677587  1
  O  O25  1  0.07245204  0.77850986  0.71322413  1
  O  O26  1  0.42754796  0.77850986  0.21322413  1
  O  O27  1  0.92754796  0.22149014  0.28677587  1
  O  O28  1  0.91260612  0.85604894  0.11214018  1
  O  O29  1  0.41260612  0.14395106  0.38785982  1
  O  O30  1  0.08739388  0.14395106  0.88785982  1
  O  O31  1  0.58739388  0.85604894  0.61214018  1
