# generated using pymatgen
data_Dy4BClO7
_symmetry_space_group_name_H-M   'P 1'
_cell_length_a   8.07211087
_cell_length_b   8.66313606
_cell_length_c   10.93038684
_cell_angle_alpha   102.86551954
_cell_angle_beta   90.00000000
_cell_angle_gamma   90.00000000
_symmetry_Int_Tables_number   1
_chemical_formula_structural   Dy4BClO7
_chemical_formula_sum   'Dy16 B4 Cl4 O28'
_cell_volume   745.17073997
_cell_formula_units_Z   4
loop_
 _symmetry_equiv_pos_site_id
 _symmetry_equiv_pos_as_xyz
  1  'x, y, z'
loop_
 _atom_site_type_symbol
 _atom_site_label
 _atom_site_symmetry_multiplicity
 _atom_site_fract_x
 _atom_site_fract_y
 _atom_site_fract_z
 _atom_site_occupancy
  Dy  Dy0  1  0.37368976  0.98158766  0.77957471  1
  Dy  Dy1  1  0.12631024  0.48158766  0.27957471  1
  Dy  Dy2  1  0.62631024  0.01841234  0.22042529  1
  Dy  Dy3  1  0.87368976  0.51841234  0.72042529  1
  Dy  Dy4  1  0.38258025  0.66699027  0.08953661  1
  Dy  Dy5  1  0.11741975  0.16699027  0.58953661  1
  Dy  Dy6  1  0.61741975  0.33300973  0.91046339  1
  Dy  Dy7  1  0.88258025  0.83300973  0.41046339  1
  Dy  Dy8  1  0.36212221  0.84842272  0.41925121  1
  Dy  Dy9  1  0.13787779  0.34842272  0.91925121  1
  Dy  Dy10  1  0.63787779  0.15157728  0.58074879  1
  Dy  Dy11  1  0.86212221  0.65157728  0.08074879  1
  Dy  Dy12  1  0.38527412  0.53807077  0.72090580  1
  Dy  Dy13  1  0.11472588  0.03807077  0.22090580  1
  Dy  Dy14  1  0.61472588  0.46192923  0.27909420  1
  Dy  Dy15  1  0.88527412  0.96192923  0.77909420  1
  B  B16  1  0.12904366  0.71707936  0.58700586  1
  B  B17  1  0.37095634  0.21707936  0.08700586  1
  B  B18  1  0.87095634  0.28292064  0.41299414  1
  B  B19  1  0.62904366  0.78292064  0.91299414  1
  Cl  Cl20  1  0.14502027  0.84924487  0.96731696  1
  Cl  Cl21  1  0.35497973  0.34924487  0.46731696  1
  Cl  Cl22  1  0.85497973  0.15075513  0.03268304  1
  Cl  Cl23  1  0.64502027  0.65075513  0.53268304  1
  O  O24  1  0.37777844  0.05504538  0.59706341  1
  O  O25  1  0.12222156  0.55504538  0.09706341  1
  O  O26  1  0.62222156  0.94495462  0.40293659  1
  O  O27  1  0.87777844  0.44495462  0.90293659  1
  O  O28  1  0.36305169  0.91568399  0.22420547  1
  O  O29  1  0.13694831  0.41568399  0.72420547  1
  O  O30  1  0.63694831  0.08431601  0.77579453  1
  O  O31  1  0.86305169  0.58431601  0.27579453  1
  O  O32  1  0.38297699  0.60400361  0.28157905  1
  O  O33  1  0.11702301  0.10400361  0.78157905  1
  O  O34  1  0.61702301  0.39599639  0.71842095  1
  O  O35  1  0.88297699  0.89599639  0.21842095  1
  O  O36  1  0.37755555  0.47798741  0.90741714  1
  O  O37  1  0.12244445  0.97798741  0.40741714  1
  O  O38  1  0.62244445  0.52201259  0.09258286  1
  O  O39  1  0.87755555  0.02201259  0.59258286  1
  O  O40  1  0.11166207  0.68183857  0.45736430  1
  O  O41  1  0.38833793  0.18183857  0.95736430  1
  O  O42  1  0.88833793  0.31816143  0.54263570  1
  O  O43  1  0.61166207  0.81816143  0.04263570  1
  O  O44  1  0.99188281  0.73005723  0.66321754  1
  O  O45  1  0.50811719  0.23005723  0.16321754  1
  O  O46  1  0.00811719  0.26994277  0.33678246  1
  O  O47  1  0.49188281  0.76994277  0.83678246  1
  O  O48  1  0.28545430  0.74847010  0.63648344  1
  O  O49  1  0.21454570  0.24847010  0.13648344  1
  O  O50  1  0.71454570  0.25152990  0.36351656  1
  O  O51  1  0.78545430  0.75152990  0.86351656  1
