# generated using pymatgen
data_Rb2Th7Se15
_symmetry_space_group_name_H-M   'P 1'
_cell_length_a   7.96062337
_cell_length_b   15.47571953
_cell_length_c   22.02638257
_cell_angle_alpha   90.48481317
_cell_angle_beta   90.00000000
_cell_angle_gamma   90.00000000
_symmetry_Int_Tables_number   1
_chemical_formula_structural   Rb2Th7Se15
_chemical_formula_sum   'Rb8 Th28 Se60'
_cell_volume   2713.47333378
_cell_formula_units_Z   4
loop_
 _symmetry_equiv_pos_site_id
 _symmetry_equiv_pos_as_xyz
  1  'x, y, z'
loop_
 _atom_site_type_symbol
 _atom_site_label
 _atom_site_symmetry_multiplicity
 _atom_site_fract_x
 _atom_site_fract_y
 _atom_site_fract_z
 _atom_site_occupancy
  Rb  Rb0  1  0.55237284  0.95525502  0.23247099  1
  Rb  Rb1  1  0.05237284  0.04474498  0.26752901  1
  Rb  Rb2  1  0.44762716  0.04474498  0.76752901  1
  Rb  Rb3  1  0.94762716  0.95525502  0.73247099  1
  Rb  Rb4  1  0.95317349  0.60762455  0.05871520  1
  Rb  Rb5  1  0.45317349  0.39237545  0.44128480  1
  Rb  Rb6  1  0.04682651  0.39237545  0.94128480  1
  Rb  Rb7  1  0.54682651  0.60762455  0.55871520  1
  Th  Th8  1  0.91888635  0.90503443  0.07722484  1
  Th  Th9  1  0.41888635  0.09496557  0.42277516  1
  Th  Th10  1  0.08111365  0.09496557  0.92277516  1
  Th  Th11  1  0.58111365  0.90503443  0.57722484  1
  Th  Th12  1  0.02318205  0.88137868  0.43919732  1
  Th  Th13  1  0.52318205  0.11862132  0.06080268  1
  Th  Th14  1  0.97681795  0.11862132  0.56080268  1
  Th  Th15  1  0.47681795  0.88137868  0.93919732  1
  Th  Th16  1  0.52554919  0.78804370  0.39497868  1
  Th  Th17  1  0.02554919  0.21195630  0.10502132  1
  Th  Th18  1  0.47445081  0.21195630  0.60502132  1
  Th  Th19  1  0.97445081  0.78804370  0.89497868  1
  Th  Th20  1  0.07044552  0.74927155  0.25565108  1
  Th  Th21  1  0.57044552  0.25072845  0.24434892  1
  Th  Th22  1  0.92955448  0.25072845  0.74434892  1
  Th  Th23  1  0.42955448  0.74927155  0.75565108  1
  Th  Th24  1  0.92590669  0.57932326  0.41419443  1
  Th  Th25  1  0.42590669  0.42067674  0.08580557  1
  Th  Th26  1  0.07409331  0.42067674  0.58580557  1
  Th  Th27  1  0.57409331  0.57932326  0.91419443  1
  Th  Th28  1  0.97940571  0.45384894  0.22609518  1
  Th  Th29  1  0.47940571  0.54615106  0.27390482  1
  Th  Th30  1  0.02059429  0.54615106  0.77390482  1
  Th  Th31  1  0.52059429  0.45384894  0.72609518  1
  Th  Th32  1  0.94636435  0.25906268  0.38685701  1
  Th  Th33  1  0.44636435  0.74093732  0.11314299  1
  Th  Th34  1  0.05363565  0.74093732  0.61314299  1
  Th  Th35  1  0.55363565  0.25906268  0.88685701  1
  Se  Se36  1  0.66286933  0.95294147  0.45287411  1
  Se  Se37  1  0.16286933  0.04705853  0.04712589  1
  Se  Se38  1  0.33713067  0.04705853  0.54712589  1
  Se  Se39  1  0.83713067  0.95294147  0.95287411  1
  Se  Se40  1  0.30834317  0.93231231  0.35707535  1
  Se  Se41  1  0.80834317  0.06768769  0.14292465  1
  Se  Se42  1  0.69165683  0.06768769  0.64292465  1
  Se  Se43  1  0.19165683  0.93231231  0.85707535  1
  Se  Se44  1  0.53788095  0.92259109  0.07101954  1
  Se  Se45  1  0.03788095  0.07740891  0.42898046  1
  Se  Se46  1  0.46211905  0.07740891  0.92898046  1
  Se  Se47  1  0.96211905  0.92259109  0.57101954  1
  Se  Se48  1  0.19796692  0.86912532  0.16656055  1
  Se  Se49  1  0.69796692  0.13087468  0.33343945  1
  Se  Se50  1  0.80203308  0.13087468  0.83343945  1
  Se  Se51  1  0.30203308  0.86912532  0.66656055  1
  Se  Se52  1  0.83161146  0.85693534  0.32613551  1
  Se  Se53  1  0.33161146  0.14306466  0.17386449  1
  Se  Se54  1  0.16838854  0.14306466  0.67386449  1
  Se  Se55  1  0.66838854  0.85693534  0.82613551  1
  Se  Se56  1  0.79073977  0.77063379  0.15709023  1
  Se  Se57  1  0.29073977  0.22936621  0.34290977  1
  Se  Se58  1  0.20926023  0.22936621  0.84290977  1
  Se  Se59  1  0.70926023  0.77063379  0.65709023  1
  Se  Se60  1  0.81363812  0.74026553  0.48913396  1
  Se  Se61  1  0.31363812  0.25973447  0.01086604  1
  Se  Se62  1  0.18636188  0.25973447  0.51086604  1
  Se  Se63  1  0.68636188  0.74026553  0.98913396  1
  Se  Se64  1  0.16631375  0.71606165  0.38214262  1
  Se  Se65  1  0.66631375  0.28393835  0.11785738  1
  Se  Se66  1  0.83368625  0.28393835  0.61785738  1
  Se  Se67  1  0.33368625  0.71606165  0.88214262  1
  Se  Se68  1  0.83723888  0.61307616  0.28529069  1
  Se  Se69  1  0.33723888  0.38692384  0.21470931  1
  Se  Se70  1  0.16276112  0.38692384  0.71470931  1
  Se  Se71  1  0.66276112  0.61307616  0.78529069  1
  Se  Se72  1  0.55406932  0.59862130  0.40343276  1
  Se  Se73  1  0.05406932  0.40137870  0.09656724  1
  Se  Se74  1  0.44593068  0.40137870  0.59656724  1
  Se  Se75  1  0.94593068  0.59862130  0.90343276  1
  Se  Se76  1  0.66539488  0.52745672  0.15819434  1
  Se  Se77  1  0.16539488  0.47254328  0.34180566  1
  Se  Se78  1  0.33460512  0.47254328  0.84180566  1
  Se  Se79  1  0.83460512  0.52745672  0.65819434  1
  Se  Se80  1  0.87537028  0.41105876  0.47015777  1
  Se  Se81  1  0.37537028  0.58894124  0.02984223  1
  Se  Se82  1  0.12462972  0.58894124  0.52984223  1
  Se  Se83  1  0.62462972  0.41105876  0.97015777  1
  Se  Se84  1  0.70535131  0.39726505  0.31819565  1
  Se  Se85  1  0.20535131  0.60273495  0.18180435  1
  Se  Se86  1  0.29464869  0.60273495  0.68180435  1
  Se  Se87  1  0.79464869  0.39726505  0.81819565  1
  Se  Se88  1  0.95299959  0.26254712  0.23895364  1
  Se  Se89  1  0.45299959  0.73745288  0.26104636  1
  Se  Se90  1  0.04700041  0.73745288  0.76104636  1
  Se  Se91  1  0.54700041  0.26254712  0.73895364  1
  Se  Se92  1  0.67654503  0.19972830  0.48772934  1
  Se  Se93  1  0.17654503  0.80027170  0.01227066  1
  Se  Se94  1  0.32345497  0.80027170  0.51227066  1
  Se  Se95  1  0.82345497  0.19972830  0.98772934  1
