# generated using pymatgen
data_TeS7Br2
_symmetry_space_group_name_H-M   'P 1'
_cell_length_a   9.29420274
_cell_length_b   10.12479407
_cell_length_c   13.92274022
_cell_angle_alpha   90.00000000
_cell_angle_beta   90.00000000
_cell_angle_gamma   90.00000000
_symmetry_Int_Tables_number   1
_chemical_formula_structural   TeS7Br2
_chemical_formula_sum   'Te4 S28 Br8'
_cell_volume   1310.15615180
_cell_formula_units_Z   4
loop_
 _symmetry_equiv_pos_site_id
 _symmetry_equiv_pos_as_xyz
  1  'x, y, z'
loop_
 _atom_site_type_symbol
 _atom_site_label
 _atom_site_symmetry_multiplicity
 _atom_site_fract_x
 _atom_site_fract_y
 _atom_site_fract_z
 _atom_site_occupancy
  Te  Te0  1  0.25000000  0.79880241  0.90921471  1
  Te  Te1  1  0.25000000  0.29880241  0.59078529  1
  Te  Te2  1  0.75000000  0.20119759  0.09078529  1
  Te  Te3  1  0.75000000  0.70119759  0.40921471  1
  S  S4  1  0.04004264  0.67578780  0.98249141  1
  S  S5  1  0.45995736  0.17578780  0.51750859  1
  S  S6  1  0.54004264  0.32421220  0.01750859  1
  S  S7  1  0.95995736  0.82421220  0.48249141  1
  S  S8  1  0.95995736  0.32421220  0.01750859  1
  S  S9  1  0.54004264  0.82421220  0.48249141  1
  S  S10  1  0.45995736  0.67578780  0.98249141  1
  S  S11  1  0.04004264  0.17578780  0.51750859  1
  S  S12  1  0.97782996  0.76094888  0.10633233  1
  S  S13  1  0.52217004  0.26094888  0.39366767  1
  S  S14  1  0.47782996  0.23905112  0.89366767  1
  S  S15  1  0.02217004  0.73905112  0.60633233  1
  S  S16  1  0.02217004  0.23905112  0.89366767  1
  S  S17  1  0.47782996  0.73905112  0.60633233  1
  S  S18  1  0.52217004  0.76094888  0.10633233  1
  S  S19  1  0.97782996  0.26094888  0.39366767  1
  S  S20  1  0.07132591  0.65626418  0.22005839  1
  S  S21  1  0.42867409  0.15626418  0.27994161  1
  S  S22  1  0.57132591  0.34373582  0.77994161  1
  S  S23  1  0.92867409  0.84373582  0.72005839  1
  S  S24  1  0.92867409  0.34373582  0.77994161  1
  S  S25  1  0.57132591  0.84373582  0.72005839  1
  S  S26  1  0.42867409  0.65626418  0.22005839  1
  S  S27  1  0.07132591  0.15626418  0.27994161  1
  S  S28  1  0.25000000  0.75539923  0.27001994  1
  S  S29  1  0.25000000  0.25539923  0.22998006  1
  S  S30  1  0.75000000  0.24460077  0.72998006  1
  S  S31  1  0.75000000  0.74460077  0.77001994  1
  Br  Br32  1  0.25000000  0.98724206  0.03718248  1
  Br  Br33  1  0.25000000  0.48724206  0.46281752  1
  Br  Br34  1  0.75000000  0.01275794  0.96281752  1
  Br  Br35  1  0.75000000  0.51275794  0.53718248  1
  Br  Br36  1  0.25000000  0.57924547  0.79686935  1
  Br  Br37  1  0.25000000  0.07924547  0.70313065  1
  Br  Br38  1  0.75000000  0.42075453  0.20313065  1
  Br  Br39  1  0.75000000  0.92075453  0.29686935  1
