# generated using pymatgen
data_Lu6H40N8O49
_symmetry_space_group_name_H-M   'P 1'
_cell_length_a   10.04134270
_cell_length_b   10.16065473
_cell_length_c   11.25925193
_cell_angle_alpha   95.66313892
_cell_angle_beta   108.47181750
_cell_angle_gamma   111.09390515
_symmetry_Int_Tables_number   1
_chemical_formula_structural   Lu6H40N8O49
_chemical_formula_sum   'Lu6 H40 N8 O49'
_cell_volume   986.74645368
_cell_formula_units_Z   1
loop_
 _symmetry_equiv_pos_site_id
 _symmetry_equiv_pos_as_xyz
  1  'x, y, z'
loop_
 _atom_site_type_symbol
 _atom_site_label
 _atom_site_symmetry_multiplicity
 _atom_site_fract_x
 _atom_site_fract_y
 _atom_site_fract_z
 _atom_site_occupancy
  Lu  Lu0  1  0.73414638  0.47683286  0.61381427  1
  Lu  Lu1  1  0.26585362  0.52316714  0.38618573  1
  Lu  Lu2  1  0.64928940  0.75547929  0.52165640  1
  Lu  Lu3  1  0.35071060  0.24452071  0.47834360  1
  Lu  Lu4  1  0.48103716  0.56503158  0.70554993  1
  Lu  Lu5  1  0.51896284  0.43496842  0.29445007  1
  H  H6  1  0.80695250  0.73946411  0.78724968  1
  H  H7  1  0.19304750  0.26053589  0.21275032  1
  H  H8  1  0.84406259  0.64653556  0.44560079  1
  H  H9  1  0.15593741  0.35346444  0.55439921  1
  H  H10  1  0.40754307  0.78672869  0.59303715  1
  H  H11  1  0.59245693  0.21327131  0.40696285  1
  H  H12  1  0.55453555  0.32295159  0.75344565  1
  H  H13  1  0.44546445  0.67704841  0.24655435  1
  H  H14  1  0.96469929  0.54107263  0.86446152  1
  H  H15  1  0.03530071  0.45892737  0.13553848  1
  H  H16  1  0.83299981  0.39710559  0.86892476  1
  H  H17  1  0.16700019  0.60289441  0.13107524  1
  H  H18  1  0.00538427  0.75668624  0.69861871  1
  H  H19  1  0.99461573  0.24331376  0.30138129  1
  H  H20  1  0.08457336  0.64465740  0.70113951  1
  H  H21  1  0.91542664  0.35534260  0.29886049  1
  H  H22  1  0.95061331  0.98185289  0.68749025  1
  H  H23  1  0.04938669  0.01814711  0.31250975  1
  H  H24  1  0.01009483  0.93204293  0.58702406  1
  H  H25  1  0.98990517  0.06795707  0.41297594  1
  H  H26  1  0.73041863  0.05594038  0.68398120  1
  H  H27  1  0.26958137  0.94405962  0.31601880  1
  H  H28  1  0.67749859  0.93163459  0.75834452  1
  H  H29  1  0.32250141  0.06836541  0.24165548  1
  H  H30  1  0.48455722  0.83544089  0.85961513  1
  H  H31  1  0.51544278  0.16455911  0.14038487  1
  H  H32  1  0.64434026  0.83357531  0.93312566  1
  H  H33  1  0.35565974  0.16642469  0.06687434  1
  H  H34  1  0.64008651  0.57683629  0.99238527  1
  H  H35  1  0.35991349  0.42316371  0.00761473  1
  H  H36  1  0.74651986  0.57524268  0.91507308  1
  H  H37  1  0.25348014  0.42475732  0.08492692  1
  H  H38  1  0.72944921  0.98895712  0.11345879  1
  H  H39  1  0.27055079  0.01104288  0.88654121  1
  H  H40  1  0.74553634  0.85126611  0.15210340  1
  H  H41  1  0.25446366  0.14873389  0.84789660  1
  H  H42  1  0.02968398  0.80207970  0.98221838  1
  H  H43  1  0.97031602  0.19792030  0.01778162  1
  H  H44  1  0.03651246  0.93167455  0.92002536  1
  H  H45  1  0.96348754  0.06832545  0.07997464  1
  N  N46  1  0.88586387  0.27748729  0.59999631  1
  N  N47  1  0.11413613  0.72251271  0.40000369  1
  N  N48  1  0.67605931  0.97298532  0.37258360  1
  N  N49  1  0.32394069  0.02701468  0.62741640  1
  N  N50  1  0.24397768  0.50215931  0.81400198  1
  N  N51  1  0.75602232  0.49784069  0.18599802  1
  N  N52  1  0.67797851  0.21520529  0.95921606  1
  N  N53  1  0.32202149  0.78479471  0.04078394  1
  O  O54  1  0.50000000  0.50000000  0.50000000  1
  O  O55  1  0.71897916  0.67774748  0.70491627  1
  O  O56  1  0.28102084  0.32225252  0.29508373  1
  O  O57  1  0.74554920  0.60453264  0.45631414  1
  O  O58  1  0.25445080  0.39546736  0.54368586  1
  O  O59  1  0.43172419  0.70640042  0.56656228  1
  O  O60  1  0.56827581  0.29359958  0.43343772  1
  O  O61  1  0.53634569  0.36706756  0.67896411  1
  O  O62  1  0.46365431  0.63293244  0.32103589  1
  O  O63  1  0.85315690  0.49099716  0.84093553  1
  O  O64  1  0.14684310  0.50900284  0.15906447  1
  O  O65  1  0.99219909  0.65677084  0.70253945  1
  O  O66  1  0.00780091  0.34322916  0.29746055  1
  O  O67  1  0.93765372  0.89571002  0.62964335  1
  O  O68  1  0.06234628  0.10428998  0.37035665  1
  O  O69  1  0.72738801  0.96013359  0.69643902  1
  O  O70  1  0.27261199  0.03986641  0.30356098  1
  O  O71  1  0.56544797  0.81190200  0.84426492  1
  O  O72  1  0.43455203  0.18809800  0.15573508  1
  O  O73  1  0.65580811  0.59330086  0.91248788  1
  O  O74  1  0.34419189  0.40669914  0.08751212  1
  O  O75  1  0.76855378  0.91644496  0.09610435  1
  O  O76  1  0.23144622  0.08355504  0.90389565  1
  O  O77  1  0.96308516  0.84302857  0.92997319  1
  O  O78  1  0.03691484  0.15697143  0.07002681  1
  O  O79  1  0.90665776  0.39141102  0.55629040  1
  O  O80  1  0.09334224  0.60858898  0.44370960  1
  O  O81  1  0.78210577  0.24016039  0.64788082  1
  O  O82  1  0.21789423  0.75983961  0.35211918  1
  O  O83  1  0.96495868  0.20715046  0.59621326  1
  O  O84  1  0.03504132  0.79284954  0.40378674  1
  O  O85  1  0.58378504  0.94280733  0.43169747  1
  O  O86  1  0.41621496  0.05719267  0.56830253  1
  O  O87  1  0.75564908  0.89678914  0.37782470  1
  O  O88  1  0.24435092  0.10321086  0.62217530  1
  O  O89  1  0.69025284  0.07182489  0.31408329  1
  O  O90  1  0.30974716  0.92817511  0.68591671  1
  O  O91  1  0.34500572  0.44765978  0.83823220  1
  O  O92  1  0.65499428  0.55234022  0.16176780  1
  O  O93  1  0.25527267  0.58999357  0.74012090  1
  O  O94  1  0.74472733  0.41000643  0.25987910  1
  O  O95  1  0.14340479  0.47024974  0.86033120  1
  O  O96  1  0.85659521  0.52975026  0.13966880  1
  O  O97  1  0.57357410  0.25472950  0.90235333  1
  O  O98  1  0.42642590  0.74527050  0.09764667  1
  O  O99  1  0.66582285  0.14531133  0.04436260  1
  O  O100  1  0.33417715  0.85468867  0.95563740  1
  O  O101  1  0.79812097  0.24803282  0.92996768  1
  O  O102  1  0.20187903  0.75196718  0.07003232  1
