# generated using pymatgen
data_CsCa(PO3)3
_symmetry_space_group_name_H-M   'P 1'
_cell_length_a   7.69321287
_cell_length_b   10.01983771
_cell_length_c   12.93753910
_cell_angle_alpha   90.00000000
_cell_angle_beta   90.00000000
_cell_angle_gamma   90.00000000
_symmetry_Int_Tables_number   1
_chemical_formula_structural   CsCa(PO3)3
_chemical_formula_sum   'Cs4 Ca4 P12 O36'
_cell_volume   997.28689502
_cell_formula_units_Z   4
loop_
 _symmetry_equiv_pos_site_id
 _symmetry_equiv_pos_as_xyz
  1  'x, y, z'
loop_
 _atom_site_type_symbol
 _atom_site_label
 _atom_site_symmetry_multiplicity
 _atom_site_fract_x
 _atom_site_fract_y
 _atom_site_fract_z
 _atom_site_occupancy
  Cs  Cs0  1  0.75000000  0.60972136  0.08523926  1
  Cs  Cs1  1  0.75000000  0.10972136  0.41476074  1
  Cs  Cs2  1  0.25000000  0.39027864  0.91476074  1
  Cs  Cs3  1  0.25000000  0.89027864  0.58523926  1
  Ca  Ca4  1  0.25000000  0.51291054  0.22463994  1
  Ca  Ca5  1  0.25000000  0.01291054  0.27536006  1
  Ca  Ca6  1  0.75000000  0.48708946  0.77536006  1
  Ca  Ca7  1  0.75000000  0.98708946  0.72463994  1
  P  P8  1  0.44596682  0.75136404  0.85217372  1
  P  P9  1  0.05403318  0.25136404  0.64782628  1
  P  P10  1  0.94596682  0.24863596  0.14782628  1
  P  P11  1  0.55403318  0.74863596  0.35217372  1
  P  P12  1  0.55403318  0.24863596  0.14782628  1
  P  P13  1  0.94596682  0.74863596  0.35217372  1
  P  P14  1  0.05403318  0.75136404  0.85217372  1
  P  P15  1  0.44596682  0.25136404  0.64782628  1
  P  P16  1  0.25000000  0.78995879  0.04214384  1
  P  P17  1  0.25000000  0.28995879  0.45785616  1
  P  P18  1  0.75000000  0.21004121  0.95785616  1
  P  P19  1  0.75000000  0.71004121  0.54214384  1
  O  O20  1  0.41360856  0.81881511  0.96474790  1
  O  O21  1  0.08639144  0.31881511  0.53525210  1
  O  O22  1  0.91360856  0.18118489  0.03525210  1
  O  O23  1  0.58639144  0.68118489  0.46474790  1
  O  O24  1  0.58639144  0.18118489  0.03525210  1
  O  O25  1  0.91360856  0.68118489  0.46474790  1
  O  O26  1  0.08639144  0.81881511  0.96474790  1
  O  O27  1  0.41360856  0.31881511  0.53525210  1
  O  O28  1  0.51556129  0.85636379  0.78132001  1
  O  O29  1  0.98443871  0.35636379  0.71867999  1
  O  O30  1  0.01556129  0.14363621  0.21867999  1
  O  O31  1  0.48443871  0.64363621  0.28132001  1
  O  O32  1  0.48443871  0.14363621  0.21867999  1
  O  O33  1  0.01556129  0.64363621  0.28132001  1
  O  O34  1  0.98443871  0.85636379  0.78132001  1
  O  O35  1  0.51556129  0.35636379  0.71867999  1
  O  O36  1  0.54260225  0.62219010  0.86530679  1
  O  O37  1  0.95739775  0.12219010  0.63469321  1
  O  O38  1  0.04260225  0.37780990  0.13469321  1
  O  O39  1  0.45739775  0.87780990  0.36530679  1
  O  O40  1  0.45739775  0.37780990  0.13469321  1
  O  O41  1  0.04260225  0.87780990  0.36530679  1
  O  O42  1  0.95739775  0.62219010  0.86530679  1
  O  O43  1  0.54260225  0.12219010  0.63469321  1
  O  O44  1  0.25000000  0.64486305  0.07157517  1
  O  O45  1  0.25000000  0.14486305  0.42842483  1
  O  O46  1  0.75000000  0.35513695  0.92842483  1
  O  O47  1  0.75000000  0.85513695  0.57157517  1
  O  O48  1  0.25000000  0.71147516  0.81518821  1
  O  O49  1  0.25000000  0.21147516  0.68481179  1
  O  O50  1  0.75000000  0.28852484  0.18481179  1
  O  O51  1  0.75000000  0.78852484  0.31518821  1
  O  O52  1  0.25000000  0.89586502  0.12254836  1
  O  O53  1  0.25000000  0.39586502  0.37745164  1
  O  O54  1  0.75000000  0.10413498  0.87745164  1
  O  O55  1  0.75000000  0.60413498  0.62254836  1
