# generated using pymatgen
data_CsBe2P2HO8
_symmetry_space_group_name_H-M   'P 1'
_cell_length_a   4.96878868
_cell_length_b   10.84832749
_cell_length_c   13.25761025
_cell_angle_alpha   92.96091563
_cell_angle_beta   92.85504571
_cell_angle_gamma   91.04318816
_symmetry_Int_Tables_number   1
_chemical_formula_structural   CsBe2P2HO8
_chemical_formula_sum   'Cs4 Be8 P8 H4 O32'
_cell_volume   712.63102449
_cell_formula_units_Z   4
loop_
 _symmetry_equiv_pos_site_id
 _symmetry_equiv_pos_as_xyz
  1  'x, y, z'
loop_
 _atom_site_type_symbol
 _atom_site_label
 _atom_site_symmetry_multiplicity
 _atom_site_fract_x
 _atom_site_fract_y
 _atom_site_fract_z
 _atom_site_occupancy
  Cs  Cs0  1  0.25502534  0.72141753  0.84432631  1
  Cs  Cs1  1  0.74497466  0.27858247  0.15567369  1
  Cs  Cs2  1  0.26906883  0.25770875  0.67211092  1
  Cs  Cs3  1  0.73093117  0.74229125  0.32788908  1
  Be  Be4  1  0.72460098  0.45366320  0.87217469  1
  Be  Be5  1  0.27539902  0.54633680  0.12782531  1
  Be  Be6  1  0.18604202  0.56450871  0.53732639  1
  Be  Be7  1  0.81395798  0.43549129  0.46267361  1
  Be  Be8  1  0.78453071  0.83149210  0.66486435  1
  Be  Be9  1  0.21546929  0.16850790  0.33513565  1
  Be  Be10  1  0.33236585  0.06746317  0.95830733  1
  Be  Be11  1  0.66763415  0.93253683  0.04169267  1
  P  P12  1  0.22728808  0.34575790  0.95673399  1
  P  P13  1  0.77271192  0.65424210  0.04326601  1
  P  P14  1  0.68961726  0.55534265  0.66219846  1
  P  P15  1  0.31038274  0.44465735  0.33780154  1
  P  P16  1  0.27410620  0.83123237  0.54549296  1
  P  P17  1  0.72589380  0.16876763  0.45450704  1
  P  P18  1  0.82394109  0.01803058  0.84238578  1
  P  P19  1  0.17605891  0.98196942  0.15761422  1
  H  H20  1  0.26295583  0.99464427  0.45225228  1
  H  H21  1  0.73704417  0.00535573  0.54774772  1
  H  H22  1  0.83814541  0.22358186  0.84639619  1
  H  H23  1  0.16185459  0.77641814  0.15360381  1
  O  O24  1  0.41959619  0.40180965  0.88334288  1
  O  O25  1  0.58040381  0.59819035  0.11665712  1
  O  O26  1  0.93552589  0.34187121  0.90493497  1
  O  O27  1  0.06447411  0.65812879  0.09506503  1
  O  O28  1  0.30468876  0.21144299  0.97787852  1
  O  O29  1  0.69531124  0.78855701  0.02212148  1
  O  O30  1  0.22336615  0.41836117  0.05948546  1
  O  O31  1  0.77663385  0.58163883  0.94051454  1
  O  O32  1  0.87092897  0.52853046  0.56882550  1
  O  O33  1  0.12907103  0.47146954  0.43117450  1
  O  O34  1  0.39648556  0.52381841  0.62329447  1
  O  O35  1  0.60351444  0.47618159  0.37670553  1
  O  O36  1  0.72894551  0.69162664  0.69697630  1
  O  O37  1  0.27105449  0.30837336  0.30302370  1
  O  O38  1  0.76948304  0.47334426  0.74923639  1
  O  O39  1  0.23051696  0.52665574  0.25076361  1
  O  O40  1  0.09651014  0.85609838  0.63473498  1
  O  O41  1  0.90348986  0.14390162  0.36526502  1
  O  O42  1  0.57407644  0.86731588  0.57098111  1
  O  O43  1  0.42592356  0.13268412  0.42901889  1
  O  O44  1  0.23791872  0.69865747  0.50025591  1
  O  O45  1  0.76208128  0.30134253  0.49974409  1
  O  O46  1  0.18383974  0.90947962  0.45173748  1
  O  O47  1  0.81616026  0.09052038  0.54826252  1
  O  O48  1  0.72855854  0.91924348  0.76406879  1
  O  O49  1  0.27144146  0.08075652  0.23593121  1
  O  O50  1  0.64388752  0.01435608  0.93610226  1
  O  O51  1  0.35611248  0.98564392  0.06389774  1
  O  O52  1  0.11824785  0.00295581  0.87842306  1
  O  O53  1  0.88175215  0.99704419  0.12157694  1
  O  O54  1  0.77916446  0.14862625  0.79782286  1
  O  O55  1  0.22083554  0.85137375  0.20217714  1
