# generated using pymatgen
data_NaMg3
_symmetry_space_group_name_H-M   'P 1'
_cell_length_a   6.70250809
_cell_length_b   3.16325004
_cell_length_c   5.43442523
_cell_angle_alpha   90.00000000
_cell_angle_beta   90.00000000
_cell_angle_gamma   118.16096317
_symmetry_Int_Tables_number   1
_chemical_formula_structural   NaMg3
_chemical_formula_sum   'Na1 Mg3'
_cell_volume   101.58006470
_cell_formula_units_Z   1
loop_
 _symmetry_equiv_pos_site_id
 _symmetry_equiv_pos_as_xyz
  1  'x, y, z'
loop_
 _atom_site_type_symbol
 _atom_site_label
 _atom_site_symmetry_multiplicity
 _atom_site_fract_x
 _atom_site_fract_y
 _atom_site_fract_z
 _atom_site_occupancy
  Na  Na0  1  0.16026177  0.66026177  0.25000000  1
  Mg  Mg1  1  0.66141069  0.66141069  0.25000000  1
  Mg  Mg2  1  0.34992075  0.34992075  0.75000000  1
  Mg  Mg3  1  0.82840679  0.32840679  0.75000000  1
