# generated using pymatgen
data_NaTiAsO5
_symmetry_space_group_name_H-M   'P 1'
_cell_length_a   6.83871096
_cell_length_b   7.30752987
_cell_length_c   8.90964090
_cell_angle_alpha   90.00000000
_cell_angle_beta   90.00000000
_cell_angle_gamma   114.95950069
_symmetry_Int_Tables_number   1
_chemical_formula_structural   NaTiAsO5
_chemical_formula_sum   'Na4 Ti4 As4 O20'
_cell_volume   403.66749035
_cell_formula_units_Z   4
loop_
 _symmetry_equiv_pos_site_id
 _symmetry_equiv_pos_as_xyz
  1  'x, y, z'
loop_
 _atom_site_type_symbol
 _atom_site_label
 _atom_site_symmetry_multiplicity
 _atom_site_fract_x
 _atom_site_fract_y
 _atom_site_fract_z
 _atom_site_occupancy
  Na  Na0  1  0.24865892  0.73820359  0.92470621  1
  Na  Na1  1  0.75134108  0.76179641  0.42470621  1
  Na  Na2  1  0.75134108  0.26179641  0.07529379  1
  Na  Na3  1  0.24865892  0.23820359  0.57529379  1
  Ti  Ti4  1  0.74875445  0.51963626  0.74335519  1
  Ti  Ti5  1  0.25124555  0.98036374  0.24335519  1
  Ti  Ti6  1  0.25124555  0.48036374  0.25664481  1
  Ti  Ti7  1  0.74875445  0.01963626  0.75664481  1
  As  As8  1  0.24976300  0.74907468  0.56673715  1
  As  As9  1  0.75023700  0.75092532  0.06673715  1
  As  As10  1  0.75023700  0.25092532  0.43326285  1
  As  As11  1  0.24976300  0.24907468  0.93326285  1
  O  O12  1  0.05465410  0.58262424  0.68344215  1
  O  O13  1  0.94534590  0.91737576  0.18344215  1
  O  O14  1  0.94534590  0.41737576  0.31655785  1
  O  O15  1  0.05465410  0.08262424  0.81655785  1
  O  O16  1  0.43751534  0.91217902  0.68771179  1
  O  O17  1  0.56248466  0.58782098  0.18771179  1
  O  O18  1  0.56248466  0.08782098  0.31228821  1
  O  O19  1  0.43751534  0.41217902  0.81228821  1
  O  O20  1  0.15055453  0.88709699  0.45859434  1
  O  O21  1  0.84944547  0.61290301  0.95859434  1
  O  O22  1  0.84944547  0.11290301  0.54140566  1
  O  O23  1  0.15055453  0.38709699  0.04140566  1
  O  O24  1  0.35540795  0.61472839  0.46096034  1
  O  O25  1  0.64459205  0.88527161  0.96096034  1
  O  O26  1  0.64459205  0.38527161  0.53903966  1
  O  O27  1  0.35540795  0.11472839  0.03903966  1
  O  O28  1  0.74931842  0.74849805  0.68639100  1
  O  O29  1  0.25068158  0.75150195  0.18639100  1
  O  O30  1  0.25068158  0.25150195  0.31360900  1
  O  O31  1  0.74931842  0.24849805  0.81360900  1
