# generated using pymatgen
data_BP(PbO2)4
_symmetry_space_group_name_H-M   'P 1'
_cell_length_a   7.12055104
_cell_length_b   10.34281398
_cell_length_c   13.12869887
_cell_angle_alpha   112.95910914
_cell_angle_beta   90.00000000
_cell_angle_gamma   90.00000000
_symmetry_Int_Tables_number   1
_chemical_formula_structural   BP(PbO2)4
_chemical_formula_sum   'B4 P4 Pb16 O32'
_cell_volume   890.29005444
_cell_formula_units_Z   4
loop_
 _symmetry_equiv_pos_site_id
 _symmetry_equiv_pos_as_xyz
  1  'x, y, z'
loop_
 _atom_site_type_symbol
 _atom_site_label
 _atom_site_symmetry_multiplicity
 _atom_site_fract_x
 _atom_site_fract_y
 _atom_site_fract_z
 _atom_site_occupancy
  B  B0  1  0.23367185  0.54162940  0.36225640  1
  B  B1  1  0.73367185  0.45837060  0.13774360  1
  B  B2  1  0.76632815  0.45837060  0.63774360  1
  B  B3  1  0.26632815  0.54162940  0.86225640  1
  P  P4  1  0.24963061  0.10143359  0.39889411  1
  P  P5  1  0.74963061  0.89856641  0.10110589  1
  P  P6  1  0.75036939  0.89856641  0.60110589  1
  P  P7  1  0.25036939  0.10143359  0.89889411  1
  Pb  Pb8  1  0.72637692  0.13220257  0.43238620  1
  Pb  Pb9  1  0.22637692  0.86779743  0.06761380  1
  Pb  Pb10  1  0.27362308  0.86779743  0.56761380  1
  Pb  Pb11  1  0.77362308  0.13220257  0.93238620  1
  Pb  Pb12  1  0.69529304  0.54816001  0.42527417  1
  Pb  Pb13  1  0.19529304  0.45183999  0.07472583  1
  Pb  Pb14  1  0.30470696  0.45183999  0.57472583  1
  Pb  Pb15  1  0.80470696  0.54816001  0.92527417  1
  Pb  Pb16  1  0.49179536  0.24122618  0.20684974  1
  Pb  Pb17  1  0.99179536  0.75877382  0.29315026  1
  Pb  Pb18  1  0.50820464  0.75877382  0.79315026  1
  Pb  Pb19  1  0.00820464  0.24122618  0.70684974  1
  Pb  Pb20  1  0.99116077  0.23176261  0.23458974  1
  Pb  Pb21  1  0.49116077  0.76823739  0.26541026  1
  Pb  Pb22  1  0.00883923  0.76823739  0.76541026  1
  Pb  Pb23  1  0.50883923  0.23176261  0.73458974  1
  O  O24  1  0.71913306  0.29151311  0.33757796  1
  O  O25  1  0.21913306  0.70848689  0.16242204  1
  O  O26  1  0.28086694  0.70848689  0.66242204  1
  O  O27  1  0.78086694  0.29151311  0.83757796  1
  O  O28  1  0.35858795  0.06616317  0.28796179  1
  O  O29  1  0.85858795  0.93383683  0.21203821  1
  O  O30  1  0.64141205  0.93383683  0.71203821  1
  O  O31  1  0.14141205  0.06616317  0.78796179  1
  O  O32  1  0.17340629  0.96290132  0.40416309  1
  O  O33  1  0.67340629  0.03709868  0.09583691  1
  O  O34  1  0.82659371  0.03709868  0.59583691  1
  O  O35  1  0.32659371  0.96290132  0.90416309  1
  O  O36  1  0.38888349  0.17304347  0.49745979  1
  O  O37  1  0.88888349  0.82695653  0.00254021  1
  O  O38  1  0.61111651  0.82695653  0.50254021  1
  O  O39  1  0.11111651  0.17304347  0.99745979  1
  O  O40  1  0.75054740  0.31460109  0.61211363  1
  O  O41  1  0.25054740  0.68539891  0.88788637  1
  O  O42  1  0.24945260  0.68539891  0.38788637  1
  O  O43  1  0.74945260  0.31460109  0.11211363  1
  O  O44  1  0.08385974  0.20622603  0.41050524  1
  O  O45  1  0.58385974  0.79377397  0.08949476  1
  O  O46  1  0.91614026  0.79377397  0.58949476  1
  O  O47  1  0.41614026  0.20622603  0.91050524  1
  O  O48  1  0.08669915  0.47012443  0.29472975  1
  O  O49  1  0.58669915  0.52987557  0.20527025  1
  O  O50  1  0.91330085  0.52987557  0.70527025  1
  O  O51  1  0.41330085  0.47012443  0.79472975  1
  O  O52  1  0.63273709  0.52529960  0.59662825  1
  O  O53  1  0.13273709  0.47470040  0.90337175  1
  O  O54  1  0.36726291  0.47470040  0.40337175  1
  O  O55  1  0.86726291  0.52529960  0.09662825  1
