# generated using pymatgen
data_VB(PbO2)4
_symmetry_space_group_name_H-M   'P 1'
_cell_length_a   7.24405768
_cell_length_b   10.60188605
_cell_length_c   13.13510905
_cell_angle_alpha   112.96623340
_cell_angle_beta   90.00000000
_cell_angle_gamma   90.00000000
_symmetry_Int_Tables_number   1
_chemical_formula_structural   VB(PbO2)4
_chemical_formula_sum   'V4 B4 Pb16 O32'
_cell_volume   928.82383364
_cell_formula_units_Z   4
loop_
 _symmetry_equiv_pos_site_id
 _symmetry_equiv_pos_as_xyz
  1  'x, y, z'
loop_
 _atom_site_type_symbol
 _atom_site_label
 _atom_site_symmetry_multiplicity
 _atom_site_fract_x
 _atom_site_fract_y
 _atom_site_fract_z
 _atom_site_occupancy
  V  V0  1  0.75475587  0.89848985  0.09831238  1
  V  V1  1  0.25475587  0.10151015  0.40168762  1
  V  V2  1  0.24524413  0.10151015  0.90168762  1
  V  V3  1  0.74524413  0.89848985  0.59831238  1
  B  B4  1  0.76579631  0.46163957  0.13940808  1
  B  B5  1  0.26579631  0.53836043  0.36059192  1
  B  B6  1  0.23420369  0.53836043  0.86059192  1
  B  B7  1  0.73420369  0.46163957  0.63940808  1
  Pb  Pb8  1  0.73003109  0.14371659  0.93404423  1
  Pb  Pb9  1  0.23003109  0.85628341  0.56595577  1
  Pb  Pb10  1  0.26996891  0.85628341  0.06595577  1
  Pb  Pb11  1  0.76996891  0.14371659  0.43404423  1
  Pb  Pb12  1  0.69032980  0.54391851  0.92366795  1
  Pb  Pb13  1  0.19032980  0.45608149  0.57633205  1
  Pb  Pb14  1  0.30967020  0.45608149  0.07633205  1
  Pb  Pb15  1  0.80967020  0.54391851  0.42366795  1
  Pb  Pb16  1  0.98561851  0.23927405  0.73479389  1
  Pb  Pb17  1  0.48561851  0.76072595  0.76520611  1
  Pb  Pb18  1  0.01438149  0.76072595  0.26520611  1
  Pb  Pb19  1  0.51438149  0.23927405  0.23479389  1
  Pb  Pb20  1  0.49030191  0.24706321  0.70376028  1
  Pb  Pb21  1  0.99030191  0.75293679  0.79623972  1
  Pb  Pb22  1  0.50969809  0.75293679  0.29623972  1
  Pb  Pb23  1  0.00969809  0.24706321  0.20376028  1
  O  O24  1  0.71240380  0.29736574  0.83663001  1
  O  O25  1  0.21240380  0.70263426  0.66336999  1
  O  O26  1  0.28759620  0.70263426  0.16336999  1
  O  O27  1  0.78759620  0.29736574  0.33663001  1
  O  O28  1  0.93739159  0.78192252  0.08228664  1
  O  O29  1  0.43739159  0.21807748  0.41771336  1
  O  O30  1  0.06260841  0.21807748  0.91771336  1
  O  O31  1  0.56260841  0.78192252  0.58228664  1
  O  O32  1  0.63244060  0.52431451  0.09699817  1
  O  O33  1  0.13244060  0.47568549  0.40300183  1
  O  O34  1  0.36755940  0.47568549  0.90300183  1
  O  O35  1  0.86755940  0.52431451  0.59699817  1
  O  O36  1  0.74989150  0.32210488  0.11718999  1
  O  O37  1  0.24989150  0.67789512  0.38281001  1
  O  O38  1  0.25010850  0.67789512  0.88281001  1
  O  O39  1  0.75010850  0.32210488  0.61718999  1
  O  O40  1  0.59880000  0.81942092  0.99116342  1
  O  O41  1  0.09880000  0.18057908  0.50883658  1
  O  O42  1  0.40120000  0.18057908  0.00883658  1
  O  O43  1  0.90120000  0.81942092  0.49116342  1
  O  O44  1  0.83371161  0.05318851  0.09433962  1
  O  O45  1  0.33371161  0.94681149  0.40566038  1
  O  O46  1  0.16628839  0.94681149  0.90566038  1
  O  O47  1  0.66628839  0.05318851  0.59433962  1
  O  O48  1  0.91141212  0.53226924  0.20472848  1
  O  O49  1  0.41141212  0.46773076  0.29527152  1
  O  O50  1  0.08858788  0.46773076  0.79527152  1
  O  O51  1  0.58858788  0.53226924  0.70472848  1
  O  O52  1  0.63895282  0.93107935  0.22165985  1
  O  O53  1  0.13895282  0.06892065  0.27834015  1
  O  O54  1  0.36104718  0.06892065  0.77834015  1
  O  O55  1  0.86104718  0.93107935  0.72165985  1
