# generated using pymatgen
data_Nd2USe5
_symmetry_space_group_name_H-M   'P 1'
_cell_length_a   7.86903409
_cell_length_b   8.43234290
_cell_length_c   12.42581914
_cell_angle_alpha   90.00000000
_cell_angle_beta   90.00000000
_cell_angle_gamma   90.00000000
_symmetry_Int_Tables_number   1
_chemical_formula_structural   Nd2USe5
_chemical_formula_sum   'Nd8 U4 Se20'
_cell_volume   824.50769574
_cell_formula_units_Z   4
loop_
 _symmetry_equiv_pos_site_id
 _symmetry_equiv_pos_as_xyz
  1  'x, y, z'
loop_
 _atom_site_type_symbol
 _atom_site_label
 _atom_site_symmetry_multiplicity
 _atom_site_fract_x
 _atom_site_fract_y
 _atom_site_fract_z
 _atom_site_occupancy
  Nd  Nd0  1  0.97197927  0.00177257  0.17809569  1
  Nd  Nd1  1  0.52802073  0.49822743  0.67809569  1
  Nd  Nd2  1  0.02802073  0.50177257  0.82190431  1
  Nd  Nd3  1  0.47197927  0.99822743  0.32190431  1
  Nd  Nd4  1  0.02802073  0.99822743  0.82190431  1
  Nd  Nd5  1  0.47197927  0.50177257  0.32190431  1
  Nd  Nd6  1  0.97197927  0.49822743  0.17809569  1
  Nd  Nd7  1  0.52802073  0.00177257  0.67809569  1
  U  U8  1  0.42633876  0.75000000  0.00912702  1
  U  U9  1  0.07366124  0.75000000  0.50912702  1
  U  U10  1  0.57366124  0.25000000  0.99087298  1
  U  U11  1  0.92633876  0.25000000  0.49087298  1
  Se  Se12  1  0.66673389  0.54444419  0.90695164  1
  Se  Se13  1  0.83326611  0.95555581  0.40695164  1
  Se  Se14  1  0.33326611  0.04444419  0.09304836  1
  Se  Se15  1  0.16673389  0.45555581  0.59304836  1
  Se  Se16  1  0.33326611  0.45555581  0.09304836  1
  Se  Se17  1  0.16673389  0.04444419  0.59304836  1
  Se  Se18  1  0.66673389  0.95555581  0.90695164  1
  Se  Se19  1  0.83326611  0.54444419  0.40695164  1
  Se  Se20  1  0.66780200  0.75000000  0.18630800  1
  Se  Se21  1  0.83219800  0.75000000  0.68630800  1
  Se  Se22  1  0.33219800  0.25000000  0.81369200  1
  Se  Se23  1  0.16780200  0.25000000  0.31369200  1
  Se  Se24  1  0.04342003  0.75000000  -0.00004186  1
  Se  Se25  1  0.45657997  0.75000000  0.49995814  1
  Se  Se26  1  0.95657997  0.25000000  0.00004186  1
  Se  Se27  1  0.54342003  0.25000000  0.50004186  1
  Se  Se28  1  0.30709282  0.75000000  0.78416054  1
  Se  Se29  1  0.19290718  0.75000000  0.28416054  1
  Se  Se30  1  0.69290718  0.25000000  0.21583946  1
  Se  Se31  1  0.80709282  0.25000000  0.71583946  1
