# generated using pymatgen
data_Tb(Cd10Ni)2
_symmetry_space_group_name_H-M   'P 1'
_cell_length_a   11.14307513
_cell_length_b   11.14307513
_cell_length_c   11.14307513
_cell_angle_alpha   60.00000000
_cell_angle_beta   60.00000000
_cell_angle_gamma   60.00000000
_symmetry_Int_Tables_number   1
_chemical_formula_structural   Tb(Cd10Ni)2
_chemical_formula_sum   'Tb2 Cd40 Ni4'
_cell_volume   978.36335706
_cell_formula_units_Z   2
loop_
 _symmetry_equiv_pos_site_id
 _symmetry_equiv_pos_as_xyz
  1  'x, y, z'
loop_
 _atom_site_type_symbol
 _atom_site_label
 _atom_site_symmetry_multiplicity
 _atom_site_fract_x
 _atom_site_fract_y
 _atom_site_fract_z
 _atom_site_occupancy
  Tb  Tb0  1  0.12500000  0.12500000  0.12500000  1
  Tb  Tb1  1  0.87500000  0.87500000  0.87500000  1
  Cd  Cd2  1  0.32362930  0.32362930  0.05637557  1
  Cd  Cd3  1  0.79636583  0.05637557  0.32362930  1
  Cd  Cd4  1  0.05637557  0.79636583  0.32362930  1
  Cd  Cd5  1  0.32362930  0.32362930  0.79636583  1
  Cd  Cd6  1  0.05637557  0.32362930  0.32362930  1
  Cd  Cd7  1  0.32362930  0.79636583  0.05637557  1
  Cd  Cd8  1  0.32362930  0.05637557  0.79636583  1
  Cd  Cd9  1  0.79636583  0.32362930  0.32362930  1
  Cd  Cd10  1  0.32362930  0.05637557  0.32362930  1
  Cd  Cd11  1  0.05637557  0.32362930  0.79636583  1
  Cd  Cd12  1  0.79636583  0.32362930  0.05637557  1
  Cd  Cd13  1  0.32362930  0.79636583  0.32362930  1
  Cd  Cd14  1  0.67637070  0.67637070  0.94362443  1
  Cd  Cd15  1  0.20363417  0.94362443  0.67637070  1
  Cd  Cd16  1  0.94362443  0.20363417  0.67637070  1
  Cd  Cd17  1  0.67637070  0.67637070  0.20363417  1
  Cd  Cd18  1  0.94362443  0.67637070  0.67637070  1
  Cd  Cd19  1  0.67637070  0.20363417  0.94362443  1
  Cd  Cd20  1  0.67637070  0.94362443  0.20363417  1
  Cd  Cd21  1  0.20363417  0.67637070  0.67637070  1
  Cd  Cd22  1  0.67637070  0.94362443  0.67637070  1
  Cd  Cd23  1  0.94362443  0.67637070  0.20363417  1
  Cd  Cd24  1  0.20363417  0.67637070  0.94362443  1
  Cd  Cd25  1  0.67637070  0.20363417  0.67637070  1
  Cd  Cd26  1  0.48665441  0.76334559  0.76334559  1
  Cd  Cd27  1  0.76334559  0.48665441  0.48665441  1
  Cd  Cd28  1  0.76334559  0.48665441  0.76334559  1
  Cd  Cd29  1  0.48665441  0.76334559  0.48665441  1
  Cd  Cd30  1  0.76334559  0.76334559  0.48665441  1
  Cd  Cd31  1  0.48665441  0.48665441  0.76334559  1
  Cd  Cd32  1  0.51334559  0.23665441  0.23665441  1
  Cd  Cd33  1  0.23665441  0.51334559  0.51334559  1
  Cd  Cd34  1  0.23665441  0.51334559  0.23665441  1
  Cd  Cd35  1  0.51334559  0.23665441  0.51334559  1
  Cd  Cd36  1  0.23665441  0.23665441  0.51334559  1
  Cd  Cd37  1  0.51334559  0.51334559  0.23665441  1
  Cd  Cd38  1  0.00000000  -0.00000000  0.50000000  1
  Cd  Cd39  1  0.00000000  0.50000000  -0.00000000  1
  Cd  Cd40  1  0.50000000  -0.00000000  -0.00000000  1
  Cd  Cd41  1  0.00000000  -0.00000000  -0.00000000  1
  Ni  Ni42  1  0.50000000  0.50000000  -0.00000000  1
  Ni  Ni43  1  0.50000000  -0.00000000  0.50000000  1
  Ni  Ni44  1  0.00000000  0.50000000  0.50000000  1
  Ni  Ni45  1  0.50000000  0.50000000  0.50000000  1
