# generated using pymatgen
data_Er2ReB6
_symmetry_space_group_name_H-M   'P 1'
_cell_length_a   3.65133744
_cell_length_b   9.13606253
_cell_length_c   11.51455097
_cell_angle_alpha   90.00000000
_cell_angle_beta   90.00000000
_cell_angle_gamma   90.00000000
_symmetry_Int_Tables_number   1
_chemical_formula_structural   Er2ReB6
_chemical_formula_sum   'Er8 Re4 B24'
_cell_volume   384.11214604
_cell_formula_units_Z   4
loop_
 _symmetry_equiv_pos_site_id
 _symmetry_equiv_pos_as_xyz
  1  'x, y, z'
loop_
 _atom_site_type_symbol
 _atom_site_label
 _atom_site_symmetry_multiplicity
 _atom_site_fract_x
 _atom_site_fract_y
 _atom_site_fract_z
 _atom_site_occupancy
  Er  Er0  1  0.00000000  0.32400412  0.41383592  1
  Er  Er1  1  0.00000000  0.67599588  0.58616408  1
  Er  Er2  1  -0.00000000  0.82400412  0.08616408  1
  Er  Er3  1  -0.00000000  0.17599588  0.91383592  1
  Er  Er4  1  -0.00000000  0.94375992  0.37011649  1
  Er  Er5  1  0.00000000  0.05624008  0.62988351  1
  Er  Er6  1  -0.00000000  0.44375992  0.12988351  1
  Er  Er7  1  -0.00000000  0.55624008  0.87011649  1
  Re  Re8  1  0.00000000  0.63880542  0.32106164  1
  Re  Re9  1  -0.00000000  0.36119458  0.67893836  1
  Re  Re10  1  0.00000000  0.13880542  0.17893836  1
  Re  Re11  1  -0.00000000  0.86119458  0.82106164  1
  B  B12  1  0.50000000  0.55340417  0.43321491  1
  B  B13  1  0.50000000  0.44659583  0.56678509  1
  B  B14  1  0.50000000  0.05340417  0.06678509  1
  B  B15  1  0.50000000  0.94659583  0.93321491  1
  B  B16  1  0.50000000  0.75019311  0.41967280  1
  B  B17  1  0.50000000  0.24980689  0.58032720  1
  B  B18  1  0.50000000  0.25019311  0.08032720  1
  B  B19  1  0.50000000  0.74980689  0.91967280  1
  B  B20  1  0.50000000  0.79314879  0.26579242  1
  B  B21  1  0.50000000  0.20685121  0.73420758  1
  B  B22  1  0.50000000  0.29314879  0.23420758  1
  B  B23  1  0.50000000  0.70685121  0.76579242  1
  B  B24  1  0.50000000  0.63166573  0.18561533  1
  B  B25  1  0.50000000  0.36833427  0.81438467  1
  B  B26  1  0.50000000  0.13166573  0.31438467  1
  B  B27  1  0.50000000  0.86833427  0.68561533  1
  B  B28  1  0.50000000  0.98257736  0.21215004  1
  B  B29  1  0.50000000  0.01742264  0.78784996  1
  B  B30  1  0.50000000  0.48257736  0.28784996  1
  B  B31  1  0.50000000  0.51742264  0.71215004  1
  B  B32  1  0.50000000  0.60042607  0.02814993  1
  B  B33  1  0.50000000  0.39957393  0.97185007  1
  B  B34  1  0.50000000  0.10042607  0.47185007  1
  B  B35  1  0.50000000  0.89957393  0.52814993  1
