# generated using pymatgen
data_RbVPHO6
_symmetry_space_group_name_H-M   'P 1'
_cell_length_a   6.86672804
_cell_length_b   9.49969572
_cell_length_c   17.92443658
_cell_angle_alpha   90.00000000
_cell_angle_beta   90.00000000
_cell_angle_gamma   90.00000000
_symmetry_Int_Tables_number   1
_chemical_formula_structural   RbVPHO6
_chemical_formula_sum   'Rb8 V8 P8 H8 O48'
_cell_volume   1169.24374556
_cell_formula_units_Z   8
loop_
 _symmetry_equiv_pos_site_id
 _symmetry_equiv_pos_as_xyz
  1  'x, y, z'
loop_
 _atom_site_type_symbol
 _atom_site_label
 _atom_site_symmetry_multiplicity
 _atom_site_fract_x
 _atom_site_fract_y
 _atom_site_fract_z
 _atom_site_occupancy
  Rb  Rb0  1  0.72720301  0.19067221  0.39754864  1
  Rb  Rb1  1  0.22720301  0.30932779  0.60245136  1
  Rb  Rb2  1  0.27279699  0.69067221  0.10245136  1
  Rb  Rb3  1  0.77279699  0.80932779  0.89754864  1
  Rb  Rb4  1  0.27279699  0.80932779  0.60245136  1
  Rb  Rb5  1  0.77279699  0.69067221  0.39754864  1
  Rb  Rb6  1  0.72720301  0.30932779  0.89754864  1
  Rb  Rb7  1  0.22720301  0.19067221  0.10245136  1
  V  V8  1  0.47546470  0.45202566  0.25640288  1
  V  V9  1  0.97546470  0.04797434  0.74359712  1
  V  V10  1  0.52453530  0.95202566  0.24359712  1
  V  V11  1  0.02453530  0.54797434  0.75640288  1
  V  V12  1  0.52453530  0.54797434  0.74359712  1
  V  V13  1  0.02453530  0.95202566  0.25640288  1
  V  V14  1  0.47546470  0.04797434  0.75640288  1
  V  V15  1  0.97546470  0.45202566  0.24359712  1
  P  P16  1  0.20481111  0.38797219  0.40012892  1
  P  P17  1  0.70481111  0.11202781  0.59987108  1
  P  P18  1  0.79518889  0.88797219  0.09987108  1
  P  P19  1  0.29518889  0.61202781  0.90012892  1
  P  P20  1  0.79518889  0.61202781  0.59987108  1
  P  P21  1  0.29518889  0.88797219  0.40012892  1
  P  P22  1  0.20481111  0.11202781  0.90012892  1
  P  P23  1  0.70481111  0.38797219  0.09987108  1
  H  H24  1  0.28135200  0.60028773  0.44859114  1
  H  H25  1  0.78135200  0.89971227  0.55140886  1
  H  H26  1  0.71864800  0.10028773  0.05140886  1
  H  H27  1  0.21864800  0.39971227  0.94859114  1
  H  H28  1  0.71864800  0.39971227  0.55140886  1
  H  H29  1  0.21864800  0.10028773  0.44859114  1
  H  H30  1  0.28135200  0.89971227  0.94859114  1
  H  H31  1  0.78135200  0.60028773  0.05140886  1
  O  O32  1  0.15081972  0.25225806  0.43892837  1
  O  O33  1  0.65081972  0.24774194  0.56107163  1
  O  O34  1  0.84918028  0.75225806  0.06107163  1
  O  O35  1  0.34918028  0.74774194  0.93892837  1
  O  O36  1  0.84918028  0.74774194  0.56107163  1
  O  O37  1  0.34918028  0.75225806  0.43892837  1
  O  O38  1  0.15081972  0.24774194  0.93892837  1
  O  O39  1  0.65081972  0.25225806  0.06107163  1
  O  O40  1  0.39518108  0.37521974  0.35272338  1
  O  O41  1  0.89518108  0.12478026  0.64727662  1
  O  O42  1  0.60481892  0.87521974  0.14727662  1
  O  O43  1  0.10481892  0.62478026  0.85272338  1
  O  O44  1  0.60481892  0.62478026  0.64727662  1
  O  O45  1  0.10481892  0.87521974  0.35272338  1
  O  O46  1  0.39518108  0.12478026  0.85272338  1
  O  O47  1  0.89518108  0.37521974  0.14727662  1
  O  O48  1  0.24225996  0.49993183  0.46410951  1
  O  O49  1  0.74225996  0.00006817  0.53589049  1
  O  O50  1  0.75774004  -0.00006817  0.03589049  1
  O  O51  1  0.25774004  0.50006817  0.96410951  1
  O  O52  1  0.75774004  0.50006817  0.53589049  1
  O  O53  1  0.25774004  -0.00006817  0.46410951  1
  O  O54  1  0.24225996  0.00006817  0.96410951  1
  O  O55  1  0.74225996  0.49993183  0.03589049  1
  O  O56  1  0.03581690  0.44583657  0.35075068  1
  O  O57  1  0.53581690  0.05416343  0.64924932  1
  O  O58  1  0.96418310  0.94583657  0.14924932  1
  O  O59  1  0.46418310  0.55416343  0.85075068  1
  O  O60  1  0.96418310  0.55416343  0.64924932  1
  O  O61  1  0.46418310  0.94583657  0.35075068  1
  O  O62  1  0.03581690  0.05416343  0.85075068  1
  O  O63  1  0.53581690  0.44583657  0.14924932  1
  O  O64  1  0.72139566  0.40077596  0.27607720  1
  O  O65  1  0.22139566  0.09922404  0.72392280  1
  O  O66  1  0.27860434  0.90077596  0.22392280  1
  O  O67  1  0.77860434  0.59922404  0.77607720  1
  O  O68  1  0.27860434  0.59922404  0.72392280  1
  O  O69  1  0.77860434  0.90077596  0.27607720  1
  O  O70  1  0.72139566  0.09922404  0.77607720  1
  O  O71  1  0.22139566  0.40077596  0.22392280  1
  O  O72  1  0.46661439  0.62129908  0.27043615  1
  O  O73  1  0.96661439  0.87870092  0.72956385  1
  O  O74  1  0.53338561  0.12129908  0.22956385  1
  O  O75  1  0.03338561  0.37870092  0.77043615  1
  O  O76  1  0.53338561  0.37870092  0.72956385  1
  O  O77  1  0.03338561  0.12129908  0.27043615  1
  O  O78  1  0.46661439  0.87870092  0.77043615  1
  O  O79  1  0.96661439  0.62129908  0.22956385  1
