# generated using pymatgen
data_Eu3(MgGe)5
_symmetry_space_group_name_H-M   'P 1'
_cell_length_a   4.52804232
_cell_length_b   14.53622581
_cell_length_c   18.43276628
_cell_angle_alpha   90.00000000
_cell_angle_beta   90.00000000
_cell_angle_gamma   90.00000000
_symmetry_Int_Tables_number   1
_chemical_formula_structural   Eu3(MgGe)5
_chemical_formula_sum   'Eu12 Mg20 Ge20'
_cell_volume   1213.25657749
_cell_formula_units_Z   4
loop_
 _symmetry_equiv_pos_site_id
 _symmetry_equiv_pos_as_xyz
  1  'x, y, z'
loop_
 _atom_site_type_symbol
 _atom_site_label
 _atom_site_symmetry_multiplicity
 _atom_site_fract_x
 _atom_site_fract_y
 _atom_site_fract_z
 _atom_site_occupancy
  Eu  Eu0  1  0.75000000  0.08773720  0.84636329  1
  Eu  Eu1  1  0.75000000  0.58773720  0.65363671  1
  Eu  Eu2  1  0.25000000  0.91226280  0.15363671  1
  Eu  Eu3  1  0.25000000  0.41226280  0.34636329  1
  Eu  Eu4  1  0.75000000  0.29159244  0.01263905  1
  Eu  Eu5  1  0.75000000  0.79159244  0.48736095  1
  Eu  Eu6  1  0.25000000  0.70840756  0.98736095  1
  Eu  Eu7  1  0.25000000  0.20840756  0.51263905  1
  Eu  Eu8  1  0.75000000  0.36418614  0.80799445  1
  Eu  Eu9  1  0.75000000  0.86418614  0.69200555  1
  Eu  Eu10  1  0.25000000  0.63581386  0.19200555  1
  Eu  Eu11  1  0.25000000  0.13581386  0.30799445  1
  Mg  Mg12  1  0.75000000  0.05290136  0.04348161  1
  Mg  Mg13  1  0.75000000  0.55290136  0.45651839  1
  Mg  Mg14  1  0.25000000  0.94709864  0.95651839  1
  Mg  Mg15  1  0.25000000  0.44709864  0.54348161  1
  Mg  Mg16  1  0.75000000  0.33541321  0.62894037  1
  Mg  Mg17  1  0.75000000  0.83541321  0.87105963  1
  Mg  Mg18  1  0.25000000  0.66458679  0.37105963  1
  Mg  Mg19  1  0.25000000  0.16458679  0.12894037  1
  Mg  Mg20  1  0.75000000  0.52311874  0.93848970  1
  Mg  Mg21  1  0.75000000  0.02311874  0.56151030  1
  Mg  Mg22  1  0.25000000  0.47688126  0.06151030  1
  Mg  Mg23  1  0.25000000  0.97688126  0.43848970  1
  Mg  Mg24  1  0.75000000  0.46294007  0.18944116  1
  Mg  Mg25  1  0.75000000  0.96294007  0.31055884  1
  Mg  Mg26  1  0.25000000  0.53705993  0.81055884  1
  Mg  Mg27  1  0.25000000  0.03705993  0.68944116  1
  Mg  Mg28  1  0.75000000  0.26595751  0.22588952  1
  Mg  Mg29  1  0.75000000  0.76595751  0.27411048  1
  Mg  Mg30  1  0.25000000  0.73404249  0.77411048  1
  Mg  Mg31  1  0.25000000  0.23404249  0.72588952  1
  Ge  Ge32  1  0.75000000  0.36798570  0.48392252  1
  Ge  Ge33  1  0.75000000  0.86798570  0.01607748  1
  Ge  Ge34  1  0.25000000  0.63201430  0.51607748  1
  Ge  Ge35  1  0.25000000  0.13201430  0.98392252  1
  Ge  Ge36  1  0.75000000  0.14968670  0.67431558  1
  Ge  Ge37  1  0.75000000  0.64968670  0.82568442  1
  Ge  Ge38  1  0.25000000  0.85031330  0.32568442  1
  Ge  Ge39  1  0.25000000  0.35031330  0.17431558  1
  Ge  Ge40  1  0.75000000  0.75637660  0.12113518  1
  Ge  Ge41  1  0.75000000  0.25637660  0.37886482  1
  Ge  Ge42  1  0.25000000  0.24362340  0.87886482  1
  Ge  Ge43  1  0.25000000  0.74362340  0.62113518  1
  Ge  Ge44  1  0.75000000  0.07855297  0.19055160  1
  Ge  Ge45  1  0.75000000  0.57855297  0.30944840  1
  Ge  Ge46  1  0.25000000  0.92144703  0.80944840  1
  Ge  Ge47  1  0.25000000  0.42144703  0.69055160  1
  Ge  Ge48  1  0.75000000  0.58703401  0.07533943  1
  Ge  Ge49  1  0.75000000  0.08703401  0.42466057  1
  Ge  Ge50  1  0.25000000  0.41296599  0.92466057  1
  Ge  Ge51  1  0.25000000  0.91296599  0.57533943  1
