# generated using pymatgen
data_ScFeGe2
_symmetry_space_group_name_H-M   'P 1'
_cell_length_a   8.04681814
_cell_length_b   9.25485701
_cell_length_c   10.04885374
_cell_angle_alpha   90.00000000
_cell_angle_beta   90.00000000
_cell_angle_gamma   90.00000000
_symmetry_Int_Tables_number   1
_chemical_formula_structural   ScFeGe2
_chemical_formula_sum   'Sc12 Fe12 Ge24'
_cell_volume   748.35975583
_cell_formula_units_Z   12
loop_
 _symmetry_equiv_pos_site_id
 _symmetry_equiv_pos_as_xyz
  1  'x, y, z'
loop_
 _atom_site_type_symbol
 _atom_site_label
 _atom_site_symmetry_multiplicity
 _atom_site_fract_x
 _atom_site_fract_y
 _atom_site_fract_z
 _atom_site_occupancy
  Sc  Sc0  1  0.74074799  0.82786818  0.04690603  1
  Sc  Sc1  1  0.74074799  0.17213182  0.95309397  1
  Sc  Sc2  1  0.25925201  0.67213182  0.54690603  1
  Sc  Sc3  1  0.25925201  0.32786818  0.45309397  1
  Sc  Sc4  1  0.25925201  0.17213182  0.95309397  1
  Sc  Sc5  1  0.25925201  0.82786818  0.04690603  1
  Sc  Sc6  1  0.74074799  0.32786818  0.45309397  1
  Sc  Sc7  1  0.74074799  0.67213182  0.54690603  1
  Sc  Sc8  1  0.50000000  0.83564925  0.32210776  1
  Sc  Sc9  1  0.50000000  0.16435075  0.67789224  1
  Sc  Sc10  1  0.50000000  0.66435075  0.82210776  1
  Sc  Sc11  1  0.50000000  0.33564925  0.17789224  1
  Fe  Fe12  1  0.75067178  0.58534390  0.24951950  1
  Fe  Fe13  1  0.75067178  0.41465610  0.75048050  1
  Fe  Fe14  1  0.24932822  0.91465610  0.74951950  1
  Fe  Fe15  1  0.24932822  0.08534390  0.25048050  1
  Fe  Fe16  1  0.24932822  0.41465610  0.75048050  1
  Fe  Fe17  1  0.24932822  0.58534390  0.24951950  1
  Fe  Fe18  1  0.75067178  0.08534390  0.25048050  1
  Fe  Fe19  1  0.75067178  0.91465610  0.74951950  1
  Fe  Fe20  1  0.74527588  0.00000000  0.50000000  1
  Fe  Fe21  1  0.25472412  0.50000000  -0.00000000  1
  Fe  Fe22  1  0.25472412  0.00000000  0.50000000  1
  Fe  Fe23  1  0.74527588  0.50000000  0.00000000  1
  Ge  Ge24  1  0.84234710  0.83673017  0.31894910  1
  Ge  Ge25  1  0.84234710  0.16326983  0.68105090  1
  Ge  Ge26  1  0.15765290  0.66326983  0.81894910  1
  Ge  Ge27  1  0.15765290  0.33673017  0.18105090  1
  Ge  Ge28  1  0.15765290  0.16326983  0.68105090  1
  Ge  Ge29  1  0.15765290  0.83673017  0.31894910  1
  Ge  Ge30  1  0.84234710  0.33673017  0.18105090  1
  Ge  Ge31  1  0.84234710  0.66326983  0.81894910  1
  Ge  Ge32  1  0.50000000  0.54126044  0.37624432  1
  Ge  Ge33  1  0.50000000  0.45873956  0.62375568  1
  Ge  Ge34  1  0.50000000  0.95873956  0.87624432  1
  Ge  Ge35  1  0.50000000  0.04126044  0.12375568  1
  Ge  Ge36  1  0.00000000  0.54245563  0.37388146  1
  Ge  Ge37  1  0.00000000  0.45754437  0.62611854  1
  Ge  Ge38  1  0.00000000  0.95754437  0.87388146  1
  Ge  Ge39  1  0.00000000  0.04245563  0.12611854  1
  Ge  Ge40  1  0.50000000  0.63034356  0.10150844  1
  Ge  Ge41  1  0.50000000  0.36965644  0.89849156  1
  Ge  Ge42  1  0.50000000  0.86965644  0.60150844  1
  Ge  Ge43  1  0.50000000  0.13034356  0.39849156  1
  Ge  Ge44  1  0.00000000  0.62618537  0.09419243  1
  Ge  Ge45  1  0.00000000  0.37381463  0.90580757  1
  Ge  Ge46  1  0.00000000  0.87381463  0.59419243  1
  Ge  Ge47  1  0.00000000  0.12618537  0.40580757  1
