# generated using pymatgen
data_Mg3Bi
_symmetry_space_group_name_H-M   'P 1'
_cell_length_a   6.55876865
_cell_length_b   3.39622403
_cell_length_c   5.31250477
_cell_angle_alpha   90.00000000
_cell_angle_beta   90.00000000
_cell_angle_gamma   121.18575128
_symmetry_Int_Tables_number   1
_chemical_formula_structural   Mg3Bi
_chemical_formula_sum   'Mg3 Bi1'
_cell_volume   101.23588103
_cell_formula_units_Z   1
loop_
 _symmetry_equiv_pos_site_id
 _symmetry_equiv_pos_as_xyz
  1  'x, y, z'
loop_
 _atom_site_type_symbol
 _atom_site_label
 _atom_site_symmetry_multiplicity
 _atom_site_fract_x
 _atom_site_fract_y
 _atom_site_fract_z
 _atom_site_occupancy
  Mg  Mg0  1  0.66775501  0.66775501  0.25000000  1
  Mg  Mg1  1  0.33883858  0.33883858  0.75000000  1
  Mg  Mg2  1  0.82756471  0.32756471  0.75000000  1
  Bi  Bi3  1  0.16584171  0.66584171  0.25000000  1
