# generated using pymatgen
data_Rb3B(SeO4)3
_symmetry_space_group_name_H-M   'P 1'
_cell_length_a   7.70809369
_cell_length_b   14.82701356
_cell_length_c   14.82701356
_cell_angle_alpha   63.92922276
_cell_angle_beta   74.93384475
_cell_angle_gamma   74.93384475
_symmetry_Int_Tables_number   1
_chemical_formula_structural   Rb3B(SeO4)3
_chemical_formula_sum   'Rb12 B4 Se12 O48'
_cell_volume   1448.92693788
_cell_formula_units_Z   4
loop_
 _symmetry_equiv_pos_site_id
 _symmetry_equiv_pos_as_xyz
  1  'x, y, z'
loop_
 _atom_site_type_symbol
 _atom_site_label
 _atom_site_symmetry_multiplicity
 _atom_site_fract_x
 _atom_site_fract_y
 _atom_site_fract_z
 _atom_site_occupancy
  Rb  Rb0  1  0.19119538  0.05940647  0.29470466  1
  Rb  Rb1  1  0.04530651  0.44059353  0.20529534  1
  Rb  Rb2  1  0.30880462  0.70529534  0.94059353  1
  Rb  Rb3  1  0.45469349  0.79470466  0.55940647  1
  Rb  Rb4  1  0.80880462  0.94059353  0.70529534  1
  Rb  Rb5  1  0.95469349  0.55940647  0.79470466  1
  Rb  Rb6  1  0.69119538  0.29470466  0.05940647  1
  Rb  Rb7  1  0.54530651  0.20529534  0.44059353  1
  Rb  Rb8  1  0.75000000  0.44115122  0.55884878  1
  Rb  Rb9  1  0.25000000  0.05884878  0.94115122  1
  Rb  Rb10  1  0.25000000  0.55884878  0.44115122  1
  Rb  Rb11  1  0.75000000  0.94115122  0.05884878  1
  B  B12  1  0.07997785  0.17002215  0.67002215  1
  B  B13  1  0.42002215  0.32997785  0.82997785  1
  B  B14  1  0.92002215  0.82997785  0.32997785  1
  B  B15  1  0.57997785  0.67002215  0.17002215  1
  Se  Se16  1  0.01966351  0.21845780  0.46844549  1
  Se  Se17  1  0.20656680  0.28154220  0.03155451  1
  Se  Se18  1  0.48033649  0.53155451  0.78154220  1
  Se  Se19  1  0.29343320  0.96844549  0.71845780  1
  Se  Se20  1  0.98033649  0.78154220  0.53155451  1
  Se  Se21  1  0.79343320  0.71845780  0.96844549  1
  Se  Se22  1  0.51966351  0.46844549  0.21845780  1
  Se  Se23  1  0.70656680  0.03155451  0.28154220  1
  Se  Se24  1  0.75000000  0.18660198  0.81339802  1
  Se  Se25  1  0.25000000  0.31339802  0.68660198  1
  Se  Se26  1  0.25000000  0.81339802  0.18660198  1
  Se  Se27  1  0.75000000  0.68660198  0.31339802  1
  O  O28  1  0.08716922  0.06018500  0.71837791  1
  O  O29  1  0.36573212  0.43981500  0.78162209  1
  O  O30  1  0.41283078  0.28162209  0.93981500  1
  O  O31  1  0.13426788  0.21837791  0.56018500  1
  O  O32  1  0.91283078  0.93981500  0.28162209  1
  O  O33  1  0.63426788  0.56018500  0.21837791  1
  O  O34  1  0.58716922  0.71837791  0.06018500  1
  O  O35  1  0.86573212  0.78162209  0.43981500  1
  O  O36  1  0.19225647  0.21264827  0.37669683  1
  O  O37  1  0.28160156  0.28735173  0.12330317  1
  O  O38  1  0.30774353  0.62330317  0.78735173  1
  O  O39  1  0.21839844  0.87669683  0.71264827  1
  O  O40  1  0.80774353  0.78735173  0.62330317  1
  O  O41  1  0.71839844  0.71264827  0.87669683  1
  O  O42  1  0.69225647  0.37669683  0.21264827  1
  O  O43  1  0.78160156  0.12330317  0.28735173  1
  O  O44  1  0.37068247  0.90062581  0.16123100  1
  O  O45  1  0.93253928  0.59937419  0.33876900  1
  O  O46  1  0.12931753  0.83876900  0.09937419  1
  O  O47  1  0.56746072  0.66123100  0.40062581  1
  O  O48  1  0.62931753  0.09937419  0.83876900  1
  O  O49  1  0.06746072  0.40062581  0.66123100  1
  O  O50  1  0.87068247  0.16123100  0.90062581  1
  O  O51  1  0.43253928  0.33876900  0.59937419  1
  O  O52  1  0.88303351  0.21795542  0.69249288  1
  O  O53  1  0.29348180  0.28204458  0.80750712  1
  O  O54  1  0.61696649  0.30750712  0.78204458  1
  O  O55  1  0.20651820  0.19249288  0.71795542  1
  O  O56  1  0.11696649  0.78204458  0.30750712  1
  O  O57  1  0.70651820  0.71795542  0.19249288  1
  O  O58  1  0.38303351  0.69249288  0.21795542  1
  O  O59  1  0.79348180  0.80750712  0.28204458  1
  O  O60  1  0.88213918  0.32992513  0.43328966  1
  O  O61  1  0.14535396  0.17007487  0.06671034  1
  O  O62  1  0.61786082  0.56671034  0.67007487  1
  O  O63  1  0.35464604  0.93328966  0.82992513  1
  O  O64  1  0.11786082  0.67007487  0.56671034  1
  O  O65  1  0.85464604  0.82992513  0.93328966  1
  O  O66  1  0.38213918  0.43328966  0.32992513  1
  O  O67  1  0.64535396  0.06671034  0.17007487  1
  O  O68  1  0.91113055  0.12021671  0.52173037  1
  O  O69  1  0.05307764  0.37978329  0.97826963  1
  O  O70  1  0.58886945  0.47826963  0.87978329  1
  O  O71  1  0.44692236  0.02173037  0.62021671  1
  O  O72  1  0.08886945  0.87978329  0.47826963  1
  O  O73  1  0.94692236  0.62021671  0.02173037  1
  O  O74  1  0.41113055  0.52173037  0.12021671  1
  O  O75  1  0.55307764  0.97826963  0.37978329  1
