# generated using pymatgen
data_KNb3(SeO6)2
_symmetry_space_group_name_H-M   'P 1'
_cell_length_a   4.07274743
_cell_length_b   15.18150799
_cell_length_c   17.54971001
_cell_angle_alpha   90.00000000
_cell_angle_beta   90.00000000
_cell_angle_gamma   90.00000000
_symmetry_Int_Tables_number   1
_chemical_formula_structural   KNb3(SeO6)2
_chemical_formula_sum   'K4 Nb12 Se8 O48'
_cell_volume   1085.10642604
_cell_formula_units_Z   4
loop_
 _symmetry_equiv_pos_site_id
 _symmetry_equiv_pos_as_xyz
  1  'x, y, z'
loop_
 _atom_site_type_symbol
 _atom_site_label
 _atom_site_symmetry_multiplicity
 _atom_site_fract_x
 _atom_site_fract_y
 _atom_site_fract_z
 _atom_site_occupancy
  K  K0  1  0.20058840  0.06712766  0.75000000  1
  K  K1  1  0.79941160  0.93287234  0.25000000  1
  K  K2  1  0.20058840  0.43287234  0.25000000  1
  K  K3  1  0.79941160  0.56712766  0.75000000  1
  Nb  Nb4  1  0.26294827  0.78882416  0.75000000  1
  Nb  Nb5  1  0.73705173  0.21117584  0.25000000  1
  Nb  Nb6  1  0.26294827  0.71117584  0.25000000  1
  Nb  Nb7  1  0.73705173  0.28882416  0.75000000  1
  Nb  Nb8  1  0.74206513  0.14831406  0.56667451  1
  Nb  Nb9  1  0.25793487  0.85168594  0.06667451  1
  Nb  Nb10  1  0.74206513  0.35168594  0.43332549  1
  Nb  Nb11  1  0.25793487  0.64831406  0.93332549  1
  Nb  Nb12  1  0.25793487  0.85168594  0.43332549  1
  Nb  Nb13  1  0.74206513  0.14831406  0.93332549  1
  Nb  Nb14  1  0.25793487  0.64831406  0.56667451  1
  Nb  Nb15  1  0.74206513  0.35168594  0.06667451  1
  Se  Se16  1  0.58849755  0.91878327  0.60131429  1
  Se  Se17  1  0.41150245  0.08121673  0.10131429  1
  Se  Se18  1  0.58849755  0.58121673  0.39868571  1
  Se  Se19  1  0.41150245  0.41878327  0.89868571  1
  Se  Se20  1  0.41150245  0.08121673  0.39868571  1
  Se  Se21  1  0.58849755  0.91878327  0.89868571  1
  Se  Se22  1  0.41150245  0.41878327  0.60131429  1
  Se  Se23  1  0.58849755  0.58121673  0.10131429  1
  O  O24  1  0.30252741  0.93247028  0.52890348  1
  O  O25  1  0.69747259  0.06752972  0.02890348  1
  O  O26  1  0.30252741  0.56752972  0.47109652  1
  O  O27  1  0.69747259  0.43247028  0.97109652  1
  O  O28  1  0.69747259  0.06752972  0.47109652  1
  O  O29  1  0.30252741  0.93247028  0.97109652  1
  O  O30  1  0.69747259  0.43247028  0.52890348  1
  O  O31  1  0.30252741  0.56752972  0.02890348  1
  O  O32  1  0.67270764  0.02659565  0.62779881  1
  O  O33  1  0.32729236  0.97340435  0.12779881  1
  O  O34  1  0.67270764  0.47340435  0.37220119  1
  O  O35  1  0.32729236  0.52659565  0.87220119  1
  O  O36  1  0.32729236  0.97340435  0.37220119  1
  O  O37  1  0.67270764  0.02659565  0.87220119  1
  O  O38  1  0.32729236  0.52659565  0.62779881  1
  O  O39  1  0.67270764  0.47340435  0.12779881  1
  O  O40  1  0.30948535  0.89565163  0.67319903  1
  O  O41  1  0.69051465  0.10434837  0.17319903  1
  O  O42  1  0.30948535  0.60434837  0.32680097  1
  O  O43  1  0.69051465  0.39565163  0.82680097  1
  O  O44  1  0.69051465  0.10434837  0.32680097  1
  O  O45  1  0.30948535  0.89565163  0.82680097  1
  O  O46  1  0.69051465  0.39565163  0.67319903  1
  O  O47  1  0.30948535  0.60434837  0.17319903  1
  O  O48  1  0.31312220  0.70360009  0.66767009  1
  O  O49  1  0.68687780  0.29639991  0.16767009  1
  O  O50  1  0.31312220  0.79639991  0.33232991  1
  O  O51  1  0.68687780  0.20360009  0.83232991  1
  O  O52  1  0.68687780  0.29639991  0.33232991  1
  O  O53  1  0.31312220  0.70360009  0.83232991  1
  O  O54  1  0.68687780  0.20360009  0.66767009  1
  O  O55  1  0.31312220  0.79639991  0.16767009  1
  O  O56  1  0.81412828  0.79657718  0.75000000  1
  O  O57  1  0.18587172  0.20342282  0.25000000  1
  O  O58  1  0.81412828  0.70342282  0.25000000  1
  O  O59  1  0.18587172  0.29657718  0.75000000  1
  O  O60  1  0.68589523  0.25000000  0.50000000  1
  O  O61  1  0.31410477  0.75000000  -0.00000000  1
  O  O62  1  0.31410477  0.75000000  0.50000000  1
  O  O63  1  0.68589523  0.25000000  -0.00000000  1
  O  O64  1  0.18778326  0.14246384  0.56724336  1
  O  O65  1  0.81221674  0.85753616  0.06724336  1
  O  O66  1  0.18778326  0.35753616  0.43275664  1
  O  O67  1  0.81221674  0.64246384  0.93275664  1
  O  O68  1  0.81221674  0.85753616  0.43275664  1
  O  O69  1  0.18778326  0.14246384  0.93275664  1
  O  O70  1  0.81221674  0.64246384  0.56724336  1
  O  O71  1  0.18778326  0.35753616  0.06724336  1
