# generated using pymatgen
data_Rb7NaSi8
_symmetry_space_group_name_H-M   'P 1'
_cell_length_a   13.16545964
_cell_length_b   13.16545964
_cell_length_c   13.16545964
_cell_angle_alpha   90.00000000
_cell_angle_beta   90.00000000
_cell_angle_gamma   90.00000000
_symmetry_Int_Tables_number   1
_chemical_formula_structural   Rb7NaSi8
_chemical_formula_sum   'Rb28 Na4 Si32'
_cell_volume   2281.96026606
_cell_formula_units_Z   4
loop_
 _symmetry_equiv_pos_site_id
 _symmetry_equiv_pos_as_xyz
  1  'x, y, z'
loop_
 _atom_site_type_symbol
 _atom_site_label
 _atom_site_symmetry_multiplicity
 _atom_site_fract_x
 _atom_site_fract_y
 _atom_site_fract_z
 _atom_site_occupancy
  Rb  Rb0  1  0.22605470  0.68570429  0.45708756  1
  Rb  Rb1  1  0.77394530  0.18570429  0.04291244  1
  Rb  Rb2  1  0.27394530  0.31429571  0.95708756  1
  Rb  Rb3  1  0.72605470  0.81429571  0.54291244  1
  Rb  Rb4  1  0.45708756  0.22605470  0.68570429  1
  Rb  Rb5  1  0.04291244  0.77394530  0.18570429  1
  Rb  Rb6  1  0.95708756  0.27394530  0.31429571  1
  Rb  Rb7  1  0.54291244  0.72605470  0.81429571  1
  Rb  Rb8  1  0.68570429  0.45708756  0.22605470  1
  Rb  Rb9  1  0.18570429  0.04291244  0.77394530  1
  Rb  Rb10  1  0.31429571  0.95708756  0.27394530  1
  Rb  Rb11  1  0.81429571  0.54291244  0.72605470  1
  Rb  Rb12  1  0.77394530  0.31429571  0.54291244  1
  Rb  Rb13  1  0.22605470  0.81429571  0.95708756  1
  Rb  Rb14  1  0.72605470  0.68570429  0.04291244  1
  Rb  Rb15  1  0.27394530  0.18570429  0.45708756  1
  Rb  Rb16  1  0.54291244  0.77394530  0.31429571  1
  Rb  Rb17  1  0.95708756  0.22605470  0.81429571  1
  Rb  Rb18  1  0.04291244  0.72605470  0.68570429  1
  Rb  Rb19  1  0.45708756  0.27394530  0.18570429  1
  Rb  Rb20  1  0.31429571  0.54291244  0.77394530  1
  Rb  Rb21  1  0.81429571  0.95708756  0.22605470  1
  Rb  Rb22  1  0.68570429  0.04291244  0.72605470  1
  Rb  Rb23  1  0.18570429  0.45708756  0.27394530  1
  Rb  Rb24  1  -0.00000000  -0.00000000  0.50000000  1
  Rb  Rb25  1  -0.00000000  0.50000000  -0.00000000  1
  Rb  Rb26  1  0.50000000  0.00000000  -0.00000000  1
  Rb  Rb27  1  0.50000000  0.50000000  0.50000000  1
  Na  Na28  1  0.50000000  0.50000000  -0.00000000  1
  Na  Na29  1  0.50000000  0.00000000  0.50000000  1
  Na  Na30  1  -0.00000000  0.50000000  0.50000000  1
  Na  Na31  1  -0.00000000  0.00000000  -0.00000000  1
  Si  Si32  1  0.30089722  0.69910278  0.19910278  1
  Si  Si33  1  0.69910278  0.19910278  0.30089722  1
  Si  Si34  1  0.19910278  0.30089722  0.69910278  1
  Si  Si35  1  0.80089722  0.80089722  0.80089722  1
  Si  Si36  1  0.69910278  0.30089722  0.80089722  1
  Si  Si37  1  0.30089722  0.80089722  0.69910278  1
  Si  Si38  1  0.80089722  0.69910278  0.30089722  1
  Si  Si39  1  0.19910278  0.19910278  0.19910278  1
  Si  Si40  1  0.42250007  0.56155105  0.20196582  1
  Si  Si41  1  0.57749993  0.06155105  0.29803418  1
  Si  Si42  1  0.07749993  0.43844895  0.70196582  1
  Si  Si43  1  0.92250007  0.93844895  0.79803418  1
  Si  Si44  1  0.20196582  0.42250007  0.56155105  1
  Si  Si45  1  0.29803418  0.57749993  0.06155105  1
  Si  Si46  1  0.70196582  0.07749993  0.43844895  1
  Si  Si47  1  0.79803418  0.92250007  0.93844895  1
  Si  Si48  1  0.56155105  0.20196582  0.42250007  1
  Si  Si49  1  0.06155105  0.29803418  0.57749993  1
  Si  Si50  1  0.43844895  0.70196582  0.07749993  1
  Si  Si51  1  0.93844895  0.79803418  0.92250007  1
  Si  Si52  1  0.57749993  0.43844895  0.79803418  1
  Si  Si53  1  0.42250007  0.93844895  0.70196582  1
  Si  Si54  1  0.92250007  0.56155105  0.29803418  1
  Si  Si55  1  0.07749993  0.06155105  0.20196582  1
  Si  Si56  1  0.79803418  0.57749993  0.43844895  1
  Si  Si57  1  0.70196582  0.42250007  0.93844895  1
  Si  Si58  1  0.29803418  0.92250007  0.56155105  1
  Si  Si59  1  0.20196582  0.07749993  0.06155105  1
  Si  Si60  1  0.43844895  0.79803418  0.57749993  1
  Si  Si61  1  0.93844895  0.70196582  0.42250007  1
  Si  Si62  1  0.56155105  0.29803418  0.92250007  1
  Si  Si63  1  0.06155105  0.20196582  0.07749993  1
