# generated using pymatgen
data_NaPr3Ge4O13
_symmetry_space_group_name_H-M   'P 1'
_cell_length_a   6.94820506
_cell_length_b   7.20075433
_cell_length_c   12.04521440
_cell_angle_alpha   102.29271996
_cell_angle_beta   98.58421744
_cell_angle_gamma   91.61166556
_symmetry_Int_Tables_number   1
_chemical_formula_structural   NaPr3Ge4O13
_chemical_formula_sum   'Na2 Pr6 Ge8 O26'
_cell_volume   581.11613950
_cell_formula_units_Z   2
loop_
 _symmetry_equiv_pos_site_id
 _symmetry_equiv_pos_as_xyz
  1  'x, y, z'
loop_
 _atom_site_type_symbol
 _atom_site_label
 _atom_site_symmetry_multiplicity
 _atom_site_fract_x
 _atom_site_fract_y
 _atom_site_fract_z
 _atom_site_occupancy
  Na  Na0  1  0.12283326  0.80659015  0.34878241  1
  Na  Na1  1  0.87716674  0.19340985  0.65121759  1
  Pr  Pr2  1  0.94672080  0.67572361  0.64552897  1
  Pr  Pr3  1  0.05327920  0.32427639  0.35447103  1
  Pr  Pr4  1  0.72552748  0.91223053  0.13522254  1
  Pr  Pr5  1  0.27447252  0.08776947  0.86477746  1
  Pr  Pr6  1  0.55366211  0.53728316  0.83490515  1
  Pr  Pr7  1  0.44633789  0.46271684  0.16509485  1
  Ge  Ge8  1  0.22873318  0.93952372  0.12052230  1
  Ge  Ge9  1  0.77126682  0.06047628  0.87947770  1
  Ge  Ge10  1  0.40565051  0.72228601  0.56728624  1
  Ge  Ge11  1  0.59434949  0.27771399  0.43271376  1
  Ge  Ge12  1  0.11550659  0.60072872  0.89794711  1
  Ge  Ge13  1  0.88449341  0.39927128  0.10205289  1
  Ge  Ge14  1  0.69016503  0.84434395  0.40485950  1
  Ge  Ge15  1  0.30983497  0.15565605  0.59514050  1
  O  O16  1  0.59242347  0.64746020  0.65755494  1
  O  O17  1  0.40757653  0.35253980  0.34244506  1
  O  O18  1  0.64358840  0.88540395  0.92896233  1
  O  O19  1  0.35641160  0.11459605  0.07103767  1
  O  O20  1  0.41123885  0.79174053  0.15926989  1
  O  O21  1  0.58876115  0.20825947  0.84073011  1
  O  O22  1  0.24671531  0.72302830  0.81490182  1
  O  O23  1  0.75328469  0.27697170  0.18509818  1
  O  O24  1  0.05182424  0.79310739  0.00749304  1
  O  O25  1  0.94817576  0.20689261  0.99250696  1
  O  O26  1  0.75092151  0.69473826  0.28225174  1
  O  O27  1  0.24907849  0.30526174  0.71774826  1
  O  O28  1  0.85170206  0.88470340  0.53155579  1
  O  O29  1  0.14829794  0.11529660  0.46844421  1
  O  O30  1  0.18721891  0.58170307  0.51868854  1
  O  O31  1  0.81278109  0.41829693  0.48131146  1
  O  O32  1  0.45312862  0.78095004  0.43469168  1
  O  O33  1  0.54687138  0.21904996  0.56530832  1
  O  O34  1  0.32509880  0.93887563  0.65082368  1
  O  O35  1  0.67490120  0.06112437  0.34917632  1
  O  O36  1  0.89564489  0.51098048  0.80513665  1
  O  O37  1  0.10435511  0.48901952  0.19486335  1
  O  O38  1  0.71653071  0.55136037  0.04563338  1
  O  O39  1  0.28346929  0.44863963  0.95436662  1
  O  O40  1  0.93132339  0.98659502  0.78026256  1
  O  O41  1  0.06867661  0.01340498  0.21973744  1
