# generated using pymatgen
data_AgSb(SeF3)2
_symmetry_space_group_name_H-M   'P 1'
_cell_length_a   10.95627054
_cell_length_b   11.11180117
_cell_length_c   12.54601746
_cell_angle_alpha   116.28533605
_cell_angle_beta   115.69678560
_cell_angle_gamma   90.00000000
_symmetry_Int_Tables_number   1
_chemical_formula_structural   AgSb(SeF3)2
_chemical_formula_sum   'Ag6 Sb6 Se12 F36'
_cell_volume   1198.66914924
_cell_formula_units_Z   6
loop_
 _symmetry_equiv_pos_site_id
 _symmetry_equiv_pos_as_xyz
  1  'x, y, z'
loop_
 _atom_site_type_symbol
 _atom_site_label
 _atom_site_symmetry_multiplicity
 _atom_site_fract_x
 _atom_site_fract_y
 _atom_site_fract_z
 _atom_site_occupancy
  Ag  Ag0  1  0.75000000  0.51782623  0.00000000  1
  Ag  Ag1  1  0.25000000  0.48217377  1.00000000  1
  Ag  Ag2  1  0.34518947  0.81059052  0.66438096  1
  Ag  Ag3  1  0.15481053  0.14620956  0.33561904  1
  Ag  Ag4  1  0.65481053  0.18940948  0.33561904  1
  Ag  Ag5  1  0.84518947  0.85379044  0.66438096  1
  Sb  Sb6  1  0.00000000  0.00000000  0.50000000  1
  Sb  Sb7  1  0.50000000  0.50000000  0.50000000  1
  Sb  Sb8  1  0.25000000  0.01904457  1.00000000  1
  Sb  Sb9  1  0.75000000  0.98095543  0.00000000  1
  Sb  Sb10  1  0.50000000  0.00000000  0.50000000  1
  Sb  Sb11  1  0.00000000  0.50000000  0.50000000  1
  Se  Se12  1  0.10396308  0.71317191  0.09069756  1
  Se  Se13  1  0.39603692  0.62247435  0.90930244  1
  Se  Se14  1  0.89603692  0.28682809  0.90930244  1
  Se  Se15  1  0.60396308  0.37752565  0.09069756  1
  Se  Se16  1  0.03774181  0.62719871  0.20620352  1
  Se  Se17  1  0.46225819  0.42099519  0.79379648  1
  Se  Se18  1  0.96225819  0.37280129  0.79379648  1
  Se  Se19  1  0.53774181  0.57900481  0.20620352  1
  Se  Se20  1  0.09385880  0.40834723  0.12844404  1
  Se  Se21  1  0.40614120  0.27990319  0.87155596  1
  Se  Se22  1  0.90614120  0.59165277  0.87155596  1
  Se  Se23  1  0.59385880  0.72009681  0.12844404  1
  F  F24  1  0.15095419  0.91181266  0.54934230  1
  F  F25  1  0.34904581  0.36247036  0.45065770  1
  F  F26  1  0.84904581  0.08818734  0.45065770  1
  F  F27  1  0.65095419  0.63752964  0.54934230  1
  F  F28  1  0.99708718  0.04682972  0.66648595  1
  F  F29  1  0.50291282  0.38034377  0.33351405  1
  F  F30  1  0.00291282  0.95317028  0.33351405  1
  F  F31  1  0.49708718  0.61965623  0.66648595  1
  F  F32  1  0.86902396  0.82788351  0.41119586  1
  F  F33  1  0.63097604  0.41668765  0.58880414  1
  F  F34  1  0.13097604  0.17211649  0.58880414  1
  F  F35  1  0.36902396  0.58331235  0.41119586  1
  F  F36  1  0.26002402  0.93552354  0.83355614  1
  F  F37  1  0.23997598  0.10196739  0.16644386  1
  F  F38  1  0.73997598  0.06447646  0.16644386  1
  F  F39  1  0.76002402  0.89803261  0.83355614  1
  F  F40  1  0.25000000  0.84611700  1.00000000  1
  F  F41  1  0.75000000  0.15388300  0.00000000  1
  F  F42  1  0.25000000  0.19192232  0.00000000  1
  F  F43  1  0.75000000  0.80807768  1.00000000  1
  F  F44  1  0.04942686  0.96634298  0.89490837  1
  F  F45  1  0.45057314  0.07143461  0.10509163  1
  F  F46  1  0.95057314  0.03365702  0.10509163  1
  F  F47  1  0.54942686  0.92856539  0.89490837  1
  F  F48  1  0.47742458  0.92911086  0.60744311  1
  F  F49  1  0.02257542  0.32166775  0.39255689  1
  F  F50  1  0.52257542  0.07088914  0.39255689  1
  F  F51  1  0.97742458  0.67833225  0.60744311  1
  F  F52  1  0.40242992  0.82365662  0.33960013  1
  F  F53  1  0.09757008  0.48405649  0.66039987  1
  F  F54  1  0.59757008  0.17634338  0.66039987  1
  F  F55  1  0.90242992  0.51594351  0.33960013  1
  F  F56  1  0.67380121  0.94385096  0.53384274  1
  F  F57  1  0.82619879  0.41000822  0.46615726  1
  F  F58  1  0.32619879  0.05614904  0.46615726  1
  F  F59  1  0.17380121  0.58999178  0.53384274  1
