# generated using pymatgen
data_MnTl2P4(HO2)8
_symmetry_space_group_name_H-M   'P 1'
_cell_length_a   7.05446373
_cell_length_b   7.66728704
_cell_length_c   7.83027462
_cell_angle_alpha   81.41623362
_cell_angle_beta   73.85214984
_cell_angle_gamma   85.99042731
_symmetry_Int_Tables_number   1
_chemical_formula_structural   MnTl2P4(HO2)8
_chemical_formula_sum   'Mn1 Tl2 P4 H8 O16'
_cell_volume   402.08226745
_cell_formula_units_Z   1
loop_
 _symmetry_equiv_pos_site_id
 _symmetry_equiv_pos_as_xyz
  1  'x, y, z'
loop_
 _atom_site_type_symbol
 _atom_site_label
 _atom_site_symmetry_multiplicity
 _atom_site_fract_x
 _atom_site_fract_y
 _atom_site_fract_z
 _atom_site_occupancy
  Mn  Mn0  1  0.50000000  0.50000000  -0.00000000  1
  Tl  Tl1  1  0.89186163  0.27649952  0.20839348  1
  Tl  Tl2  1  0.10813837  0.72350048  0.79160652  1
  P  P3  1  0.25070396  0.80714938  0.24793346  1
  P  P4  1  0.74929604  0.19285062  0.75206654  1
  P  P5  1  0.66591383  0.73751431  0.25878180  1
  P  P6  1  0.33408617  0.26248569  0.74121820  1
  H  H7  1  0.94410377  0.73335367  0.41105566  1
  H  H8  1  0.05589623  0.26664633  0.58894434  1
  H  H9  1  0.74059804  0.95938800  0.03697029  1
  H  H10  1  0.25940196  0.04061200  0.96302971  1
  H  H11  1  0.37439821  0.30106619  0.35489475  1
  H  H12  1  0.62560179  0.69893381  0.64510525  1
  H  H13  1  0.38698323  0.17488041  0.20681116  1
  H  H14  1  0.61301677  0.82511959  0.79318884  1
  O  O15  1  0.26300503  0.99835025  0.15644789  1
  O  O16  1  0.73699497  0.00164975  0.84355211  1
  O  O17  1  0.07353980  0.78257629  0.42235753  1
  O  O18  1  0.92646020  0.21742371  0.57764247  1
  O  O19  1  0.25538977  0.66966834  0.12649191  1
  O  O20  1  0.74461023  0.33033166  0.87350809  1
  O  O21  1  0.43070502  0.77130596  0.34271850  1
  O  O22  1  0.56929498  0.22869404  0.65728150  1
  O  O23  1  0.74531963  0.67432790  0.41903720  1
  O  O24  1  0.25468037  0.32567210  0.58096280  1
  O  O25  1  0.75208860  0.92398729  0.16722325  1
  O  O26  1  0.24791140  0.07601271  0.83277675  1
  O  O27  1  0.69824385  0.61272170  0.11902242  1
  O  O28  1  0.30175615  0.38727830  0.88097758  1
  O  O29  1  0.44248518  0.28183518  0.22950609  1
  O  O30  1  0.55751482  0.71816482  0.77049391  1
