# generated using pymatgen
data_Ba3Al2B10H4O23
_symmetry_space_group_name_H-M   'P 1'
_cell_length_a   7.15463122
_cell_length_b   7.15463122
_cell_length_c   23.45153486
_cell_angle_alpha   94.55879739
_cell_angle_beta   94.55879739
_cell_angle_gamma   118.61653867
_symmetry_Int_Tables_number   1
_chemical_formula_structural   Ba3Al2B10H4O23
_chemical_formula_sum   'Ba6 Al4 B20 H8 O46'
_cell_volume   1040.95776402
_cell_formula_units_Z   2
loop_
 _symmetry_equiv_pos_site_id
 _symmetry_equiv_pos_as_xyz
  1  'x, y, z'
loop_
 _atom_site_type_symbol
 _atom_site_label
 _atom_site_symmetry_multiplicity
 _atom_site_fract_x
 _atom_site_fract_y
 _atom_site_fract_z
 _atom_site_occupancy
  Ba  Ba0  1  0.53124858  0.52423789  0.31187634  1
  Ba  Ba1  1  0.47576211  0.46875142  0.68812366  1
  Ba  Ba2  1  0.53763844  0.03062776  0.81187634  1
  Ba  Ba3  1  0.96937224  0.46236156  0.18812366  1
  Ba  Ba4  1  0.24121786  0.75878214  0.50000000  1
  Ba  Ba5  1  0.49121786  0.50878214  0.00000000  1
  Al  Al6  1  0.24581981  0.88659052  0.33682177  1
  Al  Al7  1  0.11340948  0.75418019  0.66317823  1
  Al  Al8  1  0.20023125  0.34100196  0.83682177  1
  Al  Al9  1  0.65899804  0.79976875  0.16317823  1
  B  B10  1  0.95042276  0.05243406  0.32445848  1
  B  B11  1  0.94756594  0.04957724  0.67554152  1
  B  B12  1  0.02202442  0.62403572  0.82445848  1
  B  B13  1  0.37596428  0.97797558  0.17554152  1
  B  B14  1  0.03055435  0.43722221  0.33664817  1
  B  B15  1  0.56277779  0.96944565  0.66335183  1
  B  B16  1  0.64942596  0.55609382  0.83664817  1
  B  B17  1  0.44390618  0.35057404  0.16335183  1
  B  B18  1  0.43324585  0.18100585  0.44260165  1
  B  B19  1  0.81899415  0.56675415  0.55739835  1
  B  B20  1  0.01159580  0.25935581  0.94260165  1
  B  B21  1  0.74064419  0.98840420  0.05739835  1
  B  B22  1  0.42487727  0.37669596  0.53623265  1
  B  B23  1  0.62330404  0.57512273  0.46376735  1
  B  B24  1  0.90953669  0.36135538  0.03623265  1
  B  B25  1  0.63864462  0.09046331  0.96376735  1
  B  B26  1  0.65794566  0.13370821  0.30525906  1
  B  B27  1  0.86629179  0.34205434  0.69474094  1
  B  B28  1  0.92155085  0.89731340  0.80525906  1
  B  B29  1  0.10268660  0.07844915  0.19474094  1
  H  H30  1  0.86232583  0.42694193  0.40485075  1
  H  H31  1  0.57305807  0.13767417  0.59514925  1
  H  H32  1  0.72790882  0.79252492  0.90485075  1
  H  H33  1  0.20747508  0.27209118  0.09514925  1
  H  H34  1  0.15715026  0.38038082  0.56512112  1
  H  H35  1  0.61961918  0.84284974  0.43487888  1
  H  H36  1  0.93474030  0.65797086  0.06512112  1
  H  H37  1  0.34202914  0.06525970  0.93487888  1
  O  O38  1  0.01159514  0.49661915  0.39696551  1
  O  O39  1  0.50338085  0.98840486  0.60303449  1
  O  O40  1  0.65034636  0.63537037  0.89696551  1
  O  O41  1  0.36462963  0.34965364  0.10303449  1
  O  O42  1  0.45729856  0.54270144  0.50000000  1
  O  O43  1  0.70729856  0.29270144  0.00000000  1
  O  O44  1  0.00295762  0.89386616  0.32373909  1
  O  O45  1  0.10613384  0.99704238  0.67626091  1
  O  O46  1  0.17987293  0.57078147  0.82373909  1
  O  O47  1  0.42921853  0.82012707  0.17626091  1
  O  O48  1  0.56529184  0.37262165  0.42339104  1
  O  O49  1  0.62737835  0.43470816  0.57660896  1
  O  O50  1  0.80076939  0.10809919  0.92339104  1
  O  O51  1  0.89190081  0.19923061  0.07660896  1
  O  O52  1  0.37169235  0.17516657  0.49722697  1
  O  O53  1  0.82483343  0.62830765  0.50277303  1
  O  O54  1  0.07206040  0.37553462  0.99722697  1
  O  O55  1  0.62446538  0.92793960  0.00277303  1
  O  O56  1  0.36575717  0.98516948  0.41000631  1
  O  O57  1  0.01483052  0.63424283  0.58999369  1
  O  O58  1  0.17483683  0.29424914  0.91000631  1
  O  O59  1  0.70575086  0.82516317  0.08999369  1
  O  O60  1  0.09785088  0.26758326  0.33234076  1
  O  O61  1  0.73241674  0.90214912  0.66765924  1
  O  O62  1  0.81475750  0.48448988  0.83234076  1
  O  O63  1  0.51551012  0.18524250  0.16765924  1
  O  O64  1  0.26647021  0.34094175  0.57566214  1
  O  O65  1  0.65905825  0.73352979  0.42433786  1
  O  O66  1  0.98472039  0.55919193  0.07566214  1
  O  O67  1  0.44080807  0.01527961  0.92433786  1
  O  O68  1  0.72761355  0.98679094  0.31722201  1
  O  O69  1  0.01320906  0.27238645  0.68277799  1
  O  O70  1  0.08043107  0.83960845  0.81722201  1
  O  O71  1  0.16039155  0.91956893  0.18277799  1
  O  O72  1  0.80942700  0.34448513  0.30124984  1
  O  O73  1  0.65551487  0.19057300  0.69875016  1
  O  O74  1  0.70676472  0.74182284  0.80124984  1
  O  O75  1  0.25817716  0.29323528  0.19875016  1
  O  O76  1  0.18943653  0.62197840  0.31333871  1
  O  O77  1  0.37802160  0.81056347  0.68666129  1
  O  O78  1  0.44136031  0.37390218  0.81333871  1
  O  O79  1  0.62609782  0.55863969  0.18666129  1
  O  O80  1  0.44575274  0.07493187  0.29895841  1
  O  O81  1  0.92506813  0.55424726  0.70104159  1
  O  O82  1  0.97402653  0.10320567  0.79895841  1
  O  O83  1  0.89679433  0.02597347  0.20104159  1
