# generated using pymatgen
data_LaVI5O16
_symmetry_space_group_name_H-M   'P 1'
_cell_length_a   7.59215615
_cell_length_b   10.58153480
_cell_length_c   18.36937719
_cell_angle_alpha   90.00000000
_cell_angle_beta   90.00000000
_cell_angle_gamma   92.36310792
_symmetry_Int_Tables_number   1
_chemical_formula_structural   LaVI5O16
_chemical_formula_sum   'La4 V4 I20 O64'
_cell_volume   1474.47950796
_cell_formula_units_Z   4
loop_
 _symmetry_equiv_pos_site_id
 _symmetry_equiv_pos_as_xyz
  1  'x, y, z'
loop_
 _atom_site_type_symbol
 _atom_site_label
 _atom_site_symmetry_multiplicity
 _atom_site_fract_x
 _atom_site_fract_y
 _atom_site_fract_z
 _atom_site_occupancy
  La  La0  1  0.75036799  0.75827450  0.76662888  1
  La  La1  1  0.25036799  0.25827450  0.73337112  1
  La  La2  1  0.24963201  0.24172550  0.23337112  1
  La  La3  1  0.74963201  0.74172550  0.26662888  1
  V  V4  1  0.26943257  0.76853314  0.00104196  1
  V  V5  1  0.76943257  0.26853314  0.49895804  1
  V  V6  1  0.73056743  0.23146686  0.99895804  1
  V  V7  1  0.23056743  0.73146686  0.50104196  1
  I  I8  1  0.10226639  0.56345002  0.87604575  1
  I  I9  1  0.60226639  0.06345002  0.62395425  1
  I  I10  1  0.89773361  0.43654998  0.12395425  1
  I  I11  1  0.39773361  0.93654998  0.37604575  1
  I  I12  1  0.07250545  0.94785257  0.62955408  1
  I  I13  1  0.57250545  0.44785257  0.87044592  1
  I  I14  1  0.92749455  0.05214743  0.37044592  1
  I  I15  1  0.42749455  0.55214743  0.12955408  1
  I  I16  1  0.27966589  0.93393417  0.83614559  1
  I  I17  1  0.77966589  0.43393417  0.66385441  1
  I  I18  1  0.72033411  0.06606583  0.16385441  1
  I  I19  1  0.22033411  0.56606583  0.33614559  1
  I  I20  1  0.21118985  0.89859968  0.17477592  1
  I  I21  1  0.71118985  0.39859968  0.32522408  1
  I  I22  1  0.78881015  0.10140032  0.82522408  1
  I  I23  1  0.28881015  0.60140032  0.67477592  1
  I  I24  1  0.78059594  0.75890228  0.99517631  1
  I  I25  1  0.28059594  0.25890228  0.50482369  1
  I  I26  1  0.21940406  0.24109772  0.00482369  1
  I  I27  1  0.71940406  0.74109772  0.49517631  1
  O  O28  1  0.30089260  0.65129706  0.91194925  1
  O  O29  1  0.80089260  0.15129706  0.58805075  1
  O  O30  1  0.69910740  0.34870294  0.08805075  1
  O  O31  1  0.19910740  0.84870294  0.41194925  1
  O  O32  1  0.03703772  0.68738425  0.81340238  1
  O  O33  1  0.53703772  0.18738425  0.68659762  1
  O  O34  1  0.96296228  0.31261575  0.18659762  1
  O  O35  1  0.46296228  0.81261575  0.31340238  1
  O  O36  1  0.22471417  0.47647406  0.80590742  1
  O  O37  1  0.72471417  0.97647406  0.69409258  1
  O  O38  1  0.77528583  0.52352594  0.19409258  1
  O  O39  1  0.27528583  0.02352594  0.30590742  1
  O  O40  1  0.24781831  0.88765850  0.57071272  1
  O  O41  1  0.74781831  0.38765850  0.92928728  1
  O  O42  1  0.75218169  0.11234150  0.42928728  1
  O  O43  1  0.25218169  0.61234150  0.07071272  1
  O  O44  1  0.22377846  0.02431014  0.69653743  1
  O  O45  1  0.72377846  0.52431014  0.80346257  1
  O  O46  1  0.77622154  0.97568986  0.30346257  1
  O  O47  1  0.27622154  0.47568986  0.19653743  1
  O  O48  1  0.02268315  0.80619200  0.68330914  1
  O  O49  1  0.52268315  0.30619200  0.81669086  1
  O  O50  1  0.97731685  0.19380800  0.31669086  1
  O  O51  1  0.47731685  0.69380800  0.18330914  1
  O  O52  1  0.23218404  0.91620337  0.93512088  1
  O  O53  1  0.73218404  0.41620337  0.56487912  1
  O  O54  1  0.76781596  0.08379663  0.06487912  1
  O  O55  1  0.26781596  0.58379663  0.43512088  1
  O  O56  1  0.51836481  0.91329698  0.83214051  1
  O  O57  1  0.01836481  0.41329698  0.66785949  1
  O  O58  1  0.48163519  0.08670302  0.16785949  1
  O  O59  1  0.98163519  0.58670302  0.33214051  1
  O  O60  1  0.28008812  0.10606864  0.83867135  1
  O  O61  1  0.78008812  0.60606864  0.66132865  1
  O  O62  1  0.71991188  0.89393136  0.16132865  1
  O  O63  1  0.21991188  0.39393136  0.33867135  1
  O  O64  1  0.05244966  0.79216765  0.22130292  1
  O  O65  1  0.55244966  0.29216765  0.27869708  1
  O  O66  1  0.94755034  0.20783235  0.77869708  1
  O  O67  1  0.44755034  0.70783235  0.72130292  1
  O  O68  1  0.14867959  0.86747879  0.07822713  1
  O  O69  1  0.64867959  0.36747879  0.42177287  1
  O  O70  1  0.85132041  0.13252121  0.92177287  1
  O  O71  1  0.35132041  0.63252121  0.57822713  1
  O  O72  1  0.09823223  0.04882728  0.17629066  1
  O  O73  1  0.59823223  0.54882728  0.32370934  1
  O  O74  1  0.90176777  0.95117272  0.82370934  1
  O  O75  1  0.40176777  0.45117272  0.67629066  1
  O  O76  1  0.72039823  0.62218283  0.05143215  1
  O  O77  1  0.22039823  0.12218283  0.44856785  1
  O  O78  1  0.27960177  0.37781717  0.94856785  1
  O  O79  1  0.77960177  0.87781717  0.55143215  1
  O  O80  1  0.70360463  0.70861632  0.90543787  1
  O  O81  1  0.20360463  0.20861632  0.59456213  1
  O  O82  1  0.29639537  0.29138368  0.09456213  1
  O  O83  1  0.79639537  0.79138368  0.40543787  1
  O  O84  1  0.01085251  0.70139758  0.97696188  1
  O  O85  1  0.51085251  0.20139758  0.52303812  1
  O  O86  1  0.98914749  0.29860242  0.02303812  1
  O  O87  1  0.48914749  0.79860242  0.47696188  1
  O  O88  1  0.48491959  0.80228914  0.01719024  1
  O  O89  1  0.98491959  0.30228914  0.48280976  1
  O  O90  1  0.51508041  0.19771086  0.98280976  1
  O  O91  1  0.01508041  0.69771086  0.51719024  1
