# generated using pymatgen
data_Yb3(SnPd)2
_symmetry_space_group_name_H-M   'P 1'
_cell_length_a   5.83056064
_cell_length_b   13.88462132
_cell_length_c   17.01045231
_cell_angle_alpha   90.00000000
_cell_angle_beta   90.00000000
_cell_angle_gamma   90.00000000
_symmetry_Int_Tables_number   1
_chemical_formula_structural   Yb3(SnPd)2
_chemical_formula_sum   'Yb24 Sn16 Pd16'
_cell_volume   1377.08331976
_cell_formula_units_Z   8
loop_
 _symmetry_equiv_pos_site_id
 _symmetry_equiv_pos_as_xyz
  1  'x, y, z'
loop_
 _atom_site_type_symbol
 _atom_site_label
 _atom_site_symmetry_multiplicity
 _atom_site_fract_x
 _atom_site_fract_y
 _atom_site_fract_z
 _atom_site_occupancy
  Yb  Yb0  1  0.80365258  0.40421231  0.17695354  1
  Yb  Yb1  1  0.19634742  0.90421231  0.82304646  1
  Yb  Yb2  1  0.80365258  0.59578769  0.32304646  1
  Yb  Yb3  1  0.19634742  0.09578769  0.67695354  1
  Yb  Yb4  1  0.19634742  0.59578769  0.82304646  1
  Yb  Yb5  1  0.80365258  0.09578769  0.17695354  1
  Yb  Yb6  1  0.19634742  0.40421231  0.67695354  1
  Yb  Yb7  1  0.80365258  0.90421231  0.32304646  1
  Yb  Yb8  1  0.50017111  0.40448367  0.92673704  1
  Yb  Yb9  1  0.49982889  0.90448367  0.07326296  1
  Yb  Yb10  1  0.50017111  0.59551633  0.57326296  1
  Yb  Yb11  1  0.49982889  0.09551633  0.42673704  1
  Yb  Yb12  1  0.49982889  0.59551633  0.07326296  1
  Yb  Yb13  1  0.50017111  0.09551633  0.92673704  1
  Yb  Yb14  1  0.49982889  0.40448367  0.42673704  1
  Yb  Yb15  1  0.50017111  0.90448367  0.57326296  1
  Yb  Yb16  1  0.01882474  0.25000000  0.99755784  1
  Yb  Yb17  1  0.98117526  0.75000000  0.00244216  1
  Yb  Yb18  1  0.01882474  0.75000000  0.50244216  1
  Yb  Yb19  1  0.98117526  0.25000000  0.49755784  1
  Yb  Yb20  1  0.71259241  0.25000000  0.74653973  1
  Yb  Yb21  1  0.28740759  0.75000000  0.25346027  1
  Yb  Yb22  1  0.71259241  0.75000000  0.75346027  1
  Yb  Yb23  1  0.28740759  0.25000000  0.24653973  1
  Sn  Sn24  1  0.48088612  0.25000000  0.57180824  1
  Sn  Sn25  1  0.51911388  0.75000000  0.42819176  1
  Sn  Sn26  1  0.48088612  0.75000000  0.92819176  1
  Sn  Sn27  1  0.51911388  0.25000000  0.07180824  1
  Sn  Sn28  1  0.78417945  0.25000000  0.32256807  1
  Sn  Sn29  1  0.21582055  0.75000000  0.67743193  1
  Sn  Sn30  1  0.78417945  0.75000000  0.17743193  1
  Sn  Sn31  1  0.21582055  0.25000000  0.82256807  1
  Sn  Sn32  1  0.68756067  0.50000000  0.75000000  1
  Sn  Sn33  1  0.31243933  -0.00000000  0.25000000  1
  Sn  Sn34  1  0.31243933  0.50000000  0.25000000  1
  Sn  Sn35  1  0.68756067  -0.00000000  0.75000000  1
  Sn  Sn36  1  -0.00000000  0.50000000  0.50000000  1
  Sn  Sn37  1  -0.00000000  -0.00000000  0.50000000  1
  Sn  Sn38  1  -0.00000000  0.50000000  -0.00000000  1
  Sn  Sn39  1  -0.00000000  -0.00000000  -0.00000000  1
  Pd  Pd40  1  0.97169588  0.40994847  0.85708230  1
  Pd  Pd41  1  0.02830412  0.90994847  0.14291770  1
  Pd  Pd42  1  0.97169588  0.59005153  0.64291770  1
  Pd  Pd43  1  0.02830412  0.09005153  0.35708230  1
  Pd  Pd44  1  0.02830412  0.59005153  0.14291770  1
  Pd  Pd45  1  0.97169588  0.09005153  0.85708230  1
  Pd  Pd46  1  0.02830412  0.40994847  0.35708230  1
  Pd  Pd47  1  0.97169588  0.90994847  0.64291770  1
  Pd  Pd48  1  0.72561914  0.40888271  0.60772306  1
  Pd  Pd49  1  0.27438086  0.90888271  0.39227694  1
  Pd  Pd50  1  0.72561914  0.59111729  0.89227694  1
  Pd  Pd51  1  0.27438086  0.09111729  0.10772306  1
  Pd  Pd52  1  0.27438086  0.59111729  0.39227694  1
  Pd  Pd53  1  0.72561914  0.09111729  0.60772306  1
  Pd  Pd54  1  0.27438086  0.40888271  0.10772306  1
  Pd  Pd55  1  0.72561914  0.90888271  0.89227694  1
