# generated using pymatgen
data_CrSO6
_symmetry_space_group_name_H-M   'P 1'
_cell_length_a   7.20076550
_cell_length_b   7.20076550
_cell_length_c   14.08444004
_cell_angle_alpha   85.63720209
_cell_angle_beta   85.63720209
_cell_angle_gamma   60.12244406
_symmetry_Int_Tables_number   1
_chemical_formula_structural   CrSO6
_chemical_formula_sum   'Cr6 S6 O36'
_cell_volume   630.78014471
_cell_formula_units_Z   6
loop_
 _symmetry_equiv_pos_site_id
 _symmetry_equiv_pos_as_xyz
  1  'x, y, z'
loop_
 _atom_site_type_symbol
 _atom_site_label
 _atom_site_symmetry_multiplicity
 _atom_site_fract_x
 _atom_site_fract_y
 _atom_site_fract_z
 _atom_site_occupancy
  Cr  Cr0  1  0.93338996  0.08038624  0.50846939  1
  Cr  Cr1  1  0.08038624  0.93338996  0.00846939  1
  Cr  Cr2  1  0.15194588  0.26496114  0.31786995  1
  Cr  Cr3  1  0.26496114  0.15194588  0.81786995  1
  Cr  Cr4  1  0.39759068  0.77113844  0.20382495  1
  Cr  Cr5  1  0.77113844  0.39759068  0.70382495  1
  S  S6  1  0.65767325  0.58187780  0.40179592  1
  S  S7  1  0.58187780  0.65767325  0.90179592  1
  S  S8  1  0.89695875  0.01115693  0.29141197  1
  S  S9  1  0.01115693  0.89695875  0.79141197  1
  S  S10  1  0.23510695  0.47138876  0.12367465  1
  S  S11  1  0.47138876  0.23510695  0.62367465  1
  O  O12  1  0.67266409  0.39704522  0.46224652  1
  O  O13  1  0.39704522  0.67266409  0.96224652  1
  O  O14  1  0.55376389  0.77589201  0.45491980  1
  O  O15  1  0.77589201  0.55376389  0.95491980  1
  O  O16  1  0.81854391  0.01687027  0.39584549  1
  O  O17  1  0.01687027  0.81854391  0.89584549  1
  O  O18  1  0.87490391  0.53735491  0.36326505  1
  O  O19  1  0.53735491  0.87490391  0.86326505  1
  O  O20  1  0.51911971  0.60235999  0.32183089  1
  O  O21  1  0.60235999  0.51911971  0.82183089  1
  O  O22  1  0.11485646  0.81655274  0.28528326  1
  O  O23  1  0.81655274  0.11485646  0.78528326  1
  O  O24  1  0.91159790  0.20868124  0.26756106  1
  O  O25  1  0.20868124  0.91159790  0.76756106  1
  O  O26  1  0.74962767  0.99724682  0.23237792  1
  O  O27  1  0.99724682  0.74962767  0.73237792  1
  O  O28  1  0.09286862  0.44680935  0.20519636  1
  O  O29  1  0.44680935  0.09286862  0.70519636  1
  O  O30  1  0.39530801  0.51483937  0.16757680  1
  O  O31  1  0.51483937  0.39530801  0.66757680  1
  O  O32  1  0.07846224  0.66630586  0.06898995  1
  O  O33  1  0.66630586  0.07846224  0.56898995  1
  O  O34  1  0.34428653  0.27985195  0.07151249  1
  O  O35  1  0.27985195  0.34428653  0.57151249  1
  O  O36  1  0.09694012  0.13491792  0.43002845  1
  O  O37  1  0.13491792  0.09694012  0.93002845  1
  O  O38  1  0.33327164  0.03422585  0.26557515  1
  O  O39  1  0.03422585  0.33327164  0.76557515  1
  O  O40  1  0.20818345  0.93258779  0.10823775  1
  O  O41  1  0.93258779  0.20818345  0.60823775  1
  O  O42  1  0.29927366  0.33424720  0.36517135  1
  O  O43  1  0.33424720  0.29927366  0.86517135  1
  O  O44  1  0.62040464  0.72017821  0.15264606  1
  O  O45  1  0.72017821  0.62040464  0.65264606  1
  O  O46  1  0.83458706  0.08179500  0.03574884  1
  O  O47  1  0.08179500  0.83458706  0.53574884  1
