# generated using pymatgen
data_Ca5V3ClO12
_symmetry_space_group_name_H-M   'P 1'
_cell_length_a   6.76018773
_cell_length_b   10.32574613
_cell_length_c   10.32608847
_cell_angle_alpha   120.00053621
_cell_angle_beta   90.00000000
_cell_angle_gamma   90.00000000
_symmetry_Int_Tables_number   1
_chemical_formula_structural   Ca5V3ClO12
_chemical_formula_sum   'Ca10 V6 Cl2 O24'
_cell_volume   624.22955366
_cell_formula_units_Z   2
loop_
 _symmetry_equiv_pos_site_id
 _symmetry_equiv_pos_as_xyz
  1  'x, y, z'
loop_
 _atom_site_type_symbol
 _atom_site_label
 _atom_site_symmetry_multiplicity
 _atom_site_fract_x
 _atom_site_fract_y
 _atom_site_fract_z
 _atom_site_occupancy
  Ca  Ca0  1  0.50383438  0.66666097  0.33332983  1
  Ca  Ca1  1  0.00383438  0.33333903  0.66667017  1
  Ca  Ca2  1  0.49616562  0.33333903  0.66667017  1
  Ca  Ca3  1  0.99616562  0.66666097  0.33332983  1
  Ca  Ca4  1  0.75000000  0.23470065  0.96760172  1
  Ca  Ca5  1  0.75000000  0.03240662  0.26711632  1
  Ca  Ca6  1  0.75000000  0.73290236  0.76530202  1
  Ca  Ca7  1  0.25000000  0.76529935  0.03239828  1
  Ca  Ca8  1  0.25000000  0.96759338  0.73288368  1
  Ca  Ca9  1  0.25000000  0.26709764  0.23469798  1
  V  V10  1  0.75000000  0.03011657  0.61835051  1
  V  V11  1  0.75000000  0.38164940  0.41176935  1
  V  V12  1  0.75000000  0.58823905  0.96988172  1
  V  V13  1  0.25000000  0.96988343  0.38164949  1
  V  V14  1  0.25000000  0.61835060  0.58823065  1
  V  V15  1  0.25000000  0.41176095  0.03011828  1
  Cl  Cl16  1  0.50000000  0.00000000  0.00000000  1
  Cl  Cl17  1  -0.00000000  0.00000000  0.00000000  1
  O  O18  1  0.75000000  0.84114395  0.48936909  1
  O  O19  1  0.75000000  0.51064073  0.35177648  1
  O  O20  1  0.75000000  0.64822738  0.15887573  1
  O  O21  1  0.25000000  0.15885605  0.51063091  1
  O  O22  1  0.25000000  0.48935927  0.64822352  1
  O  O23  1  0.25000000  0.35177262  0.84112427  1
  O  O24  1  0.75000000  0.14073767  0.53186937  1
  O  O25  1  0.75000000  0.46814803  0.60888082  1
  O  O26  1  0.75000000  0.39111424  0.85926162  1
  O  O27  1  0.25000000  0.85926233  0.46813063  1
  O  O28  1  0.25000000  0.53185197  0.39111918  1
  O  O29  1  0.25000000  0.60888576  0.14073838  1
  O  O30  1  0.54825635  0.08700039  0.73911963  1
  O  O31  1  0.54826372  0.26089261  0.34790381  1
  O  O32  1  0.54826494  0.65209825  0.91299779  1
  O  O33  1  0.04825635  0.91299961  0.26088037  1
  O  O34  1  0.04826372  0.73910739  0.65209619  1
  O  O35  1  0.04826494  0.34790175  0.08700221  1
  O  O36  1  0.45174365  0.91299961  0.26088037  1
  O  O37  1  0.45173628  0.73910739  0.65209619  1
  O  O38  1  0.45173506  0.34790175  0.08700221  1
  O  O39  1  0.95174365  0.08700039  0.73911963  1
  O  O40  1  0.95173628  0.26089261  0.34790381  1
  O  O41  1  0.95173506  0.65209825  0.91299779  1
