# generated using pymatgen
data_NaGa(SeO3)2
_symmetry_space_group_name_H-M   'P 1'
_cell_length_a   5.40304814
_cell_length_b   7.96404946
_cell_length_c   12.69423911
_cell_angle_alpha   90.00000000
_cell_angle_beta   90.00000000
_cell_angle_gamma   90.00000000
_symmetry_Int_Tables_number   1
_chemical_formula_structural   NaGa(SeO3)2
_chemical_formula_sum   'Na4 Ga4 Se8 O24'
_cell_volume   546.23491938
_cell_formula_units_Z   4
loop_
 _symmetry_equiv_pos_site_id
 _symmetry_equiv_pos_as_xyz
  1  'x, y, z'
loop_
 _atom_site_type_symbol
 _atom_site_label
 _atom_site_symmetry_multiplicity
 _atom_site_fract_x
 _atom_site_fract_y
 _atom_site_fract_z
 _atom_site_occupancy
  Na  Na0  1  0.25000000  0.48938307  0.38531128  1
  Na  Na1  1  0.25000000  0.01061693  0.88531128  1
  Na  Na2  1  0.75000000  0.51061693  0.61468872  1
  Na  Na3  1  0.75000000  0.98938307  0.11468872  1
  Ga  Ga4  1  0.75000000  0.79953742  0.39841887  1
  Ga  Ga5  1  0.75000000  0.70046258  0.89841887  1
  Ga  Ga6  1  0.25000000  0.20046258  0.60158113  1
  Ga  Ga7  1  0.25000000  0.29953742  0.10158113  1
  Se  Se8  1  0.25000000  0.78960920  0.56648360  1
  Se  Se9  1  0.25000000  0.71039080  0.06648360  1
  Se  Se10  1  0.75000000  0.21039080  0.43351640  1
  Se  Se11  1  0.75000000  0.28960920  0.93351640  1
  Se  Se12  1  0.75000000  0.50974688  0.20580540  1
  Se  Se13  1  0.75000000  0.99025312  0.70580540  1
  Se  Se14  1  0.25000000  0.49025312  0.79419460  1
  Se  Se15  1  0.25000000  0.00974688  0.29419460  1
  O  O16  1  0.25000000  0.99199766  0.51990529  1
  O  O17  1  0.25000000  0.50800234  0.01990529  1
  O  O18  1  0.75000000  0.00800234  0.48009471  1
  O  O19  1  0.75000000  0.49199766  0.98009471  1
  O  O20  1  0.00505941  0.70061086  0.49805245  1
  O  O21  1  0.49494059  0.79938914  0.99805245  1
  O  O22  1  0.50505941  0.29938914  0.50194755  1
  O  O23  1  0.99494059  0.20061086  0.00194755  1
  O  O24  1  0.99494059  0.29938914  0.50194755  1
  O  O25  1  0.50505941  0.20061086  0.00194755  1
  O  O26  1  0.49494059  0.70061086  0.49805245  1
  O  O27  1  0.00505941  0.79938914  0.99805245  1
  O  O28  1  0.75000000  0.56621033  0.33812168  1
  O  O29  1  0.75000000  0.93378967  0.83812168  1
  O  O30  1  0.25000000  0.43378967  0.66187832  1
  O  O31  1  0.25000000  0.06621033  0.16187832  1
  O  O32  1  0.99956580  0.37281286  0.21156974  1
  O  O33  1  0.50043420  0.12718714  0.71156974  1
  O  O34  1  0.49956580  0.62718714  0.78843026  1
  O  O35  1  0.00043420  0.87281286  0.28843026  1
  O  O36  1  0.00043420  0.62718714  0.78843026  1
  O  O37  1  0.49956580  0.87281286  0.28843026  1
  O  O38  1  0.50043420  0.37281286  0.21156974  1
  O  O39  1  0.99956580  0.12718714  0.71156974  1
