# generated using pymatgen
data_K2B2Se3O10
_symmetry_space_group_name_H-M   'P 1'
_cell_length_a   4.79700483
_cell_length_b   14.58849692
_cell_length_c   16.11141286
_cell_angle_alpha   90.00000000
_cell_angle_beta   90.00000000
_cell_angle_gamma   90.00000000
_symmetry_Int_Tables_number   1
_chemical_formula_structural   K2B2Se3O10
_chemical_formula_sum   'K8 B8 Se12 O40'
_cell_volume   1127.49423641
_cell_formula_units_Z   4
loop_
 _symmetry_equiv_pos_site_id
 _symmetry_equiv_pos_as_xyz
  1  'x, y, z'
loop_
 _atom_site_type_symbol
 _atom_site_label
 _atom_site_symmetry_multiplicity
 _atom_site_fract_x
 _atom_site_fract_y
 _atom_site_fract_z
 _atom_site_occupancy
  K  K0  1  0.23538711  0.13409169  0.45230020  1
  K  K1  1  0.26461289  0.63409169  0.04769980  1
  K  K2  1  0.76461289  0.86590831  0.95230020  1
  K  K3  1  0.73538711  0.36590831  0.54769980  1
  K  K4  1  0.76461289  0.86590831  0.54769980  1
  K  K5  1  0.73538711  0.36590831  0.95230020  1
  K  K6  1  0.23538711  0.13409169  0.04769980  1
  K  K7  1  0.26461289  0.63409169  0.45230020  1
  B  B8  1  0.73853766  0.99032189  0.33070681  1
  B  B9  1  0.76146234  0.49032189  0.16929319  1
  B  B10  1  0.26146234  0.00967811  0.83070681  1
  B  B11  1  0.23853766  0.50967811  0.66929319  1
  B  B12  1  0.26146234  0.00967811  0.66929319  1
  B  B13  1  0.23853766  0.50967811  0.83070681  1
  B  B14  1  0.73853766  0.99032189  0.16929319  1
  B  B15  1  0.76146234  0.49032189  0.33070681  1
  Se  Se16  1  0.23922656  0.88683352  0.35889733  1
  Se  Se17  1  0.26077344  0.38683352  0.14110267  1
  Se  Se18  1  0.76077344  0.11316648  0.85889733  1
  Se  Se19  1  0.73922656  0.61316648  0.64110267  1
  Se  Se20  1  0.76077344  0.11316648  0.64110267  1
  Se  Se21  1  0.73922656  0.61316648  0.85889733  1
  Se  Se22  1  0.23922656  0.88683352  0.14110267  1
  Se  Se23  1  0.26077344  0.38683352  0.35889733  1
  Se  Se24  1  0.76116906  0.16700065  0.25000000  1
  Se  Se25  1  0.73883094  0.66700065  0.25000000  1
  Se  Se26  1  0.23883094  0.83299935  0.75000000  1
  Se  Se27  1  0.26116906  0.33299935  0.75000000  1
  O  O28  1  0.30104290  0.82518013  0.44427821  1
  O  O29  1  0.19895710  0.32518013  0.05572179  1
  O  O30  1  0.69895710  0.17481987  0.94427821  1
  O  O31  1  0.80104290  0.67481987  0.55572179  1
  O  O32  1  0.69895710  0.17481987  0.55572179  1
  O  O33  1  0.80104290  0.67481987  0.94427821  1
  O  O34  1  0.30104290  0.82518013  0.05572179  1
  O  O35  1  0.19895710  0.32518013  0.44427821  1
  O  O36  1  0.92878203  0.94278990  0.39190373  1
  O  O37  1  0.57121797  0.44278990  0.10809627  1
  O  O38  1  0.07121797  0.05721010  0.89190373  1
  O  O39  1  0.42878203  0.55721010  0.60809627  1
  O  O40  1  0.07121797  0.05721010  0.60809627  1
  O  O41  1  0.42878203  0.55721010  0.89190373  1
  O  O42  1  0.92878203  0.94278990  0.10809627  1
  O  O43  1  0.57121797  0.44278990  0.39190373  1
  O  O44  1  0.45583300  0.98557500  0.37115955  1
  O  O45  1  0.04416700  0.48557500  0.12884045  1
  O  O46  1  0.54416700  0.01442500  0.87115955  1
  O  O47  1  0.95583300  0.51442500  0.62884045  1
  O  O48  1  0.54416700  0.01442500  0.62884045  1
  O  O49  1  0.95583300  0.51442500  0.87115955  1
  O  O50  1  0.45583300  0.98557500  0.12884045  1
  O  O51  1  0.04416700  0.48557500  0.37115955  1
  O  O52  1  0.81505521  0.09020304  0.33514179  1
  O  O53  1  0.68494479  0.59020304  0.16485821  1
  O  O54  1  0.18494479  0.90979696  0.83514179  1
  O  O55  1  0.31505521  0.40979696  0.66485821  1
  O  O56  1  0.18494479  0.90979696  0.66485821  1
  O  O57  1  0.31505521  0.40979696  0.83514179  1
  O  O58  1  0.81505521  0.09020304  0.16485821  1
  O  O59  1  0.68494479  0.59020304  0.33514179  1
  O  O60  1  0.42151820  0.19029057  0.25000000  1
  O  O61  1  0.07848180  0.69029057  0.25000000  1
  O  O62  1  0.57848180  0.80970943  0.75000000  1
  O  O63  1  0.92151820  0.30970943  0.75000000  1
  O  O64  1  0.75572823  0.94933873  0.25000000  1
  O  O65  1  0.74427177  0.44933873  0.25000000  1
  O  O66  1  0.24427177  0.05066127  0.75000000  1
  O  O67  1  0.25572823  0.55066127  0.75000000  1
