# generated using pymatgen
data_PrH12(NO5)3
_symmetry_space_group_name_H-M   'P 1'
_cell_length_a   6.98048748
_cell_length_b   9.49956862
_cell_length_c   12.06483059
_cell_angle_alpha   68.66327554
_cell_angle_beta   89.14056357
_cell_angle_gamma   68.56658503
_symmetry_Int_Tables_number   1
_chemical_formula_structural   PrH12(NO5)3
_chemical_formula_sum   'Pr2 H24 N6 O30'
_cell_volume   687.21692784
_cell_formula_units_Z   2
loop_
 _symmetry_equiv_pos_site_id
 _symmetry_equiv_pos_as_xyz
  1  'x, y, z'
loop_
 _atom_site_type_symbol
 _atom_site_label
 _atom_site_symmetry_multiplicity
 _atom_site_fract_x
 _atom_site_fract_y
 _atom_site_fract_z
 _atom_site_occupancy
  Pr  Pr0  1  0.69314735  0.90192287  0.27619865  1
  Pr  Pr1  1  0.30685265  0.09807713  0.72380135  1
  H  H2  1  0.69602849  0.02652555  0.48681180  1
  H  H3  1  0.30397151  0.97347445  0.51318820  1
  H  H4  1  0.89374465  0.86062660  0.52477107  1
  H  H5  1  0.10625535  0.13937340  0.47522893  1
  H  H6  1  0.88121568  0.15597964  0.27322222  1
  H  H7  1  0.11878432  0.84402036  0.72677778  1
  H  H8  1  0.87290383  0.16560019  0.13771555  1
  H  H9  1  0.12709617  0.83439981  0.86228445  1
  H  H10  1  0.71181714  0.02273870  0.99530171  1
  H  H11  1  0.28818286  0.97726130  0.00469829  1
  H  H12  1  0.91066109  0.85752404  0.05297053  1
  H  H13  1  0.08933891  0.14247596  0.94702947  1
  H  H14  1  0.17591173  0.77155576  0.30081141  1
  H  H15  1  0.82408827  0.22844424  0.69918859  1
  H  H16  1  0.13691978  0.61328996  0.38270992  1
  H  H17  1  0.86308022  0.38671004  0.61729008  1
  H  H18  1  0.22257408  0.68008841  0.61657709  1
  H  H19  1  0.77742592  0.31991159  0.38342291  1
  H  H20  1  0.05532586  0.63917755  0.69573540  1
  H  H21  1  0.94467414  0.36082245  0.30426460  1
  H  H22  1  0.24798803  0.67251735  0.06259206  1
  H  H23  1  0.75201197  0.32748265  0.93740794  1
  H  H24  1  0.07533324  0.62491549  0.02168580  1
  H  H25  1  0.92466676  0.37508451  0.97831420  1
  N  N26  1  0.32465999  0.22332090  0.18549748  1
  N  N27  1  0.67534001  0.77667910  0.81450252  1
  N  N28  1  0.57305931  0.68077375  0.17818119  1
  N  N29  1  0.42694069  0.31922625  0.82181881  1
  N  N30  1  0.56717806  0.67329808  0.49977749  1
  N  N31  1  0.43282194  0.32670192  0.50022251  1
  O  O32  1  0.40301626  0.15030851  0.29652777  1
  O  O33  1  0.59698374  0.84969149  0.70347223  1
  O  O34  1  0.41370027  0.15409224  0.11467579  1
  O  O35  1  0.58629973  0.84590776  0.88532421  1
  O  O36  1  0.16852619  0.35375851  0.14898034  1
  O  O37  1  0.83147381  0.64624149  0.85101966  1
  O  O38  1  0.43752172  0.82081738  0.17213023  1
  O  O39  1  0.56247828  0.17918262  0.82786977  1
  O  O40  1  0.75498929  0.63637045  0.23029801  1
  O  O41  1  0.24501071  0.36362955  0.76970199  1
  O  O42  1  0.52664336  0.59503521  0.13558813  1
  O  O43  1  0.47335664  0.40496479  0.86441187  1
  O  O44  1  0.75394625  0.62097550  0.47823366  1
  O  O45  1  0.24605375  0.37902450  0.52176634  1
  O  O46  1  0.44295492  0.81643157  0.42801986  1
  O  O47  1  0.55704508  0.18356843  0.57198014  1
  O  O48  1  0.50637243  0.58869259  0.58693034  1
  O  O49  1  0.49362757  0.41130741  0.41306966  1
  O  O50  1  0.78150961  0.94355966  0.45734112  1
  O  O51  1  0.21849039  0.05644034  0.54265888  1
  O  O52  1  0.86756068  0.09812393  0.22182902  1
  O  O53  1  0.13243932  0.90187607  0.77817098  1
  O  O54  1  0.79685704  0.94251119  0.07181804  1
  O  O55  1  0.20314296  0.05748881  0.92818196  1
  O  O56  1  0.06878083  0.72843905  0.32820763  1
  O  O57  1  0.93121917  0.27156095  0.67179237  1
  O  O58  1  0.08640187  0.73069432  0.64023081  1
  O  O59  1  0.91359813  0.26930568  0.35976919  1
  O  O60  1  0.11051164  0.71841858  0.01420544  1
  O  O61  1  0.88948836  0.28158142  0.98579456  1
