# generated using pymatgen
data_Mg6BiSb
_symmetry_space_group_name_H-M   'P 1'
_cell_length_a   6.73682866
_cell_length_b   6.73682811
_cell_length_c   5.36624248
_cell_angle_alpha   90.00000000
_cell_angle_beta   90.00000000
_cell_angle_gamma   125.38244817
_symmetry_Int_Tables_number   1
_chemical_formula_structural   Mg6BiSb
_chemical_formula_sum   'Mg6 Bi1 Sb1'
_cell_volume   198.56444233
_cell_formula_units_Z   1
loop_
 _symmetry_equiv_pos_site_id
 _symmetry_equiv_pos_as_xyz
  1  'x, y, z'
loop_
 _atom_site_type_symbol
 _atom_site_label
 _atom_site_symmetry_multiplicity
 _atom_site_fract_x
 _atom_site_fract_y
 _atom_site_fract_z
 _atom_site_occupancy
  Mg  Mg0  1  0.15818241  0.83239469  0.25000000  1
  Mg  Mg1  1  0.66760531  0.34181759  0.25000000  1
  Mg  Mg2  1  0.67601500  0.82398500  0.25000000  1
  Mg  Mg3  1  0.34071606  0.65931936  0.75000000  1
  Mg  Mg4  1  0.84068064  0.15928394  0.75000000  1
  Mg  Mg5  1  0.82511621  0.67488379  0.75000000  1
  Bi  Bi6  1  0.36077058  0.13922942  0.75000000  1
  Sb  Sb7  1  0.13091379  0.36908621  0.25000000  1
