# generated using pymatgen
data_KTmF4
_symmetry_space_group_name_H-M   'P 1'
_cell_length_a   10.15067318
_cell_length_b   14.04507636
_cell_length_c   14.04507637
_cell_angle_alpha   119.99999790
_cell_angle_beta   90.00000000
_cell_angle_gamma   90.00000000
_symmetry_Int_Tables_number   1
_chemical_formula_structural   KTmF4
_chemical_formula_sum   'K18 Tm18 F72'
_cell_volume   1734.09823262
_cell_formula_units_Z   18
loop_
 _symmetry_equiv_pos_site_id
 _symmetry_equiv_pos_as_xyz
  1  'x, y, z'
loop_
 _atom_site_type_symbol
 _atom_site_label
 _atom_site_symmetry_multiplicity
 _atom_site_fract_x
 _atom_site_fract_y
 _atom_site_fract_z
 _atom_site_occupancy
  K  K0  1  0.01379484  0.04516119  0.77982693  1
  K  K1  1  0.68046084  0.22017307  0.26533426  1
  K  K2  1  0.34712784  0.73466574  0.95483881  1
  K  K3  1  0.98550090  0.06192470  0.28083940  1
  K  K4  1  0.65216690  0.71916060  0.78108530  1
  K  K5  1  0.31883390  0.21891470  0.93807530  1
  K  K6  1  0.01081029  0.72992676  0.12317528  1
  K  K7  1  0.67747629  0.87682472  0.60675148  1
  K  K8  1  0.34414329  0.39324852  0.27007324  1
  K  K9  1  0.98311793  0.71142429  0.60766631  1
  K  K10  1  0.64978393  0.39233369  0.10375798  1
  K  K11  1  0.31645093  0.89624202  0.28857571  1
  K  K12  1  0.98186855  0.38868571  0.93479768  1
  K  K13  1  0.64853455  0.06520232  0.45388803  1
  K  K14  1  0.31520155  0.54611197  0.61131429  1
  K  K15  1  0.01034019  0.38572229  0.44074616  1
  K  K16  1  0.67700619  0.55925384  0.94497613  1
  K  K17  1  0.34367319  0.05502387  0.61427771  1
  Tm  Tm18  1  0.99687153  0.24023949  0.11183102  1
  Tm  Tm19  1  0.66353753  0.88816898  0.12840848  1
  Tm  Tm20  1  0.33020453  0.87159152  0.75976051  1
  Tm  Tm21  1  0.98659956  0.55055404  0.26973862  1
  Tm  Tm22  1  0.65326556  0.73026138  0.28081542  1
  Tm  Tm23  1  0.31993256  0.71918458  0.44944596  1
  Tm  Tm24  1  0.00309546  0.57268850  0.79349669  1
  Tm  Tm25  1  0.66976146  0.20650331  0.77919181  1
  Tm  Tm26  1  0.33642846  0.22080819  0.42731150  1
  Tm  Tm27  1  0.99332211  0.88305951  0.94271249  1
  Tm  Tm28  1  0.65998811  0.05728751  0.94034702  1
  Tm  Tm29  1  0.32665511  0.05965298  0.11694049  1
  Tm  Tm30  1  0.99077360  0.90697595  0.45360144  1
  Tm  Tm31  1  0.65743960  0.54639856  0.45337451  1
  Tm  Tm32  1  0.32410660  0.54662549  0.09302405  1
  Tm  Tm33  1  0.00730981  0.21722843  0.61271407  1
  Tm  Tm34  1  0.67397581  0.38728593  0.60451436  1
  Tm  Tm35  1  0.34064281  0.39548564  0.78277157  1
  F  F36  1  0.78312704  0.19232926  0.05950084  1
  F  F37  1  0.44979304  0.94049916  0.13282842  1
  F  F38  1  0.11646004  0.86717158  0.80767074  1
  F  F39  1  0.20644450  0.19061038  0.12164121  1
  F  F40  1  0.87311050  0.87835879  0.06896917  1
  F  F41  1  0.53977750  0.93103083  0.80938962  1
  F  F42  1  0.13769580  0.61485708  0.40317063  1
  F  F43  1  0.80436180  0.59682937  0.21168646  1
  F  F44  1  0.47102880  0.78831354  0.38514292  1
  F  F45  1  0.32174039  0.61041785  0.27162123  1
  F  F46  1  0.98840639  0.72837877  0.33879662  1
  F  F47  1  0.65507339  0.66120338  0.38958215  1
  F  F48  1  0.21761066  0.53003785  0.79586302  1
  F  F49  1  0.88427666  0.20413698  0.73417483  1
  F  F50  1  0.55094366  0.26582517  0.46996215  1
  F  F51  1  0.79540538  0.51847624  0.72815517  1
  F  F52  1  0.46207138  0.27184483  0.79032107  1
  F  F53  1  0.12873838  0.20967893  0.48152376  1
  F  F54  1  0.33003227  0.94919085  0.93961716  1
  F  F55  1  0.99669827  0.06038284  0.00957369  1
  F  F56  1  0.66336527  0.99042631  0.05080915  1
  F  F57  1  0.15006779  0.94886999  0.07174053  1
  F  F58  1  0.81673379  0.92825947  0.87712946  1
  F  F59  1  0.48340079  0.12287054  0.05113001  1
  F  F60  1  0.19973533  0.85260918  0.46049689  1
  F  F61  1  0.86640133  0.53950311  0.39211230  1
  F  F62  1  0.53306833  0.60788770  0.14739082  1
  F  F63  1  0.77640376  0.86374857  0.40390488  1
  F  F64  1  0.44306976  0.59609512  0.45984369  1
  F  F65  1  0.10973676  0.54015631  0.13625143  1
  F  F66  1  0.19238170  0.25986096  0.71305016  1
  F  F67  1  0.85904770  0.28694984  0.54681080  1
  F  F68  1  0.52571470  0.45318920  0.74013904  1
  F  F69  1  0.33721562  0.33566440  0.60618799  1
  F  F70  1  0.00388162  0.39381201  0.72947641  1
  F  F71  1  0.67054862  0.27052359  0.66433560  1
  F  F72  1  0.72907034  0.03622470  0.26709338  1
  F  F73  1  0.39573634  0.73290662  0.76913132  1
  F  F74  1  0.06240334  0.23086868  0.96377530  1
  F  F75  1  0.23890127  0.08774635  0.27582566  1
  F  F76  1  0.90556727  0.72417434  0.81192069  1
  F  F77  1  0.57223427  0.18807931  0.91225365  1
  F  F78  1  0.27095702  0.02357374  0.77461081  1
  F  F79  1  0.93762302  0.22538919  0.24896293  1
  F  F80  1  0.60429002  0.75103707  0.97642626  1
  F  F81  1  0.09320624  0.73182991  0.92476184  1
  F  F82  1  0.75987224  0.07523816  0.80706807  1
  F  F83  1  0.42653924  0.19293193  0.26817009  1
  F  F84  1  0.23392764  0.74105968  0.60677889  1
  F  F85  1  0.90059364  0.39322111  0.13428078  1
  F  F86  1  0.56726064  0.86571922  0.25894032  1
  F  F87  1  0.72709942  0.68895984  0.59565152  1
  F  F88  1  0.39376542  0.40434848  0.09330832  1
  F  F89  1  0.06043242  0.90669168  0.31104016  1
  F  F90  1  0.08808661  0.39761408  0.24572250  1
  F  F91  1  0.75475261  0.75427750  0.15189158  1
  F  F92  1  0.42141961  0.84810842  0.60238592  1
  F  F93  1  0.26898265  0.70295594  0.11644937  1
  F  F94  1  0.93564865  0.88355063  0.58650657  1
  F  F95  1  0.60231565  0.41349343  0.29704406  1
  F  F96  1  0.26510268  0.36322978  0.42768762  1
  F  F97  1  0.93176868  0.57231238  0.93554216  1
  F  F98  1  0.59843568  0.06445784  0.63677022  1
  F  F99  1  0.08901043  0.05757900  0.58809619  1
  F  F100  1  0.75567643  0.41190381  0.46948281  1
  F  F101  1  0.42234343  0.53051719  0.94242100  1
  F  F102  1  0.23455789  0.41685823  0.93290969  1
  F  F103  1  0.90122389  0.06709031  0.48394854  1
  F  F104  1  0.56789089  0.51605146  0.58314177  1
  F  F105  1  0.72278478  0.36312694  0.91236480  1
  F  F106  1  0.38945078  0.08763520  0.45076214  1
  F  F107  1  0.05611778  0.54923786  0.63687306  1
