# generated using pymatgen
data_Eu5B3ClO9
_symmetry_space_group_name_H-M   'P 1'
_cell_length_a   7.44533344
_cell_length_b   8.75354808
_cell_length_c   8.75354808
_cell_angle_alpha   109.78463906
_cell_angle_beta   90.00000000
_cell_angle_gamma   90.00000000
_symmetry_Int_Tables_number   1
_chemical_formula_structural   Eu5B3ClO9
_chemical_formula_sum   'Eu10 B6 Cl2 O18'
_cell_volume   536.82024850
_cell_formula_units_Z   2
loop_
 _symmetry_equiv_pos_site_id
 _symmetry_equiv_pos_as_xyz
  1  'x, y, z'
loop_
 _atom_site_type_symbol
 _atom_site_label
 _atom_site_symmetry_multiplicity
 _atom_site_fract_x
 _atom_site_fract_y
 _atom_site_fract_z
 _atom_site_occupancy
  Eu  Eu0  1  0.50000000  0.76141371  0.76141371  1
  Eu  Eu1  1  -0.00000000  0.23858629  0.23858629  1
  Eu  Eu2  1  0.43872430  0.26026093  0.00504158  1
  Eu  Eu3  1  0.56127570  0.00504158  0.26026093  1
  Eu  Eu4  1  0.93872430  0.73973907  0.99495842  1
  Eu  Eu5  1  0.06127570  0.99495842  0.73973907  1
  Eu  Eu6  1  0.25000000  0.63540358  0.36459642  1
  Eu  Eu7  1  0.75000000  0.36459642  0.63540358  1
  Eu  Eu8  1  0.25000000  0.36206909  0.63793091  1
  Eu  Eu9  1  0.75000000  0.63793091  0.36206909  1
  B  B10  1  0.46876125  0.01416509  0.58967557  1
  B  B11  1  0.53123875  0.58967557  0.01416509  1
  B  B12  1  0.96876125  0.98583491  0.41032443  1
  B  B13  1  0.03123875  0.41032443  0.98583491  1
  B  B14  1  0.50000000  0.36954113  0.36954113  1
  B  B15  1  -0.00000000  0.63045887  0.63045887  1
  Cl  Cl16  1  0.25000000  0.94811906  0.05188094  1
  Cl  Cl17  1  0.75000000  0.05188094  0.94811906  1
  O  O18  1  0.50000000  0.50887065  0.50887065  1
  O  O19  1  -0.00000000  0.49112935  0.49112935  1
  O  O20  1  0.50762194  0.86009318  0.47771716  1
  O  O21  1  0.49237806  0.47771716  0.86009318  1
  O  O22  1  0.00762194  0.13990682  0.52228284  1
  O  O23  1  0.99237806  0.52228284  0.13990682  1
  O  O24  1  0.48734248  0.55363394  0.15203846  1
  O  O25  1  0.51265752  0.15203846  0.55363394  1
  O  O26  1  0.98734248  0.44636606  0.84796154  1
  O  O27  1  0.01265752  0.84796154  0.44636606  1
  O  O28  1  0.83716060  0.69645284  0.69680954  1
  O  O29  1  0.16283940  0.69680954  0.69645284  1
  O  O30  1  0.33716060  0.30354716  0.30319046  1
  O  O31  1  0.66283940  0.30319046  0.30354716  1
  O  O32  1  0.38286634  0.02802605  0.73377182  1
  O  O33  1  0.61713366  0.73377182  0.02802605  1
  O  O34  1  0.88286634  0.97197395  0.26622818  1
  O  O35  1  0.11713366  0.26622818  0.97197395  1
