# generated using pymatgen
data_Np2Re3Si5
_symmetry_space_group_name_H-M   'P 1'
_cell_length_a   5.49446360
_cell_length_b   11.00387734
_cell_length_c   11.00387734
_cell_angle_alpha   90.00000000
_cell_angle_beta   90.00000000
_cell_angle_gamma   90.00000000
_symmetry_Int_Tables_number   1
_chemical_formula_structural   Np2Re3Si5
_chemical_formula_sum   'Np8 Re12 Si20'
_cell_volume   665.29886408
_cell_formula_units_Z   4
loop_
 _symmetry_equiv_pos_site_id
 _symmetry_equiv_pos_as_xyz
  1  'x, y, z'
loop_
 _atom_site_type_symbol
 _atom_site_label
 _atom_site_symmetry_multiplicity
 _atom_site_fract_x
 _atom_site_fract_y
 _atom_site_fract_z
 _atom_site_occupancy
  Np  Np0  1  0.50000000  0.73553102  0.57454136  1
  Np  Np1  1  0.50000000  0.26446898  0.42545864  1
  Np  Np2  1  -0.00000000  0.76446898  0.07454136  1
  Np  Np3  1  0.00000000  0.23553102  0.92545864  1
  Np  Np4  1  0.50000000  0.57454136  0.26446898  1
  Np  Np5  1  0.50000000  0.42545864  0.73553102  1
  Np  Np6  1  0.00000000  0.07454136  0.23553102  1
  Np  Np7  1  -0.00000000  0.92545864  0.76446898  1
  Re  Re8  1  0.50000000  0.85815037  0.87729034  1
  Re  Re9  1  0.50000000  0.14184963  0.12270966  1
  Re  Re10  1  0.00000000  0.64184963  0.37729034  1
  Re  Re11  1  -0.00000000  0.35815037  0.62270966  1
  Re  Re12  1  0.50000000  0.87729034  0.14184963  1
  Re  Re13  1  0.50000000  0.12270966  0.85815037  1
  Re  Re14  1  -0.00000000  0.37729034  0.35815037  1
  Re  Re15  1  0.00000000  0.62270966  0.64184963  1
  Re  Re16  1  0.25000000  0.00000000  0.50000000  1
  Re  Re17  1  0.75000000  0.50000000  -0.00000000  1
  Re  Re18  1  0.25000000  0.50000000  -0.00000000  1
  Re  Re19  1  0.75000000  0.00000000  0.50000000  1
  Si  Si20  1  0.25000000  0.17461529  0.67461529  1
  Si  Si21  1  0.25000000  0.82538471  0.32538471  1
  Si  Si22  1  0.75000000  0.32538471  0.17461529  1
  Si  Si23  1  0.75000000  0.67461529  0.82538471  1
  Si  Si24  1  0.25000000  0.67461529  0.82538471  1
  Si  Si25  1  0.25000000  0.32538471  0.17461529  1
  Si  Si26  1  0.75000000  0.17461529  0.67461529  1
  Si  Si27  1  0.75000000  0.82538471  0.32538471  1
  Si  Si28  1  0.26996323  0.50000000  0.50000000  1
  Si  Si29  1  0.76996323  0.00000000  -0.00000000  1
  Si  Si30  1  0.73003677  0.50000000  0.50000000  1
  Si  Si31  1  0.23003677  0.00000000  -0.00000000  1
  Si  Si32  1  0.50000000  0.97342048  0.68543279  1
  Si  Si33  1  0.50000000  0.02657952  0.31456721  1
  Si  Si34  1  0.00000000  0.52657952  0.18543279  1
  Si  Si35  1  -0.00000000  0.47342048  0.81456721  1
  Si  Si36  1  0.50000000  0.68543279  0.02657952  1
  Si  Si37  1  0.50000000  0.31456721  0.97342048  1
  Si  Si38  1  0.00000000  0.18543279  0.47342048  1
  Si  Si39  1  -0.00000000  0.81456721  0.52657952  1
