# generated using pymatgen
data_Cs2U3P6(HO5)4
_symmetry_space_group_name_H-M   'P 1'
_cell_length_a   5.69079965
_cell_length_b   7.74951597
_cell_length_c   13.24899337
_cell_angle_alpha   98.89084379
_cell_angle_beta   102.40165333
_cell_angle_gamma   90.00000000
_symmetry_Int_Tables_number   1
_chemical_formula_structural   Cs2U3P6(HO5)4
_chemical_formula_sum   'Cs2 U3 P6 H4 O20'
_cell_volume   563.46887715
_cell_formula_units_Z   1
loop_
 _symmetry_equiv_pos_site_id
 _symmetry_equiv_pos_as_xyz
  1  'x, y, z'
loop_
 _atom_site_type_symbol
 _atom_site_label
 _atom_site_symmetry_multiplicity
 _atom_site_fract_x
 _atom_site_fract_y
 _atom_site_fract_z
 _atom_site_occupancy
  Cs  Cs0  1  0.33121116  0.42121439  0.66242232  1
  Cs  Cs1  1  0.66878884  0.57878561  0.33757768  1
  U  U2  1  0.50000000  0.50000000  -0.00000000  1
  U  U3  1  0.17939528  0.07779833  0.35879055  1
  U  U4  1  0.82060472  0.92220167  0.64120945  1
  P  P5  1  0.25598939  0.81198645  0.51197878  1
  P  P6  1  0.74401061  0.18801355  0.48802122  1
  P  P7  1  0.58491570  0.94343702  0.16983140  1
  P  P8  1  0.41508430  0.05656298  0.83016860  1
  P  P9  1  0.06728635  0.31667886  0.13457271  1
  P  P10  1  0.93271365  0.68332114  0.86542729  1
  H  H11  1  0.55084027  0.06802534  0.10168054  1
  H  H12  1  0.44915973  0.93197466  0.89831946  1
  H  H13  1  0.03587101  0.15075491  0.07174202  1
  H  H14  1  0.96412899  0.84924509  0.92825798  1
  O  O15  1  0.54863133  0.76323960  0.09726266  1
  O  O16  1  0.45136867  0.23676040  0.90273734  1
  O  O17  1  0.17129293  0.58854096  0.89455432  1
  O  O18  1  0.72326139  0.58854096  0.89455432  1
  O  O19  1  0.82870707  0.41145904  0.10544568  1
  O  O20  1  0.27673861  0.41145904  0.10544568  1
  O  O21  1  0.27046758  0.01478164  0.54093516  1
  O  O22  1  0.72953242  0.98521836  0.45906484  1
  O  O23  1  0.84297074  0.96853573  0.23506854  1
  O  O24  1  0.39209780  0.96853573  0.23506854  1
  O  O25  1  0.15702926  0.03146427  0.76493146  1
  O  O26  1  0.60790220  0.03146427  0.76493146  1
  O  O27  1  0.94237070  0.26545124  0.44088013  1
  O  O28  1  0.49850943  0.26545124  0.44088013  1
  O  O29  1  0.05762930  0.73454876  0.55911987  1
  O  O30  1  0.50149057  0.73454876  0.55911987  1
  O  O31  1  0.19541349  0.77577669  0.39082697  1
  O  O32  1  0.80458651  0.22422331  0.60917303  1
  O  O33  1  0.12472578  0.29328996  0.24945155  1
  O  O34  1  0.87527422  0.70671004  0.75054845  1
