# generated using pymatgen
data_ZnTeH12Se3N4
_symmetry_space_group_name_H-M   'P 1'
_cell_length_a   6.79833197
_cell_length_b   13.38133848
_cell_length_c   13.61808965
_cell_angle_alpha   90.00000000
_cell_angle_beta   90.00000000
_cell_angle_gamma   90.00000000
_symmetry_Int_Tables_number   1
_chemical_formula_structural   ZnTeH12Se3N4
_chemical_formula_sum   'Zn4 Te4 H48 Se12 N16'
_cell_volume   1238.84825378
_cell_formula_units_Z   4
loop_
 _symmetry_equiv_pos_site_id
 _symmetry_equiv_pos_as_xyz
  1  'x, y, z'
loop_
 _atom_site_type_symbol
 _atom_site_label
 _atom_site_symmetry_multiplicity
 _atom_site_fract_x
 _atom_site_fract_y
 _atom_site_fract_z
 _atom_site_occupancy
  Zn  Zn0  1  0.97274209  0.43648767  0.77490524  1
  Zn  Zn1  1  0.02725791  0.93648767  0.22509476  1
  Zn  Zn2  1  0.97274209  0.93648767  0.72509476  1
  Zn  Zn3  1  0.02725791  0.43648767  0.27490524  1
  Te  Te4  1  0.38893409  0.23529102  0.55424193  1
  Te  Te5  1  0.61106591  0.73529102  0.44575807  1
  Te  Te6  1  0.38893409  0.73529102  0.94575807  1
  Te  Te7  1  0.61106591  0.23529102  0.05424193  1
  H  H8  1  0.71383320  0.28752144  0.74987180  1
  H  H9  1  0.28616680  0.78752144  0.25012820  1
  H  H10  1  0.71383320  0.78752144  0.75012820  1
  H  H11  1  0.28616680  0.28752144  0.24987180  1
  H  H12  1  0.92078108  0.26730189  0.69016774  1
  H  H13  1  0.07921892  0.76730189  0.30983226  1
  H  H14  1  0.92078108  0.76730189  0.80983226  1
  H  H15  1  0.07921892  0.26730189  0.19016774  1
  H  H16  1  0.91001652  0.25297049  0.81235642  1
  H  H17  1  0.08998348  0.75297049  0.18764358  1
  H  H18  1  0.91001652  0.75297049  0.68764358  1
  H  H19  1  0.08998348  0.25297049  0.31235642  1
  H  H20  1  0.00173267  0.56898225  0.62744077  1
  H  H21  1  0.99826733  0.06898225  0.37255923  1
  H  H22  1  0.00173267  0.06898225  0.87255923  1
  H  H23  1  0.99826733  0.56898225  0.12744077  1
  H  H24  1  0.11362135  0.46274811  0.60257995  1
  H  H25  1  0.88637865  0.96274811  0.39742005  1
  H  H26  1  0.11362135  0.96274811  0.89742005  1
  H  H27  1  0.88637865  0.46274811  0.10257995  1
  H  H28  1  0.86835060  0.47067081  0.59710767  1
  H  H29  1  0.13164940  0.97067081  0.40289233  1
  H  H30  1  0.86835060  0.97067081  0.90289233  1
  H  H31  1  0.13164940  0.47067081  0.09710767  1
  H  H32  1  0.27039678  0.41591047  0.90124699  1
  H  H33  1  0.72960322  0.91591047  0.09875301  1
  H  H34  1  0.27039678  0.91591047  0.59875301  1
  H  H35  1  0.72960322  0.41591047  0.40124699  1
  H  H36  1  0.30884917  0.35048669  0.80015865  1
  H  H37  1  0.69115083  0.85048669  0.19984135  1
  H  H38  1  0.30884917  0.85048669  0.69984135  1
  H  H39  1  0.69115083  0.35048669  0.30015865  1
  H  H40  1  0.33735569  0.47446186  0.79998545  1
  H  H41  1  0.66264431  0.97446186  0.20001455  1
  H  H42  1  0.33735569  0.97446186  0.70001455  1
  H  H43  1  0.66264431  0.47446186  0.29998545  1
  H  H44  1  0.74362349  0.48284137  0.92022910  1
  H  H45  1  0.25637651  0.98284137  0.07977090  1
  H  H46  1  0.74362349  0.98284137  0.57977090  1
  H  H47  1  0.25637651  0.48284137  0.42022910  1
  H  H48  1  0.89246704  0.57843397  0.89740514  1
  H  H49  1  0.10753296  0.07843397  0.10259486  1
  H  H50  1  0.89246704  0.07843397  0.60259486  1
  H  H51  1  0.10753296  0.57843397  0.39740514  1
  H  H52  1  0.69669006  0.55954832  0.82798925  1
  H  H53  1  0.30330994  0.05954832  0.17201075  1
  H  H54  1  0.69669006  0.05954832  0.67201075  1
  H  H55  1  0.30330994  0.55954832  0.32798925  1
  Se  Se56  1  0.46706142  0.42002851  0.56413180  1
  Se  Se57  1  0.53293858  0.92002851  0.43586820  1
  Se  Se58  1  0.46706142  0.92002851  0.93586820  1
  Se  Se59  1  0.53293858  0.42002851  0.06413180  1
  Se  Se60  1  0.40081202  0.17422799  0.73018458  1
  Se  Se61  1  0.59918798  0.67422799  0.26981542  1
  Se  Se62  1  0.40081202  0.67422799  0.76981542  1
  Se  Se63  1  0.59918798  0.17422799  0.23018458  1
  Se  Se64  1  0.02808120  0.22995600  0.50939210  1
  Se  Se65  1  0.97191880  0.72995600  0.49060790  1
  Se  Se66  1  0.02808120  0.72995600  0.99060790  1
  Se  Se67  1  0.97191880  0.22995600  0.00939210  1
  N  N68  1  0.86410800  0.29646020  0.75458259  1
  N  N69  1  0.13589200  0.79646020  0.24541741  1
  N  N70  1  0.86410800  0.79646020  0.74541741  1
  N  N71  1  0.13589200  0.29646020  0.25458259  1
  N  N72  1  0.98990904  0.49311815  0.63591155  1
  N  N73  1  0.01009096  0.99311815  0.36408845  1
  N  N74  1  0.98990904  0.99311815  0.86408845  1
  N  N75  1  0.01009096  0.49311815  0.13591155  1
  N  N76  1  0.25189649  0.41702718  0.82639478  1
  N  N77  1  0.74810351  0.91702718  0.17360522  1
  N  N78  1  0.25189649  0.91702718  0.67360522  1
  N  N79  1  0.74810351  0.41702718  0.32639478  1
  N  N80  1  0.80927751  0.52308561  0.86414829  1
  N  N81  1  0.19072249  0.02308561  0.13585171  1
  N  N82  1  0.80927751  0.02308561  0.63585171  1
  N  N83  1  0.19072249  0.52308561  0.36414829  1
