# generated using pymatgen
data_Gd4C2Cl3
_symmetry_space_group_name_H-M   'P 1'
_cell_length_a   3.70697558
_cell_length_b   10.69447744
_cell_length_c   19.94707239
_cell_angle_alpha   90.00000000
_cell_angle_beta   90.00000000
_cell_angle_gamma   90.00000000
_symmetry_Int_Tables_number   1
_chemical_formula_structural   Gd4C2Cl3
_chemical_formula_sum   'Gd16 C8 Cl12'
_cell_volume   790.78506322
_cell_formula_units_Z   4
loop_
 _symmetry_equiv_pos_site_id
 _symmetry_equiv_pos_as_xyz
  1  'x, y, z'
loop_
 _atom_site_type_symbol
 _atom_site_label
 _atom_site_symmetry_multiplicity
 _atom_site_fract_x
 _atom_site_fract_y
 _atom_site_fract_z
 _atom_site_occupancy
  Gd  Gd0  1  0.75000000  0.36068420  0.92765824  1
  Gd  Gd1  1  0.75000000  0.86068420  0.57234176  1
  Gd  Gd2  1  0.25000000  0.63931580  0.07234176  1
  Gd  Gd3  1  0.25000000  0.13931580  0.42765824  1
  Gd  Gd4  1  0.75000000  0.86202873  0.74361151  1
  Gd  Gd5  1  0.75000000  0.36202873  0.75638849  1
  Gd  Gd6  1  0.25000000  0.13797127  0.25638849  1
  Gd  Gd7  1  0.25000000  0.63797127  0.24361151  1
  Gd  Gd8  1  0.75000000  0.39972617  0.16844976  1
  Gd  Gd9  1  0.75000000  0.89972617  0.33155024  1
  Gd  Gd10  1  0.25000000  0.60027383  0.83155024  1
  Gd  Gd11  1  0.25000000  0.10027383  0.66844976  1
  Gd  Gd12  1  0.75000000  0.37623050  0.33666274  1
  Gd  Gd13  1  0.75000000  0.87623050  0.16333726  1
  Gd  Gd14  1  0.25000000  0.62376950  0.66333726  1
  Gd  Gd15  1  0.25000000  0.12376950  0.83666274  1
  C  C16  1  0.75000000  0.63642141  0.15128390  1
  C  C17  1  0.75000000  0.13642141  0.34871610  1
  C  C18  1  0.25000000  0.36357859  0.84871610  1
  C  C19  1  0.25000000  0.86357859  0.65128390  1
  C  C20  1  0.75000000  0.11129964  0.75080791  1
  C  C21  1  0.75000000  0.61129964  0.74919209  1
  C  C22  1  0.25000000  0.88870036  0.24919209  1
  C  C23  1  0.25000000  0.38870036  0.25080791  1
  Cl  Cl24  1  0.75000000  0.12003785  0.54828333  1
  Cl  Cl25  1  0.75000000  0.62003785  0.95171667  1
  Cl  Cl26  1  0.25000000  0.87996215  0.45171667  1
  Cl  Cl27  1  0.25000000  0.37996215  0.04828333  1
  Cl  Cl28  1  0.75000000  0.61240682  0.55337455  1
  Cl  Cl29  1  0.75000000  0.11240682  0.94662545  1
  Cl  Cl30  1  0.25000000  0.38759318  0.44662545  1
  Cl  Cl31  1  0.25000000  0.88759318  0.05337455  1
  Cl  Cl32  1  0.75000000  0.13994716  0.14477294  1
  Cl  Cl33  1  0.75000000  0.63994716  0.35522706  1
  Cl  Cl34  1  0.25000000  0.86005284  0.85522706  1
  Cl  Cl35  1  0.25000000  0.36005284  0.64477294  1
