# generated using pymatgen
data_NaMg6Bi
_symmetry_space_group_name_H-M   'P 1'
_cell_length_a   6.60647153
_cell_length_b   6.60647095
_cell_length_c   5.20999619
_cell_angle_alpha   90.00000000
_cell_angle_beta   90.00000000
_cell_angle_gamma   119.62853163
_symmetry_Int_Tables_number   1
_chemical_formula_structural   NaMg6Bi
_chemical_formula_sum   'Na1 Mg6 Bi1'
_cell_volume   197.66083684
_cell_formula_units_Z   1
loop_
 _symmetry_equiv_pos_site_id
 _symmetry_equiv_pos_as_xyz
  1  'x, y, z'
loop_
 _atom_site_type_symbol
 _atom_site_label
 _atom_site_symmetry_multiplicity
 _atom_site_fract_x
 _atom_site_fract_y
 _atom_site_fract_z
 _atom_site_occupancy
  Na  Na0  1  0.16505429  0.33494571  0.25000000  1
  Mg  Mg1  1  0.16379053  0.82333298  0.25000000  1
  Mg  Mg2  1  0.67666702  0.33620947  0.25000000  1
  Mg  Mg3  1  0.66436102  0.83563898  0.25000000  1
  Mg  Mg4  1  0.33710518  0.67252490  0.75000000  1
  Mg  Mg5  1  0.82747510  0.16289482  0.75000000  1
  Mg  Mg6  1  0.83259710  0.66740290  0.75000000  1
  Bi  Bi7  1  0.33294976  0.16705024  0.75000000  1
