# generated using pymatgen
data_Cs6Dy21Te34Cl
_symmetry_space_group_name_H-M   'P 1'
_cell_length_a   14.51289597
_cell_length_b   14.51289597
_cell_length_c   14.50279253
_cell_angle_alpha   114.20044171
_cell_angle_beta   114.20044171
_cell_angle_gamma   97.75966734
_symmetry_Int_Tables_number   1
_chemical_formula_structural   Cs6Dy21Te34Cl
_chemical_formula_sum   'Cs6 Dy21 Te34 Cl1'
_cell_volume   2366.71830286
_cell_formula_units_Z   1
loop_
 _symmetry_equiv_pos_site_id
 _symmetry_equiv_pos_as_xyz
  1  'x, y, z'
loop_
 _atom_site_type_symbol
 _atom_site_label
 _atom_site_symmetry_multiplicity
 _atom_site_fract_x
 _atom_site_fract_y
 _atom_site_fract_z
 _atom_site_occupancy
  Cs  Cs0  1  0.04226998  0.80513830  0.27666216  1
  Cs  Cs1  1  0.80513830  0.04226998  0.27666216  1
  Cs  Cs2  1  0.95773002  0.19486170  0.72333784  1
  Cs  Cs3  1  0.19486170  0.95773002  0.72333784  1
  Cs  Cs4  1  0.77981371  0.77981371  0.42522294  1
  Cs  Cs5  1  0.22018629  0.22018629  0.57477706  1
  Dy  Dy6  1  0.69959690  0.30040310  0.00000000  1
  Dy  Dy7  1  0.30040310  0.69959690  0.00000000  1
  Dy  Dy8  1  0.04622644  0.45798805  0.24932565  1
  Dy  Dy9  1  0.45798805  0.04622644  0.24932565  1
  Dy  Dy10  1  0.95377356  0.54201195  0.75067435  1
  Dy  Dy11  1  0.54201195  0.95377356  0.75067435  1
  Dy  Dy12  1  0.83002248  0.42763033  0.37742578  1
  Dy  Dy13  1  0.42763033  0.83002248  0.37742578  1
  Dy  Dy14  1  0.16997752  0.57236967  0.62257422  1
  Dy  Dy15  1  0.57236967  0.16997752  0.62257422  1
  Dy  Dy16  1  0.90173983  0.09826017  -0.00000000  1
  Dy  Dy17  1  0.09826017  0.90173983  0.00000000  1
  Dy  Dy18  1  0.26625222  0.47043573  0.11074357  1
  Dy  Dy19  1  0.47043573  0.26625222  0.11074357  1
  Dy  Dy20  1  0.73374778  0.52956427  0.88925643  1
  Dy  Dy21  1  0.52956427  0.73374778  0.88925643  1
  Dy  Dy22  1  0.39903191  0.60096809  0.50000000  1
  Dy  Dy23  1  0.60096809  0.39903191  0.50000000  1
  Dy  Dy24  1  0.50000000  0.50000000  0.00000000  1
  Dy  Dy25  1  0.24469590  0.24469590  0.25237392  1
  Dy  Dy26  1  0.75530410  0.75530410  0.74762608  1
  Te  Te27  1  0.68772081  0.68772081  0.06636082  1
  Te  Te28  1  0.31227919  0.31227919  0.93363918  1
  Te  Te29  1  0.05900618  0.05900618  0.18695648  1
  Te  Te30  1  0.94099382  0.94099382  0.81304352  1
  Te  Te31  1  0.08804064  0.28851227  0.06740753  1
  Te  Te32  1  0.28851227  0.08804064  0.06740753  1
  Te  Te33  1  0.91195936  0.71148773  0.93259247  1
  Te  Te34  1  0.71148773  0.91195936  0.93259247  1
  Te  Te35  1  0.88616132  0.48591077  0.06266815  1
  Te  Te36  1  0.48591077  0.88616132  0.06266815  1
  Te  Te37  1  0.11383868  0.51408923  0.93733185  1
  Te  Te38  1  0.51408923  0.11383868  0.93733185  1
  Te  Te39  1  0.86572144  0.26564997  0.18793159  1
  Te  Te40  1  0.26564997  0.86572144  0.18793159  1
  Te  Te41  1  0.13427856  0.73435003  0.81206841  1
  Te  Te42  1  0.73435003  0.13427856  0.81206841  1
  Te  Te43  1  0.24143183  0.63706773  0.31080197  1
  Te  Te44  1  0.63706773  0.24143183  0.31080197  1
  Te  Te45  1  0.75856817  0.36293227  0.68919803  1
  Te  Te46  1  0.36293227  0.75856817  0.68919803  1
  Te  Te47  1  0.01304970  0.61623007  0.44138129  1
  Te  Te48  1  0.61623007  0.01304970  0.44138129  1
  Te  Te49  1  0.98695030  0.38376993  0.55861871  1
  Te  Te50  1  0.38376993  0.98695030  0.55861871  1
  Te  Te51  1  0.21209446  0.41589529  0.43749977  1
  Te  Te52  1  0.41589529  0.21209446  0.43749977  1
  Te  Te53  1  0.78790554  0.58410471  0.56250023  1
  Te  Te54  1  0.58410471  0.78790554  0.56250023  1
  Te  Te55  1  0.65814313  0.45940096  0.18741592  1
  Te  Te56  1  0.45940096  0.65814313  0.18741592  1
  Te  Te57  1  0.34185687  0.54059904  0.81258408  1
  Te  Te58  1  0.54059904  0.34185687  0.81258408  1
  Te  Te59  1  0.43167197  0.43167197  0.30909330  1
  Te  Te60  1  0.56832803  0.56832803  0.69090670  1
  Cl  Cl61  1  0.00000000  0.00000000  0.50000000  1
