# generated using pymatgen
data_Zr3Ge
_symmetry_space_group_name_H-M   'P 1'
_cell_length_a   5.48548462
_cell_length_b   11.13761017
_cell_length_c   11.13761017
_cell_angle_alpha   90.00000000
_cell_angle_beta   90.00000000
_cell_angle_gamma   90.00000000
_symmetry_Int_Tables_number   1
_chemical_formula_structural   Zr3Ge
_chemical_formula_sum   'Zr24 Ge8'
_cell_volume   680.45440159
_cell_formula_units_Z   8
loop_
 _symmetry_equiv_pos_site_id
 _symmetry_equiv_pos_as_xyz
  1  'x, y, z'
loop_
 _atom_site_type_symbol
 _atom_site_label
 _atom_site_symmetry_multiplicity
 _atom_site_fract_x
 _atom_site_fract_y
 _atom_site_fract_z
 _atom_site_occupancy
  Zr  Zr0  1  0.78468347  0.85600342  0.16798442  1
  Zr  Zr1  1  0.78468347  0.64399658  0.33201558  1
  Zr  Zr2  1  0.28468347  0.66798442  0.14399658  1
  Zr  Zr3  1  0.28468347  0.83201558  0.35600342  1
  Zr  Zr4  1  0.21531653  0.14399658  0.83201558  1
  Zr  Zr5  1  0.21531653  0.35600342  0.66798442  1
  Zr  Zr6  1  0.71531653  0.33201558  0.85600342  1
  Zr  Zr7  1  0.71531653  0.16798442  0.64399658  1
  Zr  Zr8  1  0.97098747  0.22312532  0.11014419  1
  Zr  Zr9  1  0.97098747  0.27687468  0.38985581  1
  Zr  Zr10  1  0.47098747  0.61014419  0.77687468  1
  Zr  Zr11  1  0.47098747  0.88985581  0.72312532  1
  Zr  Zr12  1  0.02901253  0.77687468  0.88985581  1
  Zr  Zr13  1  0.02901253  0.72312532  0.61014419  1
  Zr  Zr14  1  0.52901253  0.38985581  0.22312532  1
  Zr  Zr15  1  0.52901253  0.11014419  0.27687468  1
  Zr  Zr16  1  0.25700024  0.96550714  0.07011293  1
  Zr  Zr17  1  0.25700024  0.53449286  0.42988707  1
  Zr  Zr18  1  0.75700024  0.57011293  0.03449286  1
  Zr  Zr19  1  0.75700024  0.92988707  0.46550714  1
  Zr  Zr20  1  0.74299976  0.03449286  0.92988707  1
  Zr  Zr21  1  0.74299976  0.46550714  0.57011293  1
  Zr  Zr22  1  0.24299976  0.42988707  0.96550714  1
  Zr  Zr23  1  0.24299976  0.07011293  0.53449286  1
  Ge  Ge24  1  0.46309265  0.20833838  0.04561885  1
  Ge  Ge25  1  0.46309265  0.29166162  0.45438115  1
  Ge  Ge26  1  0.96309265  0.54561885  0.79166162  1
  Ge  Ge27  1  0.96309265  0.95438115  0.70833838  1
  Ge  Ge28  1  0.53690735  0.79166162  0.95438115  1
  Ge  Ge29  1  0.53690735  0.70833838  0.54561885  1
  Ge  Ge30  1  0.03690735  0.45438115  0.20833838  1
  Ge  Ge31  1  0.03690735  0.04561885  0.29166162  1
