# generated using pymatgen
data_Na2YHC2O7
_symmetry_space_group_name_H-M   'P 1'
_cell_length_a   6.19090719
_cell_length_b   9.38105146
_cell_length_c   11.48604160
_cell_angle_alpha   95.61444178
_cell_angle_beta   90.00000000
_cell_angle_gamma   109.26687731
_symmetry_Int_Tables_number   1
_chemical_formula_structural   Na2YHC2O7
_chemical_formula_sum   'Na8 Y4 H4 C8 O28'
_cell_volume   626.32460577
_cell_formula_units_Z   4
loop_
 _symmetry_equiv_pos_site_id
 _symmetry_equiv_pos_as_xyz
  1  'x, y, z'
loop_
 _atom_site_type_symbol
 _atom_site_label
 _atom_site_symmetry_multiplicity
 _atom_site_fract_x
 _atom_site_fract_y
 _atom_site_fract_z
 _atom_site_occupancy
  Na  Na0  1  0.49094586  0.77816399  0.11840036  1
  Na  Na1  1  0.71278187  0.22183601  0.38159964  1
  Na  Na2  1  0.50905414  0.22183601  0.88159964  1
  Na  Na3  1  0.28721813  0.77816399  0.61840036  1
  Na  Na4  1  0.17643530  0.53171805  0.85767827  1
  Na  Na5  1  0.64471725  0.46828195  0.64232173  1
  Na  Na6  1  0.82356470  0.46828195  0.14232173  1
  Na  Na7  1  0.35528275  0.53171805  0.35767827  1
  Y  Y8  1  0.78144638  0.87904013  0.86905333  1
  Y  Y9  1  0.90240625  0.12095987  0.63094667  1
  Y  Y10  1  0.21855362  0.12095987  0.13094667  1
  Y  Y11  1  0.09759375  0.87904013  0.36905333  1
  H  H12  1  0.94074901  0.20162495  0.87646915  1
  H  H13  1  0.73912406  0.79837505  0.62353085  1
  H  H14  1  0.05925099  0.79837505  0.12353085  1
  H  H15  1  0.26087594  0.20162495  0.37646915  1
  C  C16  1  0.23266722  0.87085944  0.88373840  1
  C  C17  1  0.36180778  0.12914056  0.61626160  1
  C  C18  1  0.76733278  0.12914056  0.11626160  1
  C  C19  1  0.63819222  0.87085944  0.38373840  1
  C  C20  1  0.28251586  0.41628583  0.07832897  1
  C  C21  1  0.86623003  0.58371417  0.42167103  1
  C  C22  1  0.71748414  0.58371417  0.92167103  1
  C  C23  1  0.13376997  0.41628583  0.57832897  1
  O  O24  1  0.18069190  0.98644976  0.93446461  1
  O  O25  1  0.19424213  0.01355024  0.56553539  1
  O  O26  1  0.81930810  0.01355024  0.06553539  1
  O  O27  1  0.80575787  0.98644976  0.43446461  1
  O  O28  1  0.69300961  0.78770413  0.29989864  1
  O  O29  1  0.90530548  0.21229587  0.20010136  1
  O  O30  1  0.30699039  0.21229587  0.70010136  1
  O  O31  1  0.09469452  0.78770413  0.79989864  1
  O  O32  1  0.01277442  0.39638150  0.67294740  1
  O  O33  1  0.61639293  0.60361850  0.82705260  1
  O  O34  1  0.98722558  0.60361850  0.32705260  1
  O  O35  1  0.38360707  0.39638150  0.17294740  1
  O  O36  1  0.40851614  0.83979571  0.91680963  1
  O  O37  1  0.56872043  0.16020429  0.58319037  1
  O  O38  1  0.59148386  0.16020429  0.08319037  1
  O  O39  1  0.43127957  0.83979571  0.41680963  1
  O  O40  1  0.24080154  0.53838354  0.06597949  1
  O  O41  1  0.70241800  0.46161646  0.43402051  1
  O  O42  1  0.75919846  0.46161646  0.93402051  1
  O  O43  1  0.29758200  0.53838354  0.56597949  1
  O  O44  1  0.78095995  0.70018392  0.00370505  1
  O  O45  1  0.08077602  0.29981608  0.49629495  1
  O  O46  1  0.21904005  0.29981608  0.99629495  1
  O  O47  1  0.91922398  0.70018392  0.50370505  1
  O  O48  1  0.82626555  0.12452423  0.82446957  1
  O  O49  1  0.70174132  0.87547577  0.67553043  1
  O  O50  1  0.17373445  0.87547577  0.17553043  1
  O  O51  1  0.29825868  0.12452423  0.32446957  1
