# generated using pymatgen
data_NdH11S3O16
_symmetry_space_group_name_H-M   'P 1'
_cell_length_a   7.16739355
_cell_length_b   11.80734896
_cell_length_c   16.07532909
_cell_angle_alpha   96.58412847
_cell_angle_beta   90.00000000
_cell_angle_gamma   90.00000000
_symmetry_Int_Tables_number   1
_chemical_formula_structural   NdH11S3O16
_chemical_formula_sum   'Nd4 H44 S12 O64'
_cell_volume   1351.44904112
_cell_formula_units_Z   4
loop_
 _symmetry_equiv_pos_site_id
 _symmetry_equiv_pos_as_xyz
  1  'x, y, z'
loop_
 _atom_site_type_symbol
 _atom_site_label
 _atom_site_symmetry_multiplicity
 _atom_site_fract_x
 _atom_site_fract_y
 _atom_site_fract_z
 _atom_site_occupancy
  Nd  Nd0  1  0.44657941  0.92207440  0.32077573  1
  Nd  Nd1  1  0.05342059  0.42207440  0.82077573  1
  Nd  Nd2  1  0.55342059  0.07792560  0.67922427  1
  Nd  Nd3  1  0.94657941  0.57792560  0.17922427  1
  H  H4  1  0.67307365  0.54063772  0.41479651  1
  H  H5  1  0.82692635  0.04063772  0.91479651  1
  H  H6  1  0.32692635  0.45936228  0.58520349  1
  H  H7  1  0.17307365  0.95936228  0.08520349  1
  H  H8  1  0.51601641  0.62776894  0.37328553  1
  H  H9  1  0.98398359  0.12776894  0.87328553  1
  H  H10  1  0.48398359  0.37223106  0.62671447  1
  H  H11  1  0.01601641  0.87223106  0.12671447  1
  H  H12  1  0.56311613  0.64552271  0.47605355  1
  H  H13  1  0.93688387  0.14552271  0.97605355  1
  H  H14  1  0.43688387  0.35447729  0.52394645  1
  H  H15  1  0.06311613  0.85447729  0.02394645  1
  H  H16  1  0.06069682  0.10430841  0.44778875  1
  H  H17  1  0.43930318  0.60430841  0.94778875  1
  H  H18  1  0.93930318  0.89569159  0.55221125  1
  H  H19  1  0.56069682  0.39569159  0.05221125  1
  H  H20  1  0.82671229  0.10038021  0.43240447  1
  H  H21  1  0.67328771  0.60038021  0.93240447  1
  H  H22  1  0.17328771  0.89961979  0.56759553  1
  H  H23  1  0.32671229  0.39961979  0.06759553  1
  H  H24  1  0.91368588  0.21440579  0.49675525  1
  H  H25  1  0.58631412  0.71440579  0.99675525  1
  H  H26  1  0.08631412  0.78559421  0.50324475  1
  H  H27  1  0.41368588  0.28559421  0.00324475  1
  H  H28  1  0.26085083  0.40362649  0.29957849  1
  H  H29  1  0.23914917  0.90362649  0.79957849  1
  H  H30  1  0.73914917  0.59637351  0.70042151  1
  H  H31  1  0.76085083  0.09637351  0.20042151  1
  H  H32  1  0.40340161  0.29655081  0.25016524  1
  H  H33  1  0.09659839  0.79655081  0.75016524  1
  H  H34  1  0.59659839  0.70344919  0.74983476  1
  H  H35  1  0.90340161  0.20344919  0.24983476  1
  H  H36  1  0.39608021  0.32051115  0.35448466  1
  H  H37  1  0.10391979  0.82051115  0.85448466  1
  H  H38  1  0.60391979  0.67948885  0.64551534  1
  H  H39  1  0.89608021  0.17948885  0.14551534  1
  H  H40  1  0.61411320  0.87995591  0.99368867  1
  H  H41  1  0.88588680  0.37995591  0.49368867  1
  H  H42  1  0.38588680  0.12004409  0.00631133  1
  H  H43  1  0.11411320  0.62004409  0.50631133  1
  H  H44  1  0.56351233  0.84153496  0.08526277  1
  H  H45  1  0.93648767  0.34153496  0.58526277  1
  H  H46  1  0.43648767  0.15846504  0.91473723  1
  H  H47  1  0.06351233  0.65846504  0.41473723  1
  S  S48  1  0.44643603  0.68117385  0.21060161  1
  S  S49  1  0.05356397  0.18117385  0.71060161  1
  S  S50  1  0.55356397  0.31882615  0.78939839  1
  S  S51  1  0.94643603  0.81882615  0.28939839  1
  S  S52  1  0.44989442  0.14619200  0.45426469  1
  S  S53  1  0.05010558  0.64619200  0.95426469  1
  S  S54  1  0.55010558  0.85380800  0.54573531  1
  S  S55  1  0.94989442  0.35380800  0.04573531  1
  S  S56  1  0.41402430  0.08391403  0.17509669  1
  S  S57  1  0.08597570  0.58391403  0.67509669  1
  S  S58  1  0.58597570  0.91608597  0.82490331  1
  S  S59  1  0.91402430  0.41608597  0.32490331  1
  O  O60  1  0.78172063  0.88906594  0.31488627  1
  O  O61  1  0.71827937  0.38906594  0.81488627  1
  O  O62  1  0.21827937  0.11093406  0.68511373  1
  O  O63  1  0.28172063  0.61093406  0.18511373  1
  O  O64  1  0.49848816  0.85990958  0.45781388  1
  O  O65  1  0.00151184  0.35990958  0.95781388  1
  O  O66  1  0.50151184  0.14009042  0.54218612  1
  O  O67  1  0.99848816  0.64009042  0.04218612  1
  O  O68  1  0.45765397  0.70377359  0.30513857  1
  O  O69  1  0.04234603  0.20377359  0.80513857  1
  O  O70  1  0.54234603  0.29622641  0.69486143  1
  O  O71  1  0.95765397  0.79622641  0.19486143  1
  O  O72  1  0.42940167  0.79807083  0.18327794  1
  O  O73  1  0.07059833  0.29807083  0.68327794  1
  O  O74  1  0.57059833  0.20192917  0.81672206  1
  O  O75  1  0.92940167  0.70192917  0.31672206  1
  O  O76  1  0.27937712  0.05485204  0.23970108  1
  O  O77  1  0.22062288  0.55485204  0.73970108  1
  O  O78  1  0.72062288  0.94514796  0.76029892  1
  O  O79  1  0.77937712  0.44514796  0.26029892  1
  O  O80  1  0.60192594  0.09877215  0.39599417  1
  O  O81  1  0.89807406  0.59877215  0.89599417  1
  O  O82  1  0.39807406  0.90122785  0.60400583  1
  O  O83  1  0.10192594  0.40122785  0.10400583  1
  O  O84  1  0.41498125  0.26899048  0.44373071  1
  O  O85  1  0.08501875  0.76899048  0.94373071  1
  O  O86  1  0.58501875  0.73100952  0.55626929  1
  O  O87  1  0.91498125  0.23100952  0.05626929  1
  O  O88  1  0.55073194  0.58644225  0.42421657  1
  O  O89  1  0.94926806  0.08644225  0.92421657  1
  O  O90  1  0.44926806  0.41355775  0.57578343  1
  O  O91  1  0.05073194  0.91355775  0.07578343  1
  O  O92  1  0.93288097  0.12356810  0.47111005  1
  O  O93  1  0.56711903  0.62356810  0.97111005  1
  O  O94  1  0.06711903  0.87643190  0.52888995  1
  O  O95  1  0.43288097  0.37643190  0.02888995  1
  O  O96  1  0.59566436  0.02731417  0.19714249  1
  O  O97  1  0.90433564  0.52731417  0.69714249  1
  O  O98  1  0.40433564  0.97268583  0.80285751  1
  O  O99  1  0.09566436  0.47268583  0.30285751  1
  O  O100  1  0.28278997  0.07521559  0.42857032  1
  O  O101  1  0.21721003  0.57521559  0.92857032  1
  O  O102  1  0.71721003  0.92478441  0.57142968  1
  O  O103  1  0.78278997  0.42478441  0.07142968  1
  O  O104  1  0.61610432  0.62397122  0.17538509  1
  O  O105  1  0.88389568  0.12397122  0.67538509  1
  O  O106  1  0.38389568  0.37602878  0.82461491  1
  O  O107  1  0.11610432  0.87602878  0.32461491  1
  O  O108  1  0.38671965  0.35733950  0.30087539  1
  O  O109  1  0.11328035  0.85733950  0.80087539  1
  O  O110  1  0.61328035  0.64266050  0.69912461  1
  O  O111  1  0.88671965  0.14266050  0.19912461  1
  O  O112  1  0.35262050  0.03249116  0.09001304  1
  O  O113  1  0.14737950  0.53249116  0.59001304  1
  O  O114  1  0.64737950  0.96750884  0.90998696  1
  O  O115  1  0.85262050  0.46750884  0.40998696  1
  O  O116  1  0.44094272  0.20732869  0.17474808  1
  O  O117  1  0.05905728  0.70732869  0.67474808  1
  O  O118  1  0.55905728  0.79267131  0.82525192  1
  O  O119  1  0.94094272  0.29267131  0.32525192  1
  O  O120  1  0.62726431  0.81983256  0.03151392  1
  O  O121  1  0.87273569  0.31983256  0.53151392  1
  O  O122  1  0.37273569  0.18016744  0.96848608  1
  O  O123  1  0.12726431  0.68016744  0.46848608  1
