# generated using pymatgen
data_Fe2Re5As12
_symmetry_space_group_name_H-M   'P 1'
_cell_length_a   3.11813777
_cell_length_b   12.85360733
_cell_length_c   15.84379364
_cell_angle_alpha   90.00000000
_cell_angle_beta   90.00000000
_cell_angle_gamma   90.00000000
_symmetry_Int_Tables_number   1
_chemical_formula_structural   Fe2Re5As12
_chemical_formula_sum   'Fe4 Re10 As24'
_cell_volume   635.00845149
_cell_formula_units_Z   2
loop_
 _symmetry_equiv_pos_site_id
 _symmetry_equiv_pos_as_xyz
  1  'x, y, z'
loop_
 _atom_site_type_symbol
 _atom_site_label
 _atom_site_symmetry_multiplicity
 _atom_site_fract_x
 _atom_site_fract_y
 _atom_site_fract_z
 _atom_site_occupancy
  Fe  Fe0  1  0.50000000  0.12694857  0.34503125  1
  Fe  Fe1  1  0.50000000  0.87305143  0.65496875  1
  Fe  Fe2  1  0.00000000  0.37305143  0.84503125  1
  Fe  Fe3  1  0.00000000  0.62694857  0.15496875  1
  Re  Re4  1  0.50000000  0.31713983  0.10412373  1
  Re  Re5  1  0.50000000  0.68286017  0.89587627  1
  Re  Re6  1  0.00000000  0.18286017  0.60412373  1
  Re  Re7  1  -0.00000000  0.81713983  0.39587627  1
  Re  Re8  1  0.50000000  0.91626273  0.26142968  1
  Re  Re9  1  0.50000000  0.08373727  0.73857032  1
  Re  Re10  1  -0.00000000  0.58373727  0.76142968  1
  Re  Re11  1  0.00000000  0.41626273  0.23857032  1
  Re  Re12  1  0.50000000  0.50000000  0.50000000  1
  Re  Re13  1  0.00000000  -0.00000000  0.00000000  1
  As  As14  1  0.50000000  0.90453556  0.09748934  1
  As  As15  1  0.50000000  0.09546444  0.90251066  1
  As  As16  1  -0.00000000  0.59546444  0.59748934  1
  As  As17  1  -0.00000000  0.40453556  0.40251066  1
  As  As18  1  0.50000000  0.57018779  0.25964826  1
  As  As19  1  0.50000000  0.42981221  0.74035174  1
  As  As20  1  0.00000000  0.92981221  0.75964826  1
  As  As21  1  0.00000000  0.07018779  0.24035174  1
  As  As22  1  0.50000000  0.65552876  0.40600822  1
  As  As23  1  0.50000000  0.34447124  0.59399178  1
  As  As24  1  -0.00000000  0.84447124  0.90600822  1
  As  As25  1  0.00000000  0.15552876  0.09399178  1
  As  As26  1  0.50000000  0.97003525  0.42074795  1
  As  As27  1  0.50000000  0.02996475  0.57925205  1
  As  As28  1  0.00000000  0.52996475  0.92074795  1
  As  As29  1  -0.00000000  0.47003525  0.07925205  1
  As  As30  1  0.50000000  0.70806327  0.05928880  1
  As  As31  1  0.50000000  0.29193673  0.94071120  1
  As  As32  1  0.00000000  0.79193673  0.55928880  1
  As  As33  1  -0.00000000  0.20806327  0.44071120  1
  As  As34  1  0.50000000  0.72921642  0.74082595  1
  As  As35  1  0.50000000  0.27078358  0.25917405  1
  As  As36  1  -0.00000000  0.77078358  0.24082595  1
  As  As37  1  -0.00000000  0.22921642  0.75917405  1
