# generated using pymatgen
data_GaH15N5Cl3
_symmetry_space_group_name_H-M   'P 1'
_cell_length_a   6.81527628
_cell_length_b   10.61113089
_cell_length_c   14.04805123
_cell_angle_alpha   90.00000000
_cell_angle_beta   90.00000000
_cell_angle_gamma   90.00000000
_symmetry_Int_Tables_number   1
_chemical_formula_structural   GaH15N5Cl3
_chemical_formula_sum   'Ga4 H60 N20 Cl12'
_cell_volume   1015.92399992
_cell_formula_units_Z   4
loop_
 _symmetry_equiv_pos_site_id
 _symmetry_equiv_pos_as_xyz
  1  'x, y, z'
loop_
 _atom_site_type_symbol
 _atom_site_label
 _atom_site_symmetry_multiplicity
 _atom_site_fract_x
 _atom_site_fract_y
 _atom_site_fract_z
 _atom_site_occupancy
  Ga  Ga0  1  0.67845740  0.75000000  0.39720902  1
  Ga  Ga1  1  0.82154260  0.75000000  0.89720902  1
  Ga  Ga2  1  0.32154260  0.25000000  0.60279098  1
  Ga  Ga3  1  0.17845740  0.25000000  0.10279098  1
  H  H4  1  0.49384806  0.75000000  0.23055640  1
  H  H5  1  0.00615194  0.75000000  0.73055640  1
  H  H6  1  0.50615194  0.25000000  0.76944360  1
  H  H7  1  -0.00615194  0.25000000  0.26944360  1
  H  H8  1  0.36020727  0.82871832  0.31028332  1
  H  H9  1  0.13979273  0.67128168  0.81028332  1
  H  H10  1  0.63979273  0.32871832  0.68971668  1
  H  H11  1  0.86020727  0.17128168  0.18971668  1
  H  H12  1  0.63979273  0.17128168  0.68971668  1
  H  H13  1  0.86020727  0.32871832  0.18971668  1
  H  H14  1  0.36020727  0.67128168  0.31028332  1
  H  H15  1  0.13979273  0.82871832  0.81028332  1
  H  H16  1  0.04906562  0.75000000  0.46701351  1
  H  H17  1  0.45093438  0.75000000  0.96701351  1
  H  H18  1  0.95093438  0.25000000  0.53298649  1
  H  H19  1  0.54906562  0.25000000  0.03298649  1
  H  H20  1  0.89991254  0.82836915  0.53931668  1
  H  H21  1  0.60008746  0.67163085  0.03931668  1
  H  H22  1  0.10008746  0.32836915  0.46068332  1
  H  H23  1  0.39991254  0.17163085  0.96068332  1
  H  H24  1  0.10008746  0.17163085  0.46068332  1
  H  H25  1  0.39991254  0.32836915  0.96068332  1
  H  H26  1  0.89991254  0.67163085  0.53931668  1
  H  H27  1  0.60008746  0.82836915  0.03931668  1
  H  H28  1  0.83871968  0.75000000  0.21985749  1
  H  H29  1  0.66128032  0.75000000  0.71985749  1
  H  H30  1  0.16128032  0.25000000  0.78014251  1
  H  H31  1  0.33871968  0.25000000  0.28014251  1
  H  H32  1  0.97964601  0.82858645  0.29545146  1
  H  H33  1  0.52035399  0.67141355  0.79545146  1
  H  H34  1  0.02035399  0.32858645  0.70454854  1
  H  H35  1  0.47964601  0.17141355  0.20454854  1
  H  H36  1  0.02035399  0.17141355  0.70454854  1
  H  H37  1  0.47964601  0.32858645  0.20454854  1
  H  H38  1  0.97964601  0.67141355  0.29545146  1
  H  H39  1  0.52035399  0.82858645  0.79545146  1
  H  H40  1  0.71530321  0.98265453  0.46323617  1
  H  H41  1  0.78469679  0.51734547  0.96323617  1
  H  H42  1  0.28469679  0.48265453  0.53676383  1
  H  H43  1  0.21530321  0.01734547  0.03676383  1
  H  H44  1  0.28469679  0.01734547  0.53676383  1
  H  H45  1  0.21530321  0.48265453  0.03676383  1
  H  H46  1  0.71530321  0.51734547  0.46323617  1
  H  H47  1  0.78469679  0.98265453  0.96323617  1
  H  H48  1  0.53810130  0.98153459  0.38308303  1
  H  H49  1  0.96189870  0.51846541  0.88308303  1
  H  H50  1  0.46189870  0.48153459  0.61691697  1
  H  H51  1  0.03810130  0.01846541  0.11691697  1
  H  H52  1  0.46189870  0.01846541  0.61691697  1
  H  H53  1  0.03810130  0.48153459  0.11691697  1
  H  H54  1  0.53810130  0.51846541  0.38308303  1
  H  H55  1  0.96189870  0.98153459  0.88308303  1
  H  H56  1  0.77175548  0.98458326  0.34886401  1
  H  H57  1  0.72824452  0.51541674  0.84886401  1
  H  H58  1  0.22824452  0.48458326  0.65113599  1
  H  H59  1  0.27175548  0.01541674  0.15113599  1
  H  H60  1  0.22824452  0.01541674  0.65113599  1
  H  H61  1  0.27175548  0.48458326  0.15113599  1
  H  H62  1  0.77175548  0.51541674  0.34886401  1
  H  H63  1  0.72824452  0.98458326  0.84886401  1
  N  N64  1  0.44723132  0.75000000  0.29968551  1
  N  N65  1  0.05276868  0.75000000  0.79968551  1
  N  N66  1  0.55276868  0.25000000  0.70031449  1
  N  N67  1  0.94723132  0.25000000  0.20031449  1
  N  N68  1  0.91097079  0.75000000  0.49625332  1
  N  N69  1  0.58902921  0.75000000  0.99625332  1
  N  N70  1  0.08902921  0.25000000  0.50374668  1
  N  N71  1  0.41097079  0.25000000  0.00374668  1
  N  N72  1  0.89107870  0.75000000  0.28811064  1
  N  N73  1  0.60892130  0.75000000  0.78811064  1
  N  N74  1  0.10892130  0.25000000  0.71188936  1
  N  N75  1  0.39107870  0.25000000  0.21188936  1
  N  N76  1  0.67620199  0.94743018  0.39784035  1
  N  N77  1  0.82379801  0.55256982  0.89784035  1
  N  N78  1  0.32379801  0.44743018  0.60215965  1
  N  N79  1  0.17620199  0.05256982  0.10215965  1
  N  N80  1  0.32379801  0.05256982  0.60215965  1
  N  N81  1  0.17620199  0.44743018  0.10215965  1
  N  N82  1  0.67620199  0.55256982  0.39784035  1
  N  N83  1  0.82379801  0.94743018  0.89784035  1
  Cl  Cl84  1  0.44996671  0.75000000  0.52590374  1
  Cl  Cl85  1  0.05003329  0.75000000  0.02590374  1
  Cl  Cl86  1  0.55003329  0.25000000  0.47409626  1
  Cl  Cl87  1  0.94996671  0.25000000  0.97409626  1
  Cl  Cl88  1  0.66761882  0.00494365  0.14728431  1
  Cl  Cl89  1  0.83238118  0.49505635  0.64728431  1
  Cl  Cl90  1  0.33238118  0.50494365  0.85271569  1
  Cl  Cl91  1  0.16761882  0.99505635  0.35271569  1
  Cl  Cl92  1  0.33238118  0.99505635  0.85271569  1
  Cl  Cl93  1  0.16761882  0.50494365  0.35271569  1
  Cl  Cl94  1  0.66761882  0.49505635  0.14728431  1
  Cl  Cl95  1  0.83238118  0.00494365  0.64728431  1
