# generated using pymatgen
data_Rb3IO5
_symmetry_space_group_name_H-M   'P 1'
_cell_length_a   8.69314465
_cell_length_b   9.21668147
_cell_length_c   9.30825620
_cell_angle_alpha   90.00000000
_cell_angle_beta   90.00000000
_cell_angle_gamma   90.00000000
_symmetry_Int_Tables_number   1
_chemical_formula_structural   Rb3IO5
_chemical_formula_sum   'Rb12 I4 O20'
_cell_volume   745.79559327
_cell_formula_units_Z   4
loop_
 _symmetry_equiv_pos_site_id
 _symmetry_equiv_pos_as_xyz
  1  'x, y, z'
loop_
 _atom_site_type_symbol
 _atom_site_label
 _atom_site_symmetry_multiplicity
 _atom_site_fract_x
 _atom_site_fract_y
 _atom_site_fract_z
 _atom_site_occupancy
  Rb  Rb0  1  0.96416196  0.25000000  0.75000000  1
  Rb  Rb1  1  0.53583804  0.75000000  0.75000000  1
  Rb  Rb2  1  0.03583804  0.75000000  0.25000000  1
  Rb  Rb3  1  0.46416196  0.25000000  0.25000000  1
  Rb  Rb4  1  0.75000000  0.50000000  0.02347086  1
  Rb  Rb5  1  0.75000000  0.00000000  0.47652914  1
  Rb  Rb6  1  0.25000000  0.50000000  0.97652914  1
  Rb  Rb7  1  0.25000000  0.00000000  0.52347086  1
  Rb  Rb8  1  0.75000000  0.50000000  0.47770193  1
  Rb  Rb9  1  0.75000000  0.00000000  0.02229807  1
  Rb  Rb10  1  0.25000000  0.50000000  0.52229807  1
  Rb  Rb11  1  0.25000000  0.00000000  0.97770193  1
  I  I12  1  0.48657428  0.25000000  0.75000000  1
  I  I13  1  0.01342572  0.75000000  0.75000000  1
  I  I14  1  0.51342572  0.75000000  0.25000000  1
  I  I15  1  0.98657428  0.25000000  0.25000000  1
  O  O16  1  0.27524340  0.25000000  0.75000000  1
  O  O17  1  0.22475660  0.75000000  0.75000000  1
  O  O18  1  0.72475660  0.75000000  0.25000000  1
  O  O19  1  0.77524340  0.25000000  0.25000000  1
  O  O20  1  0.53681797  0.05404346  0.77907897  1
  O  O21  1  0.96318203  0.94595654  0.77907897  1
  O  O22  1  0.53681797  0.44595654  0.72092103  1
  O  O23  1  0.96318203  0.55404346  0.72092103  1
  O  O24  1  0.46318203  0.94595654  0.22092103  1
  O  O25  1  0.03681797  0.05404346  0.22092103  1
  O  O26  1  0.46318203  0.55404346  0.27907897  1
  O  O27  1  0.03681797  0.44595654  0.27907897  1
  O  O28  1  0.52074147  0.27953749  0.94772995  1
  O  O29  1  0.97925853  0.72046251  0.94772995  1
  O  O30  1  0.52074147  0.22046251  0.55227005  1
  O  O31  1  0.97925853  0.77953749  0.55227005  1
  O  O32  1  0.47925853  0.72046251  0.05227005  1
  O  O33  1  0.02074147  0.27953749  0.05227005  1
  O  O34  1  0.47925853  0.77953749  0.44772995  1
  O  O35  1  0.02074147  0.22046251  0.44772995  1
