# generated using pymatgen
data_CsMoP2HO9
_symmetry_space_group_name_H-M   'P 1'
_cell_length_a   6.37874608
_cell_length_b   10.12800135
_cell_length_c   14.66229800
_cell_angle_alpha   90.00000000
_cell_angle_beta   90.00000000
_cell_angle_gamma   100.20777294
_symmetry_Int_Tables_number   1
_chemical_formula_structural   CsMoP2HO9
_chemical_formula_sum   'Cs4 Mo4 P8 H4 O36'
_cell_volume   932.24899670
_cell_formula_units_Z   4
loop_
 _symmetry_equiv_pos_site_id
 _symmetry_equiv_pos_as_xyz
  1  'x, y, z'
loop_
 _atom_site_type_symbol
 _atom_site_label
 _atom_site_symmetry_multiplicity
 _atom_site_fract_x
 _atom_site_fract_y
 _atom_site_fract_z
 _atom_site_occupancy
  Cs  Cs0  1  0.18640829  0.33276294  0.32906917  1
  Cs  Cs1  1  0.81359171  0.16723706  0.82906917  1
  Cs  Cs2  1  0.81359171  0.66723706  0.67093083  1
  Cs  Cs3  1  0.18640829  0.83276294  0.17093083  1
  Mo  Mo4  1  0.29595181  0.22327613  0.03781520  1
  Mo  Mo5  1  0.70404819  0.27672387  0.53781520  1
  Mo  Mo6  1  0.70404819  0.77672387  0.96218480  1
  Mo  Mo7  1  0.29595181  0.72327613  0.46218480  1
  P  P8  1  0.60894055  0.01454983  0.37330944  1
  P  P9  1  0.39105945  0.48545017  0.87330944  1
  P  P10  1  0.39105945  0.98545017  0.62669056  1
  P  P11  1  0.60894055  0.51454983  0.12669056  1
  P  P12  1  0.80936052  0.78317681  0.40837998  1
  P  P13  1  0.19063948  0.71682319  0.90837998  1
  P  P14  1  0.19063948  0.21682319  0.59162002  1
  P  P15  1  0.80936052  0.28317681  0.09162002  1
  H  H16  1  0.68710012  0.59933851  0.26598405  1
  H  H17  1  0.31289988  0.90066149  0.76598405  1
  H  H18  1  0.31289988  0.40066149  0.73401595  1
  H  H19  1  0.68710012  0.09933851  0.23401595  1
  O  O20  1  0.40483962  0.42539480  0.09518900  1
  O  O21  1  0.59516038  0.07460520  0.59518900  1
  O  O22  1  0.59516038  0.57460520  0.90481100  1
  O  O23  1  0.40483962  0.92539480  0.40481100  1
  O  O24  1  0.65850312  0.65509940  0.08849544  1
  O  O25  1  0.34149688  0.84490060  0.58849544  1
  O  O26  1  0.34149688  0.34490060  0.91150456  1
  O  O27  1  0.65850312  0.15509940  0.41150456  1
  O  O28  1  0.60187858  0.01714474  0.26668925  1
  O  O29  1  0.39812142  0.48285526  0.76668925  1
  O  O30  1  0.39812142  0.98285526  0.73331075  1
  O  O31  1  0.60187858  0.51714474  0.23331075  1
  O  O32  1  0.81029761  0.44295713  0.10113658  1
  O  O33  1  0.18970239  0.05704287  0.60113658  1
  O  O34  1  0.18970239  0.55704287  0.89886342  1
  O  O35  1  0.81029761  0.94295713  0.39886342  1
  O  O36  1  0.61521508  0.22685940  0.03032458  1
  O  O37  1  0.38478492  0.27314060  0.53032458  1
  O  O38  1  0.38478492  0.77314060  0.96967542  1
  O  O39  1  0.61521508  0.72685940  0.46967542  1
  O  O40  1  0.81222854  0.22071395  0.18394764  1
  O  O41  1  0.18777146  0.27928605  0.68394764  1
  O  O42  1  0.18777146  0.77928605  0.81605236  1
  O  O43  1  0.81222854  0.72071395  0.31605236  1
  O  O44  1  0.00820531  0.78017366  0.46795468  1
  O  O45  1  0.99179469  0.71982634  0.96795468  1
  O  O46  1  0.99179469  0.21982634  0.53204532  1
  O  O47  1  0.00820531  0.28017366  0.03204532  1
  O  O48  1  0.26141253  0.65674911  0.35291699  1
  O  O49  1  0.73858747  0.84325089  0.85291699  1
  O  O50  1  0.73858747  0.34325089  0.64708301  1
  O  O51  1  0.26141253  0.15674911  0.14708301  1
  O  O52  1  0.76220879  0.91543656  0.03229063  1
  O  O53  1  0.23779121  0.58456344  0.53229063  1
  O  O54  1  0.23779121  0.08456344  0.96770937  1
  O  O55  1  0.76220879  0.41543656  0.46770937  1
