# generated using pymatgen
data_FeAs(H2O3)2
_symmetry_space_group_name_H-M   'P 1'
_cell_length_a   9.04184034
_cell_length_b   10.15770812
_cell_length_c   10.52317300
_cell_angle_alpha   90.00000000
_cell_angle_beta   90.00000000
_cell_angle_gamma   90.00000000
_symmetry_Int_Tables_number   1
_chemical_formula_structural   FeAs(H2O3)2
_chemical_formula_sum   'Fe8 As8 H32 O48'
_cell_volume   966.49424764
_cell_formula_units_Z   8
loop_
 _symmetry_equiv_pos_site_id
 _symmetry_equiv_pos_as_xyz
  1  'x, y, z'
loop_
 _atom_site_type_symbol
 _atom_site_label
 _atom_site_symmetry_multiplicity
 _atom_site_fract_x
 _atom_site_fract_y
 _atom_site_fract_z
 _atom_site_occupancy
  Fe  Fe0  1  0.35584533  0.81565448  0.62606499  1
  Fe  Fe1  1  0.85584533  0.68434552  0.37393501  1
  Fe  Fe2  1  0.64415467  0.31565448  0.87393501  1
  Fe  Fe3  1  0.14415467  0.18434552  0.12606499  1
  Fe  Fe4  1  0.64415467  0.18434552  0.37393501  1
  Fe  Fe5  1  0.14415467  0.31565448  0.62606499  1
  Fe  Fe6  1  0.35584533  0.68434552  0.12606499  1
  Fe  Fe7  1  0.85584533  0.81565448  0.87393501  1
  As  As8  1  0.03693583  0.63376444  0.65164435  1
  As  As9  1  0.53693583  0.86623556  0.34835565  1
  As  As10  1  0.96306417  0.13376444  0.84835565  1
  As  As11  1  0.46306417  0.36623556  0.15164435  1
  As  As12  1  0.96306417  0.36623556  0.34835565  1
  As  As13  1  0.46306417  0.13376444  0.65164435  1
  As  As14  1  0.03693583  0.86623556  0.15164435  1
  As  As15  1  0.53693583  0.63376444  0.84835565  1
  H  H16  1  0.13009791  0.60368082  0.97466153  1
  H  H17  1  0.63009791  0.89631918  0.02533847  1
  H  H18  1  0.86990209  0.10368082  0.52533847  1
  H  H19  1  0.36990209  0.39631918  0.47466153  1
  H  H20  1  0.86990209  0.39631918  0.02533847  1
  H  H21  1  0.36990209  0.10368082  0.97466153  1
  H  H22  1  0.13009791  0.89631918  0.47466153  1
  H  H23  1  0.63009791  0.60368082  0.52533847  1
  H  H24  1  0.20090593  0.47690761  0.04928077  1
  H  H25  1  0.70090593  0.02309239  0.95071923  1
  H  H26  1  0.79909407  0.97690761  0.45071923  1
  H  H27  1  0.29909407  0.52309239  0.54928077  1
  H  H28  1  0.79909407  0.52309239  0.95071923  1
  H  H29  1  0.29909407  0.97690761  0.04928077  1
  H  H30  1  0.20090593  0.02309239  0.54928077  1
  H  H31  1  0.70090593  0.47690761  0.45071923  1
  H  H32  1  0.32003642  0.68148915  0.36836249  1
  H  H33  1  0.82003642  0.81851085  0.63163751  1
  H  H34  1  0.67996358  0.18148915  0.13163751  1
  H  H35  1  0.17996358  0.31851085  0.86836249  1
  H  H36  1  0.67996358  0.31851085  0.63163751  1
  H  H37  1  0.17996358  0.18148915  0.36836249  1
  H  H38  1  0.32003642  0.81851085  0.86836249  1
  H  H39  1  0.82003642  0.68148915  0.13163751  1
  H  H40  1  0.17367217  0.59977292  0.31698199  1
  H  H41  1  0.67367217  0.90022708  0.68301801  1
  H  H42  1  0.82632783  0.09977292  0.18301801  1
  H  H43  1  0.32632783  0.40022708  0.81698199  1
  H  H44  1  0.82632783  0.40022708  0.68301801  1
  H  H45  1  0.32632783  0.09977292  0.31698199  1
  H  H46  1  0.17367217  0.90022708  0.81698199  1
  H  H47  1  0.67367217  0.59977292  0.18301801  1
  O  O48  1  0.00936124  0.69313117  0.80276244  1
  O  O49  1  0.50936124  0.80686883  0.19723756  1
  O  O50  1  0.99063876  0.19313117  0.69723756  1
  O  O51  1  0.49063876  0.30686883  0.30276244  1
  O  O52  1  0.99063876  0.30686883  0.19723756  1
  O  O53  1  0.49063876  0.19313117  0.80276244  1
  O  O54  1  0.00936124  0.80686883  0.30276244  1
  O  O55  1  0.50936124  0.69313117  0.69723756  1
  O  O56  1  0.91867047  0.71956633  0.55217184  1
  O  O57  1  0.41867047  0.78043367  0.44782816  1
  O  O58  1  0.08132953  0.21956633  0.94782816  1
  O  O59  1  0.58132953  0.28043367  0.05217184  1
  O  O60  1  0.08132953  0.28043367  0.44782816  1
  O  O61  1  0.58132953  0.21956633  0.55217184  1
  O  O62  1  0.91867047  0.78043367  0.05217184  1
  O  O63  1  0.41867047  0.71956633  0.94782816  1
  O  O64  1  0.21715322  0.66047789  0.60489424  1
  O  O65  1  0.71715322  0.83952211  0.39510576  1
  O  O66  1  0.78284678  0.16047789  0.89510576  1
  O  O67  1  0.28284678  0.33952211  0.10489424  1
  O  O68  1  0.78284678  0.33952211  0.39510576  1
  O  O69  1  0.28284678  0.16047789  0.60489424  1
  O  O70  1  0.21715322  0.83952211  0.10489424  1
  O  O71  1  0.71715322  0.66047789  0.89510576  1
  O  O72  1  0.99951462  0.46803232  0.63936948  1
  O  O73  1  0.49951462  0.03196768  0.36063052  1
  O  O74  1  0.00048538  0.96803232  0.86063052  1
  O  O75  1  0.50048538  0.53196768  0.13936948  1
  O  O76  1  0.00048538  0.53196768  0.36063052  1
  O  O77  1  0.50048538  0.96803232  0.63936948  1
  O  O78  1  0.99951462  0.03196768  0.13936948  1
  O  O79  1  0.49951462  0.46803232  0.86063052  1
  O  O80  1  0.17635538  0.57315249  0.05329195  1
  O  O81  1  0.67635538  0.92684751  0.94670805  1
  O  O82  1  0.82364462  0.07315249  0.44670805  1
  O  O83  1  0.32364462  0.42684751  0.55329195  1
  O  O84  1  0.82364462  0.42684751  0.94670805  1
  O  O85  1  0.32364462  0.07315249  0.05329195  1
  O  O86  1  0.17635538  0.92684751  0.55329195  1
  O  O87  1  0.67635538  0.57315249  0.44670805  1
  O  O88  1  0.27930261  0.62122319  0.30010340  1
  O  O89  1  0.77930261  0.87877681  0.69989660  1
  O  O90  1  0.72069739  0.12122319  0.19989660  1
  O  O91  1  0.22069739  0.37877681  0.80010340  1
  O  O92  1  0.72069739  0.37877681  0.69989660  1
  O  O93  1  0.22069739  0.12122319  0.30010340  1
  O  O94  1  0.27930261  0.87877681  0.80010340  1
  O  O95  1  0.77930261  0.62122319  0.19989660  1
