# generated using pymatgen
data_Sn2W3Cl14
_symmetry_space_group_name_H-M   'P 1'
_cell_length_a   9.73139605
_cell_length_b   9.72734982
_cell_length_c   12.52539006
_cell_angle_alpha   90.00000000
_cell_angle_beta   90.00000000
_cell_angle_gamma   120.04891759
_symmetry_Int_Tables_number   1
_chemical_formula_structural   Sn2W3Cl14
_chemical_formula_sum   'Sn4 W6 Cl28'
_cell_volume   1026.30699147
_cell_formula_units_Z   2
loop_
 _symmetry_equiv_pos_site_id
 _symmetry_equiv_pos_as_xyz
  1  'x, y, z'
loop_
 _atom_site_type_symbol
 _atom_site_label
 _atom_site_symmetry_multiplicity
 _atom_site_fract_x
 _atom_site_fract_y
 _atom_site_fract_z
 _atom_site_occupancy
  Sn  Sn0  1  0.33335399  0.66661901  0.30335504  1
  Sn  Sn1  1  0.66664601  0.33338099  0.80335504  1
  Sn  Sn2  1  0.00003399  0.99997770  0.25486264  1
  Sn  Sn3  1  0.99996601  0.00002230  0.75486264  1
  W  W4  1  0.85327869  0.41038460  0.33833138  1
  W  W5  1  0.58959817  0.44278329  0.33828578  1
  W  W6  1  0.55707196  0.14659632  0.33840954  1
  W  W7  1  0.14672131  0.58961540  0.83833138  1
  W  W8  1  0.41040183  0.55721671  0.83828578  1
  W  W9  1  0.44292804  0.85340368  0.83840954  1
  Cl  Cl10  1  0.66666670  0.33330835  0.19190872  1
  Cl  Cl11  1  0.33333330  0.66669165  0.69190872  1
  Cl  Cl12  1  0.75849586  0.20231140  0.47147479  1
  Cl  Cl13  1  0.79759859  0.55603860  0.47133980  1
  Cl  Cl14  1  0.44385991  0.24139560  0.47141156  1
  Cl  Cl15  1  0.24150414  0.79768860  0.97147479  1
  Cl  Cl16  1  0.20240141  0.44396140  0.97133980  1
  Cl  Cl17  1  0.55614009  0.75860440  0.97141156  1
  Cl  Cl18  1  0.97607785  0.29998142  0.22679084  1
  Cl  Cl19  1  0.70009993  0.67620663  0.22677910  1
  Cl  Cl20  1  0.32390994  0.02391037  0.22682060  1
  Cl  Cl21  1  0.02392215  0.70001858  0.72679084  1
  Cl  Cl22  1  0.29990007  0.32379337  0.72677910  1
  Cl  Cl23  1  0.67609006  0.97608963  0.72682060  1
  Cl  Cl24  1  0.09910678  0.50462353  0.44857182  1
  Cl  Cl25  1  0.49538329  0.59451146  0.44856308  1
  Cl  Cl26  1  0.40551424  0.90090998  0.44855594  1
  Cl  Cl27  1  0.90089322  0.49537647  0.94857182  1
  Cl  Cl28  1  0.50461671  0.40548854  0.94856308  1
  Cl  Cl29  1  0.59448576  0.09909002  0.94855594  1
  Cl  Cl30  1  0.01466343  0.65035749  0.23919472  1
  Cl  Cl31  1  0.34960023  0.36426607  0.23917014  1
  Cl  Cl32  1  0.63562263  0.98535179  0.23918216  1
  Cl  Cl33  1  0.98533657  0.34964251  0.73919472  1
  Cl  Cl34  1  0.65039977  0.63573393  0.73917014  1
  Cl  Cl35  1  0.36437737  0.01464821  0.73918216  1
  Cl  Cl36  1  0.00000996  0.00000845  0.06202236  1
  Cl  Cl37  1  0.99999004  0.99999155  0.56202236  1
