# generated using pymatgen
data_Cd4As2Br3
_symmetry_space_group_name_H-M   'P 1'
_cell_length_a   12.92812757
_cell_length_b   12.92812757
_cell_length_c   12.92812757
_cell_angle_alpha   90.00000000
_cell_angle_beta   90.00000000
_cell_angle_gamma   90.00000000
_symmetry_Int_Tables_number   1
_chemical_formula_structural   Cd4As2Br3
_chemical_formula_sum   'Cd32 As16 Br24'
_cell_volume   2160.76176692
_cell_formula_units_Z   8
loop_
 _symmetry_equiv_pos_site_id
 _symmetry_equiv_pos_as_xyz
  1  'x, y, z'
loop_
 _atom_site_type_symbol
 _atom_site_label
 _atom_site_symmetry_multiplicity
 _atom_site_fract_x
 _atom_site_fract_y
 _atom_site_fract_z
 _atom_site_occupancy
  Cd  Cd0  1  0.25083754  0.52700967  0.98752883  1
  Cd  Cd1  1  0.74916246  0.02700967  0.51247117  1
  Cd  Cd2  1  0.24916246  0.47299033  0.48752883  1
  Cd  Cd3  1  0.75083754  0.97299033  0.01247117  1
  Cd  Cd4  1  0.98752883  0.25083754  0.52700967  1
  Cd  Cd5  1  0.51247117  0.74916246  0.02700967  1
  Cd  Cd6  1  0.48752883  0.24916246  0.47299033  1
  Cd  Cd7  1  0.01247117  0.75083754  0.97299033  1
  Cd  Cd8  1  0.52700967  0.98752883  0.25083754  1
  Cd  Cd9  1  0.02700967  0.51247117  0.74916246  1
  Cd  Cd10  1  0.47299033  0.48752883  0.24916246  1
  Cd  Cd11  1  0.97299033  0.01247117  0.75083754  1
  Cd  Cd12  1  0.74916246  0.47299033  0.01247117  1
  Cd  Cd13  1  0.25083754  0.97299033  0.48752883  1
  Cd  Cd14  1  0.75083754  0.52700967  0.51247117  1
  Cd  Cd15  1  0.24916246  0.02700967  0.98752883  1
  Cd  Cd16  1  0.01247117  0.74916246  0.47299033  1
  Cd  Cd17  1  0.48752883  0.25083754  0.97299033  1
  Cd  Cd18  1  0.51247117  0.75083754  0.52700967  1
  Cd  Cd19  1  0.98752883  0.24916246  0.02700967  1
  Cd  Cd20  1  0.47299033  0.01247117  0.74916246  1
  Cd  Cd21  1  0.97299033  0.48752883  0.25083754  1
  Cd  Cd22  1  0.52700967  0.51247117  0.75083754  1
  Cd  Cd23  1  0.02700967  0.98752883  0.24916246  1
  Cd  Cd24  1  0.27990697  0.72009303  0.22009303  1
  Cd  Cd25  1  0.72009303  0.22009303  0.27990697  1
  Cd  Cd26  1  0.22009303  0.27990697  0.72009303  1
  Cd  Cd27  1  0.77990697  0.77990697  0.77990697  1
  Cd  Cd28  1  0.72009303  0.27990697  0.77990697  1
  Cd  Cd29  1  0.27990697  0.77990697  0.72009303  1
  Cd  Cd30  1  0.77990697  0.72009303  0.27990697  1
  Cd  Cd31  1  0.22009303  0.22009303  0.22009303  1
  As  As32  1  0.05445570  0.94554430  0.44554430  1
  As  As33  1  0.94554430  0.44554430  0.05445570  1
  As  As34  1  0.44554430  0.05445570  0.94554430  1
  As  As35  1  0.55445570  0.55445570  0.55445570  1
  As  As36  1  0.94554430  0.05445570  0.55445570  1
  As  As37  1  0.05445570  0.55445570  0.94554430  1
  As  As38  1  0.55445570  0.94554430  0.05445570  1
  As  As39  1  0.44554430  0.44554430  0.44554430  1
  As  As40  1  0.39601574  0.60398426  0.10398426  1
  As  As41  1  0.60398426  0.10398426  0.39601574  1
  As  As42  1  0.10398426  0.39601574  0.60398426  1
  As  As43  1  0.89601574  0.89601574  0.89601574  1
  As  As44  1  0.60398426  0.39601574  0.89601574  1
  As  As45  1  0.39601574  0.89601574  0.60398426  1
  As  As46  1  0.89601574  0.60398426  0.39601574  1
  As  As47  1  0.10398426  0.10398426  0.10398426  1
  Br  Br48  1  0.23450451  0.68557582  0.42970575  1
  Br  Br49  1  0.76549549  0.18557582  0.07029425  1
  Br  Br50  1  0.26549549  0.31442418  0.92970575  1
  Br  Br51  1  0.73450451  0.81442418  0.57029425  1
  Br  Br52  1  0.42970575  0.23450451  0.68557582  1
  Br  Br53  1  0.07029425  0.76549549  0.18557582  1
  Br  Br54  1  0.92970575  0.26549549  0.31442418  1
  Br  Br55  1  0.57029425  0.73450451  0.81442418  1
  Br  Br56  1  0.68557582  0.42970575  0.23450451  1
  Br  Br57  1  0.18557582  0.07029425  0.76549549  1
  Br  Br58  1  0.31442418  0.92970575  0.26549549  1
  Br  Br59  1  0.81442418  0.57029425  0.73450451  1
  Br  Br60  1  0.76549549  0.31442418  0.57029425  1
  Br  Br61  1  0.23450451  0.81442418  0.92970575  1
  Br  Br62  1  0.73450451  0.68557582  0.07029425  1
  Br  Br63  1  0.26549549  0.18557582  0.42970575  1
  Br  Br64  1  0.57029425  0.76549549  0.31442418  1
  Br  Br65  1  0.92970575  0.23450451  0.81442418  1
  Br  Br66  1  0.07029425  0.73450451  0.68557582  1
  Br  Br67  1  0.42970575  0.26549549  0.18557582  1
  Br  Br68  1  0.31442418  0.57029425  0.76549549  1
  Br  Br69  1  0.81442418  0.92970575  0.23450451  1
  Br  Br70  1  0.68557582  0.07029425  0.73450451  1
  Br  Br71  1  0.18557582  0.42970575  0.26549549  1
