# generated using pymatgen
data_Ga2Hg3Cl8
_symmetry_space_group_name_H-M   'P 1'
_cell_length_a   7.40957214
_cell_length_b   14.87925002
_cell_length_c   15.72874102
_cell_angle_alpha   90.00000000
_cell_angle_beta   90.00000000
_cell_angle_gamma   97.65556104
_symmetry_Int_Tables_number   1
_chemical_formula_structural   Ga2Hg3Cl8
_chemical_formula_sum   'Ga8 Hg12 Cl32'
_cell_volume   1718.61989778
_cell_formula_units_Z   4
loop_
 _symmetry_equiv_pos_site_id
 _symmetry_equiv_pos_as_xyz
  1  'x, y, z'
loop_
 _atom_site_type_symbol
 _atom_site_label
 _atom_site_symmetry_multiplicity
 _atom_site_fract_x
 _atom_site_fract_y
 _atom_site_fract_z
 _atom_site_occupancy
  Ga  Ga0  1  0.60011375  0.59489093  0.81676137  1
  Ga  Ga1  1  0.39988625  0.90510907  0.31676137  1
  Ga  Ga2  1  0.39988625  0.40510907  0.18323863  1
  Ga  Ga3  1  0.60011375  0.09489093  0.68323863  1
  Ga  Ga4  1  0.80489329  0.27829147  0.39763895  1
  Ga  Ga5  1  0.19510671  0.22170853  0.89763895  1
  Ga  Ga6  1  0.19510671  0.72170853  0.60236105  1
  Ga  Ga7  1  0.80489329  0.77829147  0.10236105  1
  Hg  Hg8  1  0.18455080  0.39109644  0.63689694  1
  Hg  Hg9  1  0.81544920  0.10890356  0.13689694  1
  Hg  Hg10  1  0.81544920  0.60890356  0.36310306  1
  Hg  Hg11  1  0.18455080  0.89109644  0.86310306  1
  Hg  Hg12  1  0.00747017  0.46522491  0.75936634  1
  Hg  Hg13  1  0.99252983  0.03477509  0.25936634  1
  Hg  Hg14  1  0.99252983  0.53477509  0.24063366  1
  Hg  Hg15  1  0.00747017  0.96522491  0.74063366  1
  Hg  Hg16  1  0.36720493  0.30453032  0.52405013  1
  Hg  Hg17  1  0.63279507  0.19546968  0.02405013  1
  Hg  Hg18  1  0.63279507  0.69546968  0.47594987  1
  Hg  Hg19  1  0.36720493  0.80453032  0.97594987  1
  Cl  Cl20  1  0.67592437  0.74086756  0.82961425  1
  Cl  Cl21  1  0.32407563  0.75913244  0.32961425  1
  Cl  Cl22  1  0.32407563  0.25913244  0.17038575  1
  Cl  Cl23  1  0.67592437  0.24086756  0.67038575  1
  Cl  Cl24  1  0.59474252  0.54590806  0.68479112  1
  Cl  Cl25  1  0.40525748  0.95409194  0.18479112  1
  Cl  Cl26  1  0.40525748  0.45409194  0.31520888  1
  Cl  Cl27  1  0.59474252  0.04590806  0.81520888  1
  Cl  Cl28  1  0.82513639  0.52575726  0.87962522  1
  Cl  Cl29  1  0.17486361  0.97424274  0.37962522  1
  Cl  Cl30  1  0.17486361  0.47424274  0.12037478  1
  Cl  Cl31  1  0.82513639  0.02575726  0.62037478  1
  Cl  Cl32  1  0.35601049  0.54596949  0.88905964  1
  Cl  Cl33  1  0.64398951  0.95403051  0.38905964  1
  Cl  Cl34  1  0.64398951  0.45403051  0.11094036  1
  Cl  Cl35  1  0.35601049  0.04596949  0.61094036  1
  Cl  Cl36  1  0.84504081  0.31030014  0.26291005  1
  Cl  Cl37  1  0.15495919  0.18969986  0.76291005  1
  Cl  Cl38  1  0.15495919  0.68969986  0.73708995  1
  Cl  Cl39  1  0.84504081  0.81030014  0.23708995  1
  Cl  Cl40  1  0.51717967  0.20629444  0.41458749  1
  Cl  Cl41  1  0.48282033  0.29370556  0.91458749  1
  Cl  Cl42  1  0.48282033  0.79370556  0.58541251  1
  Cl  Cl43  1  0.51717967  0.70629444  0.08541251  1
  Cl  Cl44  1  0.99199403  0.18482212  0.43739961  1
  Cl  Cl45  1  0.00800597  0.31517788  0.93739961  1
  Cl  Cl46  1  0.00800597  0.81517788  0.56260039  1
  Cl  Cl47  1  0.99199403  0.68482212  0.06260039  1
  Cl  Cl48  1  0.82235259  0.39976805  0.47801047  1
  Cl  Cl49  1  0.17764741  0.10023195  0.97801047  1
  Cl  Cl50  1  0.17764741  0.60023195  0.52198953  1
  Cl  Cl51  1  0.82235259  0.89976805  0.02198953  1
