# generated using pymatgen
data_V2Pb4(Se2O7)3
_symmetry_space_group_name_H-M   'P 1'
_cell_length_a   9.12041599
_cell_length_b   9.12041599
_cell_length_c   14.26665291
_cell_angle_alpha   107.37284889
_cell_angle_beta   107.37284889
_cell_angle_gamma   93.77640017
_symmetry_Int_Tables_number   1
_chemical_formula_structural   V2Pb4(Se2O7)3
_chemical_formula_sum   'V4 Pb8 Se12 O42'
_cell_volume   1065.15599492
_cell_formula_units_Z   2
loop_
 _symmetry_equiv_pos_site_id
 _symmetry_equiv_pos_as_xyz
  1  'x, y, z'
loop_
 _atom_site_type_symbol
 _atom_site_label
 _atom_site_symmetry_multiplicity
 _atom_site_fract_x
 _atom_site_fract_y
 _atom_site_fract_z
 _atom_site_occupancy
  V  V0  1  0.17544907  0.30350357  0.76525206  1
  V  V1  1  0.69649643  0.82455093  0.23474794  1
  V  V2  1  0.66019701  0.28825150  0.73474794  1
  V  V3  1  0.71174850  0.33980299  0.26525206  1
  Pb  Pb4  1  0.64623947  0.84792544  0.75687497  1
  Pb  Pb5  1  0.15207456  0.35376053  0.24312503  1
  Pb  Pb6  1  0.13936450  0.84105047  0.74312503  1
  Pb  Pb7  1  0.15894953  0.86063550  0.25687497  1
  Pb  Pb8  1  0.36779936  0.00590450  0.08110910  1
  Pb  Pb9  1  0.99409550  0.63220064  0.91889090  1
  Pb  Pb10  1  0.53669025  0.67479539  0.41889090  1
  Pb  Pb11  1  0.32520461  0.46330975  0.58110910  1
  Se  Se12  1  0.49473981  0.18783365  0.89858823  1
  Se  Se13  1  0.81216635  0.50526019  0.10141177  1
  Se  Se14  1  0.84615158  0.03924542  0.60141177  1
  Se  Se15  1  0.96075458  0.15384842  0.39858823  1
  Se  Se16  1  0.02989605  0.15010995  0.94269992  1
  Se  Se17  1  0.84989005  0.97010395  0.05730008  1
  Se  Se18  1  0.33719613  0.95741003  0.55730008  1
  Se  Se19  1  0.04258997  0.66280387  0.44269992  1
  Se  Se20  1  0.42561336  0.64674971  0.87822845  1
  Se  Se21  1  0.35325029  0.57438664  0.12177155  1
  Se  Se22  1  0.79738491  0.51852125  0.62177155  1
  Se  Se23  1  0.48147875  0.20261509  0.37822845  1
  O  O24  1  0.14840896  0.36400559  0.66174808  1
  O  O25  1  0.63599441  0.85159104  0.33825192  1
  O  O26  1  0.73666087  0.45225751  0.83825192  1
  O  O27  1  0.54774249  0.26333913  0.16174808  1
  O  O28  1  0.06767660  0.38671162  0.83629801  1
  O  O29  1  0.61328838  0.93232340  0.16370199  1
  O  O30  1  0.48137860  0.30041361  0.66370199  1
  O  O31  1  0.69958639  0.51862140  0.33629801  1
  O  O32  1  0.37159833  0.44681934  0.85307382  1
  O  O33  1  0.55318066  0.62840167  0.14692618  1
  O  O34  1  0.76852451  0.34374552  0.64692618  1
  O  O35  1  0.65625448  0.23147549  0.35307382  1
  O  O36  1  0.30052431  0.15154052  0.81223599  1
  O  O37  1  0.84845948  0.69947569  0.18776401  1
  O  O38  1  0.73828832  0.08930453  0.68776401  1
  O  O39  1  0.91069547  0.26171168  0.31223599  1
  O  O40  1  0.59645925  0.15210335  0.80890725  1
  O  O41  1  0.84789665  0.40354075  0.19109275  1
  O  O42  1  0.03755200  0.09319610  0.69109275  1
  O  O43  1  0.90680390  0.96244800  0.30890725  1
  O  O44  1  0.49258479  0.01623783  0.92042152  1
  O  O45  1  0.98376217  0.50741521  0.07957848  1
  O  O46  1  0.82216327  0.84581631  0.57957848  1
  O  O47  1  0.15418369  0.17783673  0.42042152  1
  O  O48  1  0.19071816  0.21983153  0.05031188  1
  O  O49  1  0.78016847  0.80928184  0.94968812  1
  O  O50  1  0.39040627  0.91951965  0.44968812  1
  O  O51  1  0.08048035  0.60959373  0.55031188  1
  O  O52  1  0.04725910  0.96034699  0.88745545  1
  O  O53  1  0.03965301  0.95274090  0.11254455  1
  O  O54  1  0.40980365  0.82289154  0.61254455  1
  O  O55  1  0.17710846  0.59019635  0.38745545  1
  O  O56  1  0.87571948  0.12428052  -0.00000000  1
  O  O57  1  0.12571948  0.87428052  0.50000000  1
  O  O58  1  0.26036354  0.72351486  0.88636431  1
  O  O59  1  0.27648514  0.73963646  0.11363569  1
  O  O60  1  0.62399922  0.58715055  0.61363569  1
  O  O61  1  0.41284945  0.37600078  0.38636431  1
  O  O62  1  0.42671621  0.66014738  0.75938511  1
  O  O63  1  0.33985262  0.57328379  0.24061489  1
  O  O64  1  0.91733110  0.65076227  0.74061489  1
  O  O65  1  0.34923773  0.08266890  0.25938511  1
