# generated using pymatgen
data_Cs2TiP4O13
_symmetry_space_group_name_H-M   'P 1'
_cell_length_a   5.21970754
_cell_length_b   8.12170283
_cell_length_c   16.05204552
_cell_angle_alpha   84.22910940
_cell_angle_beta   83.93935167
_cell_angle_gamma   80.49839925
_symmetry_Int_Tables_number   1
_chemical_formula_structural   Cs2TiP4O13
_chemical_formula_sum   'Cs4 Ti2 P8 O26'
_cell_volume   665.00471203
_cell_formula_units_Z   2
loop_
 _symmetry_equiv_pos_site_id
 _symmetry_equiv_pos_as_xyz
  1  'x, y, z'
loop_
 _atom_site_type_symbol
 _atom_site_label
 _atom_site_symmetry_multiplicity
 _atom_site_fract_x
 _atom_site_fract_y
 _atom_site_fract_z
 _atom_site_occupancy
  Cs  Cs0  1  0.67564873  0.74330473  0.98859722  1
  Cs  Cs1  1  0.32435127  0.25669527  0.01140278  1
  Cs  Cs2  1  0.26673137  0.29878787  0.52978664  1
  Cs  Cs3  1  0.73326863  0.70121213  0.47021336  1
  Ti  Ti4  1  0.44529398  0.05763599  0.26031612  1
  Ti  Ti5  1  0.55470602  0.94236401  0.73968388  1
  P  P6  1  0.87502681  0.21982320  0.35125254  1
  P  P7  1  0.12497319  0.78017680  0.64874746  1
  P  P8  1  0.66609730  0.40604306  0.19604964  1
  P  P9  1  0.33390270  0.59395694  0.80395036  1
  P  P10  1  0.31482734  0.67360688  0.28699858  1
  P  P11  1  0.68517266  0.32639312  0.71300142  1
  P  P12  1  0.02186894  0.90117769  0.16369899  1
  P  P13  1  0.97813106  0.09882231  0.83630101  1
  O  O14  1  0.70763306  0.08710210  0.33330337  1
  O  O15  1  0.29236694  0.91289790  0.66669663  1
  O  O16  1  0.78921609  0.29992169  0.43135303  1
  O  O17  1  0.21078391  0.70007831  0.56864697  1
  O  O18  1  0.84951770  0.36266715  0.27133949  1
  O  O19  1  0.15048230  0.63733285  0.72866051  1
  O  O20  1  0.16690721  0.14236569  0.34480323  1
  O  O21  1  0.83309279  0.85763431  0.65519677  1
  O  O22  1  0.51338127  0.59135254  0.21237586  1
  O  O23  1  0.48661873  0.40864746  0.78762414  1
  O  O24  1  0.81243536  0.41889035  0.11184163  1
  O  O25  1  0.18756464  0.58110965  0.88815837  1
  O  O26  1  0.46487752  0.28505826  0.20828899  1
  O  O27  1  0.53512248  0.71494174  0.79171101  1
  O  O28  1  0.43313351  0.82486175  0.30783085  1
  O  O29  1  0.56686649  0.17513825  0.69216915  1
  O  O30  1  0.06031078  0.74784547  0.23950626  1
  O  O31  1  0.93968922  0.25215453  0.76049374  1
  O  O32  1  0.25713900  0.55228801  0.35868803  1
  O  O33  1  0.74286100  0.44771199  0.64131197  1
  O  O34  1  0.11737947  0.83682224  0.08035009  1
  O  O35  1  0.88262053  0.16317776  0.91964991  1
  O  O36  1  0.72748106  0.96765666  0.17450252  1
  O  O37  1  0.27251894  0.03234334  0.82549748  1
  O  O38  1  0.18162767  0.03307487  0.18798091  1
  O  O39  1  0.81837233  0.96692513  0.81201909  1
