# generated using pymatgen
data_Mg6GaSb
_symmetry_space_group_name_H-M   'P 1'
_cell_length_a   6.26059791
_cell_length_b   6.43313583
_cell_length_c   5.21466970
_cell_angle_alpha   90.00000000
_cell_angle_beta   90.00000000
_cell_angle_gamma   120.91592641
_symmetry_Int_Tables_number   1
_chemical_formula_structural   Mg6GaSb
_chemical_formula_sum   'Mg6 Ga1 Sb1'
_cell_volume   180.18274778
_cell_formula_units_Z   1
loop_
 _symmetry_equiv_pos_site_id
 _symmetry_equiv_pos_as_xyz
  1  'x, y, z'
loop_
 _atom_site_type_symbol
 _atom_site_label
 _atom_site_symmetry_multiplicity
 _atom_site_fract_x
 _atom_site_fract_y
 _atom_site_fract_z
 _atom_site_occupancy
  Mg  Mg0  1  0.66781896  0.33314934  0.25000000  1
  Mg  Mg1  1  0.66781896  0.83466862  0.25000000  1
  Mg  Mg2  1  0.33170643  0.17041742  0.75000000  1
  Mg  Mg3  1  0.33170643  0.66129001  0.75000000  1
  Mg  Mg4  1  0.83739458  0.16869779  0.75000000  1
  Mg  Mg5  1  0.83255105  0.66627603  0.75000000  1
  Ga  Ga6  1  0.16518576  0.33259238  0.25000000  1
  Sb  Sb7  1  0.16581783  0.83290842  0.25000000  1
