# generated using pymatgen
data_Ce5P12Ru19
_symmetry_space_group_name_H-M   'P 1'
_cell_length_a   3.98236487
_cell_length_b   12.63636669
_cell_length_c   12.63555371
_cell_angle_alpha   120.00213268
_cell_angle_beta   90.00000000
_cell_angle_gamma   90.00000000
_symmetry_Int_Tables_number   1
_chemical_formula_structural   Ce5P12Ru19
_chemical_formula_sum   'Ce5 P12 Ru19'
_cell_volume   550.65405842
_cell_formula_units_Z   1
loop_
 _symmetry_equiv_pos_site_id
 _symmetry_equiv_pos_as_xyz
  1  'x, y, z'
loop_
 _atom_site_type_symbol
 _atom_site_label
 _atom_site_symmetry_multiplicity
 _atom_site_fract_x
 _atom_site_fract_y
 _atom_site_fract_z
 _atom_site_occupancy
  Ce  Ce0  1  0.50000000  0.99993805  0.18554448  1
  Ce  Ce1  1  0.50000000  0.18557143  1.00000000  1
  Ce  Ce2  1  0.50000000  0.81439357  0.81445552  1
  Ce  Ce3  1  -0.00000000  0.33330570  0.66667459  1
  Ce  Ce4  1  0.00000000  0.66663110  0.33332541  1
  P  P5  1  -0.00000000  0.00005733  0.81421964  1
  P  P6  1  -0.00000000  0.81423252  0.00000000  1
  P  P7  1  -0.00000000  0.18583769  0.18578036  1
  P  P8  1  0.50000000  0.30651886  0.47663235  1
  P  P9  1  0.50000000  0.17011874  0.69350046  1
  P  P10  1  0.50000000  0.52335758  0.82990721  1
  P  P11  1  0.50000000  0.82988651  0.52336765  1
  P  P12  1  0.50000000  0.47661828  0.30649954  1
  P  P13  1  0.50000000  0.69345037  0.17009279  1
  P  P14  1  0.00000000  0.99998008  0.37372581  1
  P  P15  1  0.00000000  0.37379600  1.00000000  1
  P  P16  1  0.00000000  0.62625427  0.62627419  1
  Ru  Ru17  1  0.00000000  0.00000107  0.55465124  1
  Ru  Ru18  1  -0.00000000  0.55467226  0.00000000  1
  Ru  Ru19  1  0.00000000  0.44534983  0.44534876  1
  Ru  Ru20  1  0.50000000  0.99998360  0.71627369  1
  Ru  Ru21  1  0.50000000  0.71629140  1.00000000  1
  Ru  Ru22  1  0.50000000  0.28370992  0.28372631  1
  Ru  Ru23  1  -0.00000000  0.19278458  0.37643669  1
  Ru  Ru24  1  0.00000000  0.18366941  0.80716947  1
  Ru  Ru25  1  -0.00000000  0.62353350  0.81632707  1
  Ru  Ru26  1  -0.00000000  0.81634790  0.62356331  1
  Ru  Ru27  1  -0.00000000  0.37649995  0.19283053  1
  Ru  Ru28  1  0.00000000  0.80720643  0.18367293  1
  Ru  Ru29  1  0.50000000  0.12627618  0.49187744  1
  Ru  Ru30  1  0.50000000  0.36559346  0.87376888  1
  Ru  Ru31  1  0.50000000  0.50809854  0.63436507  1
  Ru  Ru32  1  0.50000000  0.63439874  0.50812256  1
  Ru  Ru33  1  0.50000000  0.49182457  0.12623112  1
  Ru  Ru34  1  0.50000000  0.87373348  0.36563493  1
  Ru  Ru35  1  -0.00000000  0.99997711  1.00000000  1
