# generated using pymatgen
data_NaAuS
_symmetry_space_group_name_H-M   'P 1'
_cell_length_a   7.19171046
_cell_length_b   13.06986507
_cell_length_c   13.06986507
_cell_angle_alpha   110.59937273
_cell_angle_beta   90.00000000
_cell_angle_gamma   90.00000000
_symmetry_Int_Tables_number   1
_chemical_formula_structural   NaAuS
_chemical_formula_sum   'Na16 Au16 S16'
_cell_volume   1149.95186430
_cell_formula_units_Z   16
loop_
 _symmetry_equiv_pos_site_id
 _symmetry_equiv_pos_as_xyz
  1  'x, y, z'
loop_
 _atom_site_type_symbol
 _atom_site_label
 _atom_site_symmetry_multiplicity
 _atom_site_fract_x
 _atom_site_fract_y
 _atom_site_fract_z
 _atom_site_occupancy
  Na  Na0  1  0.75000000  0.00088185  0.50088185  1
  Na  Na1  1  0.25000000  0.99911815  0.49911815  1
  Na  Na2  1  0.25000000  0.50088185  0.00088185  1
  Na  Na3  1  0.75000000  0.49911815  0.99911815  1
  Na  Na4  1  0.75000000  0.36265206  0.63734794  1
  Na  Na5  1  0.25000000  0.86265206  0.13734794  1
  Na  Na6  1  0.25000000  0.63734794  0.36265206  1
  Na  Na7  1  0.75000000  0.13734794  0.86265206  1
  Na  Na8  1  0.09089506  0.74441478  0.87616495  1
  Na  Na9  1  0.59089506  0.62383505  0.75558522  1
  Na  Na10  1  0.59089506  0.87616495  0.74441478  1
  Na  Na11  1  0.09089506  0.75558522  0.62383505  1
  Na  Na12  1  0.90910494  0.25558522  0.12383505  1
  Na  Na13  1  0.40910494  0.37616495  0.24441478  1
  Na  Na14  1  0.40910494  0.12383505  0.25558522  1
  Na  Na15  1  0.90910494  0.24441478  0.37616495  1
  Au  Au16  1  0.22046779  0.00578403  0.75331222  1
  Au  Au17  1  0.72046779  0.74668778  0.49421597  1
  Au  Au18  1  0.72046779  0.75331222  0.00578403  1
  Au  Au19  1  0.22046779  0.49421597  0.74668778  1
  Au  Au20  1  0.77953221  0.99421597  0.24668778  1
  Au  Au21  1  0.27953221  0.25331222  0.50578403  1
  Au  Au22  1  0.27953221  0.24668778  0.99421597  1
  Au  Au23  1  0.77953221  0.50578403  0.25331222  1
  Au  Au24  1  0.46911453  0.25000000  0.75000000  1
  Au  Au25  1  0.96911453  0.75000000  0.25000000  1
  Au  Au26  1  0.53088547  0.75000000  0.25000000  1
  Au  Au27  1  0.03088547  0.25000000  0.75000000  1
  Au  Au28  1  -0.00000000  0.00000000  -0.00000000  1
  Au  Au29  1  0.50000000  0.50000000  0.50000000  1
  Au  Au30  1  0.50000000  0.00000000  -0.00000000  1
  Au  Au31  1  -0.00000000  0.50000000  0.50000000  1
  S  S32  1  0.48909021  0.05871968  0.68362609  1
  S  S33  1  0.98909021  0.81637391  0.44128032  1
  S  S34  1  0.98909021  0.68362609  0.05871968  1
  S  S35  1  0.48909021  0.44128032  0.81637391  1
  S  S36  1  0.51090979  0.94128032  0.31637391  1
  S  S37  1  0.01090979  0.18362609  0.55871968  1
  S  S38  1  0.01090979  0.31637391  0.94128032  1
  S  S39  1  0.51090979  0.55871968  0.18362609  1
  S  S40  1  0.96279886  0.93151326  0.81046056  1
  S  S41  1  0.46279886  0.68953944  0.56848674  1
  S  S42  1  0.46279886  0.81046056  0.93151326  1
  S  S43  1  0.96279886  0.56848674  0.68953944  1
  S  S44  1  0.03720114  0.06848674  0.18953944  1
  S  S45  1  0.53720114  0.31046056  0.43151326  1
  S  S46  1  0.53720114  0.18953944  0.06848674  1
  S  S47  1  0.03720114  0.43151326  0.31046056  1
