# generated using pymatgen
data_Lu2Mn3Si5
_symmetry_space_group_name_H-M   'P 1'
_cell_length_a   5.32885388
_cell_length_b   10.47864813
_cell_length_c   10.47864813
_cell_angle_alpha   90.00000000
_cell_angle_beta   90.00000000
_cell_angle_gamma   90.00000000
_symmetry_Int_Tables_number   1
_chemical_formula_structural   Lu2Mn3Si5
_chemical_formula_sum   'Lu8 Mn12 Si20'
_cell_volume   585.11916881
_cell_formula_units_Z   4
loop_
 _symmetry_equiv_pos_site_id
 _symmetry_equiv_pos_as_xyz
  1  'x, y, z'
loop_
 _atom_site_type_symbol
 _atom_site_label
 _atom_site_symmetry_multiplicity
 _atom_site_fract_x
 _atom_site_fract_y
 _atom_site_fract_z
 _atom_site_occupancy
  Lu  Lu0  1  0.50000000  0.73809810  0.57299017  1
  Lu  Lu1  1  0.50000000  0.26190190  0.42700983  1
  Lu  Lu2  1  -0.00000000  0.76190190  0.07299017  1
  Lu  Lu3  1  -0.00000000  0.23809810  0.92700983  1
  Lu  Lu4  1  0.50000000  0.57299017  0.26190190  1
  Lu  Lu5  1  0.50000000  0.42700983  0.73809810  1
  Lu  Lu6  1  -0.00000000  0.07299017  0.23809810  1
  Lu  Lu7  1  -0.00000000  0.92700983  0.76190190  1
  Mn  Mn8  1  0.50000000  0.85539177  0.87711308  1
  Mn  Mn9  1  0.50000000  0.14460823  0.12288692  1
  Mn  Mn10  1  -0.00000000  0.64460823  0.37711308  1
  Mn  Mn11  1  -0.00000000  0.35539177  0.62288692  1
  Mn  Mn12  1  0.50000000  0.87711308  0.14460823  1
  Mn  Mn13  1  0.50000000  0.12288692  0.85539177  1
  Mn  Mn14  1  -0.00000000  0.37711308  0.35539177  1
  Mn  Mn15  1  -0.00000000  0.62288692  0.64460823  1
  Mn  Mn16  1  0.25000000  0.00000000  0.50000000  1
  Mn  Mn17  1  0.75000000  0.50000000  -0.00000000  1
  Mn  Mn18  1  0.25000000  0.50000000  -0.00000000  1
  Mn  Mn19  1  0.75000000  0.00000000  0.50000000  1
  Si  Si20  1  0.25000000  0.17794480  0.67794480  1
  Si  Si21  1  0.25000000  0.82205520  0.32205520  1
  Si  Si22  1  0.75000000  0.32205520  0.17794480  1
  Si  Si23  1  0.75000000  0.67794480  0.82205520  1
  Si  Si24  1  0.25000000  0.67794480  0.82205520  1
  Si  Si25  1  0.25000000  0.32205520  0.17794480  1
  Si  Si26  1  0.75000000  0.17794480  0.67794480  1
  Si  Si27  1  0.75000000  0.82205520  0.32205520  1
  Si  Si28  1  0.24860112  0.50000000  0.50000000  1
  Si  Si29  1  0.74860112  0.00000000  -0.00000000  1
  Si  Si30  1  0.75139888  0.50000000  0.50000000  1
  Si  Si31  1  0.25139888  0.00000000  -0.00000000  1
  Si  Si32  1  0.50000000  0.97596164  0.68566653  1
  Si  Si33  1  0.50000000  0.02403836  0.31433347  1
  Si  Si34  1  -0.00000000  0.52403836  0.18566653  1
  Si  Si35  1  -0.00000000  0.47596164  0.81433347  1
  Si  Si36  1  0.50000000  0.68566653  0.02403836  1
  Si  Si37  1  0.50000000  0.31433347  0.97596164  1
  Si  Si38  1  -0.00000000  0.18566653  0.47596164  1
  Si  Si39  1  -0.00000000  0.81433347  0.52403836  1
