# generated using pymatgen
data_K2MgP4(HO2)8
_symmetry_space_group_name_H-M   'P 1'
_cell_length_a   6.99132925
_cell_length_b   7.51962320
_cell_length_c   7.63144878
_cell_angle_alpha   82.11440325
_cell_angle_beta   74.66529045
_cell_angle_gamma   84.12359733
_symmetry_Int_Tables_number   1
_chemical_formula_structural   K2MgP4(HO2)8
_chemical_formula_sum   'K2 Mg1 P4 H8 O16'
_cell_volume   382.34061185
_cell_formula_units_Z   1
loop_
 _symmetry_equiv_pos_site_id
 _symmetry_equiv_pos_as_xyz
  1  'x, y, z'
loop_
 _atom_site_type_symbol
 _atom_site_label
 _atom_site_symmetry_multiplicity
 _atom_site_fract_x
 _atom_site_fract_y
 _atom_site_fract_z
 _atom_site_occupancy
  K  K0  1  0.62455892  0.23823522  0.79037100  1
  K  K1  1  0.37544108  0.76176478  0.20962900  1
  Mg  Mg2  1  0.00000000  -0.00000000  -0.00000000  1
  P  P3  1  0.24216620  0.68460191  0.74823123  1
  P  P4  1  0.75783380  0.31539809  0.25176877  1
  P  P5  1  0.82350823  0.76729092  0.74639740  1
  P  P6  1  0.17649177  0.23270908  0.25360260  1
  H  H7  1  0.54320360  0.76565507  0.58752707  1
  H  H8  1  0.45679640  0.23434493  0.41247293  1
  H  H9  1  0.75113959  0.55004573  0.97616288  1
  H  H10  1  0.24886041  0.44995427  0.02383712  1
  H  H11  1  0.87249945  0.82428983  0.35877365  1
  H  H12  1  0.12750055  0.17571017  0.64122635  1
  H  H13  1  0.89110093  0.69173581  0.21150954  1
  H  H14  1  0.10889907  0.30826419  0.78849046  1
  O  O15  1  0.22935555  0.81960023  0.88082018  1
  O  O16  1  0.77064445  0.18039977  0.11917982  1
  O  O17  1  0.41658650  0.71390334  0.57145534  1
  O  O18  1  0.58341350  0.28609666  0.42854466  1
  O  O19  1  0.24340041  0.48756465  0.83169126  1
  O  O20  1  0.75659959  0.51243535  0.16830874  1
  O  O21  1  0.05731198  0.72124103  0.65271273  1
  O  O22  1  0.94268802  0.27875897  0.34728727  1
  O  O23  1  0.80295826  0.89717791  0.88590105  1
  O  O24  1  0.19704174  0.10282209  0.11409895  1
  O  O25  1  0.73469733  0.83194817  0.58605286  1
  O  O26  1  0.26530267  0.16805183  0.41394714  1
  O  O27  1  0.73584278  0.58273584  0.84198457  1
  O  O28  1  0.26415722  0.41726416  0.15801543  1
  O  O29  1  0.94668514  0.80040702  0.23274862  1
  O  O30  1  0.05331486  0.19959298  0.76725138  1
