# generated using pymatgen
data_Tm10S19
_symmetry_space_group_name_H-M   'P 1'
_cell_length_a   8.53860052
_cell_length_b   8.53860052
_cell_length_c   15.60959492
_cell_angle_alpha   90.00000000
_cell_angle_beta   90.00000000
_cell_angle_gamma   90.00000000
_symmetry_Int_Tables_number   1
_chemical_formula_structural   Tm10S19
_chemical_formula_sum   'Tm20 S38'
_cell_volume   1138.05964544
_cell_formula_units_Z   2
loop_
 _symmetry_equiv_pos_site_id
 _symmetry_equiv_pos_as_xyz
  1  'x, y, z'
loop_
 _atom_site_type_symbol
 _atom_site_label
 _atom_site_symmetry_multiplicity
 _atom_site_fract_x
 _atom_site_fract_y
 _atom_site_fract_z
 _atom_site_occupancy
  Tm  Tm0  1  0.75000000  0.25000000  0.38434783  1
  Tm  Tm1  1  0.75000000  0.25000000  0.88434783  1
  Tm  Tm2  1  0.25000000  0.75000000  0.61565217  1
  Tm  Tm3  1  0.25000000  0.75000000  0.11565217  1
  Tm  Tm4  1  0.55394823  0.64503647  0.39552459  1
  Tm  Tm5  1  0.94605177  0.85496353  0.39552459  1
  Tm  Tm6  1  0.14503647  0.44605177  0.89552459  1
  Tm  Tm7  1  0.35496353  0.05394823  0.89552459  1
  Tm  Tm8  1  0.44605177  0.35496353  0.60447541  1
  Tm  Tm9  1  0.05394823  0.14503647  0.60447541  1
  Tm  Tm10  1  0.85496353  0.55394823  0.10447541  1
  Tm  Tm11  1  0.64503647  0.94605177  0.10447541  1
  Tm  Tm12  1  0.34880399  0.04071793  0.37843510  1
  Tm  Tm13  1  0.15119601  0.45928207  0.37843510  1
  Tm  Tm14  1  0.54071793  0.65119601  0.87843510  1
  Tm  Tm15  1  0.95928207  0.84880399  0.87843510  1
  Tm  Tm16  1  0.65119601  0.95928207  0.62156490  1
  Tm  Tm17  1  0.84880399  0.54071793  0.62156490  1
  Tm  Tm18  1  0.45928207  0.34880399  0.12156490  1
  Tm  Tm19  1  0.04071793  0.15119601  0.12156490  1
  S  S20  1  0.56959435  0.11690051  0.25038750  1
  S  S21  1  0.93040565  0.38309949  0.25038750  1
  S  S22  1  0.61690051  0.43040565  0.75038750  1
  S  S23  1  0.88309949  0.06959435  0.75038750  1
  S  S24  1  0.43040565  0.88309949  0.74961250  1
  S  S25  1  0.06959435  0.61690051  0.74961250  1
  S  S26  1  0.38309949  0.56959435  0.24961250  1
  S  S27  1  0.11690051  0.93040565  0.24961250  1
  S  S28  1  0.80873369  0.02836069  0.25026867  1
  S  S29  1  0.69126631  0.47163931  0.25026867  1
  S  S30  1  0.52836069  0.19126631  0.75026867  1
  S  S31  1  0.97163931  0.30873369  0.75026867  1
  S  S32  1  0.19126631  0.97163931  0.74973133  1
  S  S33  1  0.30873369  0.52836069  0.74973133  1
  S  S34  1  0.47163931  0.80873369  0.24973133  1
  S  S35  1  0.02836069  0.69126631  0.24973133  1
  S  S36  1  0.85093569  0.55346993  0.43854637  1
  S  S37  1  0.64906431  0.94653007  0.43854637  1
  S  S38  1  0.05346993  0.14906431  0.93854637  1
  S  S39  1  0.44653007  0.35093569  0.93854637  1
  S  S40  1  0.14906431  0.44653007  0.56145363  1
  S  S41  1  0.35093569  0.05346993  0.56145363  1
  S  S42  1  0.94653007  0.85093569  0.06145363  1
  S  S43  1  0.55346993  0.64906431  0.06145363  1
  S  S44  1  0.04871106  0.15158708  0.42845647  1
  S  S45  1  0.45128894  0.34841292  0.42845647  1
  S  S46  1  0.65158708  0.95128894  0.92845647  1
  S  S47  1  0.84841292  0.54871106  0.92845647  1
  S  S48  1  0.95128894  0.84841292  0.57154353  1
  S  S49  1  0.54871106  0.65158708  0.57154353  1
  S  S50  1  0.34841292  0.04871106  0.07154353  1
  S  S51  1  0.15158708  0.45128894  0.07154353  1
  S  S52  1  0.25000000  0.75000000  0.43536423  1
  S  S53  1  0.25000000  0.75000000  0.93536423  1
  S  S54  1  0.75000000  0.25000000  0.56463577  1
  S  S55  1  0.75000000  0.25000000  0.06463577  1
  S  S56  1  0.25000000  0.25000000  0.25000000  1
  S  S57  1  0.75000000  0.75000000  0.75000000  1
