# generated using pymatgen
data_Na4Fe3P4O15
_symmetry_space_group_name_H-M   'P 1'
_cell_length_a   6.60584930
_cell_length_b   10.81443995
_cell_length_c   18.44405049
_cell_angle_alpha   90.00000000
_cell_angle_beta   90.00000000
_cell_angle_gamma   90.00000000
_symmetry_Int_Tables_number   1
_chemical_formula_structural   Na4Fe3P4O15
_chemical_formula_sum   'Na16 Fe12 P16 O60'
_cell_volume   1317.61641815
_cell_formula_units_Z   4
loop_
 _symmetry_equiv_pos_site_id
 _symmetry_equiv_pos_as_xyz
  1  'x, y, z'
loop_
 _atom_site_type_symbol
 _atom_site_label
 _atom_site_symmetry_multiplicity
 _atom_site_fract_x
 _atom_site_fract_y
 _atom_site_fract_z
 _atom_site_occupancy
  Na  Na0  1  0.83524518  0.51891135  0.99116564  1
  Na  Na1  1  0.33524518  0.48108865  0.00883436  1
  Na  Na2  1  0.33524518  0.01891135  0.50883436  1
  Na  Na3  1  0.83524518  0.98108865  0.49116564  1
  Na  Na4  1  0.87386527  0.75328995  0.79519286  1
  Na  Na5  1  0.37386527  0.24671005  0.20480714  1
  Na  Na6  1  0.37386527  0.25328995  0.70480714  1
  Na  Na7  1  0.87386527  0.74671005  0.29519286  1
  Na  Na8  1  0.46170487  0.23292254  0.89614367  1
  Na  Na9  1  0.96170487  0.76707746  0.10385633  1
  Na  Na10  1  0.96170487  0.73292254  0.60385633  1
  Na  Na11  1  0.46170487  0.26707746  0.39614367  1
  Na  Na12  1  0.70051423  0.95635901  0.96368610  1
  Na  Na13  1  0.20051423  0.04364099  0.03631390  1
  Na  Na14  1  0.20051423  0.45635901  0.53631390  1
  Na  Na15  1  0.70051423  0.54364099  0.46368610  1
  Fe  Fe16  1  0.13693943  0.99740814  0.83587469  1
  Fe  Fe17  1  0.63693943  0.00259186  0.16412531  1
  Fe  Fe18  1  0.63693943  0.49740814  0.66412531  1
  Fe  Fe19  1  0.13693943  0.50259186  0.33587469  1
  Fe  Fe20  1  0.61982915  0.00466262  0.64059853  1
  Fe  Fe21  1  0.11982915  0.99533738  0.35940147  1
  Fe  Fe22  1  0.11982915  0.50466262  0.85940147  1
  Fe  Fe23  1  0.61982915  0.49533738  0.14059853  1
  Fe  Fe24  1  0.35329186  0.75462050  0.73999309  1
  Fe  Fe25  1  0.85329186  0.24537950  0.26000691  1
  Fe  Fe26  1  0.85329186  0.25462050  0.76000691  1
  Fe  Fe27  1  0.35329186  0.74537950  0.23999309  1
  P  P28  1  0.62452905  0.99754218  0.79531220  1
  P  P29  1  0.12452905  0.00245782  0.20468780  1
  P  P30  1  0.12452905  0.49754218  0.70468780  1
  P  P31  1  0.62452905  0.50245782  0.29531220  1
  P  P32  1  0.11244418  0.01001268  0.68012992  1
  P  P33  1  0.61244418  0.98998732  0.31987008  1
  P  P34  1  0.61244418  0.51001268  0.81987008  1
  P  P35  1  0.11244418  0.48998732  0.18012992  1
  P  P36  1  0.48496021  0.75853749  0.06604836  1
  P  P37  1  0.98496021  0.24146251  0.93395164  1
  P  P38  1  0.98496021  0.25853749  0.43395164  1
  P  P39  1  0.48496021  0.74146251  0.56604836  1
  P  P40  1  0.17050165  0.77203980  0.94894194  1
  P  P41  1  0.67050165  0.22796020  0.05105806  1
  P  P42  1  0.67050165  0.27203980  0.55105806  1
  P  P43  1  0.17050165  0.72796020  0.44894194  1
  O  O44  1  0.58429331  0.88801487  0.74121173  1
  O  O45  1  0.08429331  0.11198513  0.25878827  1
  O  O46  1  0.08429331  0.38801487  0.75878827  1
  O  O47  1  0.58429331  0.61198513  0.24121173  1
  O  O48  1  0.44843550  0.02329527  0.84783405  1
  O  O49  1  0.94843550  0.97670473  0.15216595  1
  O  O50  1  0.94843550  0.52329527  0.65216595  1
  O  O51  1  0.44843550  0.47670473  0.34783405  1
  O  O52  1  0.81637696  0.96663475  0.84005070  1
  O  O53  1  0.31637696  0.03336525  0.15994930  1
  O  O54  1  0.31637696  0.46663475  0.65994930  1
  O  O55  1  0.81637696  0.53336525  0.34005070  1
  O  O56  1  0.64828989  0.11221623  0.74339556  1
  O  O57  1  0.14828989  0.88778377  0.25660444  1
  O  O58  1  0.14828989  0.61221623  0.75660444  1
  O  O59  1  0.64828989  0.38778377  0.24339556  1
  O  O60  1  0.13421675  0.89505696  0.73180708  1
  O  O61  1  0.63421675  0.10494304  0.26819292  1
  O  O62  1  0.63421675  0.39505696  0.76819292  1
  O  O63  1  0.13421675  0.60494304  0.23180708  1
  O  O64  1  0.93199697  0.98613159  0.62845044  1
  O  O65  1  0.43199697  0.01386841  0.37154956  1
  O  O66  1  0.43199697  0.48613159  0.87154956  1
  O  O67  1  0.93199697  0.51386841  0.12845044  1
  O  O68  1  0.07997275  0.12226234  0.73334550  1
  O  O69  1  0.57997275  0.87773766  0.26665450  1
  O  O70  1  0.57997275  0.62226234  0.76665450  1
  O  O71  1  0.07997275  0.37773766  0.23334550  1
  O  O72  1  0.30704309  0.03672947  0.63619141  1
  O  O73  1  0.80704309  0.96327053  0.36380859  1
  O  O74  1  0.80704309  0.53672947  0.86380859  1
  O  O75  1  0.30704309  0.46327053  0.13619141  1
  O  O76  1  0.39705187  0.79707628  0.98567086  1
  O  O77  1  0.89705187  0.20292372  0.01432914  1
  O  O78  1  0.89705187  0.29707628  0.51432914  1
  O  O79  1  0.39705187  0.70292372  0.48567086  1
  O  O80  1  0.59149389  0.63338430  0.05483610  1
  O  O81  1  0.09149389  0.36661570  0.94516390  1
  O  O82  1  0.09149389  0.13338430  0.44516390  1
  O  O83  1  0.59149389  0.86661570  0.55483610  1
  O  O84  1  0.31237998  0.75354803  0.12086064  1
  O  O85  1  0.81237998  0.24645197  0.87913936  1
  O  O86  1  0.81237998  0.25354803  0.37913936  1
  O  O87  1  0.31237998  0.74645197  0.62086064  1
  O  O88  1  0.63702351  0.86247676  0.08171299  1
  O  O89  1  0.13702351  0.13752324  0.91828701  1
  O  O90  1  0.13702351  0.36247676  0.41828701  1
  O  O91  1  0.63702351  0.63752324  0.58171299  1
  O  O92  1  0.12692887  0.63291278  0.95630471  1
  O  O93  1  0.62692887  0.36708722  0.04369529  1
  O  O94  1  0.62692887  0.13291278  0.54369529  1
  O  O95  1  0.12692887  0.86708722  0.45630471  1
  O  O96  1  0.19340414  0.81070494  0.86941441  1
  O  O97  1  0.69340414  0.18929506  0.13058559  1
  O  O98  1  0.69340414  0.31070494  0.63058559  1
  O  O99  1  0.19340414  0.68929506  0.36941441  1
  O  O100  1  0.02626745  0.85494492  0.99136849  1
  O  O101  1  0.52626745  0.14505508  0.00863151  1
  O  O102  1  0.52626745  0.35494492  0.50863151  1
  O  O103  1  0.02626745  0.64505508  0.49136849  1
