# generated using pymatgen
data_RbU2As3O14
_symmetry_space_group_name_H-M   'P 1'
_cell_length_a   11.04763493
_cell_length_b   11.19025869
_cell_length_c   11.65443908
_cell_angle_alpha   90.00000000
_cell_angle_beta   90.00000000
_cell_angle_gamma   90.00000000
_symmetry_Int_Tables_number   1
_chemical_formula_structural   RbU2As3O14
_chemical_formula_sum   'Rb4 U8 As12 O56'
_cell_volume   1440.79043611
_cell_formula_units_Z   4
loop_
 _symmetry_equiv_pos_site_id
 _symmetry_equiv_pos_as_xyz
  1  'x, y, z'
loop_
 _atom_site_type_symbol
 _atom_site_label
 _atom_site_symmetry_multiplicity
 _atom_site_fract_x
 _atom_site_fract_y
 _atom_site_fract_z
 _atom_site_occupancy
  Rb  Rb0  1  -0.00000000  0.60801789  0.75000000  1
  Rb  Rb1  1  0.50000000  0.89198211  0.25000000  1
  Rb  Rb2  1  -0.00000000  0.39198211  0.25000000  1
  Rb  Rb3  1  0.50000000  0.10801789  0.75000000  1
  U  U4  1  0.19167885  0.32443334  0.59689377  1
  U  U5  1  0.30832115  0.17556666  0.09689377  1
  U  U6  1  0.69167885  0.17556666  0.40310623  1
  U  U7  1  0.80832115  0.32443334  0.90310623  1
  U  U8  1  0.80832115  0.67556666  0.40310623  1
  U  U9  1  0.69167885  0.82443334  0.90310623  1
  U  U10  1  0.30832115  0.82443334  0.59689377  1
  U  U11  1  0.19167885  0.67556666  0.09689377  1
  As  As12  1  0.19124163  0.07163810  0.38688791  1
  As  As13  1  0.30875837  0.42836190  0.88688791  1
  As  As14  1  0.69124163  0.42836190  0.61311209  1
  As  As15  1  0.80875837  0.07163810  0.11311209  1
  As  As16  1  0.80875837  0.92836190  0.61311209  1
  As  As17  1  0.69124163  0.57163810  0.11311209  1
  As  As18  1  0.30875837  0.57163810  0.38688791  1
  As  As19  1  0.19124163  0.92836190  0.88688791  1
  As  As20  1  -0.00000000  0.09021824  0.75000000  1
  As  As21  1  0.50000000  0.40978176  0.25000000  1
  As  As22  1  -0.00000000  0.90978176  0.25000000  1
  As  As23  1  0.50000000  0.59021824  0.75000000  1
  O  O24  1  0.03841595  0.38192341  0.59465681  1
  O  O25  1  0.46158405  0.11807659  0.09465681  1
  O  O26  1  0.53841595  0.11807659  0.40534319  1
  O  O27  1  0.96158405  0.38192341  0.90534319  1
  O  O28  1  0.96158405  0.61807659  0.40534319  1
  O  O29  1  0.53841595  0.88192341  0.90534319  1
  O  O30  1  0.46158405  0.88192341  0.59465681  1
  O  O31  1  0.03841595  0.61807659  0.09465681  1
  O  O32  1  0.12387411  0.16436478  0.70474637  1
  O  O33  1  0.37612589  0.33563522  0.20474637  1
  O  O34  1  0.62387411  0.33563522  0.29525363  1
  O  O35  1  0.87612589  0.16436478  0.79525363  1
  O  O36  1  0.87612589  0.83563522  0.29525363  1
  O  O37  1  0.62387411  0.66436478  0.79525363  1
  O  O38  1  0.37612589  0.66436478  0.70474637  1
  O  O39  1  0.12387411  0.83563522  0.20474637  1
  O  O40  1  0.15527786  0.21092762  0.43451944  1
  O  O41  1  0.34472214  0.28907238  0.93451944  1
  O  O42  1  0.65527786  0.28907238  0.56548056  1
  O  O43  1  0.84472214  0.21092762  0.06548056  1
  O  O44  1  0.84472214  0.78907238  0.56548056  1
  O  O45  1  0.65527786  0.71092762  0.06548056  1
  O  O46  1  0.34472214  0.71092762  0.43451944  1
  O  O47  1  0.15527786  0.78907238  0.93451944  1
  O  O48  1  0.34504528  0.26643809  0.60542584  1
  O  O49  1  0.15495472  0.23356191  0.10542584  1
  O  O50  1  0.84504528  0.23356191  0.39457416  1
  O  O51  1  0.65495472  0.26643809  0.89457416  1
  O  O52  1  0.65495472  0.73356191  0.39457416  1
  O  O53  1  0.84504528  0.76643809  0.89457416  1
  O  O54  1  0.15495472  0.76643809  0.60542584  1
  O  O55  1  0.34504528  0.73356191  0.10542584  1
  O  O56  1  0.27395891  0.07065444  0.26396288  1
  O  O57  1  0.22604109  0.42934556  0.76396288  1
  O  O58  1  0.77395891  0.42934556  0.73603712  1
  O  O59  1  0.72604109  0.07065444  0.23603712  1
  O  O60  1  0.72604109  0.92934556  0.73603712  1
  O  O61  1  0.77395891  0.57065444  0.23603712  1
  O  O62  1  0.22604109  0.57065444  0.26396288  1
  O  O63  1  0.27395891  0.92934556  0.76396288  1
  O  O64  1  0.04260321  0.00896914  0.36064878  1
  O  O65  1  0.45739679  0.49103086  0.86064878  1
  O  O66  1  0.54260321  0.49103086  0.63935122  1
  O  O67  1  0.95739679  0.00896914  0.13935122  1
  O  O68  1  0.95739679  0.99103086  0.63935122  1
  O  O69  1  0.54260321  0.50896914  0.13935122  1
  O  O70  1  0.45739679  0.50896914  0.36064878  1
  O  O71  1  0.04260321  0.99103086  0.86064878  1
  O  O72  1  0.25451539  0.98355163  0.48832508  1
  O  O73  1  0.24548461  0.51644837  0.98832508  1
  O  O74  1  0.75451539  0.51644837  0.51167492  1
  O  O75  1  0.74548461  0.98355163  0.01167492  1
  O  O76  1  0.74548461  0.01644837  0.51167492  1
  O  O77  1  0.75451539  0.48355163  0.01167492  1
  O  O78  1  0.24548461  0.48355163  0.48832508  1
  O  O79  1  0.25451539  0.01644837  0.98832508  1
