# generated using pymatgen
data_Y3Ir2
_symmetry_space_group_name_H-M   'P 1'
_cell_length_a   11.30249165
_cell_length_b   11.30249165
_cell_length_c   14.95423537
_cell_angle_alpha   112.20382940
_cell_angle_beta   112.20382940
_cell_angle_gamma   90.00000000
_symmetry_Int_Tables_number   1
_chemical_formula_structural   Y3Ir2
_chemical_formula_sum   'Y42 Ir28'
_cell_volume   1614.64475632
_cell_formula_units_Z   14
loop_
 _symmetry_equiv_pos_site_id
 _symmetry_equiv_pos_as_xyz
  1  'x, y, z'
loop_
 _atom_site_type_symbol
 _atom_site_label
 _atom_site_symmetry_multiplicity
 _atom_site_fract_x
 _atom_site_fract_y
 _atom_site_fract_z
 _atom_site_occupancy
  Y  Y0  1  0.50357932  0.63219108  0.85646085  1
  Y  Y1  1  0.35288153  0.22426978  0.85646085  1
  Y  Y2  1  0.85288153  0.13219108  0.85646085  1
  Y  Y3  1  0.00357932  0.72426978  0.85646085  1
  Y  Y4  1  0.63219108  0.35288153  0.85646085  1
  Y  Y5  1  0.22426978  0.50357932  0.85646085  1
  Y  Y6  1  0.13219108  0.00357932  0.85646085  1
  Y  Y7  1  0.72426978  0.85288153  0.85646085  1
  Y  Y8  1  0.49642068  0.36780892  0.14353915  1
  Y  Y9  1  0.64711847  0.77573022  0.14353915  1
  Y  Y10  1  0.14711847  0.86780892  0.14353915  1
  Y  Y11  1  0.99642068  0.27573022  0.14353915  1
  Y  Y12  1  0.36780892  0.64711847  0.14353915  1
  Y  Y13  1  0.77573022  0.49642068  0.14353915  1
  Y  Y14  1  0.86780892  0.99642068  0.14353915  1
  Y  Y15  1  0.27573022  0.14711847  0.14353915  1
  Y  Y16  1  0.51705666  0.38574462  0.61216212  1
  Y  Y17  1  0.09510546  0.22641749  0.61216212  1
  Y  Y18  1  0.59510546  0.88574462  0.61216212  1
  Y  Y19  1  0.01705666  0.72641749  0.61216212  1
  Y  Y20  1  0.38574462  0.09510546  0.61216212  1
  Y  Y21  1  0.22641749  0.51705666  0.61216212  1
  Y  Y22  1  0.88574462  0.01705666  0.61216212  1
  Y  Y23  1  0.72641749  0.59510546  0.61216212  1
  Y  Y24  1  0.48294334  0.61425538  0.38783788  1
  Y  Y25  1  0.90489454  0.77358251  0.38783788  1
  Y  Y26  1  0.40489454  0.11425538  0.38783788  1
  Y  Y27  1  0.98294334  0.27358251  0.38783788  1
  Y  Y28  1  0.61425538  0.90489454  0.38783788  1
  Y  Y29  1  0.77358251  0.48294334  0.38783788  1
  Y  Y30  1  0.11425538  0.98294334  0.38783788  1
  Y  Y31  1  0.27358251  0.40489454  0.38783788  1
  Y  Y32  1  0.35074062  0.85074062  1.00000000  1
  Y  Y33  1  0.64925938  0.14925938  0.00000000  1
  Y  Y34  1  0.14925938  0.35074062  -0.00000000  1
  Y  Y35  1  0.85074062  0.64925938  0.00000000  1
  Y  Y36  1  0.88747298  0.38747298  0.77494596  1
  Y  Y37  1  0.38747298  0.88747298  0.77494596  1
  Y  Y38  1  0.11252702  0.61252702  0.22505404  1
  Y  Y39  1  0.61252702  0.11252702  0.22505404  1
  Y  Y40  1  0.75000000  0.25000000  0.50000000  1
  Y  Y41  1  0.25000000  0.75000000  0.50000000  1
  Ir  Ir42  1  0.21434177  0.71434177  0.78750423  1
  Ir  Ir43  1  0.57316247  0.07316247  0.78750423  1
  Ir  Ir44  1  0.07316247  0.21434177  0.78750423  1
  Ir  Ir45  1  0.71434177  0.57316247  0.78750423  1
  Ir  Ir46  1  0.78565823  0.28565823  0.21249577  1
  Ir  Ir47  1  0.42683753  0.92683753  0.21249577  1
  Ir  Ir48  1  0.92683753  0.78565823  0.21249577  1
  Ir  Ir49  1  0.28565823  0.42683753  0.21249577  1
  Ir  Ir50  1  0.96536165  0.46536165  0.62262537  1
  Ir  Ir51  1  0.65726372  0.15726372  0.62262537  1
  Ir  Ir52  1  0.15726372  0.96536165  0.62262537  1
  Ir  Ir53  1  0.46536165  0.65726372  0.62262537  1
  Ir  Ir54  1  0.03463835  0.53463835  0.37737463  1
  Ir  Ir55  1  0.34273628  0.84273628  0.37737463  1
  Ir  Ir56  1  0.84273628  0.03463835  0.37737463  1
  Ir  Ir57  1  0.53463835  0.34273628  0.37737463  1
  Ir  Ir58  1  0.09654130  0.59654130  1.00000000  1
  Ir  Ir59  1  0.90345870  0.40345870  0.00000000  1
  Ir  Ir60  1  0.40345870  0.09654130  0.00000000  1
  Ir  Ir61  1  0.59654130  0.90345870  -0.00000000  1
  Ir  Ir62  1  0.36562930  0.36562930  0.73125859  1
  Ir  Ir63  1  0.86562930  0.86562930  0.73125859  1
  Ir  Ir64  1  0.63437070  0.63437070  0.26874141  1
  Ir  Ir65  1  0.13437070  0.13437070  0.26874141  1
  Ir  Ir66  1  0.50000000  0.50000000  0.00000000  1
  Ir  Ir67  1  0.00000000  0.00000000  0.00000000  1
  Ir  Ir68  1  0.25000000  0.25000000  0.50000000  1
  Ir  Ir69  1  0.75000000  0.75000000  0.50000000  1
