# generated using pymatgen
data_KEuH2S2O9
_symmetry_space_group_name_H-M   'P 1'
_cell_length_a   8.70309145
_cell_length_b   10.49499612
_cell_length_c   10.77921356
_cell_angle_alpha   119.15988983
_cell_angle_beta   90.00000000
_cell_angle_gamma   90.00000000
_symmetry_Int_Tables_number   1
_chemical_formula_structural   KEuH2S2O9
_chemical_formula_sum   'K4 Eu4 H8 S8 O36'
_cell_volume   859.78162651
_cell_formula_units_Z   4
loop_
 _symmetry_equiv_pos_site_id
 _symmetry_equiv_pos_as_xyz
  1  'x, y, z'
loop_
 _atom_site_type_symbol
 _atom_site_label
 _atom_site_symmetry_multiplicity
 _atom_site_fract_x
 _atom_site_fract_y
 _atom_site_fract_z
 _atom_site_occupancy
  K  K0  1  0.68194659  0.47947104  0.19152306  1
  K  K1  1  0.18194659  0.02052896  0.30847694  1
  K  K2  1  0.31805341  0.52052896  0.80847694  1
  K  K3  1  0.81805341  0.97947104  0.69152306  1
  Eu  Eu4  1  0.64721556  0.22345622  0.46616219  1
  Eu  Eu5  1  0.14721556  0.27654378  0.03383781  1
  Eu  Eu6  1  0.35278444  0.77654378  0.53383781  1
  Eu  Eu7  1  0.85278444  0.72345622  0.96616219  1
  H  H8  1  0.97298247  0.29861223  0.38854393  1
  H  H9  1  0.47298247  0.20138777  0.11145607  1
  H  H10  1  0.02701753  0.70138777  0.61145607  1
  H  H11  1  0.52701753  0.79861223  0.88854393  1
  H  H12  1  0.97300079  0.33111015  0.54549786  1
  H  H13  1  0.47300079  0.16888985  0.95450214  1
  H  H14  1  0.02699921  0.66888985  0.45450214  1
  H  H15  1  0.52699921  0.83111015  0.04549786  1
  S  S16  1  0.63325240  0.87210752  0.32073528  1
  S  S17  1  0.13325240  0.62789248  0.17926472  1
  S  S18  1  0.36674760  0.12789248  0.67926472  1
  S  S19  1  0.86674760  0.37210752  0.82073528  1
  S  S20  1  0.69170522  0.59754577  0.60616551  1
  S  S21  1  0.19170522  0.90245423  0.89383449  1
  S  S22  1  0.30829478  0.40245423  0.39383449  1
  S  S23  1  0.80829478  0.09754577  0.10616551  1
  O  O24  1  0.71099360  0.76304913  0.18894054  1
  O  O25  1  0.21099360  0.73695087  0.31105946  1
  O  O26  1  0.28900640  0.23695087  0.81105946  1
  O  O27  1  0.78900640  0.26304913  0.68894054  1
  O  O28  1  0.55734012  0.79137829  0.38604496  1
  O  O29  1  0.05734012  0.70862171  0.11395504  1
  O  O30  1  0.44265988  0.20862171  0.61395504  1
  O  O31  1  0.94265988  0.29137829  0.88604496  1
  O  O32  1  0.74588985  0.97964005  0.42432094  1
  O  O33  1  0.24588985  0.52035995  0.07567906  1
  O  O34  1  0.25411015  0.02035995  0.57567906  1
  O  O35  1  0.75411015  0.47964005  0.92432094  1
  O  O36  1  0.51898565  0.95977916  0.28977484  1
  O  O37  1  0.01898565  0.54022084  0.21022516  1
  O  O38  1  0.48101435  0.04022084  0.71022516  1
  O  O39  1  0.98101435  0.45977916  0.78977484  1
  O  O40  1  0.81344560  0.67272198  0.71748277  1
  O  O41  1  0.31344560  0.82727802  0.78251723  1
  O  O42  1  0.18655440  0.32727802  0.28251723  1
  O  O43  1  0.68655440  0.17272198  0.21748277  1
  O  O44  1  0.58250534  0.71368988  0.62036899  1
  O  O45  1  0.08250534  0.78631012  0.87963101  1
  O  O46  1  0.41749466  0.28631012  0.37963101  1
  O  O47  1  0.91749466  0.21368988  0.12036899  1
  O  O48  1  0.61041102  0.48837548  0.63522042  1
  O  O49  1  0.11041102  0.01162452  0.86477958  1
  O  O50  1  0.38958898  0.51162452  0.36477958  1
  O  O51  1  0.88958898  0.98837548  0.13522042  1
  O  O52  1  0.76127052  0.52135802  0.46369708  1
  O  O53  1  0.26127052  0.97864198  0.03630292  1
  O  O54  1  0.23872948  0.47864198  0.53630292  1
  O  O55  1  0.73872948  0.02135802  0.96369708  1
  O  O56  1  0.93509676  0.26133041  0.45055174  1
  O  O57  1  0.43509676  0.23866959  0.04944826  1
  O  O58  1  0.06490324  0.73866959  0.54944826  1
  O  O59  1  0.56490324  0.76133041  0.95055174  1
