# generated using pymatgen
data_Dy2Mo3H2Se2O17
_symmetry_space_group_name_H-M   'P 1'
_cell_length_a   6.86392287
_cell_length_b   7.30538366
_cell_length_c   14.36747749
_cell_angle_alpha   90.00000000
_cell_angle_beta   99.73432777
_cell_angle_gamma   90.00000000
_symmetry_Int_Tables_number   1
_chemical_formula_structural   Dy2Mo3H2Se2O17
_chemical_formula_sum   'Dy4 Mo6 H4 Se4 O34'
_cell_volume   710.06429845
_cell_formula_units_Z   2
loop_
 _symmetry_equiv_pos_site_id
 _symmetry_equiv_pos_as_xyz
  1  'x, y, z'
loop_
 _atom_site_type_symbol
 _atom_site_label
 _atom_site_symmetry_multiplicity
 _atom_site_fract_x
 _atom_site_fract_y
 _atom_site_fract_z
 _atom_site_occupancy
  Dy  Dy0  1  0.61280700  0.75000000  0.54102459  1
  Dy  Dy1  1  0.38719300  0.25000000  0.45897541  1
  Dy  Dy2  1  0.25568423  0.75000000  0.12204565  1
  Dy  Dy3  1  0.74431577  0.25000000  0.87795435  1
  Mo  Mo4  1  0.78977707  0.99560127  0.13771527  1
  Mo  Mo5  1  0.21022293  0.49560127  0.86228473  1
  Mo  Mo6  1  0.21022293  0.00439873  0.86228473  1
  Mo  Mo7  1  0.78977707  0.50439873  0.13771527  1
  Mo  Mo8  1  0.87016358  0.25000000  0.33219326  1
  Mo  Mo9  1  0.12983642  0.75000000  0.66780674  1
  H  H10  1  0.75309896  0.64330421  0.36029177  1
  H  H11  1  0.24690104  0.14330421  0.63970823  1
  H  H12  1  0.24690104  0.35669579  0.63970823  1
  H  H13  1  0.75309896  0.85669579  0.36029177  1
  Se  Se14  1  0.21057536  0.75000000  0.38255477  1
  Se  Se15  1  0.78942464  0.25000000  0.61744523  1
  Se  Se16  1  0.25273626  0.25000000  0.18931377  1
  Se  Se17  1  0.74726374  0.75000000  0.81068623  1
  O  O18  1  0.35118127  0.92668782  0.44436722  1
  O  O19  1  0.64881873  0.42668782  0.55563278  1
  O  O20  1  0.64881873  0.07331218  0.55563278  1
  O  O21  1  0.35118127  0.57331218  0.44436722  1
  O  O22  1  0.28683194  0.75000000  0.27552681  1
  O  O23  1  0.71316806  0.25000000  0.72447319  1
  O  O24  1  0.19940966  0.25000000  0.30140056  1
  O  O25  1  0.80059034  0.75000000  0.69859944  1
  O  O26  1  0.11528527  0.06009823  0.14192191  1
  O  O27  1  0.88471473  0.56009823  0.85807809  1
  O  O28  1  0.88471473  0.93990177  0.85807809  1
  O  O29  1  0.11528527  0.43990177  0.14192191  1
  O  O30  1  0.90647467  0.75000000  0.12927227  1
  O  O31  1  0.09352533  0.25000000  0.87072773  1
  O  O32  1  0.76158997  0.06652191  0.01858749  1
  O  O33  1  0.23841003  0.56652191  0.98141251  1
  O  O34  1  0.23841003  0.93347809  0.98141251  1
  O  O35  1  0.76158997  0.43347809  0.01858749  1
  O  O36  1  0.54685497  0.92589539  0.14536721  1
  O  O37  1  0.45314503  0.42589539  0.85463279  1
  O  O38  1  0.45314503  0.07410461  0.85463279  1
  O  O39  1  0.54685497  0.57410461  0.14536721  1
  O  O40  1  0.87688439  0.00313290  0.28621559  1
  O  O41  1  0.12311561  0.50313290  0.71378441  1
  O  O42  1  0.12311561  0.99686710  0.71378441  1
  O  O43  1  0.87688439  0.49686710  0.28621559  1
  O  O44  1  0.76934903  0.25000000  0.17769018  1
  O  O45  1  0.23065097  0.75000000  0.82230982  1
  O  O46  1  0.62972973  0.25000000  0.36331884  1
  O  O47  1  0.37027027  0.75000000  0.63668116  1
  O  O48  1  0.02773320  0.25000000  0.44308694  1
  O  O49  1  0.97226680  0.75000000  0.55691306  1
  O  O50  1  0.70177523  0.75000000  0.39117061  1
  O  O51  1  0.29822477  0.25000000  0.60882939  1
