# generated using pymatgen
data_Bi2I4O13
_symmetry_space_group_name_H-M   'P 1'
_cell_length_a   5.84656753
_cell_length_b   12.50728364
_cell_length_c   17.05148152
_cell_angle_alpha   90.00000000
_cell_angle_beta   90.00000000
_cell_angle_gamma   90.00000000
_symmetry_Int_Tables_number   1
_chemical_formula_structural   Bi2I4O13
_chemical_formula_sum   'Bi8 I16 O52'
_cell_volume   1246.88410270
_cell_formula_units_Z   4
loop_
 _symmetry_equiv_pos_site_id
 _symmetry_equiv_pos_as_xyz
  1  'x, y, z'
loop_
 _atom_site_type_symbol
 _atom_site_label
 _atom_site_symmetry_multiplicity
 _atom_site_fract_x
 _atom_site_fract_y
 _atom_site_fract_z
 _atom_site_occupancy
  Bi  Bi0  1  0.22721417  0.48675139  0.29753578  1
  Bi  Bi1  1  0.27278583  0.51324861  0.79753578  1
  Bi  Bi2  1  0.72721417  0.01324861  0.70246422  1
  Bi  Bi3  1  0.77278583  0.98675139  0.20246422  1
  Bi  Bi4  1  0.28558658  0.15496261  0.82540619  1
  Bi  Bi5  1  0.21441342  0.84503739  0.32540619  1
  Bi  Bi6  1  0.78558658  0.34503739  0.17459381  1
  Bi  Bi7  1  0.71441342  0.65496261  0.67459381  1
  I  I8  1  0.11760090  0.45262336  0.57347651  1
  I  I9  1  0.38239910  0.54737664  0.07347651  1
  I  I10  1  0.61760090  0.04737664  0.42652349  1
  I  I11  1  0.88239910  0.95262336  0.92652349  1
  I  I12  1  0.23886151  0.16685906  0.59008327  1
  I  I13  1  0.26113849  0.83314094  0.09008327  1
  I  I14  1  0.73886151  0.33314094  0.40991673  1
  I  I15  1  0.76113849  0.66685906  0.90991673  1
  I  I16  1  0.68329434  0.32829750  0.73703746  1
  I  I17  1  0.81670566  0.67170250  0.23703746  1
  I  I18  1  0.18329434  0.17170250  0.26296254  1
  I  I19  1  0.31670566  0.82829750  0.76296254  1
  I  I20  1  0.05966679  0.85964447  0.53001619  1
  I  I21  1  0.44033321  0.14035553  0.03001619  1
  I  I22  1  0.55966679  0.64035553  0.46998381  1
  I  I23  1  0.94033321  0.35964447  0.96998381  1
  O  O24  1  0.06314557  0.83422711  0.94263754  1
  O  O25  1  0.43685443  0.16577289  0.44263754  1
  O  O26  1  0.56314557  0.66577289  0.05736246  1
  O  O27  1  0.93685443  0.33422711  0.55736246  1
  O  O28  1  0.04018332  0.49320000  0.94187111  1
  O  O29  1  0.45981668  0.50680000  0.44187111  1
  O  O30  1  0.54018332  0.00680000  0.05812889  1
  O  O31  1  0.95981668  0.99320000  0.55812889  1
  O  O32  1  0.63080384  0.16720803  0.76323424  1
  O  O33  1  0.86919616  0.83279197  0.26323424  1
  O  O34  1  0.13080384  0.33279197  0.23676576  1
  O  O35  1  0.36919616  0.66720803  0.73676576  1
  O  O36  1  0.19248010  0.28236961  0.94062921  1
  O  O37  1  0.30751990  0.71763039  0.44062921  1
  O  O38  1  0.69248010  0.21763039  0.05937079  1
  O  O39  1  0.80751990  0.78236961  0.55937079  1
  O  O40  1  0.10567170  0.84349400  0.68503725  1
  O  O41  1  0.39432830  0.15650600  0.18503725  1
  O  O42  1  0.60567170  0.65650600  0.31496275  1
  O  O43  1  0.89432830  0.34349400  0.81496275  1
  O  O44  1  0.41318611  0.33111061  0.79817974  1
  O  O45  1  0.08681389  0.66888939  0.29817974  1
  O  O46  1  0.91318611  0.16888939  0.20182026  1
  O  O47  1  0.58681389  0.83111061  0.70182026  1
  O  O48  1  0.08110723  0.46455433  0.68086992  1
  O  O49  1  0.41889277  0.53544567  0.18086992  1
  O  O50  1  0.58110723  0.03544567  0.31913008  1
  O  O51  1  0.91889277  0.96455433  0.81913008  1
  O  O52  1  0.08799045  0.15421783  0.68542912  1
  O  O53  1  0.41200955  0.84578217  0.18542912  1
  O  O54  1  0.58799045  0.34578217  0.31457088  1
  O  O55  1  0.91200955  0.65421783  0.81457088  1
  O  O56  1  0.04074862  0.36866847  0.07479652  1
  O  O57  1  0.45925138  0.63133153  0.57479652  1
  O  O58  1  0.54074862  0.13133153  0.92520348  1
  O  O59  1  0.95925138  0.86866847  0.42520348  1
  O  O60  1  0.47268897  0.06848797  0.60300454  1
  O  O61  1  0.02731103  0.93151203  0.10300454  1
  O  O62  1  0.97268897  0.43151203  0.39699546  1
  O  O63  1  0.52731103  0.56848797  0.89699546  1
  O  O64  1  0.59649782  0.48291233  0.72511544  1
  O  O65  1  0.90350218  0.51708767  0.22511544  1
  O  O66  1  0.09649782  0.01708767  0.27488456  1
  O  O67  1  0.40350218  0.98291233  0.77488456  1
  O  O68  1  0.08868459  0.05905994  0.94799941  1
  O  O69  1  0.41131541  0.94094006  0.44799941  1
  O  O70  1  0.58868459  0.44094006  0.05200059  1
  O  O71  1  0.91131541  0.55905994  0.55200059  1
  O  O72  1  0.40256783  0.28958985  0.60886577  1
  O  O73  1  0.09743217  0.71041015  0.10886577  1
  O  O74  1  0.90256783  0.21041015  0.39113423  1
  O  O75  1  0.59743217  0.78958985  0.89113423  1
