# generated using pymatgen
data_TiMnGe2
_symmetry_space_group_name_H-M   'P 1'
_cell_length_a   7.96739306
_cell_length_b   8.99212856
_cell_length_c   9.91197875
_cell_angle_alpha   90.00000000
_cell_angle_beta   90.00000000
_cell_angle_gamma   90.00000000
_symmetry_Int_Tables_number   1
_chemical_formula_structural   TiMnGe2
_chemical_formula_sum   'Ti12 Mn12 Ge24'
_cell_volume   710.13204801
_cell_formula_units_Z   12
loop_
 _symmetry_equiv_pos_site_id
 _symmetry_equiv_pos_as_xyz
  1  'x, y, z'
loop_
 _atom_site_type_symbol
 _atom_site_label
 _atom_site_symmetry_multiplicity
 _atom_site_fract_x
 _atom_site_fract_y
 _atom_site_fract_z
 _atom_site_occupancy
  Ti  Ti0  1  0.74153703  0.83050613  0.04668087  1
  Ti  Ti1  1  0.74153703  0.16949387  0.95331913  1
  Ti  Ti2  1  0.25846297  0.66949387  0.54668087  1
  Ti  Ti3  1  0.25846297  0.33050613  0.45331913  1
  Ti  Ti4  1  0.25846297  0.16949387  0.95331913  1
  Ti  Ti5  1  0.25846297  0.83050613  0.04668087  1
  Ti  Ti6  1  0.74153703  0.33050613  0.45331913  1
  Ti  Ti7  1  0.74153703  0.66949387  0.54668087  1
  Ti  Ti8  1  0.50000000  0.83581723  0.32164474  1
  Ti  Ti9  1  0.50000000  0.16418277  0.67835526  1
  Ti  Ti10  1  0.50000000  0.66418277  0.82164474  1
  Ti  Ti11  1  0.50000000  0.33581723  0.17835526  1
  Mn  Mn12  1  0.74757819  0.58792986  0.24944888  1
  Mn  Mn13  1  0.74757819  0.41207014  0.75055112  1
  Mn  Mn14  1  0.25242181  0.91207014  0.74944888  1
  Mn  Mn15  1  0.25242181  0.08792986  0.25055112  1
  Mn  Mn16  1  0.25242181  0.41207014  0.75055112  1
  Mn  Mn17  1  0.25242181  0.58792986  0.24944888  1
  Mn  Mn18  1  0.74757819  0.08792986  0.25055112  1
  Mn  Mn19  1  0.74757819  0.91207014  0.74944888  1
  Mn  Mn20  1  0.74264780  -0.00000000  0.50000000  1
  Mn  Mn21  1  0.25735220  0.50000000  0.00000000  1
  Mn  Mn22  1  0.25735220  0.00000000  0.50000000  1
  Mn  Mn23  1  0.74264780  0.50000000  0.00000000  1
  Ge  Ge24  1  0.83652547  0.83523465  0.31629459  1
  Ge  Ge25  1  0.83652547  0.16476535  0.68370541  1
  Ge  Ge26  1  0.16347453  0.66476535  0.81629459  1
  Ge  Ge27  1  0.16347453  0.33523465  0.18370541  1
  Ge  Ge28  1  0.16347453  0.16476535  0.68370541  1
  Ge  Ge29  1  0.16347453  0.83523465  0.31629459  1
  Ge  Ge30  1  0.83652547  0.33523465  0.18370541  1
  Ge  Ge31  1  0.83652547  0.66476535  0.81629459  1
  Ge  Ge32  1  0.50000000  0.53990252  0.37968403  1
  Ge  Ge33  1  0.50000000  0.46009748  0.62031597  1
  Ge  Ge34  1  0.50000000  0.96009748  0.87968403  1
  Ge  Ge35  1  0.50000000  0.03990252  0.12031597  1
  Ge  Ge36  1  -0.00000000  0.54623898  0.37989315  1
  Ge  Ge37  1  -0.00000000  0.45376102  0.62010685  1
  Ge  Ge38  1  -0.00000000  0.95376102  0.87989315  1
  Ge  Ge39  1  -0.00000000  0.04623898  0.12010685  1
  Ge  Ge40  1  0.50000000  0.63865851  0.10063041  1
  Ge  Ge41  1  0.50000000  0.36134149  0.89936959  1
  Ge  Ge42  1  0.50000000  0.86134149  0.60063041  1
  Ge  Ge43  1  0.50000000  0.13865851  0.39936959  1
  Ge  Ge44  1  -0.00000000  0.63442592  0.09563554  1
  Ge  Ge45  1  -0.00000000  0.36557408  0.90436446  1
  Ge  Ge46  1  -0.00000000  0.86557408  0.59563554  1
  Ge  Ge47  1  -0.00000000  0.13442592  0.40436446  1
