# generated using pymatgen
data_Yb6Al43Mo4
_symmetry_space_group_name_H-M   'P 1'
_cell_length_a   11.05353805
_cell_length_b   11.05365162
_cell_length_c   17.66078965
_cell_angle_alpha   90.00007075
_cell_angle_beta   89.99985845
_cell_angle_gamma   119.99965942
_symmetry_Int_Tables_number   1
_chemical_formula_structural   Yb6Al43Mo4
_chemical_formula_sum   'Yb12 Al86 Mo8'
_cell_volume   1868.74190093
_cell_formula_units_Z   2
loop_
 _symmetry_equiv_pos_site_id
 _symmetry_equiv_pos_as_xyz
  1  'x, y, z'
loop_
 _atom_site_type_symbol
 _atom_site_label
 _atom_site_symmetry_multiplicity
 _atom_site_fract_x
 _atom_site_fract_y
 _atom_site_fract_z
 _atom_site_occupancy
  Yb  Yb0  1  0.53298195  1.00000000  0.59441284  1
  Yb  Yb1  1  0.46701044  0.46701114  0.59441355  1
  Yb  Yb2  1  0.99999930  0.53298886  0.59441355  1
  Yb  Yb3  1  0.46701805  0.00000000  0.40558716  1
  Yb  Yb4  1  0.53298956  0.53298886  0.40558645  1
  Yb  Yb5  1  0.00000070  0.46701114  0.40558645  1
  Yb  Yb6  1  0.46701858  0.00000000  0.09441232  1
  Yb  Yb7  1  0.53298961  0.53298822  0.09441358  1
  Yb  Yb8  1  0.00000139  0.46701178  0.09441358  1
  Yb  Yb9  1  0.53298142  1.00000000  0.90558768  1
  Yb  Yb10  1  0.46701039  0.46701178  0.90558642  1
  Yb  Yb11  1  0.99999861  0.53298822  0.90558642  1
  Al  Al12  1  0.15585968  0.39242462  0.66493460  1
  Al  Al13  1  0.23655448  0.84414182  0.66493908  1
  Al  Al14  1  0.60757773  0.76344233  0.66493702  1
  Al  Al15  1  0.76343506  0.60757538  0.66493460  1
  Al  Al16  1  0.39241266  0.15585818  0.66493908  1
  Al  Al17  1  0.84413540  0.23655767  0.66493702  1
  Al  Al18  1  0.84414032  0.60757538  0.33506540  1
  Al  Al19  1  0.76344552  0.15585818  0.33506092  1
  Al  Al20  1  0.39242227  0.23655767  0.33506298  1
  Al  Al21  1  0.23656494  0.39242462  0.33506540  1
  Al  Al22  1  0.60758734  0.84414182  0.33506092  1
  Al  Al23  1  0.15586460  0.76344233  0.33506298  1
  Al  Al24  1  0.84413978  0.60757526  0.16493480  1
  Al  Al25  1  0.76344587  0.15585828  0.16493892  1
  Al  Al26  1  0.39242240  0.23655770  0.16493694  1
  Al  Al27  1  0.23656453  0.39242474  0.16493480  1
  Al  Al28  1  0.60758759  0.84414172  0.16493892  1
  Al  Al29  1  0.15586469  0.76344230  0.16493694  1
  Al  Al30  1  0.15586022  0.39242474  0.83506520  1
  Al  Al31  1  0.23655413  0.84414172  0.83506108  1
  Al  Al32  1  0.60757760  0.76344230  0.83506306  1
  Al  Al33  1  0.76343547  0.60757526  0.83506520  1
  Al  Al34  1  0.39241241  0.15585828  0.83506108  1
  Al  Al35  1  0.84413531  0.23655770  0.83506306  1
  Al  Al36  1  0.15875352  0.00000000  0.11528985  1
  Al  Al37  1  0.84125303  0.84125007  0.11528617  1
  Al  Al38  1  0.00000296  0.15874993  0.11528617  1
  Al  Al39  1  0.84124648  1.00000000  0.88471015  1
  Al  Al40  1  0.15874697  0.15874993  0.88471383  1
  Al  Al41  1  0.99999704  0.84125007  0.88471383  1
  Al  Al42  1  0.84124725  1.00000000  0.61528847  1
  Al  Al43  1  0.15874552  0.15874849  0.61528476  1
  Al  Al44  1  0.99999704  0.84125151  0.61528476  1
  Al  Al45  1  0.15875275  0.00000000  0.38471153  1
  Al  Al46  1  0.84125448  0.84125151  0.38471524  1
  Al  Al47  1  0.00000296  0.15874849  0.38471524  1
  Al  Al48  1  0.25206611  0.00000000  0.53164124  1
  Al  Al49  1  0.74793254  0.74793065  0.53164146  1
  Al  Al50  1  0.00000188  0.25206935  0.53164146  1
  Al  Al51  1  0.74793389  1.00000000  0.46835876  1
  Al  Al52  1  0.25206746  0.25206935  0.46835854  1
  Al  Al53  1  0.99999812  0.74793065  0.46835854  1
  Al  Al54  1  0.74793177  1.00000000  0.03164144  1
  Al  Al55  1  0.25206971  0.25207145  0.03164184  1
  Al  Al56  1  0.99999826  0.74792855  0.03164184  1
  Al  Al57  1  0.25206823  0.00000000  0.96835856  1
  Al  Al58  1  0.74793029  0.74792855  0.96835816  1
  Al  Al59  1  0.00000174  0.25207145  0.96835816  1
  Al  Al60  1  0.14844363  0.59846167  0.75000005  1
  Al  Al61  1  0.45000496  0.85154373  0.75000000  1
  Al  Al62  1  0.40153181  0.54999131  0.74999973  1
  Al  Al63  1  0.54998195  0.40153833  0.75000005  1
  Al  Al64  1  0.59846124  0.14845627  0.75000000  1
  Al  Al65  1  0.85154050  0.45000869  0.74999973  1
  Al  Al66  1  0.85155637  0.40153833  0.24999995  1
  Al  Al67  1  0.54999504  0.14845627  0.25000000  1
  Al  Al68  1  0.59846819  0.45000869  0.25000027  1
  Al  Al69  1  0.45001805  0.59846167  0.24999995  1
  Al  Al70  1  0.40153876  0.85154373  0.25000000  1
  Al  Al71  1  0.14845950  0.54999131  0.25000027  1
  Al  Al72  1  0.24705068  0.49410135  0.50000000  1
  Al  Al73  1  0.24704937  0.75294557  0.49999430  1
  Al  Al74  1  0.50589619  0.75294557  0.50000570  1
  Al  Al75  1  0.75294932  0.50589865  0.50000000  1
  Al  Al76  1  0.49410381  0.24705443  0.49999430  1
  Al  Al77  1  0.75295063  0.24705443  0.50000570  1
  Al  Al78  1  0.75294902  0.50589805  -0.00000000  1
  Al  Al79  1  0.75295065  0.24705417  0.99999415  1
  Al  Al80  1  0.49410352  0.24705417  0.00000585  1
  Al  Al81  1  0.24705098  0.49410195  0.00000000  1
  Al  Al82  1  0.50589648  0.75294583  0.99999415  1
  Al  Al83  1  0.24704935  0.75294583  0.00000585  1
  Al  Al84  1  0.33332919  0.66666931  0.62647353  1
  Al  Al85  1  0.66665988  0.33333069  0.62647353  1
  Al  Al86  1  0.66667081  0.33333069  0.37352647  1
  Al  Al87  1  0.33334012  0.66666931  0.37352647  1
  Al  Al88  1  0.66667062  0.33333041  0.12647352  1
  Al  Al89  1  0.33334021  0.66666959  0.12647352  1
  Al  Al90  1  0.33332938  0.66666959  0.87352648  1
  Al  Al91  1  0.66665979  0.33333041  0.87352648  1
  Al  Al92  1  0.14680004  -0.00000000  0.74999999  1
  Al  Al93  1  0.85317958  0.85320254  0.74999986  1
  Al  Al94  1  -0.00002296  0.14679746  0.74999986  1
  Al  Al95  1  0.85319996  0.00000000  0.25000001  1
  Al  Al96  1  0.14682042  0.14679746  0.25000014  1
  Al  Al97  1  0.00002296  0.85320254  0.25000014  1
  Mo  Mo98  1  0.72949670  0.00000000  0.74999941  1
  Mo  Mo99  1  0.27052390  0.27052215  0.75000097  1
  Mo  Mo100  1  0.00000175  0.72947785  0.75000097  1
  Mo  Mo101  1  0.27050330  1.00000000  0.25000059  1
  Mo  Mo102  1  0.72947610  0.72947785  0.24999903  1
  Mo  Mo103  1  -0.00000175  0.27052215  0.24999903  1
  Mo  Mo104  1  0.00000000  0.00000000  0.50000000  1
  Mo  Mo105  1  0.00000000  0.00000000  0.00000000  1
