# generated using pymatgen
data_KFe2P3(O4F3)2
_symmetry_space_group_name_H-M   'P 1'
_cell_length_a   7.35114399
_cell_length_b   7.71793401
_cell_length_c   10.58885277
_cell_angle_alpha   101.26612985
_cell_angle_beta   110.28219801
_cell_angle_gamma   90.47303600
_symmetry_Int_Tables_number   1
_chemical_formula_structural   KFe2P3(O4F3)2
_chemical_formula_sum   'K2 Fe4 P6 O16 F12'
_cell_volume   550.76896137
_cell_formula_units_Z   2
loop_
 _symmetry_equiv_pos_site_id
 _symmetry_equiv_pos_as_xyz
  1  'x, y, z'
loop_
 _atom_site_type_symbol
 _atom_site_label
 _atom_site_symmetry_multiplicity
 _atom_site_fract_x
 _atom_site_fract_y
 _atom_site_fract_z
 _atom_site_occupancy
  K  K0  1  0.79929184  0.07261347  0.80808835  1
  K  K1  1  0.20070816  0.92738653  0.19191165  1
  Fe  Fe2  1  0.65438719  0.31770844  0.33198568  1
  Fe  Fe3  1  0.34561281  0.68229156  0.66801432  1
  Fe  Fe4  1  0.50000000  0.50000000  -0.00000000  1
  Fe  Fe5  1  -0.00000000  0.00000000  0.50000000  1
  P  P6  1  0.65817629  0.72518978  0.50381543  1
  P  P7  1  0.34182371  0.27481022  0.49618457  1
  P  P8  1  0.32152276  0.08850626  0.82047237  1
  P  P9  1  0.67847724  0.91149374  0.17952763  1
  P  P10  1  0.05899293  0.57902757  0.83053664  1
  P  P11  1  0.94100707  0.42097243  0.16946336  1
  O  O12  1  0.73412338  0.56107970  0.44141720  1
  O  O13  1  0.26587662  0.43892030  0.55858280  1
  O  O14  1  0.80168155  0.88949890  0.55619525  1
  O  O15  1  0.19831845  0.11050110  0.44380475  1
  O  O16  1  0.57103660  0.07246698  0.21166184  1
  O  O17  1  0.42896340  0.92753302  0.78833816  1
  O  O18  1  0.46669569  0.25008694  0.89326686  1
  O  O19  1  0.53330431  0.74991306  0.10673314  1
  O  O20  1  0.85968811  0.88463815  0.29696236  1
  O  O21  1  0.14031189  0.11536185  0.70303764  1
  O  O22  1  0.88524278  0.33205853  0.26452681  1
  O  O23  1  0.11475722  0.66794147  0.73547319  1
  O  O24  1  0.79360374  0.49103237  0.05683210  1
  O  O25  1  0.20639626  0.50896763  0.94316790  1
  O  O26  1  0.42501052  0.29757703  0.38669472  1
  O  O27  1  0.57498948  0.70242297  0.61330528  1
  F  F28  1  0.83497137  0.20471178  0.47477281  1
  F  F29  1  0.16502863  0.79528822  0.52522719  1
  F  F30  1  0.50259636  0.41371883  0.16482307  1
  F  F31  1  0.49740364  0.58628117  0.83517693  1
  F  F32  1  0.76561225  0.95011177  0.06648912  1
  F  F33  1  0.23438775  0.04988823  0.93351088  1
  F  F34  1  0.89229421  0.43010528  0.74830125  1
  F  F35  1  0.10770579  0.56989472  0.25169875  1
  F  F36  1  0.52003194  0.22844377  0.61936316  1
  F  F37  1  0.47996806  0.77155623  0.38063684  1
  F  F38  1  0.05661071  0.28802291  0.09861568  1
  F  F39  1  0.94338929  0.71197709  0.90138432  1
