# generated using pymatgen
data_Tc2Te5
_symmetry_space_group_name_H-M   'P 1'
_cell_length_a   13.14932575
_cell_length_b   13.23526077
_cell_length_c   14.46182027
_cell_angle_alpha   90.00000000
_cell_angle_beta   90.00000000
_cell_angle_gamma   90.00000000
_symmetry_Int_Tables_number   1
_chemical_formula_structural   Tc2Te5
_chemical_formula_sum   'Tc24 Te60'
_cell_volume   2516.85935117
_cell_formula_units_Z   12
loop_
 _symmetry_equiv_pos_site_id
 _symmetry_equiv_pos_as_xyz
  1  'x, y, z'
loop_
 _atom_site_type_symbol
 _atom_site_label
 _atom_site_symmetry_multiplicity
 _atom_site_fract_x
 _atom_site_fract_y
 _atom_site_fract_z
 _atom_site_occupancy
  Tc  Tc0  1  0.86729861  0.97126553  0.54797458  1
  Tc  Tc1  1  0.13270139  0.52873447  0.04797458  1
  Tc  Tc2  1  0.63270139  0.47126553  0.45202542  1
  Tc  Tc3  1  0.36729861  0.02873447  0.95202542  1
  Tc  Tc4  1  0.13270139  0.02873447  0.45202542  1
  Tc  Tc5  1  0.86729861  0.47126553  0.95202542  1
  Tc  Tc6  1  0.36729861  0.52873447  0.54797458  1
  Tc  Tc7  1  0.63270139  0.97126553  0.04797458  1
  Tc  Tc8  1  0.05865019  0.95258314  0.61256916  1
  Tc  Tc9  1  0.94134981  0.54741686  0.11256916  1
  Tc  Tc10  1  0.44134981  0.45258314  0.38743084  1
  Tc  Tc11  1  0.55865019  0.04741686  0.88743084  1
  Tc  Tc12  1  0.94134981  0.04741686  0.38743084  1
  Tc  Tc13  1  0.05865019  0.45258314  0.88743084  1
  Tc  Tc14  1  0.55865019  0.54741686  0.61256916  1
  Tc  Tc15  1  0.44134981  0.95258314  0.11256916  1
  Tc  Tc16  1  0.99248436  0.13387253  0.55079270  1
  Tc  Tc17  1  0.00751564  0.36612747  0.05079270  1
  Tc  Tc18  1  0.50751564  0.63387253  0.44920730  1
  Tc  Tc19  1  0.49248436  0.86612747  0.94920730  1
  Tc  Tc20  1  0.00751564  0.86612747  0.44920730  1
  Tc  Tc21  1  0.99248436  0.63387253  0.94920730  1
  Tc  Tc22  1  0.49248436  0.36612747  0.55079270  1
  Tc  Tc23  1  0.50751564  0.13387253  0.05079270  1
  Te  Te24  1  0.80052849  0.15152359  0.48397160  1
  Te  Te25  1  0.19947151  0.34847641  0.98397160  1
  Te  Te26  1  0.69947151  0.65152359  0.51602840  1
  Te  Te27  1  0.30052849  0.84847641  0.01602840  1
  Te  Te28  1  0.19947151  0.84847641  0.51602840  1
  Te  Te29  1  0.80052849  0.65152359  0.01602840  1
  Te  Te30  1  0.30052849  0.34847641  0.48397160  1
  Te  Te31  1  0.69947151  0.15152359  0.98397160  1
  Te  Te32  1  0.91917682  0.05651063  0.71059110  1
  Te  Te33  1  0.08082318  0.44348937  0.21059110  1
  Te  Te34  1  0.58082318  0.55651063  0.28940890  1
  Te  Te35  1  0.41917682  0.94348937  0.78940890  1
  Te  Te36  1  0.08082318  0.94348937  0.28940890  1
  Te  Te37  1  0.91917682  0.55651063  0.78940890  1
  Te  Te38  1  0.41917682  0.44348937  0.71059110  1
  Te  Te39  1  0.58082318  0.05651063  0.21059110  1
  Te  Te40  1  0.18338761  0.11452130  0.61493060  1
  Te  Te41  1  0.81661239  0.38547870  0.11493060  1
  Te  Te42  1  0.31661239  0.61452130  0.38506940  1
  Te  Te43  1  0.68338761  0.88547870  0.88506940  1
  Te  Te44  1  0.81661239  0.88547870  0.38506940  1
  Te  Te45  1  0.18338761  0.61452130  0.88506940  1
  Te  Te46  1  0.68338761  0.38547870  0.61493060  1
  Te  Te47  1  0.31661239  0.11452130  0.11493060  1
  Te  Te48  1  0.06398581  0.21005194  0.39174321  1
  Te  Te49  1  0.93601419  0.28994806  0.89174321  1
  Te  Te50  1  0.43601419  0.71005194  0.60825679  1
  Te  Te51  1  0.56398581  0.78994806  0.10825679  1
  Te  Te52  1  0.93601419  0.78994806  0.60825679  1
  Te  Te53  1  0.06398581  0.71005194  0.10825679  1
  Te  Te54  1  0.56398581  0.28994806  0.39174321  1
  Te  Te55  1  0.43601419  0.21005194  0.89174321  1
  Te  Te56  1  0.67728897  0.92707566  0.61997157  1
  Te  Te57  1  0.32271103  0.57292434  0.11997157  1
  Te  Te58  1  0.82271103  0.42707566  0.38002843  1
  Te  Te59  1  0.17728897  0.07292434  0.88002843  1
  Te  Te60  1  0.32271103  0.07292434  0.38002843  1
  Te  Te61  1  0.67728897  0.42707566  0.88002843  1
  Te  Te62  1  0.17728897  0.57292434  0.61997157  1
  Te  Te63  1  0.82271103  0.92707566  0.11997157  1
  Te  Te64  1  0.50000000  -0.00000000  0.50000000  1
  Te  Te65  1  0.50000000  0.50000000  0.00000000  1
  Te  Te66  1  -0.00000000  0.50000000  0.50000000  1
  Te  Te67  1  -0.00000000  -0.00000000  0.00000000  1
  Te  Te68  1  0.46069534  0.17778401  0.62575099  1
  Te  Te69  1  0.53930466  0.32221599  0.12575099  1
  Te  Te70  1  0.03930466  0.67778401  0.37424901  1
  Te  Te71  1  0.96069534  0.82221599  0.87424901  1
  Te  Te72  1  0.53930466  0.82221599  0.37424901  1
  Te  Te73  1  0.46069534  0.67778401  0.87424901  1
  Te  Te74  1  0.96069534  0.32221599  0.62575099  1
  Te  Te75  1  0.03930466  0.17778401  0.12575099  1
  Te  Te76  1  0.64100773  0.11170585  0.72485438  1
  Te  Te77  1  0.35899227  0.38829415  0.22485438  1
  Te  Te78  1  0.85899227  0.61170585  0.27514562  1
  Te  Te79  1  0.14100773  0.88829415  0.77514562  1
  Te  Te80  1  0.35899227  0.88829415  0.27514562  1
  Te  Te81  1  0.64100773  0.61170585  0.77514562  1
  Te  Te82  1  0.14100773  0.38829415  0.72485438  1
  Te  Te83  1  0.85899227  0.11170585  0.22485438  1
