# generated using pymatgen
data_TmCo3P2
_symmetry_space_group_name_H-M   'P 1'
_cell_length_a   3.65530724
_cell_length_b   10.45453353
_cell_length_c   12.08480100
_cell_angle_alpha   90.00000000
_cell_angle_beta   90.00000000
_cell_angle_gamma   90.00000000
_symmetry_Int_Tables_number   1
_chemical_formula_structural   TmCo3P2
_chemical_formula_sum   'Tm6 Co18 P12'
_cell_volume   461.81501577
_cell_formula_units_Z   6
loop_
 _symmetry_equiv_pos_site_id
 _symmetry_equiv_pos_as_xyz
  1  'x, y, z'
loop_
 _atom_site_type_symbol
 _atom_site_label
 _atom_site_symmetry_multiplicity
 _atom_site_fract_x
 _atom_site_fract_y
 _atom_site_fract_z
 _atom_site_occupancy
  Tm  Tm0  1  0.75000000  0.25000000  0.47694419  1
  Tm  Tm1  1  0.25000000  0.75000000  0.52305581  1
  Tm  Tm2  1  0.25000000  0.93273236  0.79421165  1
  Tm  Tm3  1  0.25000000  0.56726764  0.79421165  1
  Tm  Tm4  1  0.75000000  0.06726764  0.20578835  1
  Tm  Tm5  1  0.75000000  0.43273236  0.20578835  1
  Co  Co6  1  0.25000000  0.25000000  0.84035545  1
  Co  Co7  1  0.75000000  0.75000000  0.15964455  1
  Co  Co8  1  0.25000000  0.25000000  0.29723618  1
  Co  Co9  1  0.75000000  0.75000000  0.70276382  1
  Co  Co10  1  0.75000000  0.25000000  0.01446761  1
  Co  Co11  1  0.25000000  0.75000000  0.98553239  1
  Co  Co12  1  0.25000000  0.41640012  0.00588957  1
  Co  Co13  1  0.25000000  0.08359988  0.00588957  1
  Co  Co14  1  0.75000000  0.58359988  0.99411043  1
  Co  Co15  1  0.75000000  0.91640012  0.99411043  1
  Co  Co16  1  0.25000000  0.45267829  0.56900158  1
  Co  Co17  1  0.25000000  0.04732171  0.56900158  1
  Co  Co18  1  0.75000000  0.54732171  0.43099842  1
  Co  Co19  1  0.75000000  0.95267829  0.43099842  1
  Co  Co20  1  0.25000000  0.87117946  0.29094466  1
  Co  Co21  1  0.25000000  0.62882054  0.29094466  1
  Co  Co22  1  0.75000000  0.12882054  0.70905534  1
  Co  Co23  1  0.75000000  0.37117946  0.70905534  1
  P  P24  1  0.25000000  0.25000000  0.11828335  1
  P  P25  1  0.75000000  0.75000000  0.88171665  1
  P  P26  1  0.25000000  0.25000000  0.65448300  1
  P  P27  1  0.75000000  0.75000000  0.34551700  1
  P  P28  1  0.25000000  0.43800922  0.38318077  1
  P  P29  1  0.25000000  0.06199078  0.38318077  1
  P  P30  1  0.75000000  0.56199078  0.61681923  1
  P  P31  1  0.75000000  0.93800922  0.61681923  1
  P  P32  1  0.25000000  0.90245732  0.10758668  1
  P  P33  1  0.25000000  0.59754268  0.10758668  1
  P  P34  1  0.75000000  0.09754268  0.89241332  1
  P  P35  1  0.75000000  0.40245732  0.89241332  1
