# generated using pymatgen
data_La(NO3)3
_symmetry_space_group_name_H-M   'P 1'
_cell_length_a   10.89834886
_cell_length_b   10.89834886
_cell_length_c   13.08267284
_cell_angle_alpha   99.23360601
_cell_angle_beta   99.23360601
_cell_angle_gamma   103.14432711
_symmetry_Int_Tables_number   1
_chemical_formula_structural   La(NO3)3
_chemical_formula_sum   'La8 N24 O72'
_cell_volume   1461.87297736
_cell_formula_units_Z   8
loop_
 _symmetry_equiv_pos_site_id
 _symmetry_equiv_pos_as_xyz
  1  'x, y, z'
loop_
 _atom_site_type_symbol
 _atom_site_label
 _atom_site_symmetry_multiplicity
 _atom_site_fract_x
 _atom_site_fract_y
 _atom_site_fract_z
 _atom_site_occupancy
  La  La0  1  0.00000000  0.50000000  0.00000000  1
  La  La1  1  0.50000000  0.00000000  0.50000000  1
  La  La2  1  0.72031256  0.27968744  0.25000000  1
  La  La3  1  0.27968744  0.72031256  0.75000000  1
  La  La4  1  0.76518380  0.78201044  0.24137596  1
  La  La5  1  0.21798956  0.23481620  0.25862404  1
  La  La6  1  0.23481620  0.21798956  0.75862404  1
  La  La7  1  0.78201044  0.76518380  0.74137596  1
  N  N8  1  0.63998969  0.49382797  0.14253854  1
  N  N9  1  0.50617203  0.36001031  0.35746146  1
  N  N10  1  0.36001031  0.50617203  0.85746146  1
  N  N11  1  0.49382797  0.63998969  0.64253854  1
  N  N12  1  0.74573776  0.17948087  0.45814742  1
  N  N13  1  0.82051913  0.25426224  0.04185258  1
  N  N14  1  0.25426224  0.82051913  0.54185258  1
  N  N15  1  0.17948087  0.74573776  0.95814742  1
  N  N16  1  0.75627994  0.54390524  0.86882537  1
  N  N17  1  0.45609476  0.24372006  0.63117463  1
  N  N18  1  0.24372006  0.45609476  0.13117463  1
  N  N19  1  0.54390524  0.75627994  0.36882537  1
  N  N20  1  0.00407447  0.68019506  0.20907912  1
  N  N21  1  0.31980494  0.99592553  0.29092088  1
  N  N22  1  0.99592553  0.31980494  0.79092088  1
  N  N23  1  0.68019506  0.00407447  0.70907912  1
  N  N24  1  0.83113588  0.86461537  0.97723814  1
  N  N25  1  0.13538463  0.16886412  0.52276186  1
  N  N26  1  0.16886412  0.13538463  0.02276186  1
  N  N27  1  0.86461537  0.83113588  0.47723814  1
  N  N28  1  0.61239079  0.97463234  0.17656820  1
  N  N29  1  0.02536766  0.38760921  0.32343180  1
  N  N30  1  0.38760921  0.02536766  0.82343180  1
  N  N31  1  0.97463234  0.61239079  0.67656820  1
  O  O32  1  0.72433439  0.52429704  0.23097104  1
  O  O33  1  0.47570296  0.27566561  0.26902896  1
  O  O34  1  0.27566561  0.47570296  0.76902896  1
  O  O35  1  0.52429704  0.72433439  0.73097104  1
  O  O36  1  0.58741678  0.37758584  0.10436582  1
  O  O37  1  0.62241416  0.41258322  0.39563418  1
  O  O38  1  0.41258322  0.62241416  0.89563418  1
  O  O39  1  0.37758584  0.58741678  0.60436582  1
  O  O40  1  0.61636943  0.58402554  0.10014072  1
  O  O41  1  0.41597446  0.38363057  0.39985928  1
  O  O42  1  0.38363057  0.41597446  0.89985928  1
  O  O43  1  0.58402554  0.61636943  0.60014072  1
  O  O44  1  0.63446910  0.15162726  0.39321068  1
  O  O45  1  0.84837274  0.36553090  0.10678932  1
  O  O46  1  0.36553090  0.84837274  0.60678932  1
  O  O47  1  0.15162726  0.63446910  0.89321068  1
  O  O48  1  0.75242321  0.13087782  0.53801404  1
  O  O49  1  0.86912218  0.24757679  0.96198596  1
  O  O50  1  0.24757679  0.86912218  0.46198596  1
  O  O51  1  0.13087782  0.75242321  0.03801404  1
  O  O52  1  0.83924048  0.25298609  0.43550961  1
  O  O53  1  0.74701391  0.16075952  0.06449039  1
  O  O54  1  0.16075952  0.74701391  0.56449039  1
  O  O55  1  0.25298609  0.83924048  0.93550961  1
  O  O56  1  0.74560832  0.46166269  0.92587403  1
  O  O57  1  0.53833731  0.25439168  0.57412597  1
  O  O58  1  0.25439168  0.53833731  0.07412597  1
  O  O59  1  0.46166269  0.74560832  0.42587403  1
  O  O60  1  0.86900899  0.62308462  0.87958434  1
  O  O61  1  0.37691538  0.13099101  0.62041566  1
  O  O62  1  0.13099101  0.37691538  0.12041566  1
  O  O63  1  0.62308462  0.86900899  0.37958434  1
  O  O64  1  0.66558264  0.55433157  0.80222731  1
  O  O65  1  0.44566843  0.33441736  0.69777269  1
  O  O66  1  0.33441736  0.44566843  0.19777269  1
  O  O67  1  0.55433157  0.66558264  0.30222731  1
  O  O68  1  0.08958939  0.62153026  0.20250623  1
  O  O69  1  0.37846974  0.91041061  0.29749377  1
  O  O70  1  0.91041061  0.37846974  0.79749377  1
  O  O71  1  0.62153026  0.08958939  0.70250623  1
  O  O72  1  0.00449629  0.76053340  0.28913026  1
  O  O73  1  0.23946660  0.99550371  0.21086974  1
  O  O74  1  0.99550371  0.23946660  0.71086974  1
  O  O75  1  0.76053340  0.00449629  0.78913026  1
  O  O76  1  0.90885649  0.65576835  0.12848403  1
  O  O77  1  0.34423165  0.09114351  0.37151597  1
  O  O78  1  0.09114351  0.34423165  0.87151597  1
  O  O79  1  0.65576835  0.90885649  0.62848403  1
  O  O80  1  0.71761337  0.80834619  0.92355662  1
  O  O81  1  0.19165381  0.28238663  0.57644338  1
  O  O82  1  0.28238663  0.19165381  0.07644338  1
  O  O83  1  0.80834619  0.71761337  0.42355662  1
  O  O84  1  0.85368993  0.88913911  0.07646459  1
  O  O85  1  0.11086089  0.14631007  0.42353541  1
  O  O86  1  0.14631007  0.11086089  0.92353541  1
  O  O87  1  0.88913911  0.85368993  0.57646459  1
  O  O88  1  0.91975114  0.89228993  0.92570154  1
  O  O89  1  0.10771007  0.08024886  0.57429846  1
  O  O90  1  0.08024886  0.10771007  0.07429846  1
  O  O91  1  0.89228993  0.91975114  0.42570154  1
  O  O92  1  0.57037191  0.85479674  0.14518530  1
  O  O93  1  0.14520326  0.42962809  0.35481470  1
  O  O94  1  0.42962809  0.14520326  0.85481470  1
  O  O95  1  0.85479674  0.57037191  0.64518530  1
  O  O96  1  0.54613875  0.05207075  0.15887864  1
  O  O97  1  0.94792925  0.45386125  0.34112136  1
  O  O98  1  0.45386125  0.94792925  0.84112136  1
  O  O99  1  0.05207075  0.54613875  0.65887864  1
  O  O100  1  0.72938029  0.02016381  0.23092144  1
  O  O101  1  0.97983619  0.27061971  0.26907856  1
  O  O102  1  0.27061971  0.97983619  0.76907856  1
  O  O103  1  0.02016381  0.72938029  0.73092144  1
