# generated using pymatgen
data_Dy11(In3Si2)2
_symmetry_space_group_name_H-M   'P 1'
_cell_length_a   11.47125434
_cell_length_b   11.47125434
_cell_length_c   11.47125434
_cell_angle_alpha   90.27023787
_cell_angle_beta   119.84410093
_cell_angle_gamma   119.84410093
_symmetry_Int_Tables_number   1
_chemical_formula_structural   Dy11(In3Si2)2
_chemical_formula_sum   'Dy22 In12 Si8'
_cell_volume   1069.87902048
_cell_formula_units_Z   2
loop_
 _symmetry_equiv_pos_site_id
 _symmetry_equiv_pos_as_xyz
  1  'x, y, z'
loop_
 _atom_site_type_symbol
 _atom_site_label
 _atom_site_symmetry_multiplicity
 _atom_site_fract_x
 _atom_site_fract_y
 _atom_site_fract_z
 _atom_site_occupancy
  Dy  Dy0  1  0.75008310  0.06585788  0.31577479  1
  Dy  Dy1  1  0.24991690  0.56569169  0.31577479  1
  Dy  Dy2  1  0.75008310  0.31577479  0.06585788  1
  Dy  Dy3  1  0.24991690  0.31577479  0.56569169  1
  Dy  Dy4  1  0.24991690  0.93414212  0.68422521  1
  Dy  Dy5  1  0.75008310  0.43430831  0.68422521  1
  Dy  Dy6  1  0.24991690  0.68422521  0.93414212  1
  Dy  Dy7  1  0.75008310  0.68422521  0.43430831  1
  Dy  Dy8  1  0.65239278  0.75360120  0.10120841  1
  Dy  Dy9  1  0.34760722  0.44881563  0.10120841  1
  Dy  Dy10  1  0.65239278  0.10120841  0.75360120  1
  Dy  Dy11  1  0.34760722  0.10120841  0.44881563  1
  Dy  Dy12  1  0.34760722  0.24639880  0.89879159  1
  Dy  Dy13  1  0.65239278  0.55118437  0.89879159  1
  Dy  Dy14  1  0.34760722  0.89879159  0.24639880  1
  Dy  Dy15  1  0.65239278  0.89879159  0.55118437  1
  Dy  Dy16  1  0.33527470  0.66763735  0.66763735  1
  Dy  Dy17  1  0.66472530  0.33236265  0.33236265  1
  Dy  Dy18  1  -0.00000000  0.33236265  0.66763735  1
  Dy  Dy19  1  0.00000000  0.66763735  0.33236265  1
  Dy  Dy20  1  0.00000000  0.16864046  0.16864046  1
  Dy  Dy21  1  -0.00000000  0.83135954  0.83135954  1
  In  In22  1  0.58877617  0.96550052  0.96550052  1
  In  In23  1  0.41122383  0.37672436  0.37672436  1
  In  In24  1  -0.00000000  0.37672436  0.96550052  1
  In  In25  1  0.00000000  0.96550052  0.37672436  1
  In  In26  1  0.41122383  0.03449948  0.03449948  1
  In  In27  1  0.58877617  0.62327564  0.62327564  1
  In  In28  1  0.00000000  0.62327564  0.03449948  1
  In  In29  1  0.00000000  0.03449948  0.62327564  1
  In  In30  1  0.74162905  0.87081453  0.87081453  1
  In  In31  1  0.25837095  0.12918547  0.12918547  1
  In  In32  1  -0.00000000  0.12918547  0.87081453  1
  In  In33  1  0.00000000  0.87081453  0.12918547  1
  Si  Si34  1  0.34689546  0.50000000  0.84689546  1
  Si  Si35  1  0.65310454  0.50000000  0.15310454  1
  Si  Si36  1  0.65310454  0.15310454  0.50000000  1
  Si  Si37  1  0.34689546  0.84689546  0.50000000  1
  Si  Si38  1  0.00000000  0.38446576  0.38446576  1
  Si  Si39  1  -0.00000000  0.61553424  0.61553424  1
  Si  Si40  1  0.50000000  0.75000000  0.25000000  1
  Si  Si41  1  0.50000000  0.25000000  0.75000000  1
