# generated using pymatgen
data_Rb6InP3S14
_symmetry_space_group_name_H-M   'P 1'
_cell_length_a   11.27205359
_cell_length_b   11.57498429
_cell_length_c   13.38411034
_cell_angle_alpha   105.80022790
_cell_angle_beta   90.00000000
_cell_angle_gamma   119.13797355
_symmetry_Int_Tables_number   1
_chemical_formula_structural   Rb6InP3S14
_chemical_formula_sum   'Rb12 In2 P6 S28'
_cell_volume   1449.27864888
_cell_formula_units_Z   2
loop_
 _symmetry_equiv_pos_site_id
 _symmetry_equiv_pos_as_xyz
  1  'x, y, z'
loop_
 _atom_site_type_symbol
 _atom_site_label
 _atom_site_symmetry_multiplicity
 _atom_site_fract_x
 _atom_site_fract_y
 _atom_site_fract_z
 _atom_site_occupancy
  Rb  Rb0  1  0.02119046  0.81074178  0.91286191  1
  Rb  Rb1  1  0.21044869  0.18925822  0.58713809  1
  Rb  Rb2  1  0.97880954  0.18925822  0.08713809  1
  Rb  Rb3  1  0.78955131  0.81074178  0.41286191  1
  Rb  Rb4  1  0.89779427  0.57050462  0.14977925  1
  Rb  Rb5  1  0.32728965  0.42949538  0.35022075  1
  Rb  Rb6  1  0.10220573  0.42949538  0.85022075  1
  Rb  Rb7  1  0.67271035  0.57050462  0.64977925  1
  Rb  Rb8  1  0.79789312  0.23400831  0.49009973  1
  Rb  Rb9  1  0.56388480  0.76599169  0.00990027  1
  Rb  Rb10  1  0.20210688  0.76599169  0.50990027  1
  Rb  Rb11  1  0.43611520  0.23400831  0.99009973  1
  In  In12  1  0.36598690  0.00000000  0.25000000  1
  In  In13  1  0.63401310  1.00000000  0.75000000  1
  P  P14  1  0.27419588  0.61645456  0.17064516  1
  P  P15  1  0.65774131  0.38354544  0.32935484  1
  P  P16  1  0.72580412  0.38354544  0.82935484  1
  P  P17  1  0.34225869  0.61645456  0.67064516  1
  P  P18  1  0.05800587  1.00000000  0.25000000  1
  P  P19  1  0.94199413  0.00000000  0.75000000  1
  S  S20  1  0.13330161  0.91915510  0.33877274  1
  S  S21  1  0.21414651  0.08084490  0.16122726  1
  S  S22  1  0.86669839  0.08084490  0.66122726  1
  S  S23  1  0.78585349  0.91915510  0.83877274  1
  S  S24  1  0.47238006  0.91343316  0.36786807  1
  S  S25  1  0.55894690  0.08656684  0.13213193  1
  S  S26  1  0.52761994  0.08656684  0.63213193  1
  S  S27  1  0.44105310  0.91343316  0.86786807  1
  S  S28  1  0.24448881  0.73919178  0.09859434  1
  S  S29  1  0.50529704  0.26080822  0.40140566  1
  S  S30  1  0.75551119  0.26080822  0.90140566  1
  S  S31  1  0.49470296  0.73919178  0.59859434  1
  S  S32  1  0.13343786  0.53867229  0.26200525  1
  S  S33  1  0.59476558  0.46132771  0.23799475  1
  S  S34  1  0.86656214  0.46132771  0.73799475  1
  S  S35  1  0.40523442  0.53867229  0.76200525  1
  S  S36  1  0.83055415  0.52661797  0.43272537  1
  S  S37  1  0.30393618  0.47338203  0.06727463  1
  S  S38  1  0.16944585  0.47338203  0.56727463  1
  S  S39  1  0.69606382  0.52661797  0.93272537  1
  S  S40  1  0.72612124  0.24795708  0.24026057  1
  S  S41  1  0.47816416  0.75204292  0.25973943  1
  S  S42  1  0.27387876  0.75204292  0.75973943  1
  S  S43  1  0.52183584  0.24795708  0.74026057  1
  S  S44  1  0.03031334  0.14989256  0.34849254  1
  S  S45  1  0.88042078  0.85010744  0.15150746  1
  S  S46  1  0.96968666  0.85010744  0.65150746  1
  S  S47  1  0.11957922  0.14989256  0.84849254  1
