# generated using pymatgen
data_Eu4MgTaN5
_symmetry_space_group_name_H-M   'P 1'
_cell_length_a   6.54499734
_cell_length_b   9.74464939
_cell_length_c   12.12132165
_cell_angle_alpha   90.00000000
_cell_angle_beta   90.00000000
_cell_angle_gamma   90.00000000
_symmetry_Int_Tables_number   1
_chemical_formula_structural   Eu4MgTaN5
_chemical_formula_sum   'Eu16 Mg4 Ta4 N20'
_cell_volume   773.08218969
_cell_formula_units_Z   4
loop_
 _symmetry_equiv_pos_site_id
 _symmetry_equiv_pos_as_xyz
  1  'x, y, z'
loop_
 _atom_site_type_symbol
 _atom_site_label
 _atom_site_symmetry_multiplicity
 _atom_site_fract_x
 _atom_site_fract_y
 _atom_site_fract_z
 _atom_site_occupancy
  Eu  Eu0  1  0.69079855  0.74222122  0.43796132  1
  Eu  Eu1  1  0.19079855  0.25777878  0.56203868  1
  Eu  Eu2  1  0.19079855  0.24222122  0.06203868  1
  Eu  Eu3  1  0.69079855  0.75777878  0.93796132  1
  Eu  Eu4  1  0.51595166  0.31678682  0.31776012  1
  Eu  Eu5  1  0.01595166  0.68321318  0.68223988  1
  Eu  Eu6  1  0.01595166  0.81678682  0.18223988  1
  Eu  Eu7  1  0.51595166  0.18321318  0.81776012  1
  Eu  Eu8  1  0.02350105  0.48676701  0.28950794  1
  Eu  Eu9  1  0.52350105  0.51323299  0.71049206  1
  Eu  Eu10  1  0.52350105  0.98676701  0.21049206  1
  Eu  Eu11  1  0.02350105  0.01323299  0.78950794  1
  Eu  Eu12  1  0.20275417  0.60460498  0.95573932  1
  Eu  Eu13  1  0.70275417  0.39539502  0.04426068  1
  Eu  Eu14  1  0.70275417  0.10460498  0.54426068  1
  Eu  Eu15  1  0.20275417  0.89539502  0.45573932  1
  Mg  Mg16  1  0.28659528  0.57880842  0.47858587  1
  Mg  Mg17  1  0.78659528  0.42119158  0.52141413  1
  Mg  Mg18  1  0.78659528  0.07880842  0.02141413  1
  Mg  Mg19  1  0.28659528  0.92119158  0.97858587  1
  Ta  Ta20  1  0.46832022  0.63518213  0.19246842  1
  Ta  Ta21  1  0.96832022  0.36481787  0.80753158  1
  Ta  Ta22  1  0.96832022  0.13518213  0.30753158  1
  Ta  Ta23  1  0.46832022  0.86481787  0.69246842  1
  N  N24  1  0.38879904  0.72379450  0.58863829  1
  N  N25  1  0.88879904  0.27620550  0.41136171  1
  N  N26  1  0.88879904  0.22379450  0.91136171  1
  N  N27  1  0.38879904  0.77620550  0.08863829  1
  N  N28  1  0.34606343  0.45990821  0.13880770  1
  N  N29  1  0.84606343  0.54009179  0.86119230  1
  N  N30  1  0.84606343  0.95990821  0.36119230  1
  N  N31  1  0.34606343  0.04009179  0.63880770  1
  N  N32  1  0.46440348  0.40360024  0.50709043  1
  N  N33  1  0.96440348  0.59639976  0.49290957  1
  N  N34  1  0.96440348  0.90360024  0.99290957  1
  N  N35  1  0.46440348  0.09639976  0.00709043  1
  N  N36  1  0.33887547  0.69845339  0.33032028  1
  N  N37  1  0.83887547  0.30154661  0.66967972  1
  N  N38  1  0.83887547  0.19845339  0.16967972  1
  N  N39  1  0.33887547  0.80154661  0.83032028  1
  N  N40  1  0.77122765  0.61564396  0.19384782  1
  N  N41  1  0.27122765  0.38435604  0.80615218  1
  N  N42  1  0.27122765  0.11564396  0.30615218  1
  N  N43  1  0.77122765  0.88435604  0.69384782  1
