# generated using pymatgen
data_Hg8Br3O4
_symmetry_space_group_name_H-M   'P 1'
_cell_length_a   6.49233741
_cell_length_b   7.02683495
_cell_length_c   32.21701752
_cell_angle_alpha   96.08240142
_cell_angle_beta   90.00000000
_cell_angle_gamma   90.00000000
_symmetry_Int_Tables_number   1
_chemical_formula_structural   Hg8Br3O4
_chemical_formula_sum   'Hg32 Br12 O16'
_cell_volume   1461.48517892
_cell_formula_units_Z   4
loop_
 _symmetry_equiv_pos_site_id
 _symmetry_equiv_pos_as_xyz
  1  'x, y, z'
loop_
 _atom_site_type_symbol
 _atom_site_label
 _atom_site_symmetry_multiplicity
 _atom_site_fract_x
 _atom_site_fract_y
 _atom_site_fract_z
 _atom_site_occupancy
  Hg  Hg0  1  0.86895079  0.64347730  0.50675077  1
  Hg  Hg1  1  0.63104921  0.14347730  0.00675077  1
  Hg  Hg2  1  0.13104921  0.35652270  0.49324923  1
  Hg  Hg3  1  0.36895079  0.85652270  0.99324923  1
  Hg  Hg4  1  0.33065970  0.94654896  0.53910989  1
  Hg  Hg5  1  0.16934030  0.44654896  0.03910989  1
  Hg  Hg6  1  0.66934030  0.05345104  0.46089011  1
  Hg  Hg7  1  0.83065970  0.55345104  0.96089011  1
  Hg  Hg8  1  0.32344864  0.78489116  0.60869951  1
  Hg  Hg9  1  0.17655136  0.28489116  0.10869951  1
  Hg  Hg10  1  0.67655136  0.21510884  0.39130049  1
  Hg  Hg11  1  0.82344864  0.71510884  0.89130049  1
  Hg  Hg12  1  0.87018958  0.11629297  0.57003952  1
  Hg  Hg13  1  0.62981042  0.61629297  0.07003952  1
  Hg  Hg14  1  0.12981042  0.88370703  0.42996048  1
  Hg  Hg15  1  0.37018958  0.38370703  0.92996048  1
  Hg  Hg16  1  0.07570408  0.35097462  0.62357677  1
  Hg  Hg17  1  0.42429592  0.85097462  0.12357677  1
  Hg  Hg18  1  0.92429592  0.64902538  0.37642323  1
  Hg  Hg19  1  0.57570408  0.14902538  0.87642323  1
  Hg  Hg20  1  0.08844797  0.70290113  0.71293107  1
  Hg  Hg21  1  0.41155203  0.20290113  0.21293107  1
  Hg  Hg22  1  0.91155203  0.29709887  0.28706893  1
  Hg  Hg23  1  0.58844797  0.79709887  0.78706893  1
  Hg  Hg24  1  0.86796736  0.14689784  0.71971615  1
  Hg  Hg25  1  0.63203264  0.64689784  0.21971615  1
  Hg  Hg26  1  0.13203264  0.85310216  0.28028385  1
  Hg  Hg27  1  0.36796736  0.35310216  0.78028385  1
  Hg  Hg28  1  0.56744602  0.48775983  0.67809947  1
  Hg  Hg29  1  0.93255398  0.98775983  0.17809947  1
  Hg  Hg30  1  0.43255398  0.51224017  0.32190053  1
  Hg  Hg31  1  0.06744602  0.01224017  0.82190053  1
  Br  Br32  1  0.50124027  0.38152446  0.55608272  1
  Br  Br33  1  0.99875973  0.88152446  0.05608272  1
  Br  Br34  1  0.49875973  0.61847554  0.44391728  1
  Br  Br35  1  0.00124027  0.11847554  0.94391728  1
  Br  Br36  1  0.81766628  0.78832457  0.62910964  1
  Br  Br37  1  0.68233372  0.28832457  0.12910964  1
  Br  Br38  1  0.18233372  0.21167543  0.37089036  1
  Br  Br39  1  0.31766628  0.71167543  0.87089036  1
  Br  Br40  1  0.35121800  0.08685579  0.68837844  1
  Br  Br41  1  0.14878200  0.58685579  0.18837844  1
  Br  Br42  1  0.64878200  0.91314421  0.31162156  1
  Br  Br43  1  0.85121800  0.41314421  0.81162156  1
  O  O44  1  0.72801432  0.92756252  0.51979373  1
  O  O45  1  0.77198568  0.42756252  0.01979373  1
  O  O46  1  0.27198568  0.07243748  0.48020627  1
  O  O47  1  0.22801432  0.57243748  0.98020627  1
  O  O48  1  0.27586374  0.58031648  0.65799256  1
  O  O49  1  0.22413626  0.08031648  0.15799256  1
  O  O50  1  0.72413626  0.41968352  0.34200744  1
  O  O51  1  0.77586374  0.91968352  0.84200744  1
  O  O52  1  0.89137579  0.90051837  0.74975993  1
  O  O53  1  0.60862421  0.40051837  0.24975993  1
  O  O54  1  0.10862421  0.09948163  0.25024007  1
  O  O55  1  0.39137579  0.59948163  0.75024007  1
  O  O56  1  0.86483615  0.40097770  0.69217340  1
  O  O57  1  0.63516385  0.90097770  0.19217340  1
  O  O58  1  0.13516385  0.59902230  0.30782660  1
  O  O59  1  0.36483615  0.09902230  0.80782660  1
