# generated using pymatgen
data_KAg3Te2
_symmetry_space_group_name_H-M   'P 1'
_cell_length_a   4.63869199
_cell_length_b   9.14624531
_cell_length_c   9.26329105
_cell_angle_alpha   113.32310891
_cell_angle_beta   90.00000000
_cell_angle_gamma   104.68972597
_symmetry_Int_Tables_number   1
_chemical_formula_structural   KAg3Te2
_chemical_formula_sum   'K2 Ag6 Te4'
_cell_volume   346.86240259
_cell_formula_units_Z   2
loop_
 _symmetry_equiv_pos_site_id
 _symmetry_equiv_pos_as_xyz
  1  'x, y, z'
loop_
 _atom_site_type_symbol
 _atom_site_label
 _atom_site_symmetry_multiplicity
 _atom_site_fract_x
 _atom_site_fract_y
 _atom_site_fract_z
 _atom_site_occupancy
  K  K0  1  0.13389689  0.26779379  0.04829054  1
  K  K1  1  0.86610311  0.73220621  0.95170946  1
  Ag  Ag2  1  0.58920052  0.17840103  0.62896164  1
  Ag  Ag3  1  0.41079948  0.82159897  0.37103836  1
  Ag  Ag4  1  0.69213320  0.38426641  0.45640441  1
  Ag  Ag5  1  0.30786680  0.61573359  0.54359559  1
  Ag  Ag6  1  0.06374550  0.12749100  0.40978995  1
  Ag  Ag7  1  0.93625450  0.87250900  0.59021005  1
  Te  Te8  1  0.20492677  0.40985355  0.70732010  1
  Te  Te9  1  0.79507323  0.59014645  0.29267990  1
  Te  Te10  1  0.51804436  0.03608873  0.22085120  1
  Te  Te11  1  0.48195564  0.96391127  0.77914880  1
