# generated using pymatgen
data_Ca3(AlAs2)2
_symmetry_space_group_name_H-M   'P 1'
_cell_length_a   6.68271066
_cell_length_b   8.28826546
_cell_length_c   8.28826546
_cell_angle_alpha   75.90819958
_cell_angle_beta   89.27697019
_cell_angle_gamma   89.27697019
_symmetry_Int_Tables_number   1
_chemical_formula_structural   Ca3(AlAs2)2
_chemical_formula_sum   'Ca6 Al4 As8'
_cell_volume   445.19920038
_cell_formula_units_Z   2
loop_
 _symmetry_equiv_pos_site_id
 _symmetry_equiv_pos_as_xyz
  1  'x, y, z'
loop_
 _atom_site_type_symbol
 _atom_site_label
 _atom_site_symmetry_multiplicity
 _atom_site_fract_x
 _atom_site_fract_y
 _atom_site_fract_z
 _atom_site_occupancy
  Ca  Ca0  1  0.75000000  0.40097760  0.59902240  1
  Ca  Ca1  1  0.25000000  0.59902240  0.40097760  1
  Ca  Ca2  1  0.97194744  0.75050650  0.00666555  1
  Ca  Ca3  1  0.52805256  0.99333445  0.24949350  1
  Ca  Ca4  1  0.02805256  0.24949350  0.99333445  1
  Ca  Ca5  1  0.47194744  0.00666555  0.75050650  1
  Al  Al6  1  0.58886100  0.42043301  0.17193985  1
  Al  Al7  1  0.91113900  0.82806015  0.57956699  1
  Al  Al8  1  0.41113900  0.57956699  0.82806015  1
  Al  Al9  1  0.08886100  0.17193985  0.42043301  1
  As  As10  1  0.56163624  0.74264330  0.56586682  1
  As  As11  1  0.93836376  0.43413318  0.25735670  1
  As  As12  1  0.43836376  0.25735670  0.43413318  1
  As  As13  1  0.06163624  0.56586682  0.74264330  1
  As  As14  1  0.52355511  0.28137276  0.94049932  1
  As  As15  1  0.97644489  0.05950068  0.71862724  1
  As  As16  1  0.47644489  0.71862724  0.05950068  1
  As  As17  1  0.02355511  0.94049932  0.28137276  1
