# generated using pymatgen
data_K3TiCl6
_symmetry_space_group_name_H-M   'P 1'
_cell_length_a   7.58663964
_cell_length_b   12.35409321
_cell_length_c   12.73076824
_cell_angle_alpha   109.17700979
_cell_angle_beta   90.00000000
_cell_angle_gamma   90.00000000
_symmetry_Int_Tables_number   1
_chemical_formula_structural   K3TiCl6
_chemical_formula_sum   'K12 Ti4 Cl24'
_cell_volume   1126.99165142
_cell_formula_units_Z   4
loop_
 _symmetry_equiv_pos_site_id
 _symmetry_equiv_pos_as_xyz
  1  'x, y, z'
loop_
 _atom_site_type_symbol
 _atom_site_label
 _atom_site_symmetry_multiplicity
 _atom_site_fract_x
 _atom_site_fract_y
 _atom_site_fract_z
 _atom_site_occupancy
  K  K0  1  0.56679016  0.61412408  0.82144093  1
  K  K1  1  0.06679016  0.88587592  0.17855907  1
  K  K2  1  0.43320984  0.38587592  0.17855907  1
  K  K3  1  0.93320984  0.11412408  0.82144093  1
  K  K4  1  0.43733726  0.26434856  0.81521496  1
  K  K5  1  0.93733726  0.23565144  0.18478504  1
  K  K6  1  0.56266274  0.73565144  0.18478504  1
  K  K7  1  0.06266274  0.76434856  0.81521496  1
  K  K8  1  0.47109782  0.13899994  0.40143548  1
  K  K9  1  0.97109782  0.36100006  0.59856452  1
  K  K10  1  0.52890218  0.86100006  0.59856452  1
  K  K11  1  0.02890218  0.63899994  0.40143548  1
  Ti  Ti12  1  0.00000000  0.50000000  -0.00000000  1
  Ti  Ti13  1  0.50000000  0.00000000  -0.00000000  1
  Ti  Ti14  1  0.00000000  0.00000000  0.50000000  1
  Ti  Ti15  1  0.50000000  0.50000000  0.50000000  1
  Cl  Cl16  1  0.79721430  0.49405414  0.14607084  1
  Cl  Cl17  1  0.29721430  0.00594586  0.85392916  1
  Cl  Cl18  1  0.20278570  0.50594586  0.85392916  1
  Cl  Cl19  1  0.70278570  0.99405414  0.14607084  1
  Cl  Cl20  1  0.79383527  0.39740515  0.85436683  1
  Cl  Cl21  1  0.29383527  0.10259485  0.14563317  1
  Cl  Cl22  1  0.20616473  0.60259485  0.14563317  1
  Cl  Cl23  1  0.70616473  0.89740515  0.85436683  1
  Cl  Cl24  1  0.13103081  0.31825945  0.99923566  1
  Cl  Cl25  1  0.63103081  0.18174055  0.00076434  1
  Cl  Cl26  1  0.86896919  0.68174055  0.00076434  1
  Cl  Cl27  1  0.36896919  0.81825945  0.99923566  1
  Cl  Cl28  1  0.72818990  0.09435859  0.59885246  1
  Cl  Cl29  1  0.22818990  0.40564141  0.40114754  1
  Cl  Cl30  1  0.27181010  0.90564141  0.40114754  1
  Cl  Cl31  1  0.77181010  0.59435859  0.59885246  1
  Cl  Cl32  1  0.99102497  0.12057670  0.38507965  1
  Cl  Cl33  1  0.49102497  0.37942330  0.61492035  1
  Cl  Cl34  1  0.00897503  0.87942330  0.61492035  1
  Cl  Cl35  1  0.50897503  0.62057670  0.38507965  1
  Cl  Cl36  1  0.31885509  0.64395245  0.62911865  1
  Cl  Cl37  1  0.81885509  0.85604755  0.37088135  1
  Cl  Cl38  1  0.68114491  0.35604755  0.37088135  1
  Cl  Cl39  1  0.18114491  0.14395245  0.62911865  1
