# generated using pymatgen
data_FeH29(SO11)2
_symmetry_space_group_name_H-M   'P 1'
_cell_length_a   12.30243096
_cell_length_b   12.86122326
_cell_length_c   12.93308725
_cell_angle_alpha   90.00000000
_cell_angle_beta   90.00000000
_cell_angle_gamma   90.00000000
_symmetry_Int_Tables_number   1
_chemical_formula_structural   FeH29(SO11)2
_chemical_formula_sum   'Fe4 H116 S8 O88'
_cell_volume   2046.32882204
_cell_formula_units_Z   4
loop_
 _symmetry_equiv_pos_site_id
 _symmetry_equiv_pos_as_xyz
  1  'x, y, z'
loop_
 _atom_site_type_symbol
 _atom_site_label
 _atom_site_symmetry_multiplicity
 _atom_site_fract_x
 _atom_site_fract_y
 _atom_site_fract_z
 _atom_site_occupancy
  Fe  Fe0  1  -0.00000000  0.00000000  0.00000000  1
  Fe  Fe1  1  0.50000000  0.50000000  0.00000000  1
  Fe  Fe2  1  -0.00000000  0.50000000  0.50000000  1
  Fe  Fe3  1  0.50000000  0.00000000  0.50000000  1
  H  H4  1  0.92268222  0.19126884  0.04769988  1
  H  H5  1  0.42268222  0.30873116  0.95230012  1
  H  H6  1  0.07731778  0.69126884  0.45230012  1
  H  H7  1  0.57731778  0.80873116  0.54769988  1
  H  H8  1  0.07731778  0.80873116  0.95230012  1
  H  H9  1  0.57731778  0.69126884  0.04769988  1
  H  H10  1  0.92268222  0.30873116  0.54769988  1
  H  H11  1  0.42268222  0.19126884  0.45230012  1
  H  H12  1  0.05419048  0.19955930  0.02786922  1
  H  H13  1  0.55419048  0.30044070  0.97213078  1
  H  H14  1  0.94580952  0.69955930  0.47213078  1
  H  H15  1  0.44580952  0.80044070  0.52786922  1
  H  H16  1  0.94580952  0.80044070  0.97213078  1
  H  H17  1  0.44580952  0.69955930  0.02786922  1
  H  H18  1  0.05419048  0.30044070  0.52786922  1
  H  H19  1  0.55419048  0.19955930  0.47213078  1
  H  H20  1  0.97165239  0.95109576  0.80013183  1
  H  H21  1  0.47165239  0.54890424  0.19986817  1
  H  H22  1  0.02834761  0.45109576  0.69986817  1
  H  H23  1  0.52834761  0.04890424  0.30013183  1
  H  H24  1  0.02834761  0.04890424  0.19986817  1
  H  H25  1  0.52834761  0.45109576  0.80013183  1
  H  H26  1  0.97165239  0.54890424  0.30013183  1
  H  H27  1  0.47165239  0.95109576  0.69986817  1
  H  H28  1  0.96005838  0.07806500  0.80794247  1
  H  H29  1  0.46005838  0.42193500  0.19205753  1
  H  H30  1  0.03994162  0.57806500  0.69205753  1
  H  H31  1  0.53994162  0.92193500  0.30794247  1
  H  H32  1  0.03994162  0.92193500  0.19205753  1
  H  H33  1  0.53994162  0.57806500  0.80794247  1
  H  H34  1  0.96005838  0.42193500  0.30794247  1
  H  H35  1  0.46005838  0.07806500  0.69205753  1
  H  H36  1  0.19666445  0.04373466  0.92067989  1
  H  H37  1  0.69666445  0.45626534  0.07932011  1
  H  H38  1  0.80333555  0.54373466  0.57932011  1
  H  H39  1  0.30333555  0.95626534  0.42067989  1
  H  H40  1  0.80333555  0.95626534  0.07932011  1
  H  H41  1  0.30333555  0.54373466  0.92067989  1
  H  H42  1  0.19666445  0.45626534  0.42067989  1
  H  H43  1  0.69666445  0.04373466  0.57932011  1
  H  H44  1  0.21363816  0.02277876  0.04630829  1
  H  H45  1  0.71363816  0.47722124  0.95369171  1
  H  H46  1  0.78636184  0.52277876  0.45369171  1
  H  H47  1  0.28636184  0.97722124  0.54630829  1
  H  H48  1  0.78636184  0.97722124  0.95369171  1
  H  H49  1  0.28636184  0.52277876  0.04630829  1
  H  H50  1  0.21363816  0.47722124  0.54630829  1
  H  H51  1  0.71363816  0.02277876  0.45369171  1
  H  H52  1  0.29043044  0.10235483  0.17164205  1
  H  H53  1  0.79043044  0.39764517  0.82835795  1
  H  H54  1  0.70956956  0.60235483  0.32835795  1
  H  H55  1  0.20956956  0.89764517  0.67164205  1
  H  H56  1  0.70956956  0.89764517  0.82835795  1
  H  H57  1  0.20956956  0.60235483  0.17164205  1
  H  H58  1  0.29043044  0.39764517  0.67164205  1
  H  H59  1  0.79043044  0.10235483  0.32835795  1
  H  H60  1  0.27764817  0.98371005  0.19752168  1
  H  H61  1  0.77764817  0.51628995  0.80247832  1
  H  H62  1  0.72235183  0.48371005  0.30247832  1
  H  H63  1  0.22235183  0.01628995  0.69752168  1
  H  H64  1  0.72235183  0.01628995  0.80247832  1
  H  H65  1  0.22235183  0.48371005  0.19752168  1
  H  H66  1  0.27764817  0.51628995  0.69752168  1
  H  H67  1  0.77764817  0.98371005  0.30247832  1
  H  H68  1  0.12377384  0.32344593  0.77038345  1
  H  H69  1  0.62377384  0.17655407  0.22961655  1
  H  H70  1  0.87622616  0.82344593  0.72961655  1
  H  H71  1  0.37622616  0.67655407  0.27038345  1
  H  H72  1  0.87622616  0.67655407  0.22961655  1
  H  H73  1  0.37622616  0.82344593  0.77038345  1
  H  H74  1  0.12377384  0.17655407  0.27038345  1
  H  H75  1  0.62377384  0.32344593  0.72961655  1
  H  H76  1  0.99861929  0.29320292  0.76834827  1
  H  H77  1  0.49861929  0.20679708  0.23165173  1
  H  H78  1  0.00138071  0.79320292  0.73165173  1
  H  H79  1  0.50138071  0.70679708  0.26834827  1
  H  H80  1  0.00138071  0.70679708  0.23165173  1
  H  H81  1  0.50138071  0.79320292  0.76834827  1
  H  H82  1  0.99861929  0.20679708  0.26834827  1
  H  H83  1  0.49861929  0.29320292  0.73165173  1
  H  H84  1  0.21604176  0.26440355  0.99314753  1
  H  H85  1  0.71604176  0.23559645  0.00685247  1
  H  H86  1  0.78395824  0.76440355  0.50685247  1
  H  H87  1  0.28395824  0.73559645  0.49314753  1
  H  H88  1  0.78395824  0.73559645  0.00685247  1
  H  H89  1  0.28395824  0.76440355  0.99314753  1
  H  H90  1  0.21604176  0.23559645  0.49314753  1
  H  H91  1  0.71604176  0.26440355  0.50685247  1
  H  H92  1  0.18976518  0.27247766  0.11387954  1
  H  H93  1  0.68976518  0.22752234  0.88612046  1
  H  H94  1  0.81023482  0.77247766  0.38612046  1
  H  H95  1  0.31023482  0.72752234  0.61387954  1
  H  H96  1  0.81023482  0.72752234  0.88612046  1
  H  H97  1  0.31023482  0.77247766  0.11387954  1
  H  H98  1  0.18976518  0.22752234  0.61387954  1
  H  H99  1  0.68976518  0.27247766  0.38612046  1
  H  H100  1  -0.00000000  0.50000000  0.00000000  1
  H  H101  1  0.50000000  0.00000000  0.00000000  1
  H  H102  1  -0.00000000  0.00000000  0.50000000  1
  H  H103  1  0.50000000  0.50000000  0.50000000  1
  H  H104  1  0.10065125  0.39087162  0.00444604  1
  H  H105  1  0.60065125  0.10912838  0.99555396  1
  H  H106  1  0.89934875  0.89087162  0.49555396  1
  H  H107  1  0.39934875  0.60912838  0.50444604  1
  H  H108  1  0.89934875  0.60912838  0.99555396  1
  H  H109  1  0.39934875  0.89087162  0.00444604  1
  H  H110  1  0.10065125  0.10912838  0.50444604  1
  H  H111  1  0.60065125  0.39087162  0.49555396  1
  H  H112  1  0.04880586  0.41315630  0.89241484  1
  H  H113  1  0.54880586  0.08684370  0.10758516  1
  H  H114  1  0.95119414  0.91315630  0.60758516  1
  H  H115  1  0.45119414  0.58684370  0.39241484  1
  H  H116  1  0.95119414  0.58684370  0.10758516  1
  H  H117  1  0.45119414  0.91315630  0.89241484  1
  H  H118  1  0.04880586  0.08684370  0.39241484  1
  H  H119  1  0.54880586  0.41315630  0.60758516  1
  S  S120  1  0.31053011  0.19639646  0.80307837  1
  S  S121  1  0.81053011  0.30360354  0.19692163  1
  S  S122  1  0.68946989  0.69639646  0.69692163  1
  S  S123  1  0.18946989  0.80360354  0.30307837  1
  S  S124  1  0.68946989  0.80360354  0.19692163  1
  S  S125  1  0.18946989  0.69639646  0.80307837  1
  S  S126  1  0.31053011  0.30360354  0.30307837  1
  S  S127  1  0.81053011  0.19639646  0.69692163  1
  O  O128  1  0.98729944  0.15571416  0.01568862  1
  O  O129  1  0.48729944  0.34428584  0.98431138  1
  O  O130  1  0.01270056  0.65571416  0.48431138  1
  O  O131  1  0.51270056  0.84428584  0.51568862  1
  O  O132  1  0.01270056  0.84428584  0.98431138  1
  O  O133  1  0.51270056  0.65571416  0.01568862  1
  O  O134  1  0.98729944  0.34428584  0.51568862  1
  O  O135  1  0.48729944  0.15571416  0.48431138  1
  O  O136  1  0.98545626  0.01391765  0.84484529  1
  O  O137  1  0.48545626  0.48608235  0.15515471  1
  O  O138  1  0.01454374  0.51391765  0.65515471  1
  O  O139  1  0.51454374  0.98608235  0.34484529  1
  O  O140  1  0.01454374  0.98608235  0.15515471  1
  O  O141  1  0.51454374  0.51391765  0.84484529  1
  O  O142  1  0.98545626  0.48608235  0.34484529  1
  O  O143  1  0.48545626  0.01391765  0.65515471  1
  O  O144  1  0.16233165  0.01464373  0.98431757  1
  O  O145  1  0.66233165  0.48535627  0.01568243  1
  O  O146  1  0.83766835  0.51464373  0.51568243  1
  O  O147  1  0.33766835  0.98535627  0.48431757  1
  O  O148  1  0.83766835  0.98535627  0.01568243  1
  O  O149  1  0.33766835  0.51464373  0.98431757  1
  O  O150  1  0.16233165  0.48535627  0.48431757  1
  O  O151  1  0.66233165  0.01464373  0.51568243  1
  O  O152  1  0.25312643  0.09494429  0.80989663  1
  O  O153  1  0.75312643  0.40505571  0.19010337  1
  O  O154  1  0.74687357  0.59494429  0.69010337  1
  O  O155  1  0.24687357  0.90505571  0.30989663  1
  O  O156  1  0.74687357  0.90505571  0.19010337  1
  O  O157  1  0.24687357  0.59494429  0.80989663  1
  O  O158  1  0.25312643  0.40505571  0.30989663  1
  O  O159  1  0.75312643  0.09494429  0.69010337  1
  O  O160  1  0.31912885  0.24406808  0.90817057  1
  O  O161  1  0.81912885  0.25593192  0.09182943  1
  O  O162  1  0.68087115  0.74406808  0.59182943  1
  O  O163  1  0.18087115  0.75593192  0.40817057  1
  O  O164  1  0.68087115  0.75593192  0.09182943  1
  O  O165  1  0.18087115  0.74406808  0.90817057  1
  O  O166  1  0.31912885  0.25593192  0.40817057  1
  O  O167  1  0.81912885  0.24406808  0.59182943  1
  O  O168  1  0.24720006  0.26868088  0.73361254  1
  O  O169  1  0.74720006  0.23131912  0.26638746  1
  O  O170  1  0.75279994  0.76868088  0.76638746  1
  O  O171  1  0.25279994  0.73131912  0.23361254  1
  O  O172  1  0.75279994  0.73131912  0.26638746  1
  O  O173  1  0.25279994  0.76868088  0.73361254  1
  O  O174  1  0.24720006  0.23131912  0.23361254  1
  O  O175  1  0.74720006  0.26868088  0.76638746  1
  O  O176  1  0.42180001  0.18268453  0.75904282  1
  O  O177  1  0.92180001  0.31731547  0.24095718  1
  O  O178  1  0.57819999  0.68268453  0.74095718  1
  O  O179  1  0.07819999  0.81731547  0.25904282  1
  O  O180  1  0.57819999  0.81731547  0.24095718  1
  O  O181  1  0.07819999  0.68268453  0.75904282  1
  O  O182  1  0.42180001  0.31731547  0.25904282  1
  O  O183  1  0.92180001  0.18268453  0.74095718  1
  O  O184  1  0.29236217  0.03253068  0.14008894  1
  O  O185  1  0.79236217  0.46746932  0.85991106  1
  O  O186  1  0.70763783  0.53253068  0.35991106  1
  O  O187  1  0.20763783  0.96746932  0.64008894  1
  O  O188  1  0.70763783  0.96746932  0.85991106  1
  O  O189  1  0.20763783  0.53253068  0.14008894  1
  O  O190  1  0.29236217  0.46746932  0.64008894  1
  O  O191  1  0.79236217  0.03253068  0.35991106  1
  O  O192  1  0.04924398  0.35297851  0.77913655  1
  O  O193  1  0.54924398  0.14702149  0.22086345  1
  O  O194  1  0.95075602  0.85297851  0.72086345  1
  O  O195  1  0.45075602  0.64702149  0.27913655  1
  O  O196  1  0.95075602  0.64702149  0.22086345  1
  O  O197  1  0.45075602  0.85297851  0.77913655  1
  O  O198  1  0.04924398  0.14702149  0.27913655  1
  O  O199  1  0.54924398  0.35297851  0.72086345  1
  O  O200  1  0.15656105  0.27858648  0.04402058  1
  O  O201  1  0.65656105  0.22141352  0.95597942  1
  O  O202  1  0.84343895  0.77858648  0.45597942  1
  O  O203  1  0.34343895  0.72141352  0.54402058  1
  O  O204  1  0.84343895  0.72141352  0.95597942  1
  O  O205  1  0.34343895  0.77858648  0.04402058  1
  O  O206  1  0.15656105  0.22141352  0.54402058  1
  O  O207  1  0.65656105  0.27858648  0.45597942  1
  O  O208  1  0.06881266  0.44696679  0.95985591  1
  O  O209  1  0.56881266  0.05303321  0.04014409  1
  O  O210  1  0.93118734  0.94696679  0.54014409  1
  O  O211  1  0.43118734  0.55303321  0.45985591  1
  O  O212  1  0.93118734  0.55303321  0.04014409  1
  O  O213  1  0.43118734  0.94696679  0.95985591  1
  O  O214  1  0.06881266  0.05303321  0.45985591  1
  O  O215  1  0.56881266  0.44696679  0.54014409  1
