# generated using pymatgen
data_YbBeF4
_symmetry_space_group_name_H-M   'P 1'
_cell_length_a   6.23536790
_cell_length_b   6.52319591
_cell_length_c   6.70757450
_cell_angle_alpha   90.00000000
_cell_angle_beta   90.00000000
_cell_angle_gamma   104.50015362
_symmetry_Int_Tables_number   1
_chemical_formula_structural   YbBeF4
_chemical_formula_sum   'Yb4 Be4 F16'
_cell_volume   264.13703604
_cell_formula_units_Z   4
loop_
 _symmetry_equiv_pos_site_id
 _symmetry_equiv_pos_as_xyz
  1  'x, y, z'
loop_
 _atom_site_type_symbol
 _atom_site_label
 _atom_site_symmetry_multiplicity
 _atom_site_fract_x
 _atom_site_fract_y
 _atom_site_fract_z
 _atom_site_occupancy
  Yb  Yb0  1  0.40487372  0.22047640  0.65297235  1
  Yb  Yb1  1  0.90487372  0.72047640  0.84702765  1
  Yb  Yb2  1  0.59512628  0.77952360  0.34702765  1
  Yb  Yb3  1  0.09512628  0.27952360  0.15297235  1
  Be  Be4  1  0.88755734  0.19853601  0.66179303  1
  Be  Be5  1  0.38755734  0.69853601  0.83820697  1
  Be  Be6  1  0.11244266  0.80146399  0.33820697  1
  Be  Be7  1  0.61244266  0.30146399  0.16179303  1
  F  F8  1  0.07215017  0.25007250  0.49976209  1
  F  F9  1  0.57215017  0.75007250  0.00023791  1
  F  F10  1  0.92784983  0.74992750  0.50023791  1
  F  F11  1  0.42784983  0.24992750  0.99976209  1
  F  F12  1  0.99729698  0.11136728  0.84221200  1
  F  F13  1  0.49729698  0.61136728  0.65778800  1
  F  F14  1  0.00270302  0.88863272  0.15778800  1
  F  F15  1  0.50270302  0.38863272  0.34221200  1
  F  F16  1  0.67968944  0.02083630  0.60243517  1
  F  F17  1  0.17968944  0.52083630  0.89756483  1
  F  F18  1  0.32031056  0.97916370  0.39756483  1
  F  F19  1  0.82031056  0.47916370  0.10243517  1
  F  F20  1  0.78048894  0.38221455  0.71323899  1
  F  F21  1  0.28048894  0.88221455  0.78676101  1
  F  F22  1  0.21951106  0.61778545  0.28676101  1
  F  F23  1  0.71951106  0.11778545  0.21323899  1
