# generated using pymatgen
data_MgCu2SiS4
_symmetry_space_group_name_H-M   'P 1'
_cell_length_a   6.20401606
_cell_length_b   6.45778085
_cell_length_c   7.56673450
_cell_angle_alpha   90.00000000
_cell_angle_beta   90.00000000
_cell_angle_gamma   90.00000000
_symmetry_Int_Tables_number   1
_chemical_formula_structural   MgCu2SiS4
_chemical_formula_sum   'Mg2 Cu4 Si2 S8'
_cell_volume   303.15498355
_cell_formula_units_Z   2
loop_
 _symmetry_equiv_pos_site_id
 _symmetry_equiv_pos_as_xyz
  1  'x, y, z'
loop_
 _atom_site_type_symbol
 _atom_site_label
 _atom_site_symmetry_multiplicity
 _atom_site_fract_x
 _atom_site_fract_y
 _atom_site_fract_z
 _atom_site_occupancy
  Mg  Mg0  1  0.99711666  0.65455990  0.50000000  1
  Mg  Mg1  1  0.49711666  0.34544010  0.00000000  1
  Cu  Cu2  1  0.00676690  0.17731168  0.24762109  1
  Cu  Cu3  1  0.00676690  0.17731168  0.75237891  1
  Cu  Cu4  1  0.50676690  0.82268832  0.25237891  1
  Cu  Cu5  1  0.50676690  0.82268832  0.74762109  1
  Si  Si6  1  0.49885615  0.32213179  0.50000000  1
  Si  Si7  1  0.99885615  0.67786821  0.00000000  1
  S  S8  1  0.37682007  0.16162961  0.27078753  1
  S  S9  1  0.37682007  0.16162961  0.72921247  1
  S  S10  1  0.87682007  0.83837039  0.22921247  1
  S  S11  1  0.87682007  0.83837039  0.77078753  1
  S  S12  1  0.84622978  0.30584391  0.50000000  1
  S  S13  1  0.34622978  0.69415609  0.00000000  1
  S  S14  1  0.39552346  0.64067611  0.50000000  1
  S  S15  1  0.89552346  0.35932389  0.00000000  1
