# generated using pymatgen
data_CeMg6Cd
_symmetry_space_group_name_H-M   'P 1'
_cell_length_a   6.84136652
_cell_length_b   6.39883421
_cell_length_c   5.12671438
_cell_angle_alpha   90.00000000
_cell_angle_beta   90.00000000
_cell_angle_gamma   117.88235976
_symmetry_Int_Tables_number   1
_chemical_formula_structural   CeMg6Cd
_chemical_formula_sum   'Ce1 Mg6 Cd1'
_cell_volume   198.37672500
_cell_formula_units_Z   1
loop_
 _symmetry_equiv_pos_site_id
 _symmetry_equiv_pos_as_xyz
  1  'x, y, z'
loop_
 _atom_site_type_symbol
 _atom_site_label
 _atom_site_symmetry_multiplicity
 _atom_site_fract_x
 _atom_site_fract_y
 _atom_site_fract_z
 _atom_site_occupancy
  Ce  Ce0  1  0.13299713  0.31649806  0.25000000  1
  Mg  Mg1  1  0.64420559  0.32415499  0.25000000  1
  Mg  Mg2  1  0.64420559  0.82004960  0.25000000  1
  Mg  Mg3  1  0.34679415  0.17594877  0.75000000  1
  Mg  Mg4  1  0.34679415  0.67084638  0.75000000  1
  Mg  Mg5  1  0.81209816  0.15604958  0.75000000  1
  Mg  Mg6  1  0.87144878  0.68572489  0.75000000  1
  Cd  Cd7  1  0.20145645  0.85072773  0.25000000  1
