# generated using pymatgen
data_ErPRu2C
_symmetry_space_group_name_H-M   'P 1'
_cell_length_a   3.75801617
_cell_length_b   5.85220828
_cell_length_c   7.03189234
_cell_angle_alpha   90.00000000
_cell_angle_beta   90.00000000
_cell_angle_gamma   108.72805534
_symmetry_Int_Tables_number   1
_chemical_formula_structural   ErPRu2C
_chemical_formula_sum   'Er2 P2 Ru4 C2'
_cell_volume   146.46201173
_cell_formula_units_Z   2
loop_
 _symmetry_equiv_pos_site_id
 _symmetry_equiv_pos_as_xyz
  1  'x, y, z'
loop_
 _atom_site_type_symbol
 _atom_site_label
 _atom_site_symmetry_multiplicity
 _atom_site_fract_x
 _atom_site_fract_y
 _atom_site_fract_z
 _atom_site_occupancy
  Er  Er0  1  0.45597562  0.91195124  0.25000000  1
  Er  Er1  1  0.54402438  0.08804876  0.75000000  1
  P  P2  1  0.73258653  0.46517306  0.25000000  1
  P  P3  1  0.26741347  0.53482694  0.75000000  1
  Ru  Ru4  1  0.16475442  0.32950883  0.05282862  1
  Ru  Ru5  1  0.83524558  0.67049117  0.94717138  1
  Ru  Ru6  1  0.83524558  0.67049117  0.55282862  1
  Ru  Ru7  1  0.16475442  0.32950883  0.44717138  1
  C  C8  1  -0.00000000  -0.00000000  0.00000000  1
  C  C9  1  -0.00000000  -0.00000000  0.50000000  1
