# generated using pymatgen
data_Gd2MgSi2
_symmetry_space_group_name_H-M   'P 1'
_cell_length_a   4.24805003
_cell_length_b   7.23179607
_cell_length_c   7.23179607
_cell_angle_alpha   90.00000000
_cell_angle_beta   90.00000000
_cell_angle_gamma   90.00000000
_symmetry_Int_Tables_number   1
_chemical_formula_structural   Gd2MgSi2
_chemical_formula_sum   'Gd4 Mg2 Si4'
_cell_volume   222.16823496
_cell_formula_units_Z   2
loop_
 _symmetry_equiv_pos_site_id
 _symmetry_equiv_pos_as_xyz
  1  'x, y, z'
loop_
 _atom_site_type_symbol
 _atom_site_label
 _atom_site_symmetry_multiplicity
 _atom_site_fract_x
 _atom_site_fract_y
 _atom_site_fract_z
 _atom_site_occupancy
  Gd  Gd0  1  0.50000000  0.17949837  0.67949837  1
  Gd  Gd1  1  0.50000000  0.82050163  0.32050163  1
  Gd  Gd2  1  0.50000000  0.32050163  0.17949837  1
  Gd  Gd3  1  0.50000000  0.67949837  0.82050163  1
  Mg  Mg4  1  -0.00000000  -0.00000000  -0.00000000  1
  Mg  Mg5  1  -0.00000000  0.50000000  0.50000000  1
  Si  Si6  1  0.00000000  0.61668033  0.11668033  1
  Si  Si7  1  -0.00000000  0.38331967  0.88331967  1
  Si  Si8  1  -0.00000000  0.88331967  0.61668033  1
  Si  Si9  1  0.00000000  0.11668033  0.38331967  1
