# generated using pymatgen
data_TbCdAu
_symmetry_space_group_name_H-M   'P 1'
_cell_length_a   3.85120891
_cell_length_b   7.93150597
_cell_length_c   7.93150597
_cell_angle_alpha   119.99999327
_cell_angle_beta   90.00000000
_cell_angle_gamma   90.00000000
_symmetry_Int_Tables_number   1
_chemical_formula_structural   TbCdAu
_chemical_formula_sum   'Tb3 Cd3 Au3'
_cell_volume   209.81621589
_cell_formula_units_Z   3
loop_
 _symmetry_equiv_pos_site_id
 _symmetry_equiv_pos_as_xyz
  1  'x, y, z'
loop_
 _atom_site_type_symbol
 _atom_site_label
 _atom_site_symmetry_multiplicity
 _atom_site_fract_x
 _atom_site_fract_y
 _atom_site_fract_z
 _atom_site_occupancy
  Tb  Tb0  1  0.00000000  0.40459950  0.40459950  1
  Tb  Tb1  1  0.00000000  1.00000000  0.59540050  1
  Tb  Tb2  1  -0.00000000  0.59540050  1.00000000  1
  Cd  Cd3  1  0.50000000  0.73532329  0.73532329  1
  Cd  Cd4  1  0.50000000  1.00000000  0.26467671  1
  Cd  Cd5  1  0.50000000  0.26467671  1.00000000  1
  Au  Au6  1  0.50000000  0.66666700  0.33333300  1
  Au  Au7  1  0.50000000  0.33333300  0.66666700  1
  Au  Au8  1  0.00000000  0.00000000  -0.00000000  1
