# generated using pymatgen
data_NpSi2Ni
_symmetry_space_group_name_H-M   'P 1'
_cell_length_a   4.01231724
_cell_length_b   4.00354921
_cell_length_c   8.32552254
_cell_angle_alpha   103.91240802
_cell_angle_beta   90.00000000
_cell_angle_gamma   90.00000000
_symmetry_Int_Tables_number   1
_chemical_formula_structural   NpSi2Ni
_chemical_formula_sum   'Np2 Si4 Ni2'
_cell_volume   129.81385681
_cell_formula_units_Z   2
loop_
 _symmetry_equiv_pos_site_id
 _symmetry_equiv_pos_as_xyz
  1  'x, y, z'
loop_
 _atom_site_type_symbol
 _atom_site_label
 _atom_site_symmetry_multiplicity
 _atom_site_fract_x
 _atom_site_fract_y
 _atom_site_fract_z
 _atom_site_occupancy
  Np  Np0  1  0.25000000  0.39644838  0.79289676  1
  Np  Np1  1  0.75000000  0.60355162  0.20710324  1
  Si  Si2  1  0.25000000  0.04012858  0.08025717  1
  Si  Si3  1  0.75000000  0.95987142  0.91974283  1
  Si  Si4  1  0.25000000  0.74947448  0.49894897  1
  Si  Si5  1  0.75000000  0.25052552  0.50105103  1
  Ni  Ni6  1  0.25000000  0.17978588  0.35957175  1
  Ni  Ni7  1  0.75000000  0.82021412  0.64042825  1
