# generated using pymatgen
data_Mg6SnSb
_symmetry_space_group_name_H-M   'P 1'
_cell_length_a   6.56761016
_cell_length_b   6.56760964
_cell_length_c   5.31758645
_cell_angle_alpha   90.00000000
_cell_angle_beta   90.00000000
_cell_angle_gamma   124.34533917
_symmetry_Int_Tables_number   1
_chemical_formula_structural   Mg6SnSb
_chemical_formula_sum   'Mg6 Sn1 Sb1'
_cell_volume   189.37661538
_cell_formula_units_Z   1
loop_
 _symmetry_equiv_pos_site_id
 _symmetry_equiv_pos_as_xyz
  1  'x, y, z'
loop_
 _atom_site_type_symbol
 _atom_site_label
 _atom_site_symmetry_multiplicity
 _atom_site_fract_x
 _atom_site_fract_y
 _atom_site_fract_z
 _atom_site_occupancy
  Mg  Mg0  1  0.16019737  0.84055525  0.25000000  1
  Mg  Mg1  1  0.65944475  0.33980263  0.25000000  1
  Mg  Mg2  1  0.67106823  0.82893177  0.25000000  1
  Mg  Mg3  1  0.33770908  0.66069347  0.75000000  1
  Mg  Mg4  1  0.83930653  0.16229092  0.75000000  1
  Mg  Mg5  1  0.82646429  0.67353571  0.75000000  1
  Sn  Sn6  1  0.14360584  0.35639416  0.25000000  1
  Sb  Sb7  1  0.36220390  0.13779610  0.75000000  1
