# generated using pymatgen
data_Ce3(GeRh)4
_symmetry_space_group_name_H-M   'P 1'
_cell_length_a   3.99882459
_cell_length_b   4.29289614
_cell_length_c   12.96917369
_cell_angle_alpha   99.52650266
_cell_angle_beta   98.86845787
_cell_angle_gamma   90.00000000
_symmetry_Int_Tables_number   1
_chemical_formula_structural   Ce3(GeRh)4
_chemical_formula_sum   'Ce3 Ge4 Rh4'
_cell_volume   216.86616850
_cell_formula_units_Z   1
loop_
 _symmetry_equiv_pos_site_id
 _symmetry_equiv_pos_as_xyz
  1  'x, y, z'
loop_
 _atom_site_type_symbol
 _atom_site_label
 _atom_site_symmetry_multiplicity
 _atom_site_fract_x
 _atom_site_fract_y
 _atom_site_fract_z
 _atom_site_occupancy
  Ce  Ce0  1  0.85456980  0.35456980  0.70913960  1
  Ce  Ce1  1  0.14543020  0.64543020  0.29086040  1
  Ce  Ce2  1  0.00000000  -0.00000000  0.00000000  1
  Ge  Ge3  1  0.69570702  0.19570702  0.39141405  1
  Ge  Ge4  1  0.30429298  0.80429298  0.60858595  1
  Ge  Ge5  1  0.45089234  0.45089234  0.90178468  1
  Ge  Ge6  1  0.54910766  0.54910766  0.09821532  1
  Rh  Rh7  1  0.59771073  0.09771073  0.19542145  1
  Rh  Rh8  1  0.40228927  0.90228927  0.80457855  1
  Rh  Rh9  1  0.25176114  0.25176114  0.50352228  1
  Rh  Rh10  1  0.74823886  0.74823886  0.49647772  1
