# generated using pymatgen
data_Ba2TbTaO6
_symmetry_space_group_name_H-M   'P 1'
_cell_length_a   6.02597779
_cell_length_b   6.02597779
_cell_length_c   6.04646689
_cell_angle_alpha   119.88796889
_cell_angle_beta   119.88796889
_cell_angle_gamma   90.00000000
_symmetry_Int_Tables_number   1
_chemical_formula_structural   Ba2TbTaO6
_chemical_formula_sum   'Ba2 Tb1 Ta1 O6'
_cell_volume   155.77793677
_cell_formula_units_Z   1
loop_
 _symmetry_equiv_pos_site_id
 _symmetry_equiv_pos_as_xyz
  1  'x, y, z'
loop_
 _atom_site_type_symbol
 _atom_site_label
 _atom_site_symmetry_multiplicity
 _atom_site_fract_x
 _atom_site_fract_y
 _atom_site_fract_z
 _atom_site_occupancy
  Ba  Ba0  1  0.25000000  0.75000000  0.50000000  1
  Ba  Ba1  1  0.75000000  0.25000000  0.50000000  1
  Tb  Tb2  1  0.50000000  0.50000000  -0.00000000  1
  Ta  Ta3  1  -0.00000000  -0.00000000  -0.00000000  1
  O  O4  1  0.20431316  0.26489114  -0.00000000  1
  O  O5  1  0.79568684  0.73510886  -0.00000000  1
  O  O6  1  0.73510886  0.20431316  -0.00000000  1
  O  O7  1  0.26489114  0.79568684  -0.00000000  1
  O  O8  1  0.23482180  0.23482180  0.46964360  1
  O  O9  1  0.76517820  0.76517820  0.53035640  1
