# generated using pymatgen
data_Mg6ZrBi
_symmetry_space_group_name_H-M   'P 1'
_cell_length_a   6.45788620
_cell_length_b   6.19255221
_cell_length_c   5.33394767
_cell_angle_alpha   90.00000000
_cell_angle_beta   90.00000000
_cell_angle_gamma   118.64992254
_symmetry_Int_Tables_number   1
_chemical_formula_structural   Mg6ZrBi
_chemical_formula_sum   'Mg6 Zr1 Bi1'
_cell_volume   187.19247296
_cell_formula_units_Z   1
loop_
 _symmetry_equiv_pos_site_id
 _symmetry_equiv_pos_as_xyz
  1  'x, y, z'
loop_
 _atom_site_type_symbol
 _atom_site_label
 _atom_site_symmetry_multiplicity
 _atom_site_fract_x
 _atom_site_fract_y
 _atom_site_fract_z
 _atom_site_occupancy
  Mg  Mg0  1  0.66593228  0.33050298  0.25000000  1
  Mg  Mg1  1  0.66593228  0.83542830  0.25000000  1
  Mg  Mg2  1  0.33897988  0.17848455  0.75000000  1
  Mg  Mg3  1  0.33897988  0.66049634  0.75000000  1
  Mg  Mg4  1  0.83834638  0.16917369  0.75000000  1
  Mg  Mg5  1  0.82393227  0.66196663  0.75000000  1
  Zr  Zr6  1  0.16311588  0.33155744  0.25000000  1
  Bi  Bi7  1  0.16478114  0.83239007  0.25000000  1
