# generated using pymatgen
data_Be2TlBO3F2
_symmetry_space_group_name_H-M   'P 1'
_cell_length_a   4.47433118
_cell_length_b   4.47433118
_cell_length_c   7.27473984
_cell_angle_alpha   72.08985389
_cell_angle_beta   72.08985389
_cell_angle_gamma   60.00000180
_symmetry_Int_Tables_number   1
_chemical_formula_structural   Be2TlBO3F2
_chemical_formula_sum   'Be2 Tl1 B1 O3 F2'
_cell_volume   117.90611258
_cell_formula_units_Z   1
loop_
 _symmetry_equiv_pos_site_id
 _symmetry_equiv_pos_as_xyz
  1  'x, y, z'
loop_
 _atom_site_type_symbol
 _atom_site_label
 _atom_site_symmetry_multiplicity
 _atom_site_fract_x
 _atom_site_fract_y
 _atom_site_fract_z
 _atom_site_occupancy
  Be  Be0  1  0.69377522  0.69377522  0.91867433  1
  Be  Be1  1  0.30622478  0.30622478  0.08132567  1
  Tl  Tl2  1  0.50000000  0.50000000  0.50000000  1
  B  B3  1  0.00000000  0.00000000  -0.00000000  1
  O  O4  1  0.69198036  0.30801964  -0.00000000  1
  O  O5  1  0.00000000  0.69198036  0.00000000  1
  O  O6  1  0.30801964  1.00000000  1.00000000  1
  F  F7  1  0.77000244  0.77000244  0.68999267  1
  F  F8  1  0.22999756  0.22999756  0.31000733  1
