# generated using pymatgen
data_Tm3(In2Co)2
_symmetry_space_group_name_H-M   'P 1'
_cell_length_a   3.53426387
_cell_length_b   7.92322790
_cell_length_c   7.92322790
_cell_angle_alpha   120.00000047
_cell_angle_beta   90.00000000
_cell_angle_gamma   90.00000000
_symmetry_Int_Tables_number   1
_chemical_formula_structural   Tm3(In2Co)2
_chemical_formula_sum   'Tm3 In4 Co2'
_cell_volume   192.14712743
_cell_formula_units_Z   1
loop_
 _symmetry_equiv_pos_site_id
 _symmetry_equiv_pos_as_xyz
  1  'x, y, z'
loop_
 _atom_site_type_symbol
 _atom_site_label
 _atom_site_symmetry_multiplicity
 _atom_site_fract_x
 _atom_site_fract_y
 _atom_site_fract_z
 _atom_site_occupancy
  Tm  Tm0  1  0.50000000  0.70943980  0.95779540  1
  Tm  Tm1  1  0.50000000  0.24835560  0.29056020  1
  Tm  Tm2  1  0.50000000  0.04220460  0.75164440  1
  In  In3  1  -0.00000000  0.92543668  0.33677468  1
  In  In4  1  0.00000000  0.41133799  0.07456332  1
  In  In5  1  0.00000000  0.66322532  0.58866201  1
  In  In6  1  0.00000000  0.33333300  0.66666700  1
  Co  Co7  1  0.50000000  0.66666700  0.33333300  1
  Co  Co8  1  0.00000000  -0.00000000  -0.00000000  1
