# generated using pymatgen
data_LiZrS2
_symmetry_space_group_name_H-M   'P 1'
_cell_length_a   3.59655539
_cell_length_b   3.59655539
_cell_length_c   6.90213616
_cell_angle_alpha   74.89793517
_cell_angle_beta   74.89793517
_cell_angle_gamma   59.99999763
_symmetry_Int_Tables_number   1
_chemical_formula_structural   LiZrS2
_chemical_formula_sum   'Li1 Zr1 S2'
_cell_volume   73.73729110
_cell_formula_units_Z   1
loop_
 _symmetry_equiv_pos_site_id
 _symmetry_equiv_pos_as_xyz
  1  'x, y, z'
loop_
 _atom_site_type_symbol
 _atom_site_label
 _atom_site_symmetry_multiplicity
 _atom_site_fract_x
 _atom_site_fract_y
 _atom_site_fract_z
 _atom_site_occupancy
  Li  Li0  1  0.83011714  0.83011714  0.50964859  1
  Zr  Zr1  1  0.00282929  0.00282929  0.99151214  1
  S  S2  1  0.58943222  0.58943222  0.23170333  1
  S  S3  1  0.41762135  0.41762135  0.74713594  1
