# generated using pymatgen
data_RbAsOF5
_symmetry_space_group_name_H-M   'P 1'
_cell_length_a   9.90950091
_cell_length_b   9.64446428
_cell_length_c   11.75139113
_cell_angle_alpha   90.00000000
_cell_angle_beta   90.00000000
_cell_angle_gamma   90.00000000
_symmetry_Int_Tables_number   1
_chemical_formula_structural   RbAsOF5
_chemical_formula_sum   'Rb8 As8 O8 F40'
_cell_volume   1123.10192666
_cell_formula_units_Z   8
loop_
 _symmetry_equiv_pos_site_id
 _symmetry_equiv_pos_as_xyz
  1  'x, y, z'
loop_
 _atom_site_type_symbol
 _atom_site_label
 _atom_site_symmetry_multiplicity
 _atom_site_fract_x
 _atom_site_fract_y
 _atom_site_fract_z
 _atom_site_occupancy
  Rb  Rb0  1  0.99858097  0.23128358  0.66535811  1
  Rb  Rb1  1  0.50141903  0.26871642  0.16535811  1
  Rb  Rb2  1  0.49858097  0.76871642  0.33464189  1
  Rb  Rb3  1  0.00141903  0.73128358  0.83464189  1
  Rb  Rb4  1  0.00141903  0.76871642  0.33464189  1
  Rb  Rb5  1  0.49858097  0.73128358  0.83464189  1
  Rb  Rb6  1  0.50141903  0.23128358  0.66535811  1
  Rb  Rb7  1  0.99858097  0.26871642  0.16535811  1
  As  As8  1  0.25000000  0.06363984  0.90242149  1
  As  As9  1  0.25000000  0.43636016  0.40242149  1
  As  As10  1  0.75000000  0.93636016  0.09757851  1
  As  As11  1  0.75000000  0.56363984  0.59757851  1
  As  As12  1  0.25000000  0.40663080  0.89903685  1
  As  As13  1  0.25000000  0.09336920  0.39903685  1
  As  As14  1  0.75000000  0.59336920  0.10096315  1
  As  As15  1  0.75000000  0.90663080  0.60096315  1
  O  O16  1  0.25000000  0.23410983  0.83852658  1
  O  O17  1  0.25000000  0.26589017  0.33852658  1
  O  O18  1  0.75000000  0.76589017  0.16147342  1
  O  O19  1  0.75000000  0.73410983  0.66147342  1
  O  O20  1  0.25000000  0.75000257  0.65423830  1
  O  O21  1  0.25000000  0.74999743  0.15423830  1
  O  O22  1  0.75000000  0.24999743  0.34576170  1
  O  O23  1  0.75000000  0.25000257  0.84576170  1
  F  F24  1  0.25000000  0.88670518  0.94972698  1
  F  F25  1  0.25000000  0.61329482  0.44972698  1
  F  F26  1  0.75000000  0.11329482  0.05027302  1
  F  F27  1  0.75000000  0.38670518  0.55027302  1
  F  F28  1  0.25000000  0.35714260  0.04558577  1
  F  F29  1  0.25000000  0.14285740  0.54558577  1
  F  F30  1  0.75000000  0.64285740  0.95441423  1
  F  F31  1  0.75000000  0.85714260  0.45441423  1
  F  F32  1  0.12201214  0.01342507  0.80188194  1
  F  F33  1  0.37798786  0.48657493  0.30188194  1
  F  F34  1  0.62201214  0.98657493  0.19811806  1
  F  F35  1  0.87798786  0.51342507  0.69811806  1
  F  F36  1  0.87798786  0.98657493  0.19811806  1
  F  F37  1  0.62201214  0.51342507  0.69811806  1
  F  F38  1  0.37798786  0.01342507  0.80188194  1
  F  F39  1  0.12201214  0.48657493  0.30188194  1
  F  F40  1  0.12189858  0.10081136  0.00342219  1
  F  F41  1  0.37810142  0.39918864  0.50342219  1
  F  F42  1  0.62189858  0.89918864  0.99657781  1
  F  F43  1  0.87810142  0.60081136  0.49657781  1
  F  F44  1  0.87810142  0.89918864  0.99657781  1
  F  F45  1  0.62189858  0.60081136  0.49657781  1
  F  F46  1  0.37810142  0.10081136  0.00342219  1
  F  F47  1  0.12189858  0.39918864  0.50342219  1
  F  F48  1  0.06938886  0.41107362  0.90124258  1
  F  F49  1  0.43061114  0.08892638  0.40124258  1
  F  F50  1  0.56938886  0.58892638  0.09875742  1
  F  F51  1  0.93061114  0.91107362  0.59875742  1
  F  F52  1  0.93061114  0.58892638  0.09875742  1
  F  F53  1  0.56938886  0.91107362  0.59875742  1
  F  F54  1  0.43061114  0.41107362  0.90124258  1
  F  F55  1  0.06938886  0.08892638  0.40124258  1
  F  F56  1  0.25000000  0.46981896  0.75582126  1
  F  F57  1  0.25000000  0.03018104  0.25582126  1
  F  F58  1  0.75000000  0.53018104  0.24417874  1
  F  F59  1  0.75000000  0.96981896  0.74417874  1
  F  F60  1  0.25000000  0.58526235  0.94270915  1
  F  F61  1  0.25000000  0.91473765  0.44270915  1
  F  F62  1  0.75000000  0.41473765  0.05729085  1
  F  F63  1  0.75000000  0.08526235  0.55729085  1
