# generated using pymatgen
data_NaMg6Zr
_symmetry_space_group_name_H-M   'P 1'
_cell_length_a   6.39888407
_cell_length_b   8.96118198
_cell_length_c   4.63487998
_cell_angle_alpha   90.00000000
_cell_angle_beta   90.00000000
_cell_angle_gamma   134.44421797
_symmetry_Int_Tables_number   1
_chemical_formula_structural   NaMg6Zr
_chemical_formula_sum   'Na1 Mg6 Zr1'
_cell_volume   189.74274782
_cell_formula_units_Z   1
loop_
 _symmetry_equiv_pos_site_id
 _symmetry_equiv_pos_as_xyz
  1  'x, y, z'
loop_
 _atom_site_type_symbol
 _atom_site_label
 _atom_site_symmetry_multiplicity
 _atom_site_fract_x
 _atom_site_fract_y
 _atom_site_fract_z
 _atom_site_occupancy
  Na  Na0  1  0.24527263  0.87263532  0.25000000  1
  Mg  Mg1  1  0.75018147  0.37306071  0.25000000  1
  Mg  Mg2  1  0.75018147  0.87711976  0.25000000  1
  Mg  Mg3  1  0.25045335  0.13303350  0.75000000  1
  Mg  Mg4  1  0.25045335  0.61742185  0.75000000  1
  Mg  Mg5  1  0.77883481  0.13941841  0.75000000  1
  Mg  Mg6  1  0.72237201  0.61118650  0.75000000  1
  Zr  Zr7  1  0.25225191  0.37612496  0.25000000  1
