# generated using pymatgen
data_Pr4CoI5
_symmetry_space_group_name_H-M   'P 1'
_cell_length_a   4.31618581
_cell_length_b   9.38275387
_cell_length_c   9.96925188
_cell_angle_alpha   103.03329483
_cell_angle_beta   102.50207320
_cell_angle_gamma   90.00000000
_symmetry_Int_Tables_number   1
_chemical_formula_structural   Pr4CoI5
_chemical_formula_sum   'Pr4 Co1 I5'
_cell_volume   383.49864226
_cell_formula_units_Z   1
loop_
 _symmetry_equiv_pos_site_id
 _symmetry_equiv_pos_as_xyz
  1  'x, y, z'
loop_
 _atom_site_type_symbol
 _atom_site_label
 _atom_site_symmetry_multiplicity
 _atom_site_fract_x
 _atom_site_fract_y
 _atom_site_fract_z
 _atom_site_occupancy
  Pr  Pr0  1  0.13478268  0.06895383  0.26956537  1
  Pr  Pr1  1  0.86521732  0.93104617  0.73043463  1
  Pr  Pr2  1  0.49919164  0.21329101  0.99838327  1
  Pr  Pr3  1  0.50080836  0.78670899  0.00161673  1
  Co  Co4  1  -0.00000000  -0.00000000  -0.00000000  1
  I  I5  1  0.32739789  0.16862026  0.65479577  1
  I  I6  1  0.67260211  0.83137974  0.34520423  1
  I  I7  1  0.33340045  0.66236415  0.66680091  1
  I  I8  1  0.66659955  0.33763585  0.33319909  1
  I  I9  1  -0.00000000  0.50000000  -0.00000000  1
