# generated using pymatgen
data_YbAlRh
_symmetry_space_group_name_H-M   'P 1'
_cell_length_a   4.06777738
_cell_length_b   7.06940431
_cell_length_c   7.88512561
_cell_angle_alpha   90.00000000
_cell_angle_beta   90.00000000
_cell_angle_gamma   90.00000000
_symmetry_Int_Tables_number   1
_chemical_formula_structural   YbAlRh
_chemical_formula_sum   'Yb4 Al4 Rh4'
_cell_volume   226.75068794
_cell_formula_units_Z   4
loop_
 _symmetry_equiv_pos_site_id
 _symmetry_equiv_pos_as_xyz
  1  'x, y, z'
loop_
 _atom_site_type_symbol
 _atom_site_label
 _atom_site_symmetry_multiplicity
 _atom_site_fract_x
 _atom_site_fract_y
 _atom_site_fract_z
 _atom_site_occupancy
  Yb  Yb0  1  0.75000000  0.97053745  0.32685894  1
  Yb  Yb1  1  0.25000000  0.02946255  0.67314106  1
  Yb  Yb2  1  0.25000000  0.52946255  0.82685894  1
  Yb  Yb3  1  0.75000000  0.47053745  0.17314106  1
  Al  Al4  1  0.75000000  0.86366253  0.94000057  1
  Al  Al5  1  0.25000000  0.13633747  0.05999943  1
  Al  Al6  1  0.25000000  0.63633747  0.44000057  1
  Al  Al7  1  0.75000000  0.36366253  0.55999943  1
  Rh  Rh8  1  0.75000000  0.71776448  0.62547776  1
  Rh  Rh9  1  0.25000000  0.28223552  0.37452224  1
  Rh  Rh10  1  0.25000000  0.78223552  0.12547776  1
  Rh  Rh11  1  0.75000000  0.21776448  0.87452224  1
