# generated using pymatgen
data_Zr6GeI14
_symmetry_space_group_name_H-M   'P 1'
_cell_length_a   11.11866617
_cell_length_b   11.11866617
_cell_length_c   13.40227381
_cell_angle_alpha   90.00000000
_cell_angle_beta   90.00000000
_cell_angle_gamma   94.70925813
_symmetry_Int_Tables_number   1
_chemical_formula_structural   Zr6GeI14
_chemical_formula_sum   'Zr12 Ge2 I28'
_cell_volume   1651.25926850
_cell_formula_units_Z   2
loop_
 _symmetry_equiv_pos_site_id
 _symmetry_equiv_pos_as_xyz
  1  'x, y, z'
loop_
 _atom_site_type_symbol
 _atom_site_label
 _atom_site_symmetry_multiplicity
 _atom_site_fract_x
 _atom_site_fract_y
 _atom_site_fract_z
 _atom_site_occupancy
  Zr  Zr0  1  0.18000061  0.95357127  0.11615117  1
  Zr  Zr1  1  0.81999939  0.04642873  0.88384883  1
  Zr  Zr2  1  0.31999939  0.54642873  0.61615117  1
  Zr  Zr3  1  0.45357127  0.68000061  0.38384883  1
  Zr  Zr4  1  0.68000061  0.45357127  0.38384883  1
  Zr  Zr5  1  0.54642873  0.31999939  0.61615117  1
  Zr  Zr6  1  0.04642873  0.81999939  0.88384883  1
  Zr  Zr7  1  0.95357127  0.18000061  0.11615117  1
  Zr  Zr8  1  0.35861818  0.35861818  0.39634823  1
  Zr  Zr9  1  0.64138182  0.64138182  0.60365177  1
  Zr  Zr10  1  0.14138182  0.14138182  0.89634823  1
  Zr  Zr11  1  0.85861818  0.85861818  0.10365177  1
  Ge  Ge12  1  -0.00000000  -0.00000000  0.00000000  1
  Ge  Ge13  1  0.50000000  0.50000000  0.50000000  1
  I  I14  1  0.53538358  0.28716267  0.25533069  1
  I  I15  1  0.46461642  0.71283733  0.74466931  1
  I  I16  1  0.96461642  0.21283733  0.75533069  1
  I  I17  1  0.78716267  0.03538358  0.24466931  1
  I  I18  1  0.03538358  0.78716267  0.24466931  1
  I  I19  1  0.21283733  0.96461642  0.75533069  1
  I  I20  1  0.71283733  0.46461642  0.74466931  1
  I  I21  1  0.28716267  0.53538358  0.25533069  1
  I  I22  1  0.35965267  0.11184580  0.00982149  1
  I  I23  1  0.64034733  0.88815420  0.99017851  1
  I  I24  1  0.14034733  0.38815420  0.50982149  1
  I  I25  1  0.61184580  0.85965267  0.49017851  1
  I  I26  1  0.85965267  0.61184580  0.49017851  1
  I  I27  1  0.38815420  0.14034733  0.50982149  1
  I  I28  1  0.88815420  0.64034733  0.99017851  1
  I  I29  1  0.11184580  0.35965267  0.00982149  1
  I  I30  1  0.39820726  0.89820726  0.25000000  1
  I  I31  1  0.60179274  0.10179274  0.75000000  1
  I  I32  1  0.10179274  0.60179274  0.75000000  1
  I  I33  1  0.89820726  0.39820726  0.25000000  1
  I  I34  1  0.24906138  0.75093862  0.00000000  1
  I  I35  1  0.75093862  0.24906138  0.00000000  1
  I  I36  1  0.25093862  0.74906138  0.50000000  1
  I  I37  1  0.74906138  0.25093862  0.50000000  1
  I  I38  1  0.15069216  0.15069216  0.26147117  1
  I  I39  1  0.84930784  0.84930784  0.73852883  1
  I  I40  1  0.34930784  0.34930784  0.76147117  1
  I  I41  1  0.65069216  0.65069216  0.23852883  1
