# generated using pymatgen
data_Yb2(Al3Ir)3
_symmetry_space_group_name_H-M   'P 1'
_cell_length_a   7.60667602
_cell_length_b   7.53815164
_cell_length_c   9.64154805
_cell_angle_alpha   90.00000000
_cell_angle_beta   90.00000000
_cell_angle_gamma   120.30116025
_symmetry_Int_Tables_number   1
_chemical_formula_structural   Yb2(Al3Ir)3
_chemical_formula_sum   'Yb4 Al18 Ir6'
_cell_volume   477.32175166
_cell_formula_units_Z   2
loop_
 _symmetry_equiv_pos_site_id
 _symmetry_equiv_pos_as_xyz
  1  'x, y, z'
loop_
 _atom_site_type_symbol
 _atom_site_label
 _atom_site_symmetry_multiplicity
 _atom_site_fract_x
 _atom_site_fract_y
 _atom_site_fract_z
 _atom_site_occupancy
  Yb  Yb0  1  0.32915869  0.32512925  0.75000000  1
  Yb  Yb1  1  0.67084131  0.67487075  0.25000000  1
  Yb  Yb2  1  0.00402944  0.67487075  0.75000000  1
  Yb  Yb3  1  0.99597056  0.32512925  0.25000000  1
  Al  Al4  1  0.87081806  1.00000000  0.75000000  1
  Al  Al5  1  0.12918194  0.00000000  0.25000000  1
  Al  Al6  1  0.66523515  0.66754872  0.93042122  1
  Al  Al7  1  0.33476485  0.33245128  0.06957878  1
  Al  Al8  1  0.33476485  0.33245128  0.43042122  1
  Al  Al9  1  0.99768643  0.33245128  0.56957878  1
  Al  Al10  1  0.66523515  0.66754872  0.56957878  1
  Al  Al11  1  0.00231357  0.66754872  0.43042122  1
  Al  Al12  1  0.00231357  0.66754872  0.06957878  1
  Al  Al13  1  0.99768643  0.33245128  0.93042122  1
  Al  Al14  1  0.66505942  1.00000000  0.44987096  1
  Al  Al15  1  0.33494058  0.00000000  0.55012904  1
  Al  Al16  1  0.33494058  0.00000000  0.94987096  1
  Al  Al17  1  0.66505942  1.00000000  0.05012904  1
  Al  Al18  1  0.45340980  0.78970596  0.75000000  1
  Al  Al19  1  0.54659020  0.21029404  0.25000000  1
  Al  Al20  1  0.66370384  0.21029404  0.75000000  1
  Al  Al21  1  0.33629616  0.78970596  0.25000000  1
  Ir  Ir22  1  0.67180977  0.34361955  0.00000000  1
  Ir  Ir23  1  0.32819023  0.65638045  -0.00000000  1
  Ir  Ir24  1  0.32819023  0.65638045  0.50000000  1
  Ir  Ir25  1  0.67180977  0.34361955  0.50000000  1
  Ir  Ir26  1  0.00000000  0.00000000  0.00000000  1
  Ir  Ir27  1  0.00000000  0.00000000  0.50000000  1
