# generated using pymatgen
data_YZrF7
_symmetry_space_group_name_H-M   'P 1'
_cell_length_a   5.74196464
_cell_length_b   6.14860415
_cell_length_c   8.33904398
_cell_angle_alpha   102.03215736
_cell_angle_beta   90.00000000
_cell_angle_gamma   90.00000000
_symmetry_Int_Tables_number   1
_chemical_formula_structural   YZrF7
_chemical_formula_sum   'Y2 Zr2 F14'
_cell_volume   287.94253518
_cell_formula_units_Z   2
loop_
 _symmetry_equiv_pos_site_id
 _symmetry_equiv_pos_as_xyz
  1  'x, y, z'
loop_
 _atom_site_type_symbol
 _atom_site_label
 _atom_site_symmetry_multiplicity
 _atom_site_fract_x
 _atom_site_fract_y
 _atom_site_fract_z
 _atom_site_occupancy
  Y  Y0  1  0.69696308  0.65497707  0.68355354  1
  Y  Y1  1  0.19696308  0.34502293  0.31644646  1
  Zr  Zr2  1  0.70692538  0.81162214  0.22385733  1
  Zr  Zr3  1  0.20692538  0.18837786  0.77614267  1
  F  F4  1  0.89011124  0.45512346  0.47788392  1
  F  F5  1  0.39011124  0.54487654  0.52211608  1
  F  F6  1  0.42697507  0.92508504  0.76882452  1
  F  F7  1  0.92697507  0.07491496  0.23117548  1
  F  F8  1  0.94485676  0.95795820  0.75950661  1
  F  F9  1  0.44485676  0.04204180  0.24049339  1
  F  F10  1  0.99445386  0.45744016  0.78673407  1
  F  F11  1  0.49445386  0.54255984  0.21326593  1
  F  F12  1  0.70313514  0.75449271  0.97475924  1
  F  F13  1  0.20313514  0.24550729  0.02524076  1
  F  F14  1  0.71000875  0.86049173  0.47308907  1
  F  F15  1  0.21000875  0.13950827  0.52691093  1
  F  F16  1  0.50293071  0.37892335  0.78157506  1
  F  F17  1  0.00293071  0.62107665  0.21842494  1
