# generated using pymatgen
data_Zn9Fe4
_symmetry_space_group_name_H-M   'P 1'
_cell_length_a   7.77325026
_cell_length_b   7.77325026
_cell_length_c   7.77325026
_cell_angle_alpha   109.47122063
_cell_angle_beta   109.47122063
_cell_angle_gamma   109.47122063
_symmetry_Int_Tables_number   1
_chemical_formula_structural   Zn9Fe4
_chemical_formula_sum   'Zn18 Fe8'
_cell_volume   361.56473014
_cell_formula_units_Z   2
loop_
 _symmetry_equiv_pos_site_id
 _symmetry_equiv_pos_as_xyz
  1  'x, y, z'
loop_
 _atom_site_type_symbol
 _atom_site_label
 _atom_site_symmetry_multiplicity
 _atom_site_fract_x
 _atom_site_fract_y
 _atom_site_fract_z
 _atom_site_occupancy
  Zn  Zn0  1  0.39504618  0.64376342  0.64376342  1
  Zn  Zn1  1  0.60495382  0.24871724  0.24871724  1
  Zn  Zn2  1  0.00000000  0.35623658  0.75128276  1
  Zn  Zn3  1  0.64376342  0.64376342  0.39504618  1
  Zn  Zn4  1  -0.00000000  0.75128276  0.35623658  1
  Zn  Zn5  1  0.24871724  0.24871724  0.60495382  1
  Zn  Zn6  1  0.35623658  0.75128276  0.00000000  1
  Zn  Zn7  1  0.75128276  0.35623658  -0.00000000  1
  Zn  Zn8  1  0.64376342  0.39504618  0.64376342  1
  Zn  Zn9  1  0.75128276  -0.00000000  0.35623658  1
  Zn  Zn10  1  0.35623658  -0.00000000  0.75128276  1
  Zn  Zn11  1  0.24871724  0.60495382  0.24871724  1
  Zn  Zn12  1  0.64360670  0.64360670  0.00000000  1
  Zn  Zn13  1  0.35639330  0.35639330  0.00000000  1
  Zn  Zn14  1  0.64360670  -0.00000000  0.64360670  1
  Zn  Zn15  1  0.35639330  -0.00000000  0.35639330  1
  Zn  Zn16  1  0.00000000  0.64360670  0.64360670  1
  Zn  Zn17  1  0.00000000  0.35639330  0.35639330  1
  Fe  Fe18  1  0.79347865  0.79347865  0.79347865  1
  Fe  Fe19  1  0.20652135  -0.00000000  -0.00000000  1
  Fe  Fe20  1  -0.00000000  0.20652135  -0.00000000  1
  Fe  Fe21  1  0.00000000  0.00000000  0.20652135  1
  Fe  Fe22  1  0.31666089  0.31666089  0.31666089  1
  Fe  Fe23  1  0.68333911  -0.00000000  0.00000000  1
  Fe  Fe24  1  0.00000000  0.68333911  0.00000000  1
  Fe  Fe25  1  0.00000000  -0.00000000  0.68333911  1
