# generated using pymatgen
data_YTl(WO4)2
_symmetry_space_group_name_H-M   'P 1'
_cell_length_a   7.64877828
_cell_length_b   7.64877828
_cell_length_c   7.49091666
_cell_angle_alpha   62.38680547
_cell_angle_beta   62.38680547
_cell_angle_gamma   88.47069093
_symmetry_Int_Tables_number   1
_chemical_formula_structural   YTl(WO4)2
_chemical_formula_sum   'Y2 Tl2 W4 O16'
_cell_volume   334.07258226
_cell_formula_units_Z   2
loop_
 _symmetry_equiv_pos_site_id
 _symmetry_equiv_pos_as_xyz
  1  'x, y, z'
loop_
 _atom_site_type_symbol
 _atom_site_label
 _atom_site_symmetry_multiplicity
 _atom_site_fract_x
 _atom_site_fract_y
 _atom_site_fract_z
 _atom_site_occupancy
  Y  Y0  1  0.22400649  0.77599351  0.75000000  1
  Y  Y1  1  0.77599351  0.22400649  0.25000000  1
  Tl  Tl2  1  0.79405610  0.20594390  0.75000000  1
  Tl  Tl3  1  0.20594390  0.79405610  0.25000000  1
  W  W4  1  0.29933132  0.30991820  0.71794817  1
  W  W5  1  0.70066868  0.69008180  0.28205183  1
  W  W6  1  0.69008180  0.70066868  0.78205183  1
  W  W7  1  0.30991820  0.29933132  0.21794817  1
  O  O8  1  0.37953370  0.24628719  0.94051669  1
  O  O9  1  0.62046630  0.75371281  0.05948331  1
  O  O10  1  0.75371281  0.62046630  0.55948331  1
  O  O11  1  0.24628719  0.37953370  0.44051669  1
  O  O12  1  0.62526039  0.93795706  0.62442089  1
  O  O13  1  0.37473961  0.06204294  0.37557911  1
  O  O14  1  0.06204294  0.37473961  0.87557911  1
  O  O15  1  0.93795706  0.62526039  0.12442089  1
  O  O16  1  0.40986798  0.62966956  0.53324677  1
  O  O17  1  0.59013202  0.37033044  0.46675323  1
  O  O18  1  0.37033044  0.59013202  0.96675323  1
  O  O19  1  0.62966956  0.40986798  0.03324677  1
  O  O20  1  0.21717195  0.04475151  0.80999328  1
  O  O21  1  0.78282805  0.95524849  0.19000672  1
  O  O22  1  0.95524849  0.78282805  0.69000672  1
  O  O23  1  0.04475151  0.21717195  0.30999328  1
