# generated using pymatgen
data_Y(ClO4)3
_symmetry_space_group_name_H-M   'P 1'
_cell_length_a   5.68765835
_cell_length_b   9.44744667
_cell_length_c   9.44744667
_cell_angle_alpha   120.00000121
_cell_angle_beta   90.00000000
_cell_angle_gamma   90.00000000
_symmetry_Int_Tables_number   1
_chemical_formula_structural   Y(ClO4)3
_chemical_formula_sum   'Y2 Cl6 O24'
_cell_volume   439.63577525
_cell_formula_units_Z   2
loop_
 _symmetry_equiv_pos_site_id
 _symmetry_equiv_pos_as_xyz
  1  'x, y, z'
loop_
 _atom_site_type_symbol
 _atom_site_label
 _atom_site_symmetry_multiplicity
 _atom_site_fract_x
 _atom_site_fract_y
 _atom_site_fract_z
 _atom_site_occupancy
  Y  Y0  1  0.75000000  0.33333300  0.66666700  1
  Y  Y1  1  0.25000000  0.66666700  0.33333300  1
  Cl  Cl2  1  0.75000000  0.90927153  0.29740650  1
  Cl  Cl3  1  0.25000000  0.09072847  0.70259350  1
  Cl  Cl4  1  0.75000000  0.38813497  0.09072847  1
  Cl  Cl5  1  0.25000000  0.61186503  0.90927153  1
  Cl  Cl6  1  0.75000000  0.70259350  0.61186503  1
  Cl  Cl7  1  0.25000000  0.29740650  0.38813497  1
  O  O8  1  0.95781734  0.85532407  0.35112065  1
  O  O9  1  0.04218266  0.14467593  0.64887935  1
  O  O10  1  0.95781734  0.49579658  0.14467593  1
  O  O11  1  0.45781734  0.14467593  0.64887935  1
  O  O12  1  0.04218266  0.50420342  0.85532407  1
  O  O13  1  0.54218266  0.85532407  0.35112065  1
  O  O14  1  0.95781734  0.64887935  0.50420342  1
  O  O15  1  0.45781734  0.50420342  0.85532407  1
  O  O16  1  0.04218266  0.35112065  0.49579658  1
  O  O17  1  0.54218266  0.49579658  0.14467593  1
  O  O18  1  0.45781734  0.35112065  0.49579658  1
  O  O19  1  0.54218266  0.64887935  0.50420342  1
  O  O20  1  0.75000000  0.84712148  0.12608374  1
  O  O21  1  0.25000000  0.15287852  0.87391626  1
  O  O22  1  0.75000000  0.27896226  0.15287852  1
  O  O23  1  0.25000000  0.72103774  0.84712148  1
  O  O24  1  0.75000000  0.87391626  0.72103774  1
  O  O25  1  0.25000000  0.12608374  0.27896226  1
  O  O26  1  0.75000000  0.61521828  0.70256186  1
  O  O27  1  0.25000000  0.38478172  0.29743814  1
  O  O28  1  0.75000000  0.08734358  0.38478172  1
  O  O29  1  0.25000000  0.91265642  0.61521828  1
  O  O30  1  0.75000000  0.29743814  0.91265642  1
  O  O31  1  0.25000000  0.70256186  0.08734358  1
