# generated using pymatgen
data_YFeB4
_symmetry_space_group_name_H-M   'P 1'
_cell_length_a   3.38202595
_cell_length_b   5.88648213
_cell_length_c   11.38767668
_cell_angle_alpha   90.00000000
_cell_angle_beta   90.00000000
_cell_angle_gamma   90.00000000
_symmetry_Int_Tables_number   1
_chemical_formula_structural   YFeB4
_chemical_formula_sum   'Y4 Fe4 B16'
_cell_volume   226.70854707
_cell_formula_units_Z   4
loop_
 _symmetry_equiv_pos_site_id
 _symmetry_equiv_pos_as_xyz
  1  'x, y, z'
loop_
 _atom_site_type_symbol
 _atom_site_label
 _atom_site_symmetry_multiplicity
 _atom_site_fract_x
 _atom_site_fract_y
 _atom_site_fract_z
 _atom_site_occupancy
  Y  Y0  1  0.50000000  0.37396335  0.15041182  1
  Y  Y1  1  0.50000000  0.62603665  0.84958818  1
  Y  Y2  1  0.50000000  0.12603665  0.65041182  1
  Y  Y3  1  0.50000000  0.87396335  0.34958818  1
  Fe  Fe4  1  0.50000000  0.36707267  0.41173270  1
  Fe  Fe5  1  0.50000000  0.63292733  0.58826730  1
  Fe  Fe6  1  0.50000000  0.13292733  0.91173270  1
  Fe  Fe7  1  0.50000000  0.86707267  0.08826730  1
  B  B8  1  0.00000000  0.11110039  0.04581468  1
  B  B9  1  0.00000000  0.88889961  0.95418532  1
  B  B10  1  0.00000000  0.38889961  0.54581468  1
  B  B11  1  0.00000000  0.61110039  0.45418532  1
  B  B12  1  0.00000000  0.13890658  0.46801610  1
  B  B13  1  0.00000000  0.86109342  0.53198390  1
  B  B14  1  0.00000000  0.36109342  0.96801610  1
  B  B15  1  0.00000000  0.63890658  0.03198390  1
  B  B16  1  0.00000000  0.02452097  0.19031376  1
  B  B17  1  0.00000000  0.97547903  0.80968624  1
  B  B18  1  0.00000000  0.47547903  0.69031376  1
  B  B19  1  0.00000000  0.52452097  0.30968624  1
  B  B20  1  0.00000000  0.21842572  0.31648722  1
  B  B21  1  0.00000000  0.78157428  0.68351278  1
  B  B22  1  0.00000000  0.28157428  0.81648722  1
  B  B23  1  0.00000000  0.71842572  0.18351278  1
