# generated using pymatgen
data_Mg6ZnSb
_symmetry_space_group_name_H-M   'P 1'
_cell_length_a   6.24312719
_cell_length_b   6.24312671
_cell_length_c   5.29500778
_cell_angle_alpha   90.00000000
_cell_angle_beta   90.00000000
_cell_angle_gamma   120.98856076
_symmetry_Int_Tables_number   1
_chemical_formula_structural   Mg6ZnSb
_chemical_formula_sum   'Mg6 Zn1 Sb1'
_cell_volume   176.92476096
_cell_formula_units_Z   1
loop_
 _symmetry_equiv_pos_site_id
 _symmetry_equiv_pos_as_xyz
  1  'x, y, z'
loop_
 _atom_site_type_symbol
 _atom_site_label
 _atom_site_symmetry_multiplicity
 _atom_site_fract_x
 _atom_site_fract_y
 _atom_site_fract_z
 _atom_site_occupancy
  Mg  Mg0  1  0.16528651  0.83406282  0.25000000  1
  Mg  Mg1  1  0.66593718  0.33471349  0.25000000  1
  Mg  Mg2  1  0.66755718  0.83244282  0.25000000  1
  Mg  Mg3  1  0.33448284  0.65667478  0.75000000  1
  Mg  Mg4  1  0.84332522  0.16551716  0.75000000  1
  Mg  Mg5  1  0.83405868  0.66594132  0.75000000  1
  Zn  Zn6  1  0.15086831  0.34913169  0.25000000  1
  Sb  Sb7  1  0.33848409  0.16151591  0.75000000  1
