# generated using pymatgen
data_YCo5As3
_symmetry_space_group_name_H-M   'P 1'
_cell_length_a   3.78297870
_cell_length_b   12.21088835
_cell_length_c   10.73364612
_cell_angle_alpha   90.00000000
_cell_angle_beta   90.00000000
_cell_angle_gamma   90.00000000
_symmetry_Int_Tables_number   1
_chemical_formula_structural   YCo5As3
_chemical_formula_sum   'Y4 Co20 As12'
_cell_volume   495.82500981
_cell_formula_units_Z   4
loop_
 _symmetry_equiv_pos_site_id
 _symmetry_equiv_pos_as_xyz
  1  'x, y, z'
loop_
 _atom_site_type_symbol
 _atom_site_label
 _atom_site_symmetry_multiplicity
 _atom_site_fract_x
 _atom_site_fract_y
 _atom_site_fract_z
 _atom_site_occupancy
  Y  Y0  1  0.75000000  0.70255215  0.08140084  1
  Y  Y1  1  0.25000000  0.29744785  0.91859916  1
  Y  Y2  1  0.25000000  0.79744785  0.58140084  1
  Y  Y3  1  0.75000000  0.20255215  0.41859916  1
  Co  Co4  1  0.75000000  0.69695872  0.38263625  1
  Co  Co5  1  0.25000000  0.30304128  0.61736375  1
  Co  Co6  1  0.25000000  0.80304128  0.88263625  1
  Co  Co7  1  0.75000000  0.19695872  0.11736375  1
  Co  Co8  1  0.75000000  0.99095196  0.21251337  1
  Co  Co9  1  0.25000000  0.00904804  0.78748663  1
  Co  Co10  1  0.25000000  0.50904804  0.71251337  1
  Co  Co11  1  0.75000000  0.49095196  0.28748663  1
  Co  Co12  1  0.75000000  0.67665610  0.78321081  1
  Co  Co13  1  0.25000000  0.32334390  0.21678919  1
  Co  Co14  1  0.25000000  0.82334390  0.28321081  1
  Co  Co15  1  0.75000000  0.17665610  0.71678919  1
  Co  Co16  1  0.75000000  0.93135406  0.96876723  1
  Co  Co17  1  0.25000000  0.06864594  0.03123277  1
  Co  Co18  1  0.25000000  0.56864594  0.46876723  1
  Co  Co19  1  0.75000000  0.43135406  0.53123277  1
  Co  Co20  1  0.75000000  0.98757550  0.59304084  1
  Co  Co21  1  0.25000000  0.01242450  0.40695916  1
  Co  Co22  1  0.25000000  0.51242450  0.09304084  1
  Co  Co23  1  0.75000000  0.48757550  0.90695916  1
  As  As24  1  0.75000000  0.61319560  0.58436218  1
  As  As25  1  0.25000000  0.38680440  0.41563782  1
  As  As26  1  0.25000000  0.88680440  0.08436218  1
  As  As27  1  0.75000000  0.11319560  0.91563782  1
  As  As28  1  0.75000000  0.89070403  0.39889012  1
  As  As29  1  0.25000000  0.10929597  0.60110988  1
  As  As30  1  0.25000000  0.60929597  0.89889012  1
  As  As31  1  0.75000000  0.39070403  0.10110988  1
  As  As32  1  0.75000000  0.87063994  0.76880223  1
  As  As33  1  0.25000000  0.12936006  0.23119777  1
  As  As34  1  0.25000000  0.62936006  0.26880223  1
  As  As35  1  0.75000000  0.37063994  0.73119777  1
