# generated using pymatgen
data_YbEu3O6
_symmetry_space_group_name_H-M   'P 1'
_cell_length_a   9.42300581
_cell_length_b   9.42300581
_cell_length_c   9.42300581
_cell_angle_alpha   109.47122063
_cell_angle_beta   109.47122063
_cell_angle_gamma   109.47122063
_symmetry_Int_Tables_number   1
_chemical_formula_structural   YbEu3O6
_chemical_formula_sum   'Yb4 Eu12 O24'
_cell_volume   644.08989507
_cell_formula_units_Z   4
loop_
 _symmetry_equiv_pos_site_id
 _symmetry_equiv_pos_as_xyz
  1  'x, y, z'
loop_
 _atom_site_type_symbol
 _atom_site_label
 _atom_site_symmetry_multiplicity
 _atom_site_fract_x
 _atom_site_fract_y
 _atom_site_fract_z
 _atom_site_occupancy
  Yb  Yb0  1  0.00000000  -0.00000000  -0.00000000  1
  Yb  Yb1  1  0.50000000  -0.00000000  0.50000000  1
  Yb  Yb2  1  0.50000000  0.50000000  -0.00000000  1
  Yb  Yb3  1  0.00000000  0.50000000  0.50000000  1
  Eu  Eu4  1  0.71822348  0.46822348  0.75000000  1
  Eu  Eu5  1  0.28177652  0.53177652  0.25000000  1
  Eu  Eu6  1  0.78177652  0.03177652  0.25000000  1
  Eu  Eu7  1  0.46822348  0.75000000  0.71822348  1
  Eu  Eu8  1  0.21822348  0.96822348  0.75000000  1
  Eu  Eu9  1  0.53177652  0.25000000  0.28177652  1
  Eu  Eu10  1  0.03177652  0.25000000  0.78177652  1
  Eu  Eu11  1  0.96822348  0.75000000  0.21822348  1
  Eu  Eu12  1  0.75000000  0.71822348  0.46822348  1
  Eu  Eu13  1  0.25000000  0.28177652  0.53177652  1
  Eu  Eu14  1  0.25000000  0.78177652  0.03177652  1
  Eu  Eu15  1  0.75000000  0.21822348  0.96822348  1
  O  O16  1  0.54241152  0.76932276  0.50857846  1
  O  O17  1  0.45758848  0.23067724  0.49142154  1
  O  O18  1  0.95758848  0.96616695  0.72691125  1
  O  O19  1  0.23925570  0.73067724  0.77308875  1
  O  O20  1  0.76932276  0.50857846  0.54241152  1
  O  O21  1  0.04241152  0.03383305  0.27308875  1
  O  O22  1  0.76074430  0.26932276  0.22691125  1
  O  O23  1  0.23067724  0.49142154  0.45758848  1
  O  O24  1  0.26074430  0.53383305  0.99142154  1
  O  O25  1  0.96616695  0.72691125  0.95758848  1
  O  O26  1  0.73925570  0.46616695  0.00857846  1
  O  O27  1  0.03383305  0.27308875  0.04241152  1
  O  O28  1  0.73067724  0.77308875  0.23925570  1
  O  O29  1  0.26932276  0.22691125  0.76074430  1
  O  O30  1  0.53383305  0.99142154  0.26074430  1
  O  O31  1  0.46616695  0.00857846  0.73925570  1
  O  O32  1  0.50857846  0.54241152  0.76932276  1
  O  O33  1  0.49142154  0.45758848  0.23067724  1
  O  O34  1  0.77308875  0.23925570  0.73067724  1
  O  O35  1  0.22691125  0.76074430  0.26932276  1
  O  O36  1  0.99142154  0.26074430  0.53383305  1
  O  O37  1  0.00857846  0.73925570  0.46616695  1
  O  O38  1  0.72691125  0.95758848  0.96616695  1
  O  O39  1  0.27308875  0.04241152  0.03383305  1
