# generated using pymatgen
data_YFe3(BO3)4
_symmetry_space_group_name_H-M   'P 1'
_cell_length_a   7.65740344
_cell_length_b   9.61627040
_cell_length_c   9.61627040
_cell_angle_alpha   119.99999708
_cell_angle_beta   90.00000000
_cell_angle_gamma   90.00000000
_symmetry_Int_Tables_number   1
_chemical_formula_structural   YFe3(BO3)4
_chemical_formula_sum   'Y3 Fe9 B12 O36'
_cell_volume   613.23298461
_cell_formula_units_Z   3
loop_
 _symmetry_equiv_pos_site_id
 _symmetry_equiv_pos_as_xyz
  1  'x, y, z'
loop_
 _atom_site_type_symbol
 _atom_site_label
 _atom_site_symmetry_multiplicity
 _atom_site_fract_x
 _atom_site_fract_y
 _atom_site_fract_z
 _atom_site_occupancy
  Y  Y0  1  0.16666700  0.33564657  0.33564657  1
  Y  Y1  1  0.83333300  1.00000000  0.66435343  1
  Y  Y2  1  0.50000000  0.66435343  1.00000000  1
  Fe  Fe3  1  0.16666700  0.88455605  0.88455605  1
  Fe  Fe4  1  0.83333300  0.00000000  0.11544395  1
  Fe  Fe5  1  0.50000000  0.11544395  0.00000000  1
  Fe  Fe6  1  0.84504770  0.45139442  0.66313157  1
  Fe  Fe7  1  0.51171470  0.21173715  0.54860558  1
  Fe  Fe8  1  0.15495230  0.78826285  0.33686843  1
  Fe  Fe9  1  0.17838070  0.33686843  0.78826285  1
  Fe  Fe10  1  0.48828530  0.66313157  0.45139442  1
  Fe  Fe11  1  0.82161930  0.54860558  0.21173715  1
  B  B12  1  0.66666700  0.77847283  0.77847283  1
  B  B13  1  0.33333300  1.00000000  0.22152717  1
  B  B14  1  0.00000000  0.22152717  1.00000000  1
  B  B15  1  0.66666700  0.33235273  0.33235273  1
  B  B16  1  0.33333300  0.00000000  0.66764727  1
  B  B17  1  0.00000000  0.66764727  0.00000000  1
  B  B18  1  0.65043935  0.87392336  0.32262143  1
  B  B19  1  0.31710635  0.44869807  0.12607664  1
  B  B20  1  0.34956065  0.55130193  0.67737857  1
  B  B21  1  0.98377235  0.67737857  0.55130193  1
  B  B22  1  0.68289365  0.32262143  0.87392336  1
  B  B23  1  0.01622765  0.12607664  0.44869807  1
  O  O24  1  0.68623611  0.63889748  0.78580032  1
  O  O25  1  0.35290311  0.14690284  0.36110252  1
  O  O26  1  0.31376389  0.85309716  0.21419968  1
  O  O27  1  0.01956911  0.21419968  0.85309716  1
  O  O28  1  0.64709689  0.78580032  0.63889748  1
  O  O29  1  0.98043089  0.36110252  0.14690284  1
  O  O30  1  0.62469804  0.72224997  0.30303469  1
  O  O31  1  0.29136504  0.58078472  0.27775003  1
  O  O32  1  0.37530196  0.41921528  0.69696531  1
  O  O33  1  0.95803104  0.69696531  0.41921528  1
  O  O34  1  0.70863496  0.30303469  0.72224997  1
  O  O35  1  0.04196896  0.27775003  0.58078472  1
  O  O36  1  0.98059248  0.52633250  0.53286252  1
  O  O37  1  0.64725948  0.00653002  0.47366750  1
  O  O38  1  0.01940752  0.99346998  0.46713748  1
  O  O39  1  0.31392548  0.46713748  0.99346998  1
  O  O40  1  0.35274052  0.53286252  0.52633250  1
  O  O41  1  0.68607452  0.47366750  0.00653002  1
  O  O42  1  0.66666700  0.92222291  0.92222291  1
  O  O43  1  0.33333300  0.00000000  0.07777709  1
  O  O44  1  0.00000000  0.07777709  0.00000000  1
  O  O45  1  0.67713561  0.87655517  0.18187873  1
  O  O46  1  0.34380261  0.30532355  0.12344483  1
  O  O47  1  0.32286439  0.69467645  0.81812127  1
  O  O48  1  0.01046861  0.81812127  0.69467645  1
  O  O49  1  0.65619739  0.18187873  0.87655517  1
  O  O50  1  0.98953139  0.12344483  0.30532355  1
  O  O51  1  0.99055038  0.67012791  0.14483242  1
  O  O52  1  0.65721738  0.47470451  0.32987209  1
  O  O53  1  0.00944962  0.52529549  0.85516758  1
  O  O54  1  0.32388338  0.85516758  0.52529549  1
  O  O55  1  0.34278262  0.14483242  0.67012791  1
  O  O56  1  0.67611662  0.32987209  0.47470451  1
  O  O57  1  0.66666700  0.18855091  0.18855091  1
  O  O58  1  0.33333300  0.00000000  0.81144909  1
  O  O59  1  0.00000000  0.81144909  0.00000000  1
