# generated using pymatgen
data_Y4MgPd
_symmetry_space_group_name_H-M   'P 1'
_cell_length_a   9.81067954
_cell_length_b   9.81067954
_cell_length_c   9.81067954
_cell_angle_alpha   60.00000000
_cell_angle_beta   60.00000000
_cell_angle_gamma   60.00000000
_symmetry_Int_Tables_number   1
_chemical_formula_structural   Y4MgPd
_chemical_formula_sum   'Y16 Mg4 Pd4'
_cell_volume   667.70137710
_cell_formula_units_Z   4
loop_
 _symmetry_equiv_pos_site_id
 _symmetry_equiv_pos_as_xyz
  1  'x, y, z'
loop_
 _atom_site_type_symbol
 _atom_site_label
 _atom_site_symmetry_multiplicity
 _atom_site_fract_x
 _atom_site_fract_y
 _atom_site_fract_z
 _atom_site_occupancy
  Y  Y0  1  0.64918986  0.64918986  0.64918986  1
  Y  Y1  1  0.05243042  0.64918986  0.64918986  1
  Y  Y2  1  0.64918986  0.05243042  0.64918986  1
  Y  Y3  1  0.64918986  0.64918986  0.05243042  1
  Y  Y4  1  0.81145392  0.81145392  0.18854608  1
  Y  Y5  1  0.18854608  0.18854608  0.81145392  1
  Y  Y6  1  0.81145392  0.18854608  0.81145392  1
  Y  Y7  1  0.18854608  0.81145392  0.18854608  1
  Y  Y8  1  0.18854608  0.81145392  0.81145392  1
  Y  Y9  1  0.81145392  0.18854608  0.18854608  1
  Y  Y10  1  0.43285429  0.43285429  0.06714571  1
  Y  Y11  1  0.06714571  0.06714571  0.43285429  1
  Y  Y12  1  0.43285429  0.06714571  0.43285429  1
  Y  Y13  1  0.06714571  0.43285429  0.06714571  1
  Y  Y14  1  0.06714571  0.43285429  0.43285429  1
  Y  Y15  1  0.43285429  0.06714571  0.06714571  1
  Mg  Mg16  1  0.41974267  0.41974267  0.41974267  1
  Mg  Mg17  1  0.74077200  0.41974267  0.41974267  1
  Mg  Mg18  1  0.41974267  0.74077200  0.41974267  1
  Mg  Mg19  1  0.41974267  0.41974267  0.74077200  1
  Pd  Pd20  1  0.85660151  0.85660151  0.85660151  1
  Pd  Pd21  1  0.43019548  0.85660151  0.85660151  1
  Pd  Pd22  1  0.85660151  0.43019548  0.85660151  1
  Pd  Pd23  1  0.85660151  0.85660151  0.43019548  1
