# generated using pymatgen
data_YbSnF7
_symmetry_space_group_name_H-M   'P 1'
_cell_length_a   6.00134009
_cell_length_b   9.20230323
_cell_length_c   10.88146385
_cell_angle_alpha   107.37464381
_cell_angle_beta   90.00000000
_cell_angle_gamma   90.00000000
_symmetry_Int_Tables_number   1
_chemical_formula_structural   YbSnF7
_chemical_formula_sum   'Yb4 Sn4 F28'
_cell_volume   573.52196200
_cell_formula_units_Z   4
loop_
 _symmetry_equiv_pos_site_id
 _symmetry_equiv_pos_as_xyz
  1  'x, y, z'
loop_
 _atom_site_type_symbol
 _atom_site_label
 _atom_site_symmetry_multiplicity
 _atom_site_fract_x
 _atom_site_fract_y
 _atom_site_fract_z
 _atom_site_occupancy
  Yb  Yb0  1  0.75205084  0.94895821  0.74470940  1
  Yb  Yb1  1  0.24794916  0.05104179  0.25529060  1
  Yb  Yb2  1  0.25205084  0.55104179  0.75529060  1
  Yb  Yb3  1  0.74794916  0.44895821  0.24470940  1
  Sn  Sn4  1  0.25385202  0.22282869  0.95906734  1
  Sn  Sn5  1  0.74614798  0.77717131  0.04093266  1
  Sn  Sn6  1  0.75385202  0.27717131  0.54093266  1
  Sn  Sn7  1  0.24614798  0.72282869  0.45906734  1
  F  F8  1  0.01975498  0.84422326  0.59023434  1
  F  F9  1  0.98024502  0.15577674  0.40976566  1
  F  F10  1  0.51975498  0.65577674  0.90976566  1
  F  F11  1  0.48024502  0.34422326  0.09023434  1
  F  F12  1  0.50452270  0.12746806  0.84410736  1
  F  F13  1  0.49547730  0.87253194  0.15589264  1
  F  F14  1  0.00452270  0.37253194  0.65589264  1
  F  F15  1  0.99547730  0.62746806  0.34410736  1
  F  F16  1  0.03093550  0.10679561  0.83240987  1
  F  F17  1  0.96906450  0.89320439  0.16759013  1
  F  F18  1  0.53093550  0.39320439  0.66759013  1
  F  F19  1  0.46906450  0.60679561  0.33240987  1
  F  F20  1  0.23985240  0.39589466  0.88628972  1
  F  F21  1  0.76014760  0.60410534  0.11371028  1
  F  F22  1  0.73985240  0.10410534  0.61371028  1
  F  F23  1  0.26014760  0.89589466  0.38628972  1
  F  F24  1  0.99356850  0.66696611  0.91630441  1
  F  F25  1  0.00643150  0.33303389  0.08369559  1
  F  F26  1  0.49356850  0.83303389  0.58369559  1
  F  F27  1  0.50643150  0.16696611  0.41630441  1
  F  F28  1  0.24648780  0.56407463  0.54806089  1
  F  F29  1  0.75351220  0.43592537  0.45193911  1
  F  F30  1  0.74648780  0.93592537  0.95193911  1
  F  F31  1  0.25351220  0.06407463  0.04806089  1
  F  F32  1  0.49248718  0.75579317  0.75108763  1
  F  F33  1  0.50751282  0.24420683  0.24891237  1
  F  F34  1  0.99248718  0.74420683  0.74891237  1
  F  F35  1  0.00751282  0.25579317  0.25108763  1
