# generated using pymatgen
data_Yb6Al43Cr4
_symmetry_space_group_name_H-M   'P 1'
_cell_length_a   10.95753660
_cell_length_b   10.95753660
_cell_length_c   17.61767966
_cell_angle_alpha   90.00000000
_cell_angle_beta   90.00000000
_cell_angle_gamma   119.99999673
_symmetry_Int_Tables_number   1
_chemical_formula_structural   Yb6Al43Cr4
_chemical_formula_sum   'Yb12 Al86 Cr8'
_cell_volume   1831.91456130
_cell_formula_units_Z   2
loop_
 _symmetry_equiv_pos_site_id
 _symmetry_equiv_pos_as_xyz
  1  'x, y, z'
loop_
 _atom_site_type_symbol
 _atom_site_label
 _atom_site_symmetry_multiplicity
 _atom_site_fract_x
 _atom_site_fract_y
 _atom_site_fract_z
 _atom_site_occupancy
  Yb  Yb0  1  0.46696450  0.46696450  0.90594480  1
  Yb  Yb1  1  0.53303550  0.53303550  0.09405520  1
  Yb  Yb2  1  -0.00000000  0.53303550  0.90594480  1
  Yb  Yb3  1  0.53303550  0.53303550  0.40594480  1
  Yb  Yb4  1  -0.00000000  0.53303550  0.59405520  1
  Yb  Yb5  1  0.00000000  0.46696450  0.09405520  1
  Yb  Yb6  1  0.46696450  0.46696450  0.59405520  1
  Yb  Yb7  1  0.00000000  0.46696450  0.40594480  1
  Yb  Yb8  1  0.53303550  -0.00000000  0.90594480  1
  Yb  Yb9  1  0.46696450  0.00000000  0.09405520  1
  Yb  Yb10  1  0.46696450  0.00000000  0.40594480  1
  Yb  Yb11  1  0.53303550  -0.00000000  0.59405520  1
  Al  Al12  1  0.75291441  0.24708559  -0.00000000  1
  Al  Al13  1  0.24708559  0.75291441  -0.00000000  1
  Al  Al14  1  0.49417117  0.24708559  0.00000000  1
  Al  Al15  1  0.24708559  0.75291441  0.50000000  1
  Al  Al16  1  0.50582883  0.75291441  0.50000000  1
  Al  Al17  1  0.50582883  0.75291441  -0.00000000  1
  Al  Al18  1  0.75291441  0.24708559  0.50000000  1
  Al  Al19  1  0.49417117  0.24708559  0.50000000  1
  Al  Al20  1  0.75291441  0.50582883  0.00000000  1
  Al  Al21  1  0.24708559  0.49417117  -0.00000000  1
  Al  Al22  1  0.24708559  0.49417117  0.50000000  1
  Al  Al23  1  0.75291441  0.50582883  0.50000000  1
  Al  Al24  1  0.84479758  0.84479758  0.38437631  1
  Al  Al25  1  0.15520242  0.15520242  0.61562369  1
  Al  Al26  1  1.00000000  0.15520242  0.38437631  1
  Al  Al27  1  0.15520242  0.15520242  0.88437631  1
  Al  Al28  1  1.00000000  0.15520242  0.11562369  1
  Al  Al29  1  0.00000000  0.84479758  0.61562369  1
  Al  Al30  1  0.84479758  0.84479758  0.11562369  1
  Al  Al31  1  0.00000000  0.84479758  0.88437631  1
  Al  Al32  1  0.15520242  1.00000000  0.38437631  1
  Al  Al33  1  0.84479758  0.00000000  0.61562369  1
  Al  Al34  1  0.84479758  0.00000000  0.88437631  1
  Al  Al35  1  0.15520242  1.00000000  0.11562369  1
  Al  Al36  1  0.75090153  0.75090153  0.96924293  1
  Al  Al37  1  0.24909847  0.24909847  0.03075707  1
  Al  Al38  1  1.00000000  0.24909847  0.96924293  1
  Al  Al39  1  0.24909847  0.24909847  0.46924293  1
  Al  Al40  1  1.00000000  0.24909847  0.53075707  1
  Al  Al41  1  0.00000000  0.75090153  0.03075707  1
  Al  Al42  1  0.75090153  0.75090153  0.53075707  1
  Al  Al43  1  0.00000000  0.75090153  0.46924293  1
  Al  Al44  1  0.24909847  1.00000000  0.96924293  1
  Al  Al45  1  0.75090153  0.00000000  0.03075707  1
  Al  Al46  1  0.75090153  0.00000000  0.46924293  1
  Al  Al47  1  0.24909847  1.00000000  0.53075707  1
  Al  Al48  1  0.85560984  0.45561251  0.75000000  1
  Al  Al49  1  0.14439016  0.54438749  0.25000000  1
  Al  Al50  1  0.60000267  0.14439016  0.75000000  1
  Al  Al51  1  0.39999733  0.54438749  0.75000000  1
  Al  Al52  1  0.39999733  0.85560984  0.25000000  1
  Al  Al53  1  0.60000267  0.45561251  0.25000000  1
  Al  Al54  1  0.54438749  0.39999733  0.75000000  1
  Al  Al55  1  0.45561251  0.85560984  0.75000000  1
  Al  Al56  1  0.45561251  0.60000267  0.25000000  1
  Al  Al57  1  0.54438749  0.14439016  0.25000000  1
  Al  Al58  1  0.14439016  0.60000267  0.75000000  1
  Al  Al59  1  0.85560984  0.39999733  0.25000000  1
  Al  Al60  1  0.66666700  0.33333300  0.87231379  1
  Al  Al61  1  0.33333300  0.66666700  0.12768621  1
  Al  Al62  1  0.33333300  0.66666700  0.37231379  1
  Al  Al63  1  0.33333300  0.66666700  0.62768621  1
  Al  Al64  1  0.66666700  0.33333300  0.62768621  1
  Al  Al65  1  0.66666700  0.33333300  0.37231379  1
  Al  Al66  1  0.66666700  0.33333300  0.12768621  1
  Al  Al67  1  0.33333300  0.66666700  0.87231379  1
  Al  Al68  1  0.84295835  0.23287448  0.83442626  1
  Al  Al69  1  0.15704165  0.76712552  0.16557374  1
  Al  Al70  1  0.38991613  0.15704165  0.83442626  1
  Al  Al71  1  0.15704165  0.76712552  0.33442626  1
  Al  Al72  1  0.61008387  0.76712552  0.66557374  1
  Al  Al73  1  0.61008387  0.84295835  0.16557374  1
  Al  Al74  1  0.84295835  0.23287448  0.66557374  1
  Al  Al75  1  0.38991613  0.23287448  0.33442626  1
  Al  Al76  1  0.76712552  0.61008387  0.83442626  1
  Al  Al77  1  0.61008387  0.84295835  0.33442626  1
  Al  Al78  1  0.23287448  0.84295835  0.66557374  1
  Al  Al79  1  0.23287448  0.38991613  0.16557374  1
  Al  Al80  1  0.38991613  0.15704165  0.66557374  1
  Al  Al81  1  0.76712552  0.15704165  0.33442626  1
  Al  Al82  1  0.38991613  0.23287448  0.16557374  1
  Al  Al83  1  0.61008387  0.76712552  0.83442626  1
  Al  Al84  1  0.23287448  0.38991613  0.33442626  1
  Al  Al85  1  0.76712552  0.15704165  0.16557374  1
  Al  Al86  1  0.76712552  0.61008387  0.66557374  1
  Al  Al87  1  0.23287448  0.84295835  0.83442626  1
  Al  Al88  1  0.15704165  0.38991613  0.66557374  1
  Al  Al89  1  0.84295835  0.61008387  0.33442626  1
  Al  Al90  1  0.84295835  0.61008387  0.16557374  1
  Al  Al91  1  0.15704165  0.38991613  0.83442626  1
  Al  Al92  1  0.85378450  0.85378450  0.75000000  1
  Al  Al93  1  0.14621550  0.14621550  0.25000000  1
  Al  Al94  1  1.00000000  0.14621550  0.75000000  1
  Al  Al95  1  0.00000000  0.85378450  0.25000000  1
  Al  Al96  1  0.14621550  1.00000000  0.75000000  1
  Al  Al97  1  0.85378450  0.00000000  0.25000000  1
  Cr  Cr98  1  -0.00000000  -0.00000000  -0.00000000  1
  Cr  Cr99  1  -0.00000000  -0.00000000  0.50000000  1
  Cr  Cr100  1  0.26692577  0.26692577  0.75000000  1
  Cr  Cr101  1  0.73307423  0.73307423  0.25000000  1
  Cr  Cr102  1  1.00000000  0.73307423  0.75000000  1
  Cr  Cr103  1  0.00000000  0.26692577  0.25000000  1
  Cr  Cr104  1  0.73307423  1.00000000  0.75000000  1
  Cr  Cr105  1  0.26692577  0.00000000  0.25000000  1
