# generated using pymatgen
data_WCl2
_symmetry_space_group_name_H-M   'P 1'
_cell_length_a   9.22246238
_cell_length_b   9.22246238
_cell_length_c   11.51661436
_cell_angle_alpha   90.00000000
_cell_angle_beta   90.00000000
_cell_angle_gamma   102.90127665
_symmetry_Int_Tables_number   1
_chemical_formula_structural   WCl2
_chemical_formula_sum   'W12 Cl24'
_cell_volume   954.80486773
_cell_formula_units_Z   12
loop_
 _symmetry_equiv_pos_site_id
 _symmetry_equiv_pos_as_xyz
  1  'x, y, z'
loop_
 _atom_site_type_symbol
 _atom_site_label
 _atom_site_symmetry_multiplicity
 _atom_site_fract_x
 _atom_site_fract_y
 _atom_site_fract_z
 _atom_site_occupancy
  W  W0  1  0.12939750  0.87060250  -0.00000000  1
  W  W1  1  0.87060250  0.12939750  -0.00000000  1
  W  W2  1  0.37060250  0.62939750  0.50000000  1
  W  W3  1  0.62939750  0.37060250  0.50000000  1
  W  W4  1  0.43487571  0.43487571  0.35178713  1
  W  W5  1  0.56512429  0.56512429  0.64821287  1
  W  W6  1  0.06512429  0.06512429  0.85178713  1
  W  W7  1  0.93487571  0.93487571  0.14821287  1
  W  W8  1  0.14849049  0.14849049  0.06494968  1
  W  W9  1  0.85150951  0.85150951  0.93505032  1
  W  W10  1  0.35150951  0.35150951  0.56494968  1
  W  W11  1  0.64849049  0.64849049  0.43505032  1
  Cl  Cl12  1  0.29560811  0.70439189  -0.00000000  1
  Cl  Cl13  1  0.70439189  0.29560811  -0.00000000  1
  Cl  Cl14  1  0.20439189  0.79560811  0.50000000  1
  Cl  Cl15  1  0.79560811  0.20439189  0.50000000  1
  Cl  Cl16  1  0.20288691  0.95724556  0.20305781  1
  Cl  Cl17  1  0.79711309  0.04275444  0.79694219  1
  Cl  Cl18  1  0.29711309  0.54275444  0.70305781  1
  Cl  Cl19  1  0.45724556  0.70288691  0.29694219  1
  Cl  Cl20  1  0.70288691  0.45724556  0.29694219  1
  Cl  Cl21  1  0.54275444  0.29711309  0.70305781  1
  Cl  Cl22  1  0.04275444  0.79711309  0.79694219  1
  Cl  Cl23  1  0.95724556  0.20288691  0.20305781  1
  Cl  Cl24  1  0.35365703  0.35365703  0.14668118  1
  Cl  Cl25  1  0.64634297  0.64634297  0.85331882  1
  Cl  Cl26  1  0.14634297  0.14634297  0.64668118  1
  Cl  Cl27  1  0.85365703  0.85365703  0.35331882  1
  Cl  Cl28  1  0.67364565  0.91965023  0.07989043  1
  Cl  Cl29  1  0.32635435  0.08034977  0.92010957  1
  Cl  Cl30  1  0.82635435  0.58034977  0.57989043  1
  Cl  Cl31  1  0.41965023  0.17364565  0.42010957  1
  Cl  Cl32  1  0.17364565  0.41965023  0.42010957  1
  Cl  Cl33  1  0.58034977  0.82635435  0.57989043  1
  Cl  Cl34  1  0.08034977  0.32635435  0.92010957  1
  Cl  Cl35  1  0.91965023  0.67364565  0.07989043  1
