# generated using pymatgen
data_Y12Co5Bi
_symmetry_space_group_name_H-M   'P 1'
_cell_length_a   8.38297290
_cell_length_b   8.38297290
_cell_length_c   8.38297290
_cell_angle_alpha   107.09833851
_cell_angle_beta   110.59951282
_cell_angle_gamma   110.74158566
_symmetry_Int_Tables_number   1
_chemical_formula_structural   Y12Co5Bi
_chemical_formula_sum   'Y12 Co5 Bi1'
_cell_volume   452.91371458
_cell_formula_units_Z   1
loop_
 _symmetry_equiv_pos_site_id
 _symmetry_equiv_pos_as_xyz
  1  'x, y, z'
loop_
 _atom_site_type_symbol
 _atom_site_label
 _atom_site_symmetry_multiplicity
 _atom_site_fract_x
 _atom_site_fract_y
 _atom_site_fract_z
 _atom_site_occupancy
  Y  Y0  1  0.52843171  0.81714015  0.71129156  1
  Y  Y1  1  0.47156829  0.18285985  0.28870844  1
  Y  Y2  1  0.89415141  0.18285985  0.71129156  1
  Y  Y3  1  0.10584859  0.81714015  0.28870844  1
  Y  Y4  1  0.69060113  0.68838431  0.37898544  1
  Y  Y5  1  0.30939887  0.31161569  0.62101456  1
  Y  Y6  1  0.30939887  0.68838431  0.99778318  1
  Y  Y7  1  0.69060113  0.31161569  0.00221682  1
  Y  Y8  1  0.80485127  0.59795130  0.79310003  1
  Y  Y9  1  0.19514873  0.40204870  0.20689997  1
  Y  Y10  1  0.19514873  0.98824876  0.79310003  1
  Y  Y11  1  0.80485127  0.01175124  0.20689997  1
  Co  Co12  1  0.62075255  0.62075255  -0.00000000  1
  Co  Co13  1  0.37924745  0.37924745  -0.00000000  1
  Co  Co14  1  0.50000000  0.10976328  0.60976328  1
  Co  Co15  1  0.50000000  0.89023672  0.39023672  1
  Co  Co16  1  -0.00000000  -0.00000000  -0.00000000  1
  Bi  Bi17  1  -0.00000000  0.50000000  0.50000000  1
