# generated using pymatgen
data_Y12Al7Si
_symmetry_space_group_name_H-M   'P 1'
_cell_length_a   11.24251854
_cell_length_b   11.24251854
_cell_length_c   11.24251854
_cell_angle_alpha   94.82040127
_cell_angle_beta   117.25707380
_cell_angle_gamma   117.25707380
_symmetry_Int_Tables_number   1
_chemical_formula_structural   Y12Al7Si
_chemical_formula_sum   'Y24 Al14 Si2'
_cell_volume   1042.45712267
_cell_formula_units_Z   2
loop_
 _symmetry_equiv_pos_site_id
 _symmetry_equiv_pos_as_xyz
  1  'x, y, z'
loop_
 _atom_site_type_symbol
 _atom_site_label
 _atom_site_symmetry_multiplicity
 _atom_site_fract_x
 _atom_site_fract_y
 _atom_site_fract_z
 _atom_site_occupancy
  Y  Y0  1  0.50000000  0.85320969  0.35320969  1
  Y  Y1  1  0.50000000  0.14679031  0.64679031  1
  Y  Y2  1  0.50000000  0.35320969  0.85320969  1
  Y  Y3  1  0.50000000  0.64679031  0.14679031  1
  Y  Y4  1  0.73442839  0.79851559  0.66214163  1
  Y  Y5  1  0.26557161  0.20148441  0.33785837  1
  Y  Y6  1  0.26557161  0.92771324  0.06408720  1
  Y  Y7  1  0.13637396  0.06408720  0.79851559  1
  Y  Y8  1  0.86362604  0.70148441  0.43591280  1
  Y  Y9  1  0.73442839  0.07228676  0.93591280  1
  Y  Y10  1  0.86362604  0.93591280  0.20148441  1
  Y  Y11  1  0.13637396  0.29851559  0.56408720  1
  Y  Y12  1  0.86362604  0.66214163  0.92771324  1
  Y  Y13  1  0.13637396  0.57228676  0.83785837  1
  Y  Y14  1  0.13637396  0.33785837  0.07228676  1
  Y  Y15  1  0.86362604  0.42771324  0.16214163  1
  Y  Y16  1  0.73442839  0.43591280  0.57228676  1
  Y  Y17  1  0.26557161  0.56408720  0.42771324  1
  Y  Y18  1  0.26557161  0.83785837  0.70148441  1
  Y  Y19  1  0.73442839  0.16214163  0.29851559  1
  Y  Y20  1  0.15904786  0.82952393  0.32952393  1
  Y  Y21  1  0.84095214  0.17047607  0.67047607  1
  Y  Y22  1  0.50000000  0.67047607  0.82952393  1
  Y  Y23  1  0.50000000  0.32952393  0.17047607  1
  Al  Al24  1  0.26361954  0.38180977  0.88180977  1
  Al  Al25  1  0.73638046  0.61819023  0.11819023  1
  Al  Al26  1  0.50000000  0.11819023  0.38180977  1
  Al  Al27  1  0.50000000  0.88180977  0.61819023  1
  Al  Al28  1  0.00000000  0.00000000  0.00000000  1
  Al  Al29  1  0.00000000  0.50000000  0.50000000  1
  Al  Al30  1  0.14310863  0.61841885  0.11841885  1
  Al  Al31  1  0.85689137  0.38158115  0.88158115  1
  Al  Al32  1  0.85689137  0.97531022  0.47531022  1
  Al  Al33  1  0.50000000  0.47531022  0.61841885  1
  Al  Al34  1  0.50000000  0.88158115  0.02468978  1
  Al  Al35  1  0.14310863  0.02468978  0.52468978  1
  Al  Al36  1  0.50000000  0.52468978  0.38158115  1
  Al  Al37  1  0.50000000  0.11841885  0.97531022  1
  Si  Si38  1  0.00000000  0.75000000  0.75000000  1
  Si  Si39  1  0.00000000  0.25000000  0.25000000  1
