# generated using pymatgen
data_Y12(OsC3)5
_symmetry_space_group_name_H-M   'P 1'
_cell_length_a   5.08930285
_cell_length_b   10.74075522
_cell_length_c   10.74075522
_cell_angle_alpha   120.00000183
_cell_angle_beta   90.00000000
_cell_angle_gamma   90.00000000
_symmetry_Int_Tables_number   1
_chemical_formula_structural   Y12(OsC3)5
_chemical_formula_sum   'Y12 Os5 C15'
_cell_volume   508.46206527
_cell_formula_units_Z   1
loop_
 _symmetry_equiv_pos_site_id
 _symmetry_equiv_pos_as_xyz
  1  'x, y, z'
loop_
 _atom_site_type_symbol
 _atom_site_label
 _atom_site_symmetry_multiplicity
 _atom_site_fract_x
 _atom_site_fract_y
 _atom_site_fract_z
 _atom_site_occupancy
  Y  Y0  1  0.50000000  0.20666695  0.20666695  1
  Y  Y1  1  0.50000000  1.00000000  0.79333305  1
  Y  Y2  1  0.50000000  0.79333305  1.00000000  1
  Y  Y3  1  0.00000000  0.72722982  0.18347635  1
  Y  Y4  1  0.00000000  0.45624654  0.27277018  1
  Y  Y5  1  -0.00000000  0.54375346  0.81652365  1
  Y  Y6  1  -0.00000000  0.81652365  0.54375346  1
  Y  Y7  1  -0.00000000  0.18347635  0.72722982  1
  Y  Y8  1  0.00000000  0.27277018  0.45624654  1
  Y  Y9  1  0.50000000  0.56592349  0.56592349  1
  Y  Y10  1  0.50000000  0.00000000  0.43407651  1
  Y  Y11  1  0.50000000  0.43407651  0.00000000  1
  Os  Os12  1  0.00000000  0.83865484  0.83865484  1
  Os  Os13  1  -0.00000000  0.00000000  0.16134516  1
  Os  Os14  1  0.00000000  0.16134516  0.00000000  1
  Os  Os15  1  0.50000000  0.66666700  0.33333300  1
  Os  Os16  1  0.50000000  0.33333300  0.66666700  1
  C  C17  1  -0.00000000  0.66399837  0.66399837  1
  C  C18  1  0.00000000  1.00000000  0.33600163  1
  C  C19  1  -0.00000000  0.33600163  1.00000000  1
  C  C20  1  -0.00000000  0.20698285  0.20698285  1
  C  C21  1  0.00000000  0.00000000  0.79301715  1
  C  C22  1  -0.00000000  0.79301715  0.00000000  1
  C  C23  1  0.00000000  0.53911273  0.53911273  1
  C  C24  1  -0.00000000  0.00000000  0.46088727  1
  C  C25  1  0.00000000  0.46088727  0.00000000  1
  C  C26  1  0.50000000  0.71678389  0.18521116  1
  C  C27  1  0.50000000  0.46842727  0.28321611  1
  C  C28  1  0.50000000  0.53157273  0.81478884  1
  C  C29  1  0.50000000  0.81478884  0.53157273  1
  C  C30  1  0.50000000  0.18521116  0.71678389  1
  C  C31  1  0.50000000  0.28321611  0.46842727  1
