# generated using pymatgen
data_YMg6Zn
_symmetry_space_group_name_H-M   'P 1'
_cell_length_a   6.51952538
_cell_length_b   6.51952483
_cell_length_c   5.03715544
_cell_angle_alpha   90.00000000
_cell_angle_beta   90.00000000
_cell_angle_gamma   119.93810724
_symmetry_Int_Tables_number   1
_chemical_formula_structural   YMg6Zn
_chemical_formula_sum   'Y1 Mg6 Zn1'
_cell_volume   185.53183004
_cell_formula_units_Z   1
loop_
 _symmetry_equiv_pos_site_id
 _symmetry_equiv_pos_as_xyz
  1  'x, y, z'
loop_
 _atom_site_type_symbol
 _atom_site_label
 _atom_site_symmetry_multiplicity
 _atom_site_fract_x
 _atom_site_fract_y
 _atom_site_fract_z
 _atom_site_occupancy
  Y  Y0  1  0.17419183  0.32580817  0.25000000  1
  Mg  Mg1  1  0.17783812  0.83846778  0.25000000  1
  Mg  Mg2  1  0.66153222  0.32216188  0.25000000  1
  Mg  Mg3  1  0.66457400  0.83542600  0.25000000  1
  Mg  Mg4  1  0.33734304  0.67878853  0.75000000  1
  Mg  Mg5  1  0.82121147  0.16265696  0.75000000  1
  Mg  Mg6  1  0.83206058  0.66793942  0.75000000  1
  Zn  Zn7  1  0.33124874  0.16875126  0.75000000  1
