# generated using pymatgen
data_Y3(SbPd2)4
_symmetry_space_group_name_H-M   'P 1'
_cell_length_a   9.37033872
_cell_length_b   9.37033872
_cell_length_c   9.37033872
_cell_angle_alpha   60.00000000
_cell_angle_beta   60.00000000
_cell_angle_gamma   60.00000000
_symmetry_Int_Tables_number   1
_chemical_formula_structural   Y3(SbPd2)4
_chemical_formula_sum   'Y6 Sb8 Pd16'
_cell_volume   581.76939712
_cell_formula_units_Z   2
loop_
 _symmetry_equiv_pos_site_id
 _symmetry_equiv_pos_as_xyz
  1  'x, y, z'
loop_
 _atom_site_type_symbol
 _atom_site_label
 _atom_site_symmetry_multiplicity
 _atom_site_fract_x
 _atom_site_fract_y
 _atom_site_fract_z
 _atom_site_occupancy
  Y  Y0  1  0.72361238  0.72361238  0.27638762  1
  Y  Y1  1  0.27638762  0.27638762  0.72361238  1
  Y  Y2  1  0.72361238  0.27638762  0.72361238  1
  Y  Y3  1  0.27638762  0.72361238  0.27638762  1
  Y  Y4  1  0.27638762  0.72361238  0.72361238  1
  Y  Y5  1  0.72361238  0.27638762  0.27638762  1
  Sb  Sb6  1  -0.00000000  0.00000000  0.00000000  1
  Sb  Sb7  1  -0.00000000  0.00000000  0.50000000  1
  Sb  Sb8  1  0.50000000  0.50000000  0.00000000  1
  Sb  Sb9  1  -0.00000000  0.50000000  0.00000000  1
  Sb  Sb10  1  0.50000000  0.00000000  0.50000000  1
  Sb  Sb11  1  0.50000000  0.00000000  0.00000000  1
  Sb  Sb12  1  -0.00000000  0.50000000  0.50000000  1
  Sb  Sb13  1  0.50000000  0.50000000  0.50000000  1
  Pd  Pd14  1  0.88153037  0.88153037  0.88153037  1
  Pd  Pd15  1  0.11846963  0.11846963  0.11846963  1
  Pd  Pd16  1  0.35540888  0.88153037  0.88153037  1
  Pd  Pd17  1  0.88153037  0.35540888  0.88153037  1
  Pd  Pd18  1  0.64459112  0.11846963  0.11846963  1
  Pd  Pd19  1  0.11846963  0.64459112  0.11846963  1
  Pd  Pd20  1  0.88153037  0.88153037  0.35540888  1
  Pd  Pd21  1  0.11846963  0.11846963  0.64459112  1
  Pd  Pd22  1  0.66768331  0.66768331  0.66768331  1
  Pd  Pd23  1  0.33231669  0.33231669  0.33231669  1
  Pd  Pd24  1  -0.00304994  0.66768331  0.66768331  1
  Pd  Pd25  1  0.66768331  -0.00304994  0.66768331  1
  Pd  Pd26  1  0.00304994  0.33231669  0.33231669  1
  Pd  Pd27  1  0.33231669  0.00304994  0.33231669  1
  Pd  Pd28  1  0.66768331  0.66768331  -0.00304994  1
  Pd  Pd29  1  0.33231669  0.33231669  0.00304994  1
