# generated using pymatgen
data_Y4MgIr
_symmetry_space_group_name_H-M   'P 1'
_cell_length_a   9.74673842
_cell_length_b   9.74673842
_cell_length_c   9.74673842
_cell_angle_alpha   60.00000000
_cell_angle_beta   60.00000000
_cell_angle_gamma   60.00000000
_symmetry_Int_Tables_number   1
_chemical_formula_structural   Y4MgIr
_chemical_formula_sum   'Y16 Mg4 Ir4'
_cell_volume   654.73104517
_cell_formula_units_Z   4
loop_
 _symmetry_equiv_pos_site_id
 _symmetry_equiv_pos_as_xyz
  1  'x, y, z'
loop_
 _atom_site_type_symbol
 _atom_site_label
 _atom_site_symmetry_multiplicity
 _atom_site_fract_x
 _atom_site_fract_y
 _atom_site_fract_z
 _atom_site_occupancy
  Y  Y0  1  0.65263089  0.65263089  0.65263089  1
  Y  Y1  1  0.04210734  0.65263089  0.65263089  1
  Y  Y2  1  0.65263089  0.04210734  0.65263089  1
  Y  Y3  1  0.65263089  0.65263089  0.04210734  1
  Y  Y4  1  0.81277921  0.81277921  0.18722079  1
  Y  Y5  1  0.18722079  0.18722079  0.81277921  1
  Y  Y6  1  0.81277921  0.18722079  0.81277921  1
  Y  Y7  1  0.18722079  0.81277921  0.18722079  1
  Y  Y8  1  0.18722079  0.81277921  0.81277921  1
  Y  Y9  1  0.81277921  0.18722079  0.18722079  1
  Y  Y10  1  0.43659254  0.43659254  0.06340746  1
  Y  Y11  1  0.06340746  0.06340746  0.43659254  1
  Y  Y12  1  0.43659254  0.06340746  0.43659254  1
  Y  Y13  1  0.06340746  0.43659254  0.06340746  1
  Y  Y14  1  0.06340746  0.43659254  0.43659254  1
  Y  Y15  1  0.43659254  0.06340746  0.06340746  1
  Mg  Mg16  1  0.42069640  0.42069640  0.42069640  1
  Mg  Mg17  1  0.73791079  0.42069640  0.42069640  1
  Mg  Mg18  1  0.42069640  0.73791079  0.42069640  1
  Mg  Mg19  1  0.42069640  0.42069640  0.73791079  1
  Ir  Ir20  1  0.85848397  0.85848397  0.85848397  1
  Ir  Ir21  1  0.42454809  0.85848397  0.85848397  1
  Ir  Ir22  1  0.85848397  0.42454809  0.85848397  1
  Ir  Ir23  1  0.85848397  0.85848397  0.42454809  1
