# generated using pymatgen
data_Y2(Ga3Ru)3
_symmetry_space_group_name_H-M   'P 1'
_cell_length_a   7.49294516
_cell_length_b   7.49294516
_cell_length_c   9.76506112
_cell_angle_alpha   90.00000000
_cell_angle_beta   90.00000000
_cell_angle_gamma   119.35448452
_symmetry_Int_Tables_number   1
_chemical_formula_structural   Y2(Ga3Ru)3
_chemical_formula_sum   'Y4 Ga18 Ru6'
_cell_volume   477.85820096
_cell_formula_units_Z   2
loop_
 _symmetry_equiv_pos_site_id
 _symmetry_equiv_pos_as_xyz
  1  'x, y, z'
loop_
 _atom_site_type_symbol
 _atom_site_label
 _atom_site_symmetry_multiplicity
 _atom_site_fract_x
 _atom_site_fract_y
 _atom_site_fract_z
 _atom_site_occupancy
  Y  Y0  1  0.66955262  0.99644492  0.25000000  1
  Y  Y1  1  0.33044738  0.00355508  0.75000000  1
  Y  Y2  1  0.99644492  0.66955262  0.25000000  1
  Y  Y3  1  0.00355508  0.33044738  0.75000000  1
  Ga  Ga4  1  0.12708618  0.12708618  0.25000000  1
  Ga  Ga5  1  0.87291382  0.87291382  0.75000000  1
  Ga  Ga6  1  0.33529962  0.00714768  0.07736663  1
  Ga  Ga7  1  0.66470038  0.99285232  0.92263337  1
  Ga  Ga8  1  0.66470038  0.99285232  0.57736663  1
  Ga  Ga9  1  0.00714768  0.33529962  0.42263337  1
  Ga  Ga10  1  0.33529962  0.00714768  0.42263337  1
  Ga  Ga11  1  0.99285232  0.66470038  0.57736663  1
  Ga  Ga12  1  0.99285232  0.66470038  0.92263337  1
  Ga  Ga13  1  0.00714768  0.33529962  0.07736663  1
  Ga  Ga14  1  0.33835179  0.33835179  0.56029668  1
  Ga  Ga15  1  0.66164821  0.66164821  0.43970332  1
  Ga  Ga16  1  0.66164821  0.66164821  0.06029668  1
  Ga  Ga17  1  0.33835179  0.33835179  0.93970332  1
  Ga  Ga18  1  0.54833974  0.33728087  0.25000000  1
  Ga  Ga19  1  0.45166026  0.66271913  0.75000000  1
  Ga  Ga20  1  0.33728087  0.54833974  0.25000000  1
  Ga  Ga21  1  0.66271913  0.45166026  0.75000000  1
  Ru  Ru22  1  0.32500639  0.67499361  0.00000000  1
  Ru  Ru23  1  0.67499361  0.32500639  0.00000000  1
  Ru  Ru24  1  0.67499361  0.32500639  0.50000000  1
  Ru  Ru25  1  0.32500639  0.67499361  0.50000000  1
  Ru  Ru26  1  -0.00000000  0.00000000  0.00000000  1
  Ru  Ru27  1  -0.00000000  0.00000000  0.50000000  1
