# generated using pymatgen
data_Tm2(Al3Ir)3
_symmetry_space_group_name_H-M   'P 1'
_cell_length_a   7.56311019
_cell_length_b   7.52738067
_cell_length_c   9.42387994
_cell_angle_alpha   90.00000000
_cell_angle_beta   90.00000000
_cell_angle_gamma   120.15713693
_symmetry_Int_Tables_number   1
_chemical_formula_structural   Tm2(Al3Ir)3
_chemical_formula_sum   'Tm4 Al18 Ir6'
_cell_volume   463.88981208
_cell_formula_units_Z   2
loop_
 _symmetry_equiv_pos_site_id
 _symmetry_equiv_pos_as_xyz
  1  'x, y, z'
loop_
 _atom_site_type_symbol
 _atom_site_label
 _atom_site_symmetry_multiplicity
 _atom_site_fract_x
 _atom_site_fract_y
 _atom_site_fract_z
 _atom_site_occupancy
  Tm  Tm0  1  0.33047969  0.32591495  0.75000000  1
  Tm  Tm1  1  0.66952031  0.67408505  0.25000000  1
  Tm  Tm2  1  0.00456474  0.67408505  0.75000000  1
  Tm  Tm3  1  0.99543526  0.32591495  0.25000000  1
  Al  Al4  1  0.87378752  0.00000000  0.75000000  1
  Al  Al5  1  0.12621248  1.00000000  0.25000000  1
  Al  Al6  1  0.66528053  0.66613962  0.92587578  1
  Al  Al7  1  0.33471947  0.33386038  0.07412422  1
  Al  Al8  1  0.33471947  0.33386038  0.42587578  1
  Al  Al9  1  0.99914091  0.33386038  0.57412422  1
  Al  Al10  1  0.66528053  0.66613962  0.57412422  1
  Al  Al11  1  0.00085909  0.66613962  0.42587578  1
  Al  Al12  1  0.00085909  0.66613962  0.07412422  1
  Al  Al13  1  0.99914091  0.33386038  0.92587578  1
  Al  Al14  1  0.66680664  1.00000000  0.44501274  1
  Al  Al15  1  0.33319336  0.00000000  0.55498726  1
  Al  Al16  1  0.33319336  0.00000000  0.94501274  1
  Al  Al17  1  0.66680664  1.00000000  0.05498726  1
  Al  Al18  1  0.45254294  0.79027921  0.75000000  1
  Al  Al19  1  0.54745706  0.20972079  0.25000000  1
  Al  Al20  1  0.66226373  0.20972079  0.75000000  1
  Al  Al21  1  0.33773627  0.79027921  0.25000000  1
  Ir  Ir22  1  0.67217871  0.34435742  -0.00000000  1
  Ir  Ir23  1  0.32782129  0.65564258  -0.00000000  1
  Ir  Ir24  1  0.32782129  0.65564258  0.50000000  1
  Ir  Ir25  1  0.67217871  0.34435742  0.50000000  1
  Ir  Ir26  1  0.00000000  0.00000000  -0.00000000  1
  Ir  Ir27  1  0.00000000  0.00000000  0.50000000  1
