# generated using pymatgen
data_U2(Al3Ir)3
_symmetry_space_group_name_H-M   'P 1'
_cell_length_a   7.60078543
_cell_length_b   7.65182019
_cell_length_c   9.40160902
_cell_angle_alpha   90.00000000
_cell_angle_beta   90.00000000
_cell_angle_gamma   120.22236459
_symmetry_Int_Tables_number   1
_chemical_formula_structural   U2(Al3Ir)3
_chemical_formula_sum   'U4 Al18 Ir6'
_cell_volume   472.47470088
_cell_formula_units_Z   2
loop_
 _symmetry_equiv_pos_site_id
 _symmetry_equiv_pos_as_xyz
  1  'x, y, z'
loop_
 _atom_site_type_symbol
 _atom_site_label
 _atom_site_symmetry_multiplicity
 _atom_site_fract_x
 _atom_site_fract_y
 _atom_site_fract_z
 _atom_site_occupancy
  U  U0  1  0.67319542  0.66892546  0.25000000  1
  U  U1  1  0.32680458  0.33107454  0.75000000  1
  U  U2  1  0.32680458  0.99573004  0.25000000  1
  U  U3  1  0.67319542  0.00426996  0.75000000  1
  Al  Al4  1  0.00000000  0.12746216  0.25000000  1
  Al  Al5  1  1.00000000  0.87253784  0.75000000  1
  Al  Al6  1  0.33223700  0.33479068  0.07380408  1
  Al  Al7  1  0.66776300  0.66520932  0.92619592  1
  Al  Al8  1  0.66776300  0.66520932  0.57380408  1
  Al  Al9  1  0.66776300  0.00255367  0.42619592  1
  Al  Al10  1  0.33223700  0.33479068  0.42619592  1
  Al  Al11  1  0.33223700  0.99744633  0.57380408  1
  Al  Al12  1  0.33223700  0.99744633  0.92619592  1
  Al  Al13  1  0.66776300  0.00255367  0.07380408  1
  Al  Al14  1  0.00000000  0.33497666  0.55618398  1
  Al  Al15  1  1.00000000  0.66502334  0.44381602  1
  Al  Al16  1  1.00000000  0.66502334  0.05618398  1
  Al  Al17  1  0.00000000  0.33497666  0.94381602  1
  Al  Al18  1  0.20741176  0.54626120  0.25000000  1
  Al  Al19  1  0.79258824  0.45373880  0.75000000  1
  Al  Al20  1  0.79258824  0.33884944  0.25000000  1
  Al  Al21  1  0.20741176  0.66115056  0.75000000  1
  Ir  Ir22  1  0.65437372  0.32718686  0.00000000  1
  Ir  Ir23  1  0.34562628  0.67281314  0.00000000  1
  Ir  Ir24  1  0.34562628  0.67281314  0.50000000  1
  Ir  Ir25  1  0.65437372  0.32718686  0.50000000  1
  Ir  Ir26  1  0.00000000  0.00000000  0.00000000  1
  Ir  Ir27  1  0.00000000  0.00000000  0.50000000  1
