# generated using pymatgen
data_Tm3Si3Ni
_symmetry_space_group_name_H-M   'P 1'
_cell_length_a   4.13423301
_cell_length_b   5.51191831
_cell_length_c   12.66997470
_cell_angle_alpha   84.76932195
_cell_angle_beta   80.61017498
_cell_angle_gamma   67.97404327
_symmetry_Int_Tables_number   1
_chemical_formula_structural   Tm3Si3Ni
_chemical_formula_sum   'Tm6 Si6 Ni2'
_cell_volume   263.91735824
_cell_formula_units_Z   2
loop_
 _symmetry_equiv_pos_site_id
 _symmetry_equiv_pos_as_xyz
  1  'x, y, z'
loop_
 _atom_site_type_symbol
 _atom_site_label
 _atom_site_symmetry_multiplicity
 _atom_site_fract_x
 _atom_site_fract_y
 _atom_site_fract_z
 _atom_site_occupancy
  Tm  Tm0  1  0.47181215  0.67635855  0.38001715  1
  Tm  Tm1  1  0.52818785  0.32364145  0.61998285  1
  Tm  Tm2  1  0.60259912  0.71666302  0.07813875  1
  Tm  Tm3  1  0.39740088  0.28333698  0.92186125  1
  Tm  Tm4  1  0.25646530  0.25946437  0.22760502  1
  Tm  Tm5  1  0.74353470  0.74053563  0.77239498  1
  Si  Si6  1  0.95780972  0.84900822  0.23537234  1
  Si  Si7  1  0.04219028  0.15099178  0.76462766  1
  Si  Si8  1  0.88651575  0.15096449  0.07600402  1
  Si  Si9  1  0.11348425  0.84903551  0.92399598  1
  Si  Si10  1  0.86384067  0.72842422  0.54389445  1
  Si  Si11  1  0.13615933  0.27157578  0.45610555  1
  Ni  Ni12  1  0.75538512  0.08569319  0.40353657  1
  Ni  Ni13  1  0.24461488  0.91430681  0.59646343  1
