# generated using pymatgen
data_KMg15
_symmetry_space_group_name_H-M   'P 1'
_cell_length_a   6.58930407
_cell_length_b   6.58930350
_cell_length_c   10.48746341
_cell_angle_alpha   90.00000000
_cell_angle_beta   90.00000000
_cell_angle_gamma   120.00000290
_symmetry_Int_Tables_number   1
_chemical_formula_structural   KMg15
_chemical_formula_sum   'K1 Mg15'
_cell_volume   394.34845001
_cell_formula_units_Z   1
loop_
 _symmetry_equiv_pos_site_id
 _symmetry_equiv_pos_as_xyz
  1  'x, y, z'
loop_
 _atom_site_type_symbol
 _atom_site_label
 _atom_site_symmetry_multiplicity
 _atom_site_fract_x
 _atom_site_fract_y
 _atom_site_fract_z
 _atom_site_occupancy
  K  K0  1  0.16666700  0.33333300  0.12500000  1
  Mg  Mg1  1  0.16666700  0.33333300  0.62500000  1
  Mg  Mg2  1  0.17332148  0.83666024  0.12500000  1
  Mg  Mg3  1  0.16376149  0.83188025  0.62500000  1
  Mg  Mg4  1  0.66333976  0.32667852  0.12500000  1
  Mg  Mg5  1  0.66811975  0.33623851  0.62500000  1
  Mg  Mg6  1  0.66333976  0.83666024  0.12500000  1
  Mg  Mg7  1  0.66811975  0.83188025  0.62500000  1
  Mg  Mg8  1  0.33819461  0.16180539  0.38818622  1
  Mg  Mg9  1  0.33819461  0.16180539  0.86181378  1
  Mg  Mg10  1  0.33819461  0.67639022  0.38818622  1
  Mg  Mg11  1  0.33819461  0.67639022  0.86181378  1
  Mg  Mg12  1  0.82360978  0.16180539  0.38818622  1
  Mg  Mg13  1  0.82360978  0.16180539  0.86181378  1
  Mg  Mg14  1  0.83333300  0.66666700  0.37242909  1
  Mg  Mg15  1  0.83333300  0.66666700  0.87757091  1
