# generated using pymatgen
data_TmHfF7
_symmetry_space_group_name_H-M   'P 1'
_cell_length_a   5.62748657
_cell_length_b   6.00640265
_cell_length_c   8.18004753
_cell_angle_alpha   102.22151612
_cell_angle_beta   90.00000000
_cell_angle_gamma   90.00000000
_symmetry_Int_Tables_number   1
_chemical_formula_structural   TmHfF7
_chemical_formula_sum   'Tm2 Hf2 F14'
_cell_volume   270.22706280
_cell_formula_units_Z   2
loop_
 _symmetry_equiv_pos_site_id
 _symmetry_equiv_pos_as_xyz
  1  'x, y, z'
loop_
 _atom_site_type_symbol
 _atom_site_label
 _atom_site_symmetry_multiplicity
 _atom_site_fract_x
 _atom_site_fract_y
 _atom_site_fract_z
 _atom_site_occupancy
  Tm  Tm0  1  0.69787420  0.65476584  0.68389099  1
  Tm  Tm1  1  0.19787420  0.34523416  0.31610901  1
  Hf  Hf2  1  0.70812485  0.81173609  0.22382113  1
  Hf  Hf3  1  0.20812485  0.18826391  0.77617887  1
  F  F4  1  0.88895666  0.45312884  0.47749934  1
  F  F5  1  0.38895666  0.54687116  0.52250066  1
  F  F6  1  0.42764157  0.92269797  0.76662937  1
  F  F7  1  0.92764157  0.07730203  0.23337063  1
  F  F8  1  0.94334086  0.95886425  0.76032691  1
  F  F9  1  0.44334086  0.04113575  0.23967309  1
  F  F10  1  0.99370377  0.45696954  0.78691024  1
  F  F11  1  0.49370377  0.54303046  0.21308976  1
  F  F12  1  0.70285831  0.75518776  0.97482664  1
  F  F13  1  0.20285831  0.24481224  0.02517336  1
  F  F14  1  0.71015941  0.86084880  0.47453847  1
  F  F15  1  0.21015941  0.13915120  0.52546153  1
  F  F16  1  0.50370038  0.38024751  0.78124026  1
  F  F17  1  0.00370038  0.61975249  0.21875974  1
