# generated using pymatgen
data_TlPbF7
_symmetry_space_group_name_H-M   'P 1'
_cell_length_a   5.66301717
_cell_length_b   9.14619947
_cell_length_c   11.51312074
_cell_angle_alpha   107.68214437
_cell_angle_beta   90.00000000
_cell_angle_gamma   90.00000000
_symmetry_Int_Tables_number   1
_chemical_formula_structural   TlPbF7
_chemical_formula_sum   'Tl4 Pb4 F28'
_cell_volume   568.15048630
_cell_formula_units_Z   4
loop_
 _symmetry_equiv_pos_site_id
 _symmetry_equiv_pos_as_xyz
  1  'x, y, z'
loop_
 _atom_site_type_symbol
 _atom_site_label
 _atom_site_symmetry_multiplicity
 _atom_site_fract_x
 _atom_site_fract_y
 _atom_site_fract_z
 _atom_site_occupancy
  Tl  Tl0  1  0.74187710  0.91856043  0.73735722  1
  Tl  Tl1  1  0.25812290  0.08143957  0.26264278  1
  Tl  Tl2  1  0.24187710  0.58143957  0.76264278  1
  Tl  Tl3  1  0.75812290  0.41856043  0.23735722  1
  Pb  Pb4  1  0.24298274  0.23132937  0.95906257  1
  Pb  Pb5  1  0.75701726  0.76867063  0.04093743  1
  Pb  Pb6  1  0.74298274  0.26867063  0.54093743  1
  Pb  Pb7  1  0.25701726  0.73132937  0.45906257  1
  F  F8  1  0.04802075  0.88433208  0.59154401  1
  F  F9  1  0.95197925  0.11566792  0.40845599  1
  F  F10  1  0.54802075  0.61566792  0.90845599  1
  F  F11  1  0.45197925  0.38433208  0.09154401  1
  F  F12  1  0.54225121  0.12858130  0.85688997  1
  F  F13  1  0.45774879  0.87141870  0.14311003  1
  F  F14  1  0.04225121  0.37141870  0.64311003  1
  F  F15  1  0.95774879  0.62858130  0.35688997  1
  F  F16  1  0.04140557  0.07695046  0.81920757  1
  F  F17  1  0.95859443  0.92304954  0.18079243  1
  F  F18  1  0.54140557  0.42304954  0.68079243  1
  F  F19  1  0.45859443  0.57695046  0.31920757  1
  F  F20  1  0.22629888  0.38306140  0.85681795  1
  F  F21  1  0.77370112  0.61693860  0.14318205  1
  F  F22  1  0.72629888  0.11693860  0.64318205  1
  F  F23  1  0.27370112  0.88306140  0.35681795  1
  F  F24  1  0.07320787  0.67157609  0.95098388  1
  F  F25  1  0.92679213  0.32842391  0.04901612  1
  F  F26  1  0.57320787  0.82842391  0.54901612  1
  F  F27  1  0.42679213  0.17157609  0.45098388  1
  F  F28  1  0.26395353  0.56983338  0.55386940  1
  F  F29  1  0.73604647  0.43016662  0.44613060  1
  F  F30  1  0.76395353  0.93016662  0.94613060  1
  F  F31  1  0.23604647  0.06983338  0.05386940  1
  F  F32  1  0.40993692  0.80318281  0.76788107  1
  F  F33  1  0.59006308  0.19681719  0.23211893  1
  F  F34  1  0.90993692  0.69681719  0.73211893  1
  F  F35  1  0.09006308  0.30318281  0.26788107  1
