# generated using pymatgen
data_TbSiNi
_symmetry_space_group_name_H-M   'P 1'
_cell_length_a   4.19746537
_cell_length_b   6.94098431
_cell_length_c   7.18721076
_cell_angle_alpha   90.00000000
_cell_angle_beta   90.00000000
_cell_angle_gamma   90.00000000
_symmetry_Int_Tables_number   1
_chemical_formula_structural   TbSiNi
_chemical_formula_sum   'Tb4 Si4 Ni4'
_cell_volume   209.39608854
_cell_formula_units_Z   4
loop_
 _symmetry_equiv_pos_site_id
 _symmetry_equiv_pos_as_xyz
  1  'x, y, z'
loop_
 _atom_site_type_symbol
 _atom_site_label
 _atom_site_symmetry_multiplicity
 _atom_site_fract_x
 _atom_site_fract_y
 _atom_site_fract_z
 _atom_site_occupancy
  Tb  Tb0  1  0.75000000  0.01253206  0.30427575  1
  Tb  Tb1  1  0.25000000  0.98746794  0.69572425  1
  Tb  Tb2  1  0.25000000  0.48746794  0.80427575  1
  Tb  Tb3  1  0.75000000  0.51253206  0.19572425  1
  Si  Si4  1  0.75000000  0.69643175  0.59646287  1
  Si  Si5  1  0.25000000  0.30356825  0.40353713  1
  Si  Si6  1  0.25000000  0.80356825  0.09646287  1
  Si  Si7  1  0.75000000  0.19643175  0.90353713  1
  Ni  Ni8  1  0.75000000  0.84083123  0.92459068  1
  Ni  Ni9  1  0.25000000  0.15916877  0.07540932  1
  Ni  Ni10  1  0.25000000  0.65916877  0.42459068  1
  Ni  Ni11  1  0.75000000  0.34083123  0.57540932  1
