# generated using pymatgen
data_Tm4C7
_symmetry_space_group_name_H-M   'P 1'
_cell_length_a   3.64757863
_cell_length_b   6.35383563
_cell_length_c   13.60338924
_cell_angle_alpha   90.00000000
_cell_angle_beta   90.00000000
_cell_angle_gamma   105.06642696
_symmetry_Int_Tables_number   1
_chemical_formula_structural   Tm4C7
_chemical_formula_sum   'Tm8 C14'
_cell_volume   304.43621525
_cell_formula_units_Z   2
loop_
 _symmetry_equiv_pos_site_id
 _symmetry_equiv_pos_as_xyz
  1  'x, y, z'
loop_
 _atom_site_type_symbol
 _atom_site_label
 _atom_site_symmetry_multiplicity
 _atom_site_fract_x
 _atom_site_fract_y
 _atom_site_fract_z
 _atom_site_occupancy
  Tm  Tm0  1  0.94476541  0.83953798  0.83905588  1
  Tm  Tm1  1  0.05523459  0.16046202  0.16094412  1
  Tm  Tm2  1  0.05523459  0.66046202  0.33905588  1
  Tm  Tm3  1  0.94476541  0.33953798  0.66094412  1
  Tm  Tm4  1  0.63532627  0.76068648  0.55468537  1
  Tm  Tm5  1  0.36467373  0.23931352  0.44531463  1
  Tm  Tm6  1  0.36467373  0.73931352  0.05468537  1
  Tm  Tm7  1  0.63532627  0.26068648  0.94531463  1
  C  C8  1  0.73772855  0.95328410  0.39522703  1
  C  C9  1  0.26227145  0.04671590  0.60477297  1
  C  C10  1  0.26227145  0.54671590  0.89522703  1
  C  C11  1  0.73772855  0.45328410  0.10477297  1
  C  C12  1  0.53952012  0.57684580  0.71438831  1
  C  C13  1  0.46047988  0.42315420  0.28561169  1
  C  C14  1  0.46047988  0.92315420  0.21438831  1
  C  C15  1  0.53952012  0.07684580  0.78561169  1
  C  C16  1  0.62054765  0.95527473  0.30228296  1
  C  C17  1  0.37945235  0.04472527  0.69771704  1
  C  C18  1  0.37945235  0.54472527  0.80228296  1
  C  C19  1  0.62054765  0.45527473  0.19771704  1
  C  C20  1  -0.00000000  0.00000000  -0.00000000  1
  C  C21  1  -0.00000000  0.50000000  0.50000000  1
