# generated using pymatgen
data_TbCdPd
_symmetry_space_group_name_H-M   'P 1'
_cell_length_a   3.92217581
_cell_length_b   7.66560745
_cell_length_c   7.66560745
_cell_angle_alpha   119.99999834
_cell_angle_beta   90.00000000
_cell_angle_gamma   90.00000000
_symmetry_Int_Tables_number   1
_chemical_formula_structural   TbCdPd
_chemical_formula_sum   'Tb3 Cd3 Pd3'
_cell_volume   199.59554648
_cell_formula_units_Z   3
loop_
 _symmetry_equiv_pos_site_id
 _symmetry_equiv_pos_as_xyz
  1  'x, y, z'
loop_
 _atom_site_type_symbol
 _atom_site_label
 _atom_site_symmetry_multiplicity
 _atom_site_fract_x
 _atom_site_fract_y
 _atom_site_fract_z
 _atom_site_occupancy
  Tb  Tb0  1  0.00000000  0.40681937  0.40681937  1
  Tb  Tb1  1  0.00000000  0.00000000  0.59318063  1
  Tb  Tb2  1  0.00000000  0.59318063  0.00000000  1
  Cd  Cd3  1  0.50000000  0.74246554  0.74246554  1
  Cd  Cd4  1  0.50000000  1.00000000  0.25753446  1
  Cd  Cd5  1  0.50000000  0.25753446  1.00000000  1
  Pd  Pd6  1  0.50000000  0.66666700  0.33333300  1
  Pd  Pd7  1  0.50000000  0.33333300  0.66666700  1
  Pd  Pd8  1  0.00000000  0.00000000  0.00000000  1
