# generated using pymatgen
data_TbHfF7
_symmetry_space_group_name_H-M   'P 1'
_cell_length_a   5.69586934
_cell_length_b   6.11162524
_cell_length_c   8.27737536
_cell_angle_alpha   101.78949905
_cell_angle_beta   90.00000000
_cell_angle_gamma   90.00000000
_symmetry_Int_Tables_number   1
_chemical_formula_structural   TbHfF7
_chemical_formula_sum   'Tb2 Hf2 F14'
_cell_volume   282.06543153
_cell_formula_units_Z   2
loop_
 _symmetry_equiv_pos_site_id
 _symmetry_equiv_pos_as_xyz
  1  'x, y, z'
loop_
 _atom_site_type_symbol
 _atom_site_label
 _atom_site_symmetry_multiplicity
 _atom_site_fract_x
 _atom_site_fract_y
 _atom_site_fract_z
 _atom_site_occupancy
  Tb  Tb0  1  0.69760965  0.65668509  0.68579099  1
  Tb  Tb1  1  0.19760965  0.34331491  0.31420901  1
  Hf  Hf2  1  0.70754417  0.81113865  0.22404864  1
  Hf  Hf3  1  0.20754417  0.18886135  0.77595136  1
  F  F4  1  0.88754503  0.45220975  0.47662605  1
  F  F5  1  0.38754503  0.54779025  0.52337395  1
  F  F6  1  0.42525368  0.92804492  0.76910358  1
  F  F7  1  0.92525368  0.07195508  0.23089642  1
  F  F8  1  0.94587341  0.96331845  0.76032626  1
  F  F9  1  0.44587341  0.03668155  0.23967374  1
  F  F10  1  0.99650741  0.45403816  0.78694542  1
  F  F11  1  0.49650741  0.54596184  0.21305458  1
  F  F12  1  0.70443421  0.75574164  0.97739074  1
  F  F13  1  0.20443421  0.24425836  0.02260926  1
  F  F14  1  0.71178274  0.86022655  0.47119640  1
  F  F15  1  0.21178274  0.13977345  0.52880360  1
  F  F16  1  0.49980970  0.37730546  0.78257134  1
  F  F17  1  0.99980970  0.62269454  0.21742866  1
