# generated using pymatgen
data_Tm4MgGe4
_symmetry_space_group_name_H-M   'P 1'
_cell_length_a   7.14513119
_cell_length_b   7.68420624
_cell_length_c   14.38097615
_cell_angle_alpha   90.00000000
_cell_angle_beta   90.00000000
_cell_angle_gamma   90.00000000
_symmetry_Int_Tables_number   1
_chemical_formula_structural   Tm4MgGe4
_chemical_formula_sum   'Tm16 Mg4 Ge16'
_cell_volume   789.58263008
_cell_formula_units_Z   4
loop_
 _symmetry_equiv_pos_site_id
 _symmetry_equiv_pos_as_xyz
  1  'x, y, z'
loop_
 _atom_site_type_symbol
 _atom_site_label
 _atom_site_symmetry_multiplicity
 _atom_site_fract_x
 _atom_site_fract_y
 _atom_site_fract_z
 _atom_site_occupancy
  Tm  Tm0  1  0.99149095  0.81743404  0.40581536  1
  Tm  Tm1  1  0.00850905  0.18256596  0.59418464  1
  Tm  Tm2  1  0.50850905  0.31743404  0.59418464  1
  Tm  Tm3  1  0.00850905  0.18256596  0.90581536  1
  Tm  Tm4  1  0.49149095  0.68256596  0.40581536  1
  Tm  Tm5  1  0.99149095  0.81743404  0.09418464  1
  Tm  Tm6  1  0.49149095  0.68256596  0.09418464  1
  Tm  Tm7  1  0.50850905  0.31743404  0.90581536  1
  Tm  Tm8  1  0.66857275  0.82320800  0.87349060  1
  Tm  Tm9  1  0.33142725  0.17679200  0.12650940  1
  Tm  Tm10  1  0.83142725  0.32320800  0.12650940  1
  Tm  Tm11  1  0.33142725  0.17679200  0.37349060  1
  Tm  Tm12  1  0.16857275  0.67679200  0.87349060  1
  Tm  Tm13  1  0.66857275  0.82320800  0.62650940  1
  Tm  Tm14  1  0.16857275  0.67679200  0.62650940  1
  Tm  Tm15  1  0.83142725  0.32320800  0.37349060  1
  Mg  Mg16  1  0.83832920  0.48464192  0.75000000  1
  Mg  Mg17  1  0.16167080  0.51535808  0.25000000  1
  Mg  Mg18  1  0.66167080  0.98464192  0.25000000  1
  Mg  Mg19  1  0.33832920  0.01535808  0.75000000  1
  Ge  Ge20  1  0.82705233  0.53435546  0.96363471  1
  Ge  Ge21  1  0.17294767  0.46564454  0.03636529  1
  Ge  Ge22  1  0.67294767  0.03435546  0.03636529  1
  Ge  Ge23  1  0.17294767  0.46564454  0.46363471  1
  Ge  Ge24  1  0.32705233  0.96564454  0.96363471  1
  Ge  Ge25  1  0.82705233  0.53435546  0.53636529  1
  Ge  Ge26  1  0.32705233  0.96564454  0.53636529  1
  Ge  Ge27  1  0.67294767  0.03435546  0.46363471  1
  Ge  Ge28  1  0.97467180  0.90824791  0.75000000  1
  Ge  Ge29  1  0.02532820  0.09175209  0.25000000  1
  Ge  Ge30  1  0.52532820  0.40824791  0.25000000  1
  Ge  Ge31  1  0.47467180  0.59175209  0.75000000  1
  Ge  Ge32  1  0.71036592  0.13924577  0.75000000  1
  Ge  Ge33  1  0.28963408  0.86075423  0.25000000  1
  Ge  Ge34  1  0.78963408  0.63924577  0.25000000  1
  Ge  Ge35  1  0.21036592  0.36075423  0.75000000  1
