# generated using pymatgen
data_Tb(Al5Re)2
_symmetry_space_group_name_H-M   'P 1'
_cell_length_a   6.97004953
_cell_length_b   6.97004953
_cell_length_c   18.04389407
_cell_angle_alpha   90.00000000
_cell_angle_beta   90.00000000
_cell_angle_gamma   96.18840813
_symmetry_Int_Tables_number   1
_chemical_formula_structural   Tb(Al5Re)2
_chemical_formula_sum   'Tb4 Al40 Re8'
_cell_volume   871.49293552
_cell_formula_units_Z   4
loop_
 _symmetry_equiv_pos_site_id
 _symmetry_equiv_pos_as_xyz
  1  'x, y, z'
loop_
 _atom_site_type_symbol
 _atom_site_label
 _atom_site_symmetry_multiplicity
 _atom_site_fract_x
 _atom_site_fract_y
 _atom_site_fract_z
 _atom_site_occupancy
  Tb  Tb0  1  0.25737169  0.74262831  0.75000000  1
  Tb  Tb1  1  0.74262831  0.25737169  0.25000000  1
  Tb  Tb2  1  0.00000000  -0.00000000  -0.00000000  1
  Tb  Tb3  1  0.00000000  -0.00000000  0.50000000  1
  Al  Al4  1  0.64894114  0.64894114  -0.00000000  1
  Al  Al5  1  0.35105886  0.35105886  -0.00000000  1
  Al  Al6  1  0.35105886  0.35105886  0.50000000  1
  Al  Al7  1  0.64894114  0.64894114  0.50000000  1
  Al  Al8  1  0.34852595  0.09215243  0.86868640  1
  Al  Al9  1  0.65147405  0.90784757  0.13131360  1
  Al  Al10  1  0.65147405  0.90784757  0.36868640  1
  Al  Al11  1  0.90784757  0.65147405  0.63131360  1
  Al  Al12  1  0.34852595  0.09215243  0.63131360  1
  Al  Al13  1  0.09215243  0.34852595  0.36868640  1
  Al  Al14  1  0.09215243  0.34852595  0.13131360  1
  Al  Al15  1  0.90784757  0.65147405  0.86868640  1
  Al  Al16  1  0.61395345  0.08877743  0.75000000  1
  Al  Al17  1  0.38604655  0.91122257  0.25000000  1
  Al  Al18  1  0.91122257  0.38604655  0.75000000  1
  Al  Al19  1  0.08877743  0.61395345  0.25000000  1
  Al  Al20  1  0.71838410  0.28161590  0.42541225  1
  Al  Al21  1  0.28161590  0.71838410  0.57458775  1
  Al  Al22  1  0.28161590  0.71838410  0.92541225  1
  Al  Al23  1  0.71838410  0.28161590  0.07458775  1
  Al  Al24  1  0.96721155  0.03278845  0.82572988  1
  Al  Al25  1  0.03278845  0.96721155  0.17427012  1
  Al  Al26  1  0.03278845  0.96721155  0.32572988  1
  Al  Al27  1  0.96721155  0.03278845  0.67427012  1
  Al  Al28  1  0.50000000  -0.00000000  -0.00000000  1
  Al  Al29  1  0.50000000  -0.00000000  0.50000000  1
  Al  Al30  1  0.00000000  0.50000000  0.50000000  1
  Al  Al31  1  0.00000000  0.50000000  -0.00000000  1
  Al  Al32  1  0.75187800  0.24812200  0.90726390  1
  Al  Al33  1  0.24812200  0.75187800  0.09273610  1
  Al  Al34  1  0.24812200  0.75187800  0.40726390  1
  Al  Al35  1  0.75187800  0.24812200  0.59273610  1
  Al  Al36  1  0.70207281  0.72792088  0.75000000  1
  Al  Al37  1  0.29792719  0.27207912  0.25000000  1
  Al  Al38  1  0.27207912  0.29792719  0.75000000  1
  Al  Al39  1  0.72792088  0.70207281  0.25000000  1
  Al  Al40  1  0.50564402  0.49435598  0.85719799  1
  Al  Al41  1  0.49435598  0.50564402  0.14280201  1
  Al  Al42  1  0.49435598  0.50564402  0.35719799  1
  Al  Al43  1  0.50564402  0.49435598  0.64280201  1
  Re  Re44  1  0.62633699  0.86982946  0.87919875  1
  Re  Re45  1  0.37366301  0.13017054  0.12080125  1
  Re  Re46  1  0.37366301  0.13017054  0.37919875  1
  Re  Re47  1  0.13017054  0.37366301  0.62080125  1
  Re  Re48  1  0.62633699  0.86982946  0.62080125  1
  Re  Re49  1  0.86982946  0.62633699  0.37919875  1
  Re  Re50  1  0.86982946  0.62633699  0.12080125  1
  Re  Re51  1  0.13017054  0.37366301  0.87919875  1
