# generated using pymatgen
data_TaCoAs
_symmetry_space_group_name_H-M   'P 1'
_cell_length_a   3.74916100
_cell_length_b   6.28663648
_cell_length_c   7.15105942
_cell_angle_alpha   90.00000000
_cell_angle_beta   90.00000000
_cell_angle_gamma   90.00000000
_symmetry_Int_Tables_number   1
_chemical_formula_structural   TaCoAs
_chemical_formula_sum   'Ta4 Co4 As4'
_cell_volume   168.54769815
_cell_formula_units_Z   4
loop_
 _symmetry_equiv_pos_site_id
 _symmetry_equiv_pos_as_xyz
  1  'x, y, z'
loop_
 _atom_site_type_symbol
 _atom_site_label
 _atom_site_symmetry_multiplicity
 _atom_site_fract_x
 _atom_site_fract_y
 _atom_site_fract_z
 _atom_site_occupancy
  Ta  Ta0  1  0.75000000  0.97801298  0.32929927  1
  Ta  Ta1  1  0.25000000  0.02198702  0.67070073  1
  Ta  Ta2  1  0.25000000  0.52198702  0.82929927  1
  Ta  Ta3  1  0.75000000  0.47801298  0.17070073  1
  Co  Co4  1  0.75000000  0.84248150  0.93394360  1
  Co  Co5  1  0.25000000  0.15751850  0.06605640  1
  Co  Co6  1  0.25000000  0.65751850  0.43394360  1
  Co  Co7  1  0.75000000  0.34248150  0.56605640  1
  As  As8  1  0.75000000  0.71715863  0.62130277  1
  As  As9  1  0.25000000  0.28284137  0.37869723  1
  As  As10  1  0.25000000  0.78284137  0.12130277  1
  As  As11  1  0.75000000  0.21715863  0.87869723  1
