# generated using pymatgen
data_Tb3B7Mo
_symmetry_space_group_name_H-M   'P 1'
_cell_length_a   3.49457865
_cell_length_b   8.22607621
_cell_length_c   9.50704632
_cell_angle_alpha   90.00000000
_cell_angle_beta   90.00000000
_cell_angle_gamma   102.26353981
_symmetry_Int_Tables_number   1
_chemical_formula_structural   Tb3B7Mo
_chemical_formula_sum   'Tb6 B14 Mo2'
_cell_volume   267.05956948
_cell_formula_units_Z   2
loop_
 _symmetry_equiv_pos_site_id
 _symmetry_equiv_pos_as_xyz
  1  'x, y, z'
loop_
 _atom_site_type_symbol
 _atom_site_label
 _atom_site_symmetry_multiplicity
 _atom_site_fract_x
 _atom_site_fract_y
 _atom_site_fract_z
 _atom_site_occupancy
  Tb  Tb0  1  0.74292590  0.48585180  0.25000000  1
  Tb  Tb1  1  0.25707410  0.51414820  0.75000000  1
  Tb  Tb2  1  0.39358829  0.78717658  0.06023423  1
  Tb  Tb3  1  0.60641171  0.21282342  0.93976577  1
  Tb  Tb4  1  0.60641171  0.21282342  0.56023423  1
  Tb  Tb5  1  0.39358829  0.78717658  0.43976577  1
  B  B6  1  0.01994515  0.03989030  0.09253374  1
  B  B7  1  0.98005485  0.96010970  0.90746626  1
  B  B8  1  0.98005485  0.96010970  0.59253374  1
  B  B9  1  0.01994515  0.03989030  0.40746626  1
  B  B10  1  0.22709616  0.45419232  0.03248064  1
  B  B11  1  0.77290384  0.54580768  0.96751936  1
  B  B12  1  0.77290384  0.54580768  0.53248064  1
  B  B13  1  0.22709616  0.45419232  0.46751936  1
  B  B14  1  0.13430102  0.26860203  0.14749852  1
  B  B15  1  0.86569898  0.73139797  0.85250148  1
  B  B16  1  0.86569898  0.73139797  0.64749852  1
  B  B17  1  0.13430102  0.26860203  0.35250148  1
  B  B18  1  0.95732311  0.91464622  0.25000000  1
  B  B19  1  0.04267689  0.08535378  0.75000000  1
  Mo  Mo20  1  0.55342301  0.10684603  0.25000000  1
  Mo  Mo21  1  0.44657699  0.89315397  0.75000000  1
