# generated using pymatgen
data_TiFeGe
_symmetry_space_group_name_H-M   'P 1'
_cell_length_a   6.40637558
_cell_length_b   7.09806104
_cell_length_c   7.28222735
_cell_angle_alpha   119.16688229
_cell_angle_beta   116.09519203
_cell_angle_gamma   90.00000000
_symmetry_Int_Tables_number   1
_chemical_formula_structural   TiFeGe
_chemical_formula_sum   'Ti6 Fe6 Ge6'
_cell_volume   249.78960912
_cell_formula_units_Z   6
loop_
 _symmetry_equiv_pos_site_id
 _symmetry_equiv_pos_as_xyz
  1  'x, y, z'
loop_
 _atom_site_type_symbol
 _atom_site_label
 _atom_site_symmetry_multiplicity
 _atom_site_fract_x
 _atom_site_fract_y
 _atom_site_fract_z
 _atom_site_occupancy
  Ti  Ti0  1  0.24129369  0.47642411  0.45284822  1
  Ti  Ti1  1  0.78844547  0.52357589  0.54715178  1
  Ti  Ti2  1  0.66266063  0.74880549  0.99761098  1
  Ti  Ti3  1  0.66504965  0.25119451  0.00238902  1
  Ti  Ti4  1  0.85353102  0.05351746  0.60703491  1
  Ti  Ti5  1  0.24649611  0.94648254  0.39296509  1
  Fe  Fe6  1  0.00116435  1.00000000  1.00000000  1
  Fe  Fe7  1  0.00116435  0.50000000  1.00000000  1
  Fe  Fe8  1  0.49537912  0.66088540  0.24639710  1
  Fe  Fe9  1  0.24898202  0.33911460  0.75360290  1
  Fe  Fe10  1  0.24898202  0.91448829  0.75360290  1
  Fe  Fe11  1  0.49537912  0.08551171  0.24639710  1
  Ge  Ge12  1  0.28624702  0.28199421  0.06398841  1
  Ge  Ge13  1  0.22225861  0.71800579  0.93601159  1
  Ge  Ge14  1  0.57852961  0.83874759  0.66537581  1
  Ge  Ge15  1  0.91315380  0.16125241  0.33462419  1
  Ge  Ge16  1  0.91315380  0.67337178  0.33462419  1
  Ge  Ge17  1  0.57852961  0.32662822  0.66537581  1
