# generated using pymatgen
data_Tb3BBr3
_symmetry_space_group_name_H-M   'P 1'
_cell_length_a   9.81471281
_cell_length_b   9.81471281
_cell_length_c   9.81471281
_cell_angle_alpha   109.47122063
_cell_angle_beta   109.47122063
_cell_angle_gamma   109.47122063
_symmetry_Int_Tables_number   1
_chemical_formula_structural   Tb3BBr3
_chemical_formula_sum   'Tb12 B4 Br12'
_cell_volume   727.79806578
_cell_formula_units_Z   4
loop_
 _symmetry_equiv_pos_site_id
 _symmetry_equiv_pos_as_xyz
  1  'x, y, z'
loop_
 _atom_site_type_symbol
 _atom_site_label
 _atom_site_symmetry_multiplicity
 _atom_site_fract_x
 _atom_site_fract_y
 _atom_site_fract_z
 _atom_site_occupancy
  Tb  Tb0  1  0.76958685  0.51958685  0.53917369  1
  Tb  Tb1  1  0.73041315  0.76958685  0.25000000  1
  Tb  Tb2  1  0.51958685  0.98041315  0.25000000  1
  Tb  Tb3  1  0.51958685  0.53917369  0.76958685  1
  Tb  Tb4  1  0.76958685  0.25000000  0.73041315  1
  Tb  Tb5  1  0.98041315  0.73041315  0.96082631  1
  Tb  Tb6  1  0.73041315  0.96082631  0.98041315  1
  Tb  Tb7  1  0.98041315  0.25000000  0.51958685  1
  Tb  Tb8  1  0.53917369  0.76958685  0.51958685  1
  Tb  Tb9  1  0.25000000  0.51958685  0.98041315  1
  Tb  Tb10  1  0.96082631  0.98041315  0.73041315  1
  Tb  Tb11  1  0.25000000  0.73041315  0.76958685  1
  B  B12  1  0.75000000  0.75000000  0.75000000  1
  B  B13  1  0.75000000  -0.00000000  0.50000000  1
  B  B14  1  0.50000000  0.75000000  -0.00000000  1
  B  B15  1  -0.00000000  0.50000000  0.75000000  1
  Br  Br16  1  0.25791248  0.24208752  0.75000000  1
  Br  Br17  1  0.24208752  0.49208752  0.48417504  1
  Br  Br18  1  0.00791248  0.25791248  0.01582496  1
  Br  Br19  1  0.24208752  0.75000000  0.25791248  1
  Br  Br20  1  0.25791248  0.01582496  0.00791248  1
  Br  Br21  1  0.49208752  0.00791248  0.75000000  1
  Br  Br22  1  0.49208752  0.48417504  0.24208752  1
  Br  Br23  1  0.00791248  0.75000000  0.49208752  1
  Br  Br24  1  0.75000000  0.25791248  0.24208752  1
  Br  Br25  1  0.01582496  0.00791248  0.25791248  1
  Br  Br26  1  0.75000000  0.49208752  0.00791248  1
  Br  Br27  1  0.48417504  0.24208752  0.49208752  1
