# generated using pymatgen
data_Tb5CoBi2
_symmetry_space_group_name_H-M   'P 1'
_cell_length_a   8.03166933
_cell_length_b   8.96098230
_cell_length_c   12.46225905
_cell_angle_alpha   90.00000000
_cell_angle_beta   90.00000000
_cell_angle_gamma   90.00000000
_symmetry_Int_Tables_number   1
_chemical_formula_structural   Tb5CoBi2
_chemical_formula_sum   'Tb20 Co4 Bi8'
_cell_volume   896.92930550
_cell_formula_units_Z   4
loop_
 _symmetry_equiv_pos_site_id
 _symmetry_equiv_pos_as_xyz
  1  'x, y, z'
loop_
 _atom_site_type_symbol
 _atom_site_label
 _atom_site_symmetry_multiplicity
 _atom_site_fract_x
 _atom_site_fract_y
 _atom_site_fract_z
 _atom_site_occupancy
  Tb  Tb0  1  0.64966059  0.75000000  0.70110297  1
  Tb  Tb1  1  0.35033941  0.25000000  0.29889703  1
  Tb  Tb2  1  0.14966059  0.25000000  0.79889703  1
  Tb  Tb3  1  0.85033941  0.75000000  0.20110297  1
  Tb  Tb4  1  0.12339295  0.75000000  0.81087756  1
  Tb  Tb5  1  0.87660705  0.25000000  0.18912244  1
  Tb  Tb6  1  0.62339295  0.25000000  0.68912244  1
  Tb  Tb7  1  0.37660705  0.75000000  0.31087756  1
  Tb  Tb8  1  0.55092673  0.75000000  0.99721082  1
  Tb  Tb9  1  0.44907327  0.25000000  0.00278918  1
  Tb  Tb10  1  0.05092673  0.25000000  0.50278918  1
  Tb  Tb11  1  0.94907327  0.75000000  0.49721082  1
  Tb  Tb12  1  0.82376738  0.46475775  0.93576319  1
  Tb  Tb13  1  0.17623262  0.53524225  0.06423681  1
  Tb  Tb14  1  0.32376738  0.53524225  0.56423681  1
  Tb  Tb15  1  0.17623262  0.96475775  0.06423681  1
  Tb  Tb16  1  0.67623262  0.46475775  0.43576319  1
  Tb  Tb17  1  0.82376738  0.03524225  0.93576319  1
  Tb  Tb18  1  0.67623262  0.03524225  0.43576319  1
  Tb  Tb19  1  0.32376738  0.96475775  0.56423681  1
  Co  Co20  1  0.93516387  0.75000000  0.99120411  1
  Co  Co21  1  0.06483613  0.25000000  0.00879589  1
  Co  Co22  1  0.43516387  0.25000000  0.50879589  1
  Co  Co23  1  0.56483613  0.75000000  0.49120411  1
  Bi  Bi24  1  0.92856674  0.00540579  0.67338622  1
  Bi  Bi25  1  0.07143326  0.99459421  0.32661378  1
  Bi  Bi26  1  0.42856674  0.99459421  0.82661378  1
  Bi  Bi27  1  0.07143326  0.50540579  0.32661378  1
  Bi  Bi28  1  0.57143326  0.00540579  0.17338622  1
  Bi  Bi29  1  0.92856674  0.49459421  0.67338622  1
  Bi  Bi30  1  0.57143326  0.49459421  0.17338622  1
  Bi  Bi31  1  0.42856674  0.50540579  0.82661378  1
