# generated using pymatgen
data_Sr3MnBiO6
_symmetry_space_group_name_H-M   'P 1'
_cell_length_a   5.38530014
_cell_length_b   5.40563485
_cell_length_c   24.01902887
_cell_angle_alpha   90.00000000
_cell_angle_beta   90.00000000
_cell_angle_gamma   89.94850587
_symmetry_Int_Tables_number   1
_chemical_formula_structural   Sr3MnBiO6
_chemical_formula_sum   'Sr12 Mn4 Bi4 O24'
_cell_volume   699.21685361
_cell_formula_units_Z   4
loop_
 _symmetry_equiv_pos_site_id
 _symmetry_equiv_pos_as_xyz
  1  'x, y, z'
loop_
 _atom_site_type_symbol
 _atom_site_label
 _atom_site_symmetry_multiplicity
 _atom_site_fract_x
 _atom_site_fract_y
 _atom_site_fract_z
 _atom_site_occupancy
  Sr  Sr0  1  0.75672948  0.49599769  0.30969904  1
  Sr  Sr1  1  0.24327052  0.50400231  0.80969904  1
  Sr  Sr2  1  0.25597599  0.99686376  0.69570892  1
  Sr  Sr3  1  0.74402401  0.00313624  0.19570892  1
  Sr  Sr4  1  0.75316868  0.99869989  0.42588300  1
  Sr  Sr5  1  0.24683132  0.00130011  0.92588300  1
  Sr  Sr6  1  0.75324020  0.99730812  0.58048338  1
  Sr  Sr7  1  0.24675980  0.00269188  0.08048338  1
  Sr  Sr8  1  0.74716963  0.50305423  0.92546424  1
  Sr  Sr9  1  0.25283037  0.49694577  0.42546424  1
  Sr  Sr10  1  0.25287726  0.49819648  0.58019819  1
  Sr  Sr11  1  0.74712274  0.50180352  0.08019819  1
  Mn  Mn12  1  0.75119558  0.49955672  0.49826933  1
  Mn  Mn13  1  0.24880442  0.50044328  0.99826933  1
  Mn  Mn14  1  0.74876281  0.00054149  0.00880528  1
  Mn  Mn15  1  0.25123719  0.99945851  0.50880528  1
  Bi  Bi16  1  0.76766646  0.98074305  0.81189711  1
  Bi  Bi17  1  0.23233354  0.01925695  0.31189711  1
  Bi  Bi18  1  0.73121488  0.52119167  0.69287300  1
  Bi  Bi19  1  0.26878512  0.47880833  0.19287300  1
  O  O20  1  0.75044500  0.91836718  0.69186176  1
  O  O21  1  0.24955500  0.08163282  0.19186176  1
  O  O22  1  0.99903116  0.75033700  0.00266197  1
  O  O23  1  0.00096884  0.24966300  0.50266197  1
  O  O24  1  0.32924055  0.50079751  0.69844009  1
  O  O25  1  0.67075945  0.49920249  0.19844009  1
  O  O26  1  0.50067775  0.74999544  0.50353314  1
  O  O27  1  0.49932225  0.25000456  0.00353314  1
  O  O28  1  0.74695869  0.58305416  0.81236911  1
  O  O29  1  0.25304131  0.41694584  0.31236911  1
  O  O30  1  0.74909285  0.50156672  0.40713452  1
  O  O31  1  0.25090715  0.49843328  0.90713452  1
  O  O32  1  0.00075832  0.75019517  0.50294340  1
  O  O33  1  0.99924168  0.24980483  0.00294340  1
  O  O34  1  0.75627937  0.49466736  0.60446701  1
  O  O35  1  0.24372063  0.50533264  0.10446701  1
  O  O36  1  0.49949370  0.75014550  0.00334143  1
  O  O37  1  0.50050630  0.24985450  0.50334143  1
  O  O38  1  0.83045821  0.99966539  0.30604808  1
  O  O39  1  0.16954179  0.00033461  0.80604808  1
  O  O40  1  0.74747885  0.00232719  0.90037894  1
  O  O41  1  0.25252115  0.99767281  0.40037894  1
  O  O42  1  0.24885409  0.00146000  0.59843905  1
  O  O43  1  0.75114591  0.99854000  0.09843905  1
