# generated using pymatgen
data_Ta3Tl2Cl9
_symmetry_space_group_name_H-M   'P 1'
_cell_length_a   9.97550920
_cell_length_b   9.97550920
_cell_length_c   9.80873956
_cell_angle_alpha   103.16090857
_cell_angle_beta   103.16090857
_cell_angle_gamma   116.39779220
_symmetry_Int_Tables_number   1
_chemical_formula_structural   Ta3Tl2Cl9
_chemical_formula_sum   'Ta6 Tl4 Cl18'
_cell_volume   788.47961094
_cell_formula_units_Z   2
loop_
 _symmetry_equiv_pos_site_id
 _symmetry_equiv_pos_as_xyz
  1  'x, y, z'
loop_
 _atom_site_type_symbol
 _atom_site_label
 _atom_site_symmetry_multiplicity
 _atom_site_fract_x
 _atom_site_fract_y
 _atom_site_fract_z
 _atom_site_occupancy
  Ta  Ta0  1  0.61291874  0.61291874  0.87331111  1
  Ta  Ta1  1  0.38708126  0.38708126  0.12668889  1
  Ta  Ta2  1  0.45492647  0.28402201  0.86214850  1
  Ta  Ta3  1  0.54507353  0.71597799  0.13785150  1
  Ta  Ta4  1  0.71597799  0.54507353  0.13785150  1
  Ta  Ta5  1  0.28402201  0.45492647  0.86214850  1
  Tl  Tl6  1  0.72934212  0.04779446  0.67079527  1
  Tl  Tl7  1  0.27065788  0.95220554  0.32920473  1
  Tl  Tl8  1  0.95220554  0.27065788  0.32920473  1
  Tl  Tl9  1  0.04779446  0.72934212  0.67079527  1
  Cl  Cl10  1  0.70417899  0.29582101  0.00000000  1
  Cl  Cl11  1  0.29582101  0.70417899  0.00000000  1
  Cl  Cl12  1  0.39414683  0.00421870  0.68205762  1
  Cl  Cl13  1  0.60585317  0.99578130  0.31794238  1
  Cl  Cl14  1  0.99578130  0.60585317  0.31794238  1
  Cl  Cl15  1  0.00421870  0.39414683  0.68205762  1
  Cl  Cl16  1  0.31274184  0.10807579  0.98632591  1
  Cl  Cl17  1  0.68725816  0.89192421  0.01367409  1
  Cl  Cl18  1  0.89192421  0.68725816  0.01367409  1
  Cl  Cl19  1  0.10807579  0.31274184  0.98632591  1
  Cl  Cl20  1  0.75689100  0.75689100  0.71474747  1
  Cl  Cl21  1  0.24310900  0.24310900  0.28525253  1
  Cl  Cl22  1  0.81339205  0.81339205  0.32727718  1
  Cl  Cl23  1  0.18660795  0.18660795  0.67272282  1
  Cl  Cl24  1  0.58174432  0.37643213  0.68624100  1
  Cl  Cl25  1  0.41825568  0.62356787  0.31375900  1
  Cl  Cl26  1  0.62356787  0.41825568  0.31375900  1
  Cl  Cl27  1  0.37643213  0.58174432  0.68624100  1
