# generated using pymatgen
data_Sr5Re3BrO15
_symmetry_space_group_name_H-M   'P 1'
_cell_length_a   7.55465663
_cell_length_b   10.75396499
_cell_length_c   18.81927972
_cell_angle_alpha   90.00000000
_cell_angle_beta   90.00000000
_cell_angle_gamma   90.00000000
_symmetry_Int_Tables_number   1
_chemical_formula_structural   Sr5Re3BrO15
_chemical_formula_sum   'Sr20 Re12 Br4 O60'
_cell_volume   1528.92557562
_cell_formula_units_Z   4
loop_
 _symmetry_equiv_pos_site_id
 _symmetry_equiv_pos_as_xyz
  1  'x, y, z'
loop_
 _atom_site_type_symbol
 _atom_site_label
 _atom_site_symmetry_multiplicity
 _atom_site_fract_x
 _atom_site_fract_y
 _atom_site_fract_z
 _atom_site_occupancy
  Sr  Sr0  1  0.74068695  0.61162646  0.39221685  1
  Sr  Sr1  1  0.25931305  0.38837354  0.60778315  1
  Sr  Sr2  1  0.75931305  0.11162646  0.60778315  1
  Sr  Sr3  1  0.25931305  0.38837354  0.89221685  1
  Sr  Sr4  1  0.24068695  0.88837354  0.39221685  1
  Sr  Sr5  1  0.74068695  0.61162646  0.10778315  1
  Sr  Sr6  1  0.24068695  0.88837354  0.10778315  1
  Sr  Sr7  1  0.75931305  0.11162646  0.89221685  1
  Sr  Sr8  1  0.71951072  0.51521764  0.75000000  1
  Sr  Sr9  1  0.28048928  0.48478236  0.25000000  1
  Sr  Sr10  1  0.78048928  0.01521764  0.25000000  1
  Sr  Sr11  1  0.21951072  0.98478236  0.75000000  1
  Sr  Sr12  1  0.99939143  0.74626729  0.91500537  1
  Sr  Sr13  1  0.00060857  0.25373271  0.08499463  1
  Sr  Sr14  1  0.50060857  0.24626729  0.08499463  1
  Sr  Sr15  1  0.00060857  0.25373271  0.41500537  1
  Sr  Sr16  1  0.49939143  0.75373271  0.91500537  1
  Sr  Sr17  1  0.99939143  0.74626729  0.58499463  1
  Sr  Sr18  1  0.49939143  0.75373271  0.58499463  1
  Sr  Sr19  1  0.50060857  0.24626729  0.41500537  1
  Re  Re20  1  0.77976183  0.85351745  0.75000000  1
  Re  Re21  1  0.22023817  0.14648255  0.25000000  1
  Re  Re22  1  0.72023817  0.35351745  0.25000000  1
  Re  Re23  1  0.27976183  0.64648255  0.75000000  1
  Re  Re24  1  0.79269323  0.44121242  0.94295001  1
  Re  Re25  1  0.20730677  0.55878758  0.05704999  1
  Re  Re26  1  0.70730677  0.94121242  0.05704999  1
  Re  Re27  1  0.20730677  0.55878758  0.44295001  1
  Re  Re28  1  0.29269323  0.05878758  0.94295001  1
  Re  Re29  1  0.79269323  0.44121242  0.55704999  1
  Re  Re30  1  0.29269323  0.05878758  0.55704999  1
  Re  Re31  1  0.70730677  0.94121242  0.44295001  1
  Br  Br32  1  0.88086985  0.24357121  0.75000000  1
  Br  Br33  1  0.11913015  0.75642879  0.25000000  1
  Br  Br34  1  0.61913015  0.74357121  0.25000000  1
  Br  Br35  1  0.38086985  0.25642879  0.75000000  1
  O  O36  1  0.87427905  0.88995145  0.38389556  1
  O  O37  1  0.12572095  0.11004855  0.61610444  1
  O  O38  1  0.62572095  0.38995145  0.61610444  1
  O  O39  1  0.12572095  0.11004855  0.88389556  1
  O  O40  1  0.37427905  0.61004855  0.38389556  1
  O  O41  1  0.87427905  0.88995145  0.11610444  1
  O  O42  1  0.37427905  0.61004855  0.11610444  1
  O  O43  1  0.62572095  0.38995145  0.88389556  1
  O  O44  1  0.77345728  0.90012403  0.96477630  1
  O  O45  1  0.22654272  0.09987597  0.03522370  1
  O  O46  1  0.72654272  0.40012403  0.03522370  1
  O  O47  1  0.22654272  0.09987597  0.46477630  1
  O  O48  1  0.27345728  0.59987597  0.96477630  1
  O  O49  1  0.77345728  0.90012403  0.53522370  1
  O  O50  1  0.27345728  0.59987597  0.53522370  1
  O  O51  1  0.72654272  0.40012403  0.46477630  1
  O  O52  1  0.58248087  0.93892292  0.75000000  1
  O  O53  1  0.41751913  0.06107708  0.25000000  1
  O  O54  1  0.91751913  0.43892292  0.25000000  1
  O  O55  1  0.08248087  0.56107708  0.75000000  1
  O  O56  1  0.74917927  0.72681592  0.81720066  1
  O  O57  1  0.25082073  0.27318408  0.18279934  1
  O  O58  1  0.75082073  0.22681592  0.18279934  1
  O  O59  1  0.25082073  0.27318408  0.31720066  1
  O  O60  1  0.24917927  0.77318408  0.81720066  1
  O  O61  1  0.74917927  0.72681592  0.68279934  1
  O  O62  1  0.24917927  0.77318408  0.68279934  1
  O  O63  1  0.75082073  0.22681592  0.31720066  1
  O  O64  1  0.96113531  0.51091306  0.88454450  1
  O  O65  1  0.03886469  0.48908694  0.11545550  1
  O  O66  1  0.53886469  0.01091306  0.11545550  1
  O  O67  1  0.03886469  0.48908694  0.38454450  1
  O  O68  1  0.46113531  0.98908694  0.88454450  1
  O  O69  1  0.96113531  0.51091306  0.61545550  1
  O  O70  1  0.46113531  0.98908694  0.61545550  1
  O  O71  1  0.53886469  0.01091306  0.38454450  1
  O  O72  1  0.94485740  0.30632126  0.94871667  1
  O  O73  1  0.05514260  0.69367874  0.05128333  1
  O  O74  1  0.55514260  0.80632126  0.05128333  1
  O  O75  1  0.05514260  0.69367874  0.44871667  1
  O  O76  1  0.44485740  0.19367874  0.94871667  1
  O  O77  1  0.94485740  0.30632126  0.55128333  1
  O  O78  1  0.44485740  0.19367874  0.55128333  1
  O  O79  1  0.55514260  0.80632126  0.44871667  1
  O  O80  1  0.92194064  0.92875364  0.81751649  1
  O  O81  1  0.07805936  0.07124636  0.18248351  1
  O  O82  1  0.57805936  0.42875364  0.18248351  1
  O  O83  1  0.07805936  0.07124636  0.31751649  1
  O  O84  1  0.42194064  0.57124636  0.81751649  1
  O  O85  1  0.92194064  0.92875364  0.68248351  1
  O  O86  1  0.42194064  0.57124636  0.68248351  1
  O  O87  1  0.57805936  0.42875364  0.31751649  1
  O  O88  1  0.73610049  0.60350688  0.96863305  1
  O  O89  1  0.26389951  0.39649312  0.03136695  1
  O  O90  1  0.76389951  0.10350688  0.03136695  1
  O  O91  1  0.26389951  0.39649312  0.46863305  1
  O  O92  1  0.23610049  0.89649312  0.96863305  1
  O  O93  1  0.73610049  0.60350688  0.53136695  1
  O  O94  1  0.23610049  0.89649312  0.53136695  1
  O  O95  1  0.76389951  0.10350688  0.46863305  1
