# generated using pymatgen
data_Sr2FeIrO6
_symmetry_space_group_name_H-M   'P 1'
_cell_length_a   5.61332781
_cell_length_b   5.61376071
_cell_length_c   5.61924529
_cell_angle_alpha   60.43172994
_cell_angle_beta   60.12053529
_cell_angle_gamma   60.24996005
_symmetry_Int_Tables_number   1
_chemical_formula_structural   Sr2FeIrO6
_chemical_formula_sum   'Sr2 Fe1 Ir1 O6'
_cell_volume   125.96547430
_cell_formula_units_Z   1
loop_
 _symmetry_equiv_pos_site_id
 _symmetry_equiv_pos_as_xyz
  1  'x, y, z'
loop_
 _atom_site_type_symbol
 _atom_site_label
 _atom_site_symmetry_multiplicity
 _atom_site_fract_x
 _atom_site_fract_y
 _atom_site_fract_z
 _atom_site_occupancy
  Sr  Sr0  1  0.75005552  0.75032299  0.74956637  1
  Sr  Sr1  1  0.24994448  0.24967701  0.25043363  1
  Fe  Fe2  1  0.50000000  0.50000000  0.50000000  1
  Ir  Ir3  1  -0.00000000  0.00000000  0.00000000  1
  O  O4  1  0.77841917  0.23833976  0.72560332  1
  O  O5  1  0.22158083  0.76166024  0.27439668  1
  O  O6  1  0.24372303  0.71024449  0.79350608  1
  O  O7  1  0.75627697  0.28975551  0.20649392  1
  O  O8  1  0.72048789  0.78339738  0.26589720  1
  O  O9  1  0.27951211  0.21660262  0.73410280  1
