# generated using pymatgen
data_Sr8Ca3(Bi3O11)2
_symmetry_space_group_name_H-M   'P 1'
_cell_length_a   6.13025738
_cell_length_b   11.21729281
_cell_length_c   20.14704899
_cell_angle_alpha   101.24189700
_cell_angle_beta   90.00000000
_cell_angle_gamma   90.00000000
_symmetry_Int_Tables_number   1
_chemical_formula_structural   Sr8Ca3(Bi3O11)2
_chemical_formula_sum   'Sr16 Ca6 Bi12 O44'
_cell_volume   1358.82760123
_cell_formula_units_Z   2
loop_
 _symmetry_equiv_pos_site_id
 _symmetry_equiv_pos_as_xyz
  1  'x, y, z'
loop_
 _atom_site_type_symbol
 _atom_site_label
 _atom_site_symmetry_multiplicity
 _atom_site_fract_x
 _atom_site_fract_y
 _atom_site_fract_z
 _atom_site_occupancy
  Sr  Sr0  1  0.54806757  0.44848503  0.67519703  1
  Sr  Sr1  1  0.45193243  0.55151497  0.32480297  1
  Sr  Sr2  1  0.04806757  0.55151497  0.82480297  1
  Sr  Sr3  1  0.95193243  0.44848503  0.17519703  1
  Sr  Sr4  1  0.47052808  0.76091751  0.62223571  1
  Sr  Sr5  1  0.52947192  0.23908249  0.37776429  1
  Sr  Sr6  1  0.97052808  0.23908249  0.87776429  1
  Sr  Sr7  1  0.02947192  0.76091751  0.12223571  1
  Sr  Sr8  1  0.95999936  0.89372666  0.77060252  1
  Sr  Sr9  1  0.04000064  0.10627334  0.22939748  1
  Sr  Sr10  1  0.45999936  0.10627334  0.72939748  1
  Sr  Sr11  1  0.54000064  0.89372666  0.27060252  1
  Sr  Sr12  1  0.54649651  0.65106078  0.97240840  1
  Sr  Sr13  1  0.45350349  0.34893922  0.02759160  1
  Sr  Sr14  1  0.04649651  0.34893922  0.52759160  1
  Sr  Sr15  1  0.95350349  0.65106078  0.47240840  1
  Ca  Ca16  1  0.51514512  0.73506165  0.80143268  1
  Ca  Ca17  1  0.48485488  0.26493835  0.19856732  1
  Ca  Ca18  1  0.01514512  0.26493835  0.69856732  1
  Ca  Ca19  1  0.98485488  0.73506165  0.30143268  1
  Ca  Ca20  1  0.00000000  0.50000000  -0.00000000  1
  Ca  Ca21  1  0.50000000  0.50000000  0.50000000  1
  Bi  Bi22  1  0.47951629  0.84260089  0.44322897  1
  Bi  Bi23  1  0.52048371  0.15739911  0.55677103  1
  Bi  Bi24  1  0.97951629  0.15739911  0.05677103  1
  Bi  Bi25  1  0.02048371  0.84260089  0.94322897  1
  Bi  Bi26  1  0.95517456  0.96931100  0.59948278  1
  Bi  Bi27  1  0.04482544  0.03068900  0.40051722  1
  Bi  Bi28  1  0.45517456  0.03068900  0.90051722  1
  Bi  Bi29  1  0.54482544  0.96931100  0.09948278  1
  Bi  Bi30  1  0.50785219  0.37993766  0.84748041  1
  Bi  Bi31  1  0.49214781  0.62006234  0.15251959  1
  Bi  Bi32  1  0.00785219  0.62006234  0.65251959  1
  Bi  Bi33  1  0.99214781  0.37993766  0.34748041  1
  O  O34  1  0.54615748  0.22353082  0.90644392  1
  O  O35  1  0.45384252  0.77646918  0.09355608  1
  O  O36  1  0.04615748  0.77646918  0.59355608  1
  O  O37  1  0.95384252  0.22353082  0.40644392  1
  O  O38  1  0.85137921  0.75295467  0.85791788  1
  O  O39  1  0.14862079  0.24704533  0.14208212  1
  O  O40  1  0.35137921  0.24704533  0.64208212  1
  O  O41  1  0.64862079  0.75295467  0.35791788  1
  O  O42  1  0.63204085  0.96553350  0.63200896  1
  O  O43  1  0.36795915  0.03446650  0.36799104  1
  O  O44  1  0.13204085  0.03446650  0.86799104  1
  O  O45  1  0.86795915  0.96553350  0.13200896  1
  O  O46  1  0.96682557  0.47182768  0.70268543  1
  O  O47  1  0.03317443  0.52817232  0.29731457  1
  O  O48  1  0.46682557  0.52817232  0.79731457  1
  O  O49  1  0.53317443  0.47182768  0.20268543  1
  O  O50  1  0.94981907  0.70443854  0.99791809  1
  O  O51  1  0.05018093  0.29556146  0.00208191  1
  O  O52  1  0.44981907  0.29556146  0.50208191  1
  O  O53  1  0.55018093  0.70443854  0.49791809  1
  O  O54  1  0.78746150  0.45921668  0.90301711  1
  O  O55  1  0.21253850  0.54078332  0.09698289  1
  O  O56  1  0.28746150  0.54078332  0.59698289  1
  O  O57  1  0.71253850  0.45921668  0.40301711  1
  O  O58  1  0.73172480  0.70711569  0.70393692  1
  O  O59  1  0.26827520  0.29288431  0.29606308  1
  O  O60  1  0.23172480  0.29288431  0.79606308  1
  O  O61  1  0.76827520  0.70711569  0.20393692  1
  O  O62  1  0.72112875  0.27523040  0.77426037  1
  O  O63  1  0.27887125  0.72476960  0.22573963  1
  O  O64  1  0.22112875  0.72476960  0.72573963  1
  O  O65  1  0.77887125  0.27523040  0.27426037  1
  O  O66  1  0.33174328  0.78101850  0.90628975  1
  O  O67  1  0.66825672  0.21898150  0.09371025  1
  O  O68  1  0.83174328  0.21898150  0.59371025  1
  O  O69  1  0.16825672  0.78101850  0.40628975  1
  O  O70  1  0.57326224  0.95852753  0.80402285  1
  O  O71  1  0.42673776  0.04147247  0.19597715  1
  O  O72  1  0.07326224  0.04147247  0.69597715  1
  O  O73  1  0.92673776  0.95852753  0.30402285  1
  O  O74  1  0.80812028  0.53106911  0.56995355  1
  O  O75  1  0.19187972  0.46893089  0.43004645  1
  O  O76  1  0.30812028  0.46893089  0.93004645  1
  O  O77  1  0.69187972  0.53106911  0.06995355  1
