# generated using pymatgen
data_SmIn2Cl5
_symmetry_space_group_name_H-M   'P 1'
_cell_length_a   8.20489207
_cell_length_b   8.72991869
_cell_length_c   13.06615240
_cell_angle_alpha   90.00000000
_cell_angle_beta   90.00000000
_cell_angle_gamma   90.00000000
_symmetry_Int_Tables_number   1
_chemical_formula_structural   SmIn2Cl5
_chemical_formula_sum   'Sm4 In8 Cl20'
_cell_volume   935.90289500
_cell_formula_units_Z   4
loop_
 _symmetry_equiv_pos_site_id
 _symmetry_equiv_pos_as_xyz
  1  'x, y, z'
loop_
 _atom_site_type_symbol
 _atom_site_label
 _atom_site_symmetry_multiplicity
 _atom_site_fract_x
 _atom_site_fract_y
 _atom_site_fract_z
 _atom_site_occupancy
  Sm  Sm0  1  0.57394639  0.75000000  0.99607228  1
  Sm  Sm1  1  0.42605361  0.25000000  0.00392772  1
  Sm  Sm2  1  0.07394639  0.25000000  0.50392772  1
  Sm  Sm3  1  0.92605361  0.75000000  0.49607228  1
  In  In4  1  0.54939811  0.49438326  0.67251700  1
  In  In5  1  0.45060189  0.50561674  0.32748300  1
  In  In6  1  0.04939811  0.50561674  0.82748300  1
  In  In7  1  0.45060189  0.99438326  0.32748300  1
  In  In8  1  0.95060189  0.49438326  0.17251700  1
  In  In9  1  0.54939811  0.00561674  0.67251700  1
  In  In10  1  0.95060189  0.00561674  0.17251700  1
  In  In11  1  0.04939811  0.99438326  0.82748300  1
  Cl  Cl12  1  0.38394948  0.75000000  0.82294068  1
  Cl  Cl13  1  0.61605052  0.25000000  0.17705932  1
  Cl  Cl14  1  0.88394948  0.25000000  0.67705932  1
  Cl  Cl15  1  0.11605052  0.75000000  0.32294068  1
  Cl  Cl16  1  0.66078155  0.45714897  0.92580480  1
  Cl  Cl17  1  0.33921845  0.54285103  0.07419520  1
  Cl  Cl18  1  0.16078155  0.54285103  0.57419520  1
  Cl  Cl19  1  0.33921845  0.95714897  0.07419520  1
  Cl  Cl20  1  0.83921845  0.45714897  0.42580480  1
  Cl  Cl21  1  0.66078155  0.04285103  0.92580480  1
  Cl  Cl22  1  0.83921845  0.04285103  0.42580480  1
  Cl  Cl23  1  0.16078155  0.95714897  0.57419520  1
  Cl  Cl24  1  0.91269644  0.75000000  0.99150738  1
  Cl  Cl25  1  0.08730356  0.25000000  0.00849262  1
  Cl  Cl26  1  0.41269644  0.25000000  0.50849262  1
  Cl  Cl27  1  0.58730356  0.75000000  0.49150738  1
  Cl  Cl28  1  0.84097883  0.75000000  0.69957999  1
  Cl  Cl29  1  0.15902117  0.25000000  0.30042001  1
  Cl  Cl30  1  0.34097883  0.25000000  0.80042001  1
  Cl  Cl31  1  0.65902117  0.75000000  0.19957999  1
