# generated using pymatgen
data_Sm2Sc3Si4
_symmetry_space_group_name_H-M   'P 1'
_cell_length_a   7.16037584
_cell_length_b   7.46246871
_cell_length_c   14.14110420
_cell_angle_alpha   90.00000000
_cell_angle_beta   90.00000000
_cell_angle_gamma   90.00000000
_symmetry_Int_Tables_number   1
_chemical_formula_structural   Sm2Sc3Si4
_chemical_formula_sum   'Sm8 Sc12 Si16'
_cell_volume   755.61690241
_cell_formula_units_Z   4
loop_
 _symmetry_equiv_pos_site_id
 _symmetry_equiv_pos_as_xyz
  1  'x, y, z'
loop_
 _atom_site_type_symbol
 _atom_site_label
 _atom_site_symmetry_multiplicity
 _atom_site_fract_x
 _atom_site_fract_y
 _atom_site_fract_z
 _atom_site_occupancy
  Sm  Sm0  1  0.98881054  0.82691034  0.40255089  1
  Sm  Sm1  1  0.01118946  0.17308966  0.59744911  1
  Sm  Sm2  1  0.51118946  0.32691034  0.59744911  1
  Sm  Sm3  1  0.01118946  0.17308966  0.90255089  1
  Sm  Sm4  1  0.48881054  0.67308966  0.40255089  1
  Sm  Sm5  1  0.98881054  0.82691034  0.09744911  1
  Sm  Sm6  1  0.48881054  0.67308966  0.09744911  1
  Sm  Sm7  1  0.51118946  0.32691034  0.90255089  1
  Sc  Sc8  1  0.83938458  0.49875664  0.75000000  1
  Sc  Sc9  1  0.16061542  0.50124336  0.25000000  1
  Sc  Sc10  1  0.66061542  0.99875664  0.25000000  1
  Sc  Sc11  1  0.33938458  0.00124336  0.75000000  1
  Sc  Sc12  1  0.67080406  0.82390221  0.87481913  1
  Sc  Sc13  1  0.32919594  0.17609779  0.12518087  1
  Sc  Sc14  1  0.82919594  0.32390221  0.12518087  1
  Sc  Sc15  1  0.32919594  0.17609779  0.37481913  1
  Sc  Sc16  1  0.17080406  0.67609779  0.87481913  1
  Sc  Sc17  1  0.67080406  0.82390221  0.62518087  1
  Sc  Sc18  1  0.17080406  0.67609779  0.62518087  1
  Sc  Sc19  1  0.82919594  0.32390221  0.37481913  1
  Si  Si20  1  0.96712362  0.87700735  0.75000000  1
  Si  Si21  1  0.03287638  0.12299265  0.25000000  1
  Si  Si22  1  0.53287638  0.37700735  0.25000000  1
  Si  Si23  1  0.46712362  0.62299265  0.75000000  1
  Si  Si24  1  0.71273309  0.12035148  0.75000000  1
  Si  Si25  1  0.28726691  0.87964852  0.25000000  1
  Si  Si26  1  0.78726691  0.62035148  0.25000000  1
  Si  Si27  1  0.21273309  0.37964852  0.75000000  1
  Si  Si28  1  0.84611218  0.53656776  0.96066493  1
  Si  Si29  1  0.15388782  0.46343224  0.03933507  1
  Si  Si30  1  0.65388782  0.03656776  0.03933507  1
  Si  Si31  1  0.15388782  0.46343224  0.46066493  1
  Si  Si32  1  0.34611218  0.96343224  0.96066493  1
  Si  Si33  1  0.84611218  0.53656776  0.53933507  1
  Si  Si34  1  0.34611218  0.96343224  0.53933507  1
  Si  Si35  1  0.65388782  0.03656776  0.46066493  1
