# generated using pymatgen
data_Sm2Sn5
_symmetry_space_group_name_H-M   'P 1'
_cell_length_a   4.62322134
_cell_length_b   4.64082930
_cell_length_c   17.80842157
_cell_angle_alpha   90.00000000
_cell_angle_beta   97.45828859
_cell_angle_gamma   90.00000000
_symmetry_Int_Tables_number   1
_chemical_formula_structural   Sm2Sn5
_chemical_formula_sum   'Sm4 Sn10'
_cell_volume   378.85740631
_cell_formula_units_Z   2
loop_
 _symmetry_equiv_pos_site_id
 _symmetry_equiv_pos_as_xyz
  1  'x, y, z'
loop_
 _atom_site_type_symbol
 _atom_site_label
 _atom_site_symmetry_multiplicity
 _atom_site_fract_x
 _atom_site_fract_y
 _atom_site_fract_z
 _atom_site_occupancy
  Sm  Sm0  1  0.93242332  0.50000000  0.86484664  1
  Sm  Sm1  1  0.06757668  0.50000000  0.13515336  1
  Sm  Sm2  1  0.79762797  0.50000000  0.59525595  1
  Sm  Sm3  1  0.20237203  0.50000000  0.40474405  1
  Sn  Sn4  1  0.63741543  0.50000000  0.27483086  1
  Sn  Sn5  1  0.36258457  0.50000000  0.72516914  1
  Sn  Sn6  1  0.72102832  -0.00000000  0.44205664  1
  Sn  Sn7  1  0.27897168  -0.00000000  0.55794336  1
  Sn  Sn8  1  0.50000000  0.50000000  -0.00000000  1
  Sn  Sn9  1  0.57066415  -0.00000000  0.14132829  1
  Sn  Sn10  1  0.42933585  -0.00000000  0.85867171  1
  Sn  Sn11  1  0.86191776  -0.00000000  0.72383553  1
  Sn  Sn12  1  0.13808224  -0.00000000  0.27616447  1
  Sn  Sn13  1  0.00000000  -0.00000000  0.00000000  1
