# generated using pymatgen
data_SrGaF5
_symmetry_space_group_name_H-M   'P 1'
_cell_length_a   7.45329529
_cell_length_b   11.01636583
_cell_length_c   11.01636583
_cell_angle_alpha   83.42894560
_cell_angle_beta   70.22770938
_cell_angle_gamma   70.22770938
_symmetry_Int_Tables_number   1
_chemical_formula_structural   SrGaF5
_chemical_formula_sum   'Sr8 Ga8 F40'
_cell_volume   801.02363179
_cell_formula_units_Z   8
loop_
 _symmetry_equiv_pos_site_id
 _symmetry_equiv_pos_as_xyz
  1  'x, y, z'
loop_
 _atom_site_type_symbol
 _atom_site_label
 _atom_site_symmetry_multiplicity
 _atom_site_fract_x
 _atom_site_fract_y
 _atom_site_fract_z
 _atom_site_occupancy
  Sr  Sr0  1  0.06917409  0.17580370  0.72643342  1
  Sr  Sr1  1  0.97141120  0.82419630  0.27356658  1
  Sr  Sr2  1  0.79560751  0.27356658  0.17580370  1
  Sr  Sr3  1  0.24497779  0.72643342  0.82419630  1
  Sr  Sr4  1  0.27489687  0.18106818  0.31502262  1
  Sr  Sr5  1  0.77098767  0.81893182  0.68497738  1
  Sr  Sr6  1  0.58991950  0.68497738  0.18106818  1
  Sr  Sr7  1  0.45596505  0.31502262  0.81893182  1
  Ga  Ga8  1  0.28273209  0.00000000  -0.00000000  1
  Ga  Ga9  1  0.35301070  0.85204098  0.48250818  1
  Ga  Ga10  1  0.68755987  0.14795902  0.51749182  1
  Ga  Ga11  1  0.83551888  0.51749182  0.85204098  1
  Ga  Ga12  1  0.20505168  0.48250818  0.14795902  1
  Ga  Ga13  1  0.78083111  0.00000000  -0.00000000  1
  Ga  Ga14  1  0.02794254  0.50000000  0.50000000  1
  Ga  Ga15  1  0.52794254  0.50000000  0.50000000  1
  F  F16  1  0.48491445  0.81247572  0.61084035  1
  F  F17  1  0.90823052  0.18752428  0.38915965  1
  F  F18  1  0.09575481  0.38915965  0.81247572  1
  F  F19  1  0.29739017  0.61084035  0.18752428  1
  F  F20  1  0.27796594  0.50000000  0.50000000  1
  F  F21  1  0.77796594  0.50000000  0.50000000  1
  F  F22  1  0.53247175  0.00000000  -0.00000000  1
  F  F23  1  0.58865459  0.86317561  0.34195384  1
  F  F24  1  0.79378404  0.13682439  0.65804616  1
  F  F25  1  0.93060843  0.65804616  0.86317561  1
  F  F26  1  0.45183021  0.34195384  0.13682439  1
  F  F27  1  0.24373698  0.03266205  0.51205913  1
  F  F28  1  0.78845816  0.96733795  0.48794087  1
  F  F29  1  0.75579610  0.48794087  0.03266205  1
  F  F30  1  0.27639903  0.51205913  0.96733795  1
  F  F31  1  0.44439499  0.14178616  0.65044614  1
  F  F32  1  0.23662730  0.85821384  0.34955386  1
  F  F33  1  0.09484114  0.34955386  0.14178616  1
  F  F34  1  0.58618115  0.65044614  0.85821384  1
  F  F35  1  0.03182782  0.00000000  -0.00000000  1
  F  F36  1  0.09164524  0.32098372  0.54552440  1
  F  F37  1  0.95815336  0.67901628  0.45447560  1
  F  F38  1  0.63716964  0.45447560  0.32098372  1
  F  F39  1  0.41262896  0.54552440  0.67901628  1
  F  F40  1  0.67123675  0.07593172  0.16722434  1
  F  F41  1  0.91439282  0.92406828  0.83277566  1
  F  F42  1  0.83846109  0.83277566  0.07593172  1
  F  F43  1  0.74716848  0.16722434  0.92406828  1
  F  F44  1  0.48120905  0.66882955  0.42925780  1
  F  F45  1  0.57929639  0.33117045  0.57074220  1
  F  F46  1  0.91046685  0.57074220  0.66882955  1
  F  F47  1  0.15003860  0.42925780  0.33117045  1
  F  F48  1  0.39628421  0.91845305  0.83539020  1
  F  F49  1  0.15012746  0.08154695  0.16460980  1
  F  F50  1  0.23167441  0.16460980  0.91845305  1
  F  F51  1  0.31473726  0.83539020  0.08154695  1
  F  F52  1  0.55709855  0.19569494  0.38748137  1
  F  F53  1  0.14027486  0.80430506  0.61251863  1
  F  F54  1  0.94457991  0.61251863  0.19569494  1
  F  F55  1  0.75279349  0.38748137  0.80430506  1
