# generated using pymatgen
data_RbTb(WO4)2
_symmetry_space_group_name_H-M   'P 1'
_cell_length_a   7.64378489
_cell_length_b   7.64378489
_cell_length_c   7.51982149
_cell_angle_alpha   62.47405141
_cell_angle_beta   62.47405141
_cell_angle_gamma   88.51655818
_symmetry_Int_Tables_number   1
_chemical_formula_structural   RbTb(WO4)2
_chemical_formula_sum   'Rb2 Tb2 W4 O16'
_cell_volume   335.53790697
_cell_formula_units_Z   2
loop_
 _symmetry_equiv_pos_site_id
 _symmetry_equiv_pos_as_xyz
  1  'x, y, z'
loop_
 _atom_site_type_symbol
 _atom_site_label
 _atom_site_symmetry_multiplicity
 _atom_site_fract_x
 _atom_site_fract_y
 _atom_site_fract_z
 _atom_site_occupancy
  Rb  Rb0  1  0.79981444  0.20018556  0.75000000  1
  Rb  Rb1  1  0.20018556  0.79981444  0.25000000  1
  Tb  Tb2  1  0.22413551  0.77586449  0.75000000  1
  Tb  Tb3  1  0.77586449  0.22413551  0.25000000  1
  W  W4  1  0.30027175  0.31084270  0.71789948  1
  W  W5  1  0.69972825  0.68915730  0.28210052  1
  W  W6  1  0.68915730  0.69972825  0.78210052  1
  W  W7  1  0.31084270  0.30027175  0.21789948  1
  O  O8  1  0.37882833  0.24824541  0.93885898  1
  O  O9  1  0.62117167  0.75175459  0.06114102  1
  O  O10  1  0.75175459  0.62117167  0.56114102  1
  O  O11  1  0.24824541  0.37882833  0.43885898  1
  O  O12  1  0.62573099  0.93902792  0.62674313  1
  O  O13  1  0.37426901  0.06097208  0.37325687  1
  O  O14  1  0.06097208  0.37426901  0.87325687  1
  O  O15  1  0.93902792  0.62573099  0.12674313  1
  O  O16  1  0.40895964  0.62975075  0.53249230  1
  O  O17  1  0.59104036  0.37024925  0.46750770  1
  O  O18  1  0.37024925  0.59104036  0.96750770  1
  O  O19  1  0.62975075  0.40895964  0.03249230  1
  O  O20  1  0.21717405  0.04603391  0.80771944  1
  O  O21  1  0.78282595  0.95396609  0.19228056  1
  O  O22  1  0.95396609  0.78282595  0.69228056  1
  O  O23  1  0.04603391  0.21717405  0.30771944  1
