# generated using pymatgen
data_RbYSeCl2O3
_symmetry_space_group_name_H-M   'P 1'
_cell_length_a   6.67567765
_cell_length_b   7.09784322
_cell_length_c   8.95885067
_cell_angle_alpha   81.39526396
_cell_angle_beta   74.71117762
_cell_angle_gamma   88.92625612
_symmetry_Int_Tables_number   1
_chemical_formula_structural   RbYSeCl2O3
_chemical_formula_sum   'Rb2 Y2 Se2 Cl4 O6'
_cell_volume   404.76853512
_cell_formula_units_Z   2
loop_
 _symmetry_equiv_pos_site_id
 _symmetry_equiv_pos_as_xyz
  1  'x, y, z'
loop_
 _atom_site_type_symbol
 _atom_site_label
 _atom_site_symmetry_multiplicity
 _atom_site_fract_x
 _atom_site_fract_y
 _atom_site_fract_z
 _atom_site_occupancy
  Rb  Rb0  1  0.26523197  0.28378700  0.61479321  1
  Rb  Rb1  1  0.73476803  0.71621300  0.38520679  1
  Y  Y2  1  0.35892580  0.74711453  0.01880332  1
  Y  Y3  1  0.64107420  0.25288547  0.98119668  1
  Se  Se4  1  0.13309747  0.23946971  0.08754327  1
  Se  Se5  1  0.86690253  0.76053029  0.91245673  1
  Cl  Cl6  1  0.25675539  0.67557162  0.33203322  1
  Cl  Cl7  1  0.74324461  0.32442838  0.66796678  1
  Cl  Cl8  1  0.60899052  0.19297319  0.28703783  1
  Cl  Cl9  1  0.39100948  0.80702681  0.71296217  1
  O  O10  1  0.31927176  0.42265146  0.01581115  1
  O  O11  1  0.68072824  0.57734854  0.98418885  1
  O  O12  1  0.31705694  0.07029207  0.02732736  1
  O  O13  1  0.68294306  0.92970793  0.97267264  1
  O  O14  1  0.00281532  0.74174701  0.05065026  1
  O  O15  1  0.99718468  0.25825299  0.94934974  1
