# generated using pymatgen
data_SbSeBr
_symmetry_space_group_name_H-M   'P 1'
_cell_length_a   4.08236791
_cell_length_b   8.70037695
_cell_length_c   10.86673620
_cell_angle_alpha   90.00000000
_cell_angle_beta   90.00000000
_cell_angle_gamma   90.00000000
_symmetry_Int_Tables_number   1
_chemical_formula_structural   SbSeBr
_chemical_formula_sum   'Sb4 Se4 Br4'
_cell_volume   385.96625406
_cell_formula_units_Z   4
loop_
 _symmetry_equiv_pos_site_id
 _symmetry_equiv_pos_as_xyz
  1  'x, y, z'
loop_
 _atom_site_type_symbol
 _atom_site_label
 _atom_site_symmetry_multiplicity
 _atom_site_fract_x
 _atom_site_fract_y
 _atom_site_fract_z
 _atom_site_occupancy
  Sb  Sb0  1  0.75000000  0.89297372  0.86831043  1
  Sb  Sb1  1  0.25000000  0.10702628  0.13168957  1
  Sb  Sb2  1  0.25000000  0.60702628  0.36831043  1
  Sb  Sb3  1  0.75000000  0.39297372  0.63168957  1
  Se  Se4  1  0.75000000  0.67465962  0.53972197  1
  Se  Se5  1  0.25000000  0.32534038  0.46027803  1
  Se  Se6  1  0.25000000  0.82534038  0.03972197  1
  Se  Se7  1  0.75000000  0.17465962  0.96027803  1
  Br  Br8  1  0.75000000  0.98017187  0.30192769  1
  Br  Br9  1  0.25000000  0.01982813  0.69807231  1
  Br  Br10  1  0.25000000  0.51982813  0.80192769  1
  Br  Br11  1  0.75000000  0.48017187  0.19807231  1
