# generated using pymatgen
data_RbYBeF6
_symmetry_space_group_name_H-M   'P 1'
_cell_length_a   5.91297528
_cell_length_b   6.56510185
_cell_length_c   7.25924532
_cell_angle_alpha   113.67387149
_cell_angle_beta   90.00000000
_cell_angle_gamma   90.00000000
_symmetry_Int_Tables_number   1
_chemical_formula_structural   RbYBeF6
_chemical_formula_sum   'Rb2 Y2 Be2 F12'
_cell_volume   258.08416673
_cell_formula_units_Z   2
loop_
 _symmetry_equiv_pos_site_id
 _symmetry_equiv_pos_as_xyz
  1  'x, y, z'
loop_
 _atom_site_type_symbol
 _atom_site_label
 _atom_site_symmetry_multiplicity
 _atom_site_fract_x
 _atom_site_fract_y
 _atom_site_fract_z
 _atom_site_occupancy
  Rb  Rb0  1  0.75000000  0.07850236  0.21228576  1
  Rb  Rb1  1  0.25000000  0.92149764  0.78771424  1
  Y  Y2  1  0.75000000  0.39144988  0.81963475  1
  Y  Y3  1  0.25000000  0.60855012  0.18036525  1
  Be  Be4  1  0.75000000  0.76730672  0.53560358  1
  Be  Be5  1  0.25000000  0.23269328  0.46439642  1
  F  F6  1  0.96401193  0.75856088  0.40486635  1
  F  F7  1  0.03598807  0.24143912  0.59513365  1
  F  F8  1  0.46401193  0.24143912  0.59513365  1
  F  F9  1  0.53598807  0.75856088  0.40486635  1
  F  F10  1  0.75000000  0.56945497  0.60111603  1
  F  F11  1  0.25000000  0.43054503  0.39888397  1
  F  F12  1  0.99901155  0.67559183  0.96898598  1
  F  F13  1  0.00098845  0.32440817  0.03101402  1
  F  F14  1  0.49901155  0.32440817  0.03101402  1
  F  F15  1  0.50098845  0.67559183  0.96898598  1
  F  F16  1  0.75000000  0.99371029  0.72766093  1
  F  F17  1  0.25000000  0.00628971  0.27233907  1
