# generated using pymatgen
data_RbTaCl6
_symmetry_space_group_name_H-M   'P 1'
_cell_length_a   6.52660633
_cell_length_b   7.02487104
_cell_length_c   12.61330345
_cell_angle_alpha   100.69026983
_cell_angle_beta   90.00000000
_cell_angle_gamma   117.68017542
_symmetry_Int_Tables_number   1
_chemical_formula_structural   RbTaCl6
_chemical_formula_sum   'Rb2 Ta2 Cl12'
_cell_volume   500.75617130
_cell_formula_units_Z   2
loop_
 _symmetry_equiv_pos_site_id
 _symmetry_equiv_pos_as_xyz
  1  'x, y, z'
loop_
 _atom_site_type_symbol
 _atom_site_label
 _atom_site_symmetry_multiplicity
 _atom_site_fract_x
 _atom_site_fract_y
 _atom_site_fract_z
 _atom_site_occupancy
  Rb  Rb0  1  0.88115139  0.00000000  0.75000000  1
  Rb  Rb1  1  0.11884861  -0.00000000  0.25000000  1
  Ta  Ta2  1  0.50000000  0.50000000  -0.00000000  1
  Ta  Ta3  1  0.00000000  0.50000000  0.50000000  1
  Cl  Cl4  1  0.46336502  0.16518176  0.89732737  1
  Cl  Cl5  1  0.53663498  0.83481824  0.10267263  1
  Cl  Cl6  1  0.29818326  0.83481824  0.60267263  1
  Cl  Cl7  1  0.70181674  0.16518176  0.39732737  1
  Cl  Cl8  1  0.37134556  0.57071066  0.84258478  1
  Cl  Cl9  1  0.62865444  0.42928934  0.15741522  1
  Cl  Cl10  1  0.80063490  0.42928934  0.65741522  1
  Cl  Cl11  1  0.19936510  0.57071066  0.34258478  1
  Cl  Cl12  1  0.79659495  0.68762929  0.46010201  1
  Cl  Cl13  1  0.20340505  0.31237071  0.53989799  1
  Cl  Cl14  1  0.10896566  0.31237071  0.03989799  1
  Cl  Cl15  1  0.89103434  0.68762929  0.96010201  1
