# generated using pymatgen
data_RbSr2Br5
_symmetry_space_group_name_H-M   'P 1'
_cell_length_a   8.48441444
_cell_length_b   9.55368453
_cell_length_c   13.62408764
_cell_angle_alpha   90.20528641
_cell_angle_beta   90.00000000
_cell_angle_gamma   90.00000000
_symmetry_Int_Tables_number   1
_chemical_formula_structural   RbSr2Br5
_chemical_formula_sum   'Rb4 Sr8 Br20'
_cell_volume   1104.32629142
_cell_formula_units_Z   4
loop_
 _symmetry_equiv_pos_site_id
 _symmetry_equiv_pos_as_xyz
  1  'x, y, z'
loop_
 _atom_site_type_symbol
 _atom_site_label
 _atom_site_symmetry_multiplicity
 _atom_site_fract_x
 _atom_site_fract_y
 _atom_site_fract_z
 _atom_site_occupancy
  Rb  Rb0  1  0.96072645  0.49438543  0.67114428  1
  Rb  Rb1  1  0.03927355  0.50561457  0.32885572  1
  Rb  Rb2  1  0.46072645  0.50561457  0.82885572  1
  Rb  Rb3  1  0.53927355  0.49438543  0.17114428  1
  Sr  Sr4  1  0.97885517  0.99884453  0.67827727  1
  Sr  Sr5  1  0.02114483  0.00115547  0.32172273  1
  Sr  Sr6  1  0.47885517  0.00115547  0.82172273  1
  Sr  Sr7  1  0.52114483  0.99884453  0.17827727  1
  Sr  Sr8  1  0.93438809  0.75481017  0.99453157  1
  Sr  Sr9  1  0.06561191  0.24518983  0.00546843  1
  Sr  Sr10  1  0.43438809  0.24518983  0.50546843  1
  Sr  Sr11  1  0.56561191  0.75481017  0.49453157  1
  Br  Br12  1  0.83477622  0.46639108  0.91401698  1
  Br  Br13  1  0.16522378  0.53360892  0.08598302  1
  Br  Br14  1  0.33477622  0.53360892  0.58598302  1
  Br  Br15  1  0.66522378  0.46639108  0.41401698  1
  Br  Br16  1  0.16730106  0.78663254  0.81754567  1
  Br  Br17  1  0.83269894  0.21336746  0.18245433  1
  Br  Br18  1  0.66730106  0.21336746  0.68245433  1
  Br  Br19  1  0.33269894  0.78663254  0.31754567  1
  Br  Br20  1  0.69361651  0.77613158  0.71214807  1
  Br  Br21  1  0.30638349  0.22386842  0.28785193  1
  Br  Br22  1  0.19361651  0.22386842  0.78785193  1
  Br  Br23  1  0.80638349  0.77613158  0.21214807  1
  Br  Br24  1  0.54976980  0.78758815  0.99634435  1
  Br  Br25  1  0.45023020  0.21241185  0.00365565  1
  Br  Br26  1  0.04976980  0.21241185  0.50365565  1
  Br  Br27  1  0.95023020  0.78758815  0.49634435  1
  Br  Br28  1  0.34077926  0.96055861  0.60254377  1
  Br  Br29  1  0.65922074  0.03944139  0.39745623  1
  Br  Br30  1  0.84077926  0.03944139  0.89745623  1
  Br  Br31  1  0.15922074  0.96055861  0.10254377  1
