# generated using pymatgen
data_RbTb2Cl7
_symmetry_space_group_name_H-M   'P 1'
_cell_length_a   7.02574242
_cell_length_b   13.58008991
_cell_length_c   12.73377711
_cell_angle_alpha   90.00000000
_cell_angle_beta   90.00000000
_cell_angle_gamma   90.00000000
_symmetry_Int_Tables_number   1
_chemical_formula_structural   RbTb2Cl7
_chemical_formula_sum   'Rb4 Tb8 Cl28'
_cell_volume   1214.93239589
_cell_formula_units_Z   4
loop_
 _symmetry_equiv_pos_site_id
 _symmetry_equiv_pos_as_xyz
  1  'x, y, z'
loop_
 _atom_site_type_symbol
 _atom_site_label
 _atom_site_symmetry_multiplicity
 _atom_site_fract_x
 _atom_site_fract_y
 _atom_site_fract_z
 _atom_site_occupancy
  Rb  Rb0  1  0.75000000  0.95917984  0.19595799  1
  Rb  Rb1  1  0.25000000  0.04082016  0.80404201  1
  Rb  Rb2  1  0.25000000  0.54082016  0.69595799  1
  Rb  Rb3  1  0.75000000  0.45917984  0.30404201  1
  Tb  Tb4  1  0.75000000  0.76314444  0.53976047  1
  Tb  Tb5  1  0.25000000  0.23685556  0.46023953  1
  Tb  Tb6  1  0.25000000  0.73685556  0.03976047  1
  Tb  Tb7  1  0.75000000  0.26314444  0.96023953  1
  Tb  Tb8  1  0.75000000  0.75070869  0.84320970  1
  Tb  Tb9  1  0.25000000  0.24929131  0.15679030  1
  Tb  Tb10  1  0.25000000  0.74929131  0.34320970  1
  Tb  Tb11  1  0.75000000  0.25070869  0.65679030  1
  Cl  Cl12  1  0.98988659  0.82427648  0.69318260  1
  Cl  Cl13  1  0.01011341  0.17572352  0.30681740  1
  Cl  Cl14  1  0.01011341  0.67572352  0.19318260  1
  Cl  Cl15  1  0.48988659  0.17572352  0.30681740  1
  Cl  Cl16  1  0.98988659  0.32427648  0.80681740  1
  Cl  Cl17  1  0.51011341  0.82427648  0.69318260  1
  Cl  Cl18  1  0.51011341  0.32427648  0.80681740  1
  Cl  Cl19  1  0.48988659  0.67572352  0.19318260  1
  Cl  Cl20  1  0.98883719  0.87650350  0.42171502  1
  Cl  Cl21  1  0.01116281  0.12349650  0.57828498  1
  Cl  Cl22  1  0.01116281  0.62349650  0.92171502  1
  Cl  Cl23  1  0.48883719  0.12349650  0.57828498  1
  Cl  Cl24  1  0.98883719  0.37650350  0.07828498  1
  Cl  Cl25  1  0.51116281  0.87650350  0.42171502  1
  Cl  Cl26  1  0.51116281  0.37650350  0.07828498  1
  Cl  Cl27  1  0.48883719  0.62349650  0.92171502  1
  Cl  Cl28  1  0.99112104  0.86601694  0.96016066  1
  Cl  Cl29  1  0.00887896  0.13398306  0.03983934  1
  Cl  Cl30  1  0.00887896  0.63398306  0.46016066  1
  Cl  Cl31  1  0.49112104  0.13398306  0.03983934  1
  Cl  Cl32  1  0.99112104  0.36601694  0.53983934  1
  Cl  Cl33  1  0.50887896  0.86601694  0.96016066  1
  Cl  Cl34  1  0.50887896  0.36601694  0.53983934  1
  Cl  Cl35  1  0.49112104  0.63398306  0.46016066  1
  Cl  Cl36  1  0.75000000  0.61119714  0.68869631  1
  Cl  Cl37  1  0.25000000  0.38880286  0.31130369  1
  Cl  Cl38  1  0.25000000  0.88880286  0.18869631  1
  Cl  Cl39  1  0.75000000  0.11119714  0.81130369  1
