# generated using pymatgen
data_Rb2TmCl5
_symmetry_space_group_name_H-M   'P 1'
_cell_length_a   7.38256891
_cell_length_b   9.50928615
_cell_length_c   14.92499619
_cell_angle_alpha   90.00000000
_cell_angle_beta   90.00000000
_cell_angle_gamma   90.00000000
_symmetry_Int_Tables_number   1
_chemical_formula_structural   Rb2TmCl5
_chemical_formula_sum   'Rb8 Tm4 Cl20'
_cell_volume   1047.77891481
_cell_formula_units_Z   4
loop_
 _symmetry_equiv_pos_site_id
 _symmetry_equiv_pos_as_xyz
  1  'x, y, z'
loop_
 _atom_site_type_symbol
 _atom_site_label
 _atom_site_symmetry_multiplicity
 _atom_site_fract_x
 _atom_site_fract_y
 _atom_site_fract_z
 _atom_site_occupancy
  Rb  Rb0  1  0.75000000  0.83606374  0.58304996  1
  Rb  Rb1  1  0.25000000  0.16393626  0.41695004  1
  Rb  Rb2  1  0.25000000  0.66393626  0.08304996  1
  Rb  Rb3  1  0.75000000  0.33606374  0.91695004  1
  Rb  Rb4  1  0.75000000  0.52358598  0.28764029  1
  Rb  Rb5  1  0.25000000  0.47641402  0.71235971  1
  Rb  Rb6  1  0.25000000  0.97641402  0.78764029  1
  Rb  Rb7  1  0.75000000  0.02358598  0.21235971  1
  Tm  Tm8  1  0.75000000  0.82148548  0.93466305  1
  Tm  Tm9  1  0.25000000  0.17851452  0.06533695  1
  Tm  Tm10  1  0.25000000  0.67851452  0.43466305  1
  Tm  Tm11  1  0.75000000  0.32148548  0.56533695  1
  Cl  Cl12  1  0.75000000  0.98044728  0.79627112  1
  Cl  Cl13  1  0.25000000  0.01955272  0.20372888  1
  Cl  Cl14  1  0.25000000  0.51955272  0.29627112  1
  Cl  Cl15  1  0.75000000  0.48044728  0.70372888  1
  Cl  Cl16  1  0.49400161  0.66545959  0.88144594  1
  Cl  Cl17  1  0.50599839  0.33454041  0.11855406  1
  Cl  Cl18  1  0.50599839  0.83454041  0.38144594  1
  Cl  Cl19  1  0.99400161  0.33454041  0.11855406  1
  Cl  Cl20  1  0.49400161  0.16545959  0.61855406  1
  Cl  Cl21  1  0.00599839  0.66545959  0.88144594  1
  Cl  Cl22  1  0.00599839  0.16545959  0.61855406  1
  Cl  Cl23  1  0.99400161  0.83454041  0.38144594  1
  Cl  Cl24  1  0.75000000  0.71249135  0.09600379  1
  Cl  Cl25  1  0.25000000  0.28750865  0.90399621  1
  Cl  Cl26  1  0.25000000  0.78750865  0.59600379  1
  Cl  Cl27  1  0.75000000  0.21249135  0.40399621  1
  Cl  Cl28  1  0.00000000  0.00000000  -0.00000000  1
  Cl  Cl29  1  -0.00000000  0.50000000  0.50000000  1
  Cl  Cl30  1  0.50000000  0.00000000  -0.00000000  1
  Cl  Cl31  1  0.50000000  0.50000000  0.50000000  1
