# generated using pymatgen
data_Pr2ZnPtO6
_symmetry_space_group_name_H-M   'P 1'
_cell_length_a   5.55438956
_cell_length_b   5.85969653
_cell_length_c   7.92077435
_cell_angle_alpha   90.00000000
_cell_angle_beta   90.13107399
_cell_angle_gamma   90.00000000
_symmetry_Int_Tables_number   1
_chemical_formula_structural   Pr2ZnPtO6
_chemical_formula_sum   'Pr4 Zn2 Pt2 O12'
_cell_volume   257.79706308
_cell_formula_units_Z   2
loop_
 _symmetry_equiv_pos_site_id
 _symmetry_equiv_pos_as_xyz
  1  'x, y, z'
loop_
 _atom_site_type_symbol
 _atom_site_label
 _atom_site_symmetry_multiplicity
 _atom_site_fract_x
 _atom_site_fract_y
 _atom_site_fract_z
 _atom_site_occupancy
  Pr  Pr0  1  0.01831099  0.43418546  0.25061610  1
  Pr  Pr1  1  0.98168901  0.56581454  0.74938390  1
  Pr  Pr2  1  0.48168901  0.93418546  0.24938390  1
  Pr  Pr3  1  0.51831099  0.06581454  0.75061610  1
  Zn  Zn4  1  0.00000000  -0.00000000  0.50000000  1
  Zn  Zn5  1  0.50000000  0.50000000  0.00000000  1
  Pt  Pt6  1  0.00000000  -0.00000000  0.00000000  1
  Pt  Pt7  1  0.50000000  0.50000000  0.50000000  1
  O  O8  1  0.89781672  0.03354901  0.24778371  1
  O  O9  1  0.10218328  0.96645099  0.75221629  1
  O  O10  1  0.60218328  0.53354901  0.25221629  1
  O  O11  1  0.39781672  0.46645099  0.74778371  1
  O  O12  1  0.19113058  0.70651701  0.05487265  1
  O  O13  1  0.80886942  0.29348299  0.94512735  1
  O  O14  1  0.30886942  0.20651701  0.44512735  1
  O  O15  1  0.69113058  0.79348299  0.55487265  1
  O  O16  1  0.29969088  0.19669986  0.05092955  1
  O  O17  1  0.70030912  0.80330014  0.94907045  1
  O  O18  1  0.20030912  0.69669986  0.44907045  1
  O  O19  1  0.79969088  0.30330014  0.55092955  1
