# generated using pymatgen
data_RbEu(MoO4)2
_symmetry_space_group_name_H-M   'P 1'
_cell_length_a   7.64741065
_cell_length_b   7.64741065
_cell_length_c   7.87000123
_cell_angle_alpha   61.93906115
_cell_angle_beta   61.93906115
_cell_angle_gamma   88.61397804
_symmetry_Int_Tables_number   1
_chemical_formula_structural   RbEu(MoO4)2
_chemical_formula_sum   'Rb2 Eu2 Mo4 O16'
_cell_volume   346.74081696
_cell_formula_units_Z   2
loop_
 _symmetry_equiv_pos_site_id
 _symmetry_equiv_pos_as_xyz
  1  'x, y, z'
loop_
 _atom_site_type_symbol
 _atom_site_label
 _atom_site_symmetry_multiplicity
 _atom_site_fract_x
 _atom_site_fract_y
 _atom_site_fract_z
 _atom_site_occupancy
  Rb  Rb0  1  0.80041305  0.19958695  0.75000000  1
  Rb  Rb1  1  0.19958695  0.80041305  0.25000000  1
  Eu  Eu2  1  0.23044824  0.76955176  0.75000000  1
  Eu  Eu3  1  0.76955176  0.23044824  0.25000000  1
  Mo  Mo4  1  0.30560064  0.30352572  0.73850992  1
  Mo  Mo5  1  0.69439936  0.69647428  0.26149008  1
  Mo  Mo6  1  0.69647428  0.69439936  0.76149008  1
  Mo  Mo7  1  0.30352572  0.30560064  0.23850992  1
  O  O8  1  0.38395653  0.23562573  0.93742408  1
  O  O9  1  0.61604347  0.76437427  0.06257592  1
  O  O10  1  0.76437427  0.61604347  0.56257592  1
  O  O11  1  0.23562573  0.38395653  0.43742408  1
  O  O12  1  0.61691931  0.92765692  0.63045147  1
  O  O13  1  0.38308069  0.07234308  0.36954853  1
  O  O14  1  0.07234308  0.38308069  0.86954853  1
  O  O15  1  0.92765692  0.61691931  0.13045147  1
  O  O16  1  0.41874758  0.63040987  0.52621840  1
  O  O17  1  0.58125242  0.36959013  0.47378160  1
  O  O18  1  0.36959013  0.58125242  0.97378160  1
  O  O19  1  0.63040987  0.41874758  0.02621840  1
  O  O20  1  0.20700259  0.05220825  0.80901489  1
  O  O21  1  0.79299741  0.94779175  0.19098511  1
  O  O22  1  0.94779175  0.79299741  0.69098511  1
  O  O23  1  0.05220825  0.20700259  0.30901489  1
