# generated using pymatgen
data_SmNiPb
_symmetry_space_group_name_H-M   'P 1'
_cell_length_a   4.58978342
_cell_length_b   7.33181503
_cell_length_c   7.87051065
_cell_angle_alpha   90.00819898
_cell_angle_beta   90.04042613
_cell_angle_gamma   89.97303488
_symmetry_Int_Tables_number   1
_chemical_formula_structural   SmNiPb
_chemical_formula_sum   'Sm4 Ni4 Pb4'
_cell_volume   264.85394291
_cell_formula_units_Z   4
loop_
 _symmetry_equiv_pos_site_id
 _symmetry_equiv_pos_as_xyz
  1  'x, y, z'
loop_
 _atom_site_type_symbol
 _atom_site_label
 _atom_site_symmetry_multiplicity
 _atom_site_fract_x
 _atom_site_fract_y
 _atom_site_fract_z
 _atom_site_occupancy
  Sm  Sm0  1  0.74999657  0.98779957  0.29813273  1
  Sm  Sm1  1  0.25015688  0.01216758  0.70193267  1
  Sm  Sm2  1  0.24996528  0.51213024  0.79796421  1
  Sm  Sm3  1  0.74982892  0.48789112  0.20192140  1
  Ni  Ni4  1  0.75000710  0.71246008  0.58671499  1
  Ni  Ni5  1  0.25000699  0.28750297  0.41315271  1
  Ni  Ni6  1  0.25039904  0.78752680  0.08675962  1
  Ni  Ni7  1  0.74961269  0.21259401  0.91341954  1
  Pb  Pb8  1  0.75031904  0.81286237  0.91677516  1
  Pb  Pb9  1  0.24971883  0.18718827  0.08315110  1
  Pb  Pb10  1  0.24988022  0.68711017  0.41668669  1
  Pb  Pb11  1  0.75010843  0.31276681  0.58338919  1
