# generated using pymatgen
data_Te2MoW2(SeS)2
_symmetry_space_group_name_H-M   'P 1'
_cell_length_a   3.35142383
_cell_length_b   3.35138654
_cell_length_c   30.98378815
_cell_angle_alpha   90.00000712
_cell_angle_beta   90.00000000
_cell_angle_gamma   120.00036797
_symmetry_Int_Tables_number   1
_chemical_formula_structural   Te2MoW2(SeS)2
_chemical_formula_sum   'Te2 Mo1 W2 Se2 S2'
_cell_volume   301.38206925
_cell_formula_units_Z   1
loop_
 _symmetry_equiv_pos_site_id
 _symmetry_equiv_pos_as_xyz
  1  'x, y, z'
loop_
 _atom_site_type_symbol
 _atom_site_label
 _atom_site_symmetry_multiplicity
 _atom_site_fract_x
 _atom_site_fract_y
 _atom_site_fract_z
 _atom_site_occupancy
  Te  Te0  1  0.66664848  0.33329595  0.51682458  1
  Te  Te1  1  0.66664328  0.33328556  0.63978202  1
  Mo  Mo2  1  0.66670941  0.33341883  0.34697036  1
  W  W3  1  0.33330893  0.66661785  0.11565567  1
  W  W4  1  0.33331244  0.66662488  0.57832873  1
  Se  Se5  1  0.66664587  0.33329075  0.06167805  1
  Se  Se6  1  0.66664797  0.33329494  0.16965039  1
  S  S7  1  0.33334216  0.66668532  0.39586663  1
  S  S8  1  0.33334246  0.66668592  0.29808457  1
