# generated using pymatgen
data_Sr2AsH4F13
_symmetry_space_group_name_H-M   'P 1'
_cell_length_a   7.64218470
_cell_length_b   7.64218470
_cell_length_c   18.21200517
_cell_angle_alpha   90.00000000
_cell_angle_beta   90.00000000
_cell_angle_gamma   90.00000000
_symmetry_Int_Tables_number   1
_chemical_formula_structural   Sr2AsH4F13
_chemical_formula_sum   'Sr8 As4 H16 F52'
_cell_volume   1063.63550099
_cell_formula_units_Z   4
loop_
 _symmetry_equiv_pos_site_id
 _symmetry_equiv_pos_as_xyz
  1  'x, y, z'
loop_
 _atom_site_type_symbol
 _atom_site_label
 _atom_site_symmetry_multiplicity
 _atom_site_fract_x
 _atom_site_fract_y
 _atom_site_fract_z
 _atom_site_occupancy
  Sr  Sr0  1  0.24155379  0.22700345  0.03787646  1
  Sr  Sr1  1  0.75844621  0.77299655  0.53787646  1
  Sr  Sr2  1  0.77299655  0.24155379  0.28787646  1
  Sr  Sr3  1  0.75844621  0.22700345  0.96212354  1
  Sr  Sr4  1  0.22700345  0.75844621  0.78787646  1
  Sr  Sr5  1  0.24155379  0.77299655  0.46212354  1
  Sr  Sr6  1  0.22700345  0.24155379  0.71212354  1
  Sr  Sr7  1  0.77299655  0.75844621  0.21212354  1
  As  As8  1  0.50000000  0.72259700  0.00000000  1
  As  As9  1  0.50000000  0.27740300  0.50000000  1
  As  As10  1  0.27740300  0.50000000  0.25000000  1
  As  As11  1  0.72259700  0.50000000  0.75000000  1
  H  H12  1  0.61260181  0.12499791  0.12546572  1
  H  H13  1  0.38739819  0.87500209  0.62546572  1
  H  H14  1  0.87500209  0.61260181  0.37546572  1
  H  H15  1  0.38739819  0.12499791  0.87453428  1
  H  H16  1  0.12499791  0.38739819  0.87546572  1
  H  H17  1  0.61260181  0.87500209  0.37453428  1
  H  H18  1  0.12499791  0.61260181  0.62453428  1
  H  H19  1  0.87500209  0.38739819  0.12453428  1
  H  H20  1  0.12211444  0.03001184  0.19259509  1
  H  H21  1  0.87788556  0.96998816  0.69259509  1
  H  H22  1  0.96998816  0.12211444  0.44259509  1
  H  H23  1  0.87788556  0.03001184  0.80740491  1
  H  H24  1  0.03001184  0.87788556  0.94259509  1
  H  H25  1  0.12211444  0.96998816  0.30740491  1
  H  H26  1  0.03001184  0.12211444  0.55740491  1
  H  H27  1  0.96998816  0.87788556  0.05740491  1
  F  F28  1  -0.00000000  0.99852592  0.00000000  1
  F  F29  1  -0.00000000  0.00147408  0.50000000  1
  F  F30  1  0.00147408  -0.00000000  0.25000000  1
  F  F31  1  0.99852592  -0.00000000  0.75000000  1
  F  F32  1  0.66782099  0.06144176  0.17693024  1
  F  F33  1  0.33217901  0.93855824  0.67693024  1
  F  F34  1  0.93855824  0.66782099  0.42693024  1
  F  F35  1  0.33217901  0.06144176  0.82306976  1
  F  F36  1  0.06144176  0.33217901  0.92693024  1
  F  F37  1  0.66782099  0.93855824  0.32306976  1
  F  F38  1  0.06144176  0.66782099  0.57306976  1
  F  F39  1  0.93855824  0.33217901  0.07306976  1
  F  F40  1  0.27740400  0.44213712  0.15576963  1
  F  F41  1  0.72259600  0.55786288  0.65576963  1
  F  F42  1  0.55786288  0.27740400  0.40576963  1
  F  F43  1  0.72259600  0.44213712  0.84423037  1
  F  F44  1  0.44213712  0.72259600  0.90576963  1
  F  F45  1  0.27740400  0.55786288  0.34423037  1
  F  F46  1  0.44213712  0.27740400  0.59423037  1
  F  F47  1  0.55786288  0.72259600  0.09423037  1
  F  F48  1  0.20838404  0.05632915  0.15266321  1
  F  F49  1  0.79161596  0.94367085  0.65266321  1
  F  F50  1  0.94367085  0.20838404  0.40266321  1
  F  F51  1  0.79161596  0.05632915  0.84733679  1
  F  F52  1  0.05632915  0.79161596  0.90266321  1
  F  F53  1  0.20838404  0.94367085  0.34733679  1
  F  F54  1  0.05632915  0.20838404  0.59733679  1
  F  F55  1  0.94367085  0.79161596  0.09733679  1
  F  F56  1  0.11502120  0.34033037  0.26784362  1
  F  F57  1  0.88497880  0.65966963  0.76784362  1
  F  F58  1  0.65966963  0.11502120  0.51784362  1
  F  F59  1  0.88497880  0.34033037  0.73215638  1
  F  F60  1  0.34033037  0.88497880  0.01784362  1
  F  F61  1  0.11502120  0.65966963  0.23215638  1
  F  F62  1  0.34033037  0.11502120  0.48215638  1
  F  F63  1  0.65966963  0.88497880  0.98215638  1
  F  F64  1  0.56131471  0.19224751  0.07240110  1
  F  F65  1  0.43868529  0.80775249  0.57240110  1
  F  F66  1  0.80775249  0.56131471  0.32240110  1
  F  F67  1  0.43868529  0.19224751  0.92759890  1
  F  F68  1  0.19224751  0.43868529  0.82240110  1
  F  F69  1  0.56131471  0.80775249  0.42759890  1
  F  F70  1  0.19224751  0.56131471  0.67759890  1
  F  F71  1  0.80775249  0.43868529  0.17759890  1
  F  F72  1  0.44363479  0.34119691  0.26606706  1
  F  F73  1  0.55636521  0.65880309  0.76606706  1
  F  F74  1  0.65880309  0.44363479  0.51606706  1
  F  F75  1  0.55636521  0.34119691  0.73393294  1
  F  F76  1  0.34119691  0.55636521  0.01606706  1
  F  F77  1  0.44363479  0.65880309  0.23393294  1
  F  F78  1  0.34119691  0.44363479  0.48393294  1
  F  F79  1  0.65880309  0.55636521  0.98393294  1
