# generated using pymatgen
data_RbAlH4
_symmetry_space_group_name_H-M   'P 1'
_cell_length_a   5.92735192
_cell_length_b   9.48643142
_cell_length_c   7.69846522
_cell_angle_alpha   90.00000000
_cell_angle_beta   90.00000000
_cell_angle_gamma   90.00000000
_symmetry_Int_Tables_number   1
_chemical_formula_structural   RbAlH4
_chemical_formula_sum   'Rb4 Al4 H16'
_cell_volume   432.88021490
_cell_formula_units_Z   4
loop_
 _symmetry_equiv_pos_site_id
 _symmetry_equiv_pos_as_xyz
  1  'x, y, z'
loop_
 _atom_site_type_symbol
 _atom_site_label
 _atom_site_symmetry_multiplicity
 _atom_site_fract_x
 _atom_site_fract_y
 _atom_site_fract_z
 _atom_site_occupancy
  Rb  Rb0  1  0.75000000  0.81834649  0.34028994  1
  Rb  Rb1  1  0.25000000  0.18165351  0.65971006  1
  Rb  Rb2  1  0.25000000  0.68165351  0.84028994  1
  Rb  Rb3  1  0.75000000  0.31834649  0.15971006  1
  Al  Al4  1  0.75000000  0.93844753  0.81358262  1
  Al  Al5  1  0.25000000  0.06155247  0.18641738  1
  Al  Al6  1  0.25000000  0.56155247  0.31358262  1
  Al  Al7  1  0.75000000  0.43844753  0.68641738  1
  H  H8  1  0.97316938  0.92004969  0.68963783  1
  H  H9  1  0.02683062  0.07995031  0.31036217  1
  H  H10  1  0.02683062  0.57995031  0.18963783  1
  H  H11  1  0.47316938  0.07995031  0.31036217  1
  H  H12  1  0.97316938  0.42004969  0.81036217  1
  H  H13  1  0.52683062  0.92004969  0.68963783  1
  H  H14  1  0.52683062  0.42004969  0.81036217  1
  H  H15  1  0.47316938  0.57995031  0.18963783  1
  H  H16  1  0.75000000  0.81356018  0.95900141  1
  H  H17  1  0.25000000  0.18643982  0.04099859  1
  H  H18  1  0.25000000  0.68643982  0.45900141  1
  H  H19  1  0.75000000  0.31356018  0.54099859  1
  H  H20  1  0.75000000  0.59597276  0.60224943  1
  H  H21  1  0.25000000  0.40402724  0.39775057  1
  H  H22  1  0.25000000  0.90402724  0.10224943  1
  H  H23  1  0.75000000  0.09597276  0.89775057  1
