# generated using pymatgen
data_RbPr2Cl7
_symmetry_space_group_name_H-M   'P 1'
_cell_length_a   9.85716510
_cell_length_b   14.93585483
_cell_length_c   16.88585643
_cell_angle_alpha   90.00000000
_cell_angle_beta   90.00000000
_cell_angle_gamma   90.00000000
_symmetry_Int_Tables_number   1
_chemical_formula_structural   RbPr2Cl7
_chemical_formula_sum   'Rb8 Pr16 Cl56'
_cell_volume   2486.02337004
_cell_formula_units_Z   8
loop_
 _symmetry_equiv_pos_site_id
 _symmetry_equiv_pos_as_xyz
  1  'x, y, z'
loop_
 _atom_site_type_symbol
 _atom_site_label
 _atom_site_symmetry_multiplicity
 _atom_site_fract_x
 _atom_site_fract_y
 _atom_site_fract_z
 _atom_site_occupancy
  Rb  Rb0  1  0.75000000  0.58529197  0.90447607  1
  Rb  Rb1  1  0.25000000  0.41470803  0.09552393  1
  Rb  Rb2  1  0.25000000  0.91470803  0.40447607  1
  Rb  Rb3  1  0.75000000  0.08529197  0.59552393  1
  Rb  Rb4  1  0.75000000  0.93388008  0.93269672  1
  Rb  Rb5  1  0.25000000  0.06611992  0.06730328  1
  Rb  Rb6  1  0.25000000  0.56611992  0.43269672  1
  Rb  Rb7  1  0.75000000  0.43388008  0.56730328  1
  Pr  Pr8  1  0.97310833  0.75578809  0.66127859  1
  Pr  Pr9  1  0.02689167  0.24421191  0.33872141  1
  Pr  Pr10  1  0.02689167  0.74421191  0.16127859  1
  Pr  Pr11  1  0.47310833  0.24421191  0.33872141  1
  Pr  Pr12  1  0.97310833  0.25578809  0.83872141  1
  Pr  Pr13  1  0.52689167  0.75578809  0.66127859  1
  Pr  Pr14  1  0.52689167  0.25578809  0.83872141  1
  Pr  Pr15  1  0.47310833  0.74421191  0.16127859  1
  Pr  Pr16  1  0.75000000  0.79022224  0.43961768  1
  Pr  Pr17  1  0.25000000  0.20977776  0.56038232  1
  Pr  Pr18  1  0.25000000  0.70977776  0.93961768  1
  Pr  Pr19  1  0.75000000  0.29022224  0.06038232  1
  Pr  Pr20  1  0.75000000  0.98905796  0.24458475  1
  Pr  Pr21  1  0.25000000  0.01094204  0.75541525  1
  Pr  Pr22  1  0.25000000  0.51094204  0.74458475  1
  Pr  Pr23  1  0.75000000  0.48905796  0.25541525  1
  Cl  Cl24  1  0.42401003  0.58440793  0.61915562  1
  Cl  Cl25  1  0.57598997  0.41559207  0.38084438  1
  Cl  Cl26  1  0.57598997  0.91559207  0.11915562  1
  Cl  Cl27  1  0.92401003  0.41559207  0.38084438  1
  Cl  Cl28  1  0.42401003  0.08440793  0.88084438  1
  Cl  Cl29  1  0.07598997  0.58440793  0.61915562  1
  Cl  Cl30  1  0.07598997  0.08440793  0.88084438  1
  Cl  Cl31  1  0.92401003  0.91559207  0.11915562  1
  Cl  Cl32  1  0.97758388  0.71894489  0.99533267  1
  Cl  Cl33  1  0.02241612  0.28105511  0.00466733  1
  Cl  Cl34  1  0.02241612  0.78105511  0.49533267  1
  Cl  Cl35  1  0.47758388  0.28105511  0.00466733  1
  Cl  Cl36  1  0.97758388  0.21894489  0.50466733  1
  Cl  Cl37  1  0.52241612  0.71894489  0.99533267  1
  Cl  Cl38  1  0.52241612  0.21894489  0.50466733  1
  Cl  Cl39  1  0.47758388  0.78105511  0.49533267  1
  Cl  Cl40  1  0.75000000  0.69031778  0.15907282  1
  Cl  Cl41  1  0.25000000  0.30968222  0.84092718  1
  Cl  Cl42  1  0.25000000  0.80968222  0.65907282  1
  Cl  Cl43  1  0.75000000  0.19031778  0.34092718  1
  Cl  Cl44  1  0.75000000  0.74399081  0.76992316  1
  Cl  Cl45  1  0.25000000  0.25600919  0.23007684  1
  Cl  Cl46  1  0.25000000  0.75600919  0.26992316  1
  Cl  Cl47  1  0.75000000  0.24399081  0.73007684  1
  Cl  Cl48  1  0.42379353  0.66805553  0.80281542  1
  Cl  Cl49  1  0.57620647  0.33194447  0.19718458  1
  Cl  Cl50  1  0.57620647  0.83194447  0.30281542  1
  Cl  Cl51  1  0.92379353  0.33194447  0.19718458  1
  Cl  Cl52  1  0.42379353  0.16805553  0.69718458  1
  Cl  Cl53  1  0.07620647  0.66805553  0.80281542  1
  Cl  Cl54  1  0.07620647  0.16805553  0.69718458  1
  Cl  Cl55  1  0.92379353  0.83194447  0.30281542  1
  Cl  Cl56  1  0.98830672  0.92892275  0.73334221  1
  Cl  Cl57  1  0.01169328  0.07107725  0.26665779  1
  Cl  Cl58  1  0.01169328  0.57107725  0.23334221  1
  Cl  Cl59  1  0.48830672  0.07107725  0.26665779  1
  Cl  Cl60  1  0.98830672  0.42892275  0.76665779  1
  Cl  Cl61  1  0.51169328  0.92892275  0.73334221  1
  Cl  Cl62  1  0.51169328  0.42892275  0.76665779  1
  Cl  Cl63  1  0.48830672  0.57107725  0.23334221  1
  Cl  Cl64  1  0.75000000  0.97736201  0.41590779  1
  Cl  Cl65  1  0.25000000  0.02263799  0.58409221  1
  Cl  Cl66  1  0.25000000  0.52263799  0.91590779  1
  Cl  Cl67  1  0.75000000  0.47736201  0.08409221  1
  Cl  Cl68  1  0.75000000  0.62102434  0.37681503  1
  Cl  Cl69  1  0.25000000  0.37897566  0.62318497  1
  Cl  Cl70  1  0.25000000  0.87897566  0.87681503  1
  Cl  Cl71  1  0.75000000  0.12102434  0.12318497  1
  Cl  Cl72  1  0.75000000  0.65813762  0.57980097  1
  Cl  Cl73  1  0.25000000  0.34186238  0.42019903  1
  Cl  Cl74  1  0.25000000  0.84186238  0.07980097  1
  Cl  Cl75  1  0.75000000  0.15813762  0.92019903  1
  Cl  Cl76  1  0.75000000  0.87081210  0.59671365  1
  Cl  Cl77  1  0.25000000  0.12918790  0.40328635  1
  Cl  Cl78  1  0.25000000  0.62918790  0.09671365  1
  Cl  Cl79  1  0.75000000  0.37081210  0.90328635  1
