# generated using pymatgen
data_Rb2LaTa6(Br5O)3
_symmetry_space_group_name_H-M   'P 1'
_cell_length_a   9.63353101
_cell_length_b   9.63353101
_cell_length_c   18.26099133
_cell_angle_alpha   90.00000000
_cell_angle_beta   90.00000000
_cell_angle_gamma   119.99999500
_symmetry_Int_Tables_number   1
_chemical_formula_structural   Rb2LaTa6(Br5O)3
_chemical_formula_sum   'Rb4 La2 Ta12 Br30 O6'
_cell_volume   1467.66184329
_cell_formula_units_Z   2
loop_
 _symmetry_equiv_pos_site_id
 _symmetry_equiv_pos_as_xyz
  1  'x, y, z'
loop_
 _atom_site_type_symbol
 _atom_site_label
 _atom_site_symmetry_multiplicity
 _atom_site_fract_x
 _atom_site_fract_y
 _atom_site_fract_z
 _atom_site_occupancy
  Rb  Rb0  1  0.66666700  0.33333300  0.95386721  1
  Rb  Rb1  1  0.33333300  0.66666700  0.04613279  1
  Rb  Rb2  1  0.66666700  0.33333300  0.54612901  1
  Rb  Rb3  1  0.33333300  0.66666700  0.45387099  1
  La  La4  1  0.33333300  0.66666700  0.74999987  1
  La  La5  1  0.66666700  0.33333300  0.25000013  1
  Ta  Ta6  1  0.81088506  0.82774511  0.81364610  1
  Ta  Ta7  1  0.18911494  0.17225489  0.18635390  1
  Ta  Ta8  1  0.01686005  0.18911494  0.81364610  1
  Ta  Ta9  1  0.01685613  0.82774432  0.68635430  1
  Ta  Ta10  1  0.98313995  0.81088506  0.18635390  1
  Ta  Ta11  1  0.98314387  0.17225568  0.31364570  1
  Ta  Ta12  1  0.17225489  0.98313995  0.81364610  1
  Ta  Ta13  1  0.17225568  0.18911180  0.68635430  1
  Ta  Ta14  1  0.82774511  0.01686005  0.18635390  1
  Ta  Ta15  1  0.82774432  0.81088820  0.31364570  1
  Ta  Ta16  1  0.81088820  0.98314387  0.68635430  1
  Ta  Ta17  1  0.18911180  0.01685613  0.31364570  1
  Br  Br18  1  0.78673835  0.57347516  0.74999962  1
  Br  Br19  1  0.21326165  0.42652484  0.25000038  1
  Br  Br20  1  0.78673681  0.21326165  0.74999962  1
  Br  Br21  1  0.21326319  0.78673835  0.25000038  1
  Br  Br22  1  0.42652484  0.21326319  0.74999962  1
  Br  Br23  1  0.57347516  0.78673681  0.25000038  1
  Br  Br24  1  0.79669612  0.01884674  0.91315176  1
  Br  Br25  1  0.20330388  0.98115326  0.08684824  1
  Br  Br26  1  0.22215062  0.20330388  0.91315176  1
  Br  Br27  1  0.22214967  0.01884496  0.58684819  1
  Br  Br28  1  0.77784938  0.79669612  0.08684824  1
  Br  Br29  1  0.77785033  0.98115504  0.41315181  1
  Br  Br30  1  0.98115326  0.77784938  0.91315176  1
  Br  Br31  1  0.98115504  0.20330471  0.58684819  1
  Br  Br32  1  0.01884674  0.22215062  0.08684824  1
  Br  Br33  1  0.01884496  0.79669529  0.41315181  1
  Br  Br34  1  0.79669529  0.77785033  0.58684819  1
  Br  Br35  1  0.20330471  0.22214967  0.41315181  1
  Br  Br36  1  0.53088413  0.60401265  0.88413547  1
  Br  Br37  1  0.46911587  0.39598735  0.11586453  1
  Br  Br38  1  0.07312852  0.46911587  0.88413547  1
  Br  Br39  1  0.07312583  0.60401125  0.61586389  1
  Br  Br40  1  0.92687148  0.53088413  0.11586453  1
  Br  Br41  1  0.92687417  0.39598875  0.38413611  1
  Br  Br42  1  0.39598735  0.92687148  0.88413547  1
  Br  Br43  1  0.39598875  0.46911459  0.61586389  1
  Br  Br44  1  0.60401265  0.07312852  0.11586453  1
  Br  Br45  1  0.60401125  0.53088541  0.38413611  1
  Br  Br46  1  0.53088541  0.92687417  0.61586389  1
  Br  Br47  1  0.46911459  0.07312583  0.38413611  1
  O  O48  1  0.18048640  0.36096990  0.74999926  1
  O  O49  1  0.81951360  0.63903010  0.25000074  1
  O  O50  1  0.18048350  0.81951360  0.74999926  1
  O  O51  1  0.81951650  0.18048640  0.25000074  1
  O  O52  1  0.63903010  0.81951650  0.74999926  1
  O  O53  1  0.36096990  0.18048350  0.25000074  1
