# generated using pymatgen
data_Rb2Si2Se5
_symmetry_space_group_name_H-M   'P 1'
_cell_length_a   9.57690040
_cell_length_b   11.52559326
_cell_length_c   11.52559326
_cell_angle_alpha   90.10730753
_cell_angle_beta   100.83870932
_cell_angle_gamma   100.83870932
_symmetry_Int_Tables_number   1
_chemical_formula_structural   Rb2Si2Se5
_chemical_formula_sum   'Rb8 Si8 Se20'
_cell_volume   1226.28850467
_cell_formula_units_Z   4
loop_
 _symmetry_equiv_pos_site_id
 _symmetry_equiv_pos_as_xyz
  1  'x, y, z'
loop_
 _atom_site_type_symbol
 _atom_site_label
 _atom_site_symmetry_multiplicity
 _atom_site_fract_x
 _atom_site_fract_y
 _atom_site_fract_z
 _atom_site_occupancy
  Rb  Rb0  1  0.87907349  0.29022106  0.02125600  1
  Rb  Rb1  1  0.12092651  0.70977894  0.97874400  1
  Rb  Rb2  1  0.62092651  0.97874400  0.70977894  1
  Rb  Rb3  1  0.37907349  0.02125600  0.29022106  1
  Rb  Rb4  1  0.62791987  0.55989911  0.70863191  1
  Rb  Rb5  1  0.37208013  0.44010089  0.29136809  1
  Rb  Rb6  1  0.87208013  0.29136809  0.44010089  1
  Rb  Rb7  1  0.12791987  0.70863191  0.55989911  1
  Si  Si8  1  0.88385071  0.63992799  0.23054581  1
  Si  Si9  1  0.11614929  0.36007201  0.76945419  1
  Si  Si10  1  0.61614929  0.76945419  0.36007201  1
  Si  Si11  1  0.38385071  0.23054581  0.63992799  1
  Si  Si12  1  0.60069139  0.76652511  0.02751841  1
  Si  Si13  1  0.39930861  0.23347489  0.97248159  1
  Si  Si14  1  0.89930861  0.97248159  0.23347489  1
  Si  Si15  1  0.10069139  0.02751841  0.76652511  1
  Se  Se16  1  0.46192267  0.74416399  0.17594648  1
  Se  Se17  1  0.53807733  0.25583601  0.82405352  1
  Se  Se18  1  0.03807733  0.82405352  0.25583601  1
  Se  Se19  1  0.96192267  0.17594648  0.74416399  1
  Se  Se20  1  0.73492902  0.61520490  0.04524744  1
  Se  Se21  1  0.26507098  0.38479510  0.95475256  1
  Se  Se22  1  0.76507098  0.95475256  0.38479510  1
  Se  Se23  1  0.23492902  0.04524744  0.61520490  1
  Se  Se24  1  0.75000000  0.61837135  0.38162865  1
  Se  Se25  1  0.25000000  0.38162865  0.61837135  1
  Se  Se26  1  0.97526099  0.49207110  0.74665128  1
  Se  Se27  1  0.02473901  0.50792890  0.25334872  1
  Se  Se28  1  0.52473901  0.25334872  0.50792890  1
  Se  Se29  1  0.47526099  0.74665128  0.49207110  1
  Se  Se30  1  0.45150739  0.74244776  0.85594402  1
  Se  Se31  1  0.54849261  0.25755224  0.14405598  1
  Se  Se32  1  0.04849261  0.14405598  0.25755224  1
  Se  Se33  1  0.95150739  0.85594402  0.74244776  1
  Se  Se34  1  0.75000000  0.95242398  0.04757602  1
  Se  Se35  1  0.25000000  0.04757602  0.95242398  1
