# generated using pymatgen
data_Rb2EuF5
_symmetry_space_group_name_H-M   'P 1'
_cell_length_a   7.01999252
_cell_length_b   11.71826334
_cell_length_c   7.75778979
_cell_angle_alpha   90.00000000
_cell_angle_beta   90.00000000
_cell_angle_gamma   90.00000000
_symmetry_Int_Tables_number   1
_chemical_formula_structural   Rb2EuF5
_chemical_formula_sum   'Rb8 Eu4 F20'
_cell_volume   638.17224235
_cell_formula_units_Z   4
loop_
 _symmetry_equiv_pos_site_id
 _symmetry_equiv_pos_as_xyz
  1  'x, y, z'
loop_
 _atom_site_type_symbol
 _atom_site_label
 _atom_site_symmetry_multiplicity
 _atom_site_fract_x
 _atom_site_fract_y
 _atom_site_fract_z
 _atom_site_occupancy
  Rb  Rb0  1  0.46340190  0.83090186  0.97576562  1
  Rb  Rb1  1  0.53659810  0.16909814  0.47576562  1
  Rb  Rb2  1  0.03659810  0.33090186  0.97576562  1
  Rb  Rb3  1  0.96340190  0.66909814  0.47576562  1
  Rb  Rb4  1  0.97364742  0.67032538  0.98132830  1
  Rb  Rb5  1  0.02635258  0.32967462  0.48132830  1
  Rb  Rb6  1  0.52635258  0.17032538  0.98132830  1
  Rb  Rb7  1  0.47364742  0.82967462  0.48132830  1
  Eu  Eu8  1  0.55739529  0.50085577  0.72812809  1
  Eu  Eu9  1  0.44260471  0.49914423  0.22812809  1
  Eu  Eu10  1  0.94260471  0.00085577  0.72812809  1
  Eu  Eu11  1  0.05739529  0.99914423  0.22812809  1
  F  F12  1  0.85653373  0.92552469  0.01287454  1
  F  F13  1  0.14346627  0.07447531  0.51287454  1
  F  F14  1  0.64346627  0.42552469  0.01287454  1
  F  F15  1  0.35653373  0.57447531  0.51287454  1
  F  F16  1  0.61259278  0.98843908  0.73224953  1
  F  F17  1  0.38740722  0.01156092  0.23224953  1
  F  F18  1  0.88740722  0.48843908  0.73224953  1
  F  F19  1  0.11259278  0.51156092  0.23224953  1
  F  F20  1  0.85732066  0.92597897  0.44935743  1
  F  F21  1  0.14267934  0.07402103  0.94935743  1
  F  F22  1  0.64267934  0.42597897  0.44935743  1
  F  F23  1  0.35732066  0.57402103  0.94935743  1
  F  F24  1  0.66068933  0.68557776  0.73113989  1
  F  F25  1  0.33931067  0.31442224  0.23113989  1
  F  F26  1  0.83931067  0.18557776  0.73113989  1
  F  F27  1  0.16068933  0.81442224  0.23113989  1
  F  F28  1  0.62091666  0.65944065  0.24215659  1
  F  F29  1  0.37908334  0.34055935  0.74215659  1
  F  F30  1  0.87908334  0.15944065  0.24215659  1
  F  F31  1  0.12091666  0.84055935  0.74215659  1
