# generated using pymatgen
data_Pr2MgPtO6
_symmetry_space_group_name_H-M   'P 1'
_cell_length_a   5.54786482
_cell_length_b   5.77003591
_cell_length_c   7.93203880
_cell_angle_alpha   90.00000000
_cell_angle_beta   90.19030113
_cell_angle_gamma   90.00000000
_symmetry_Int_Tables_number   1
_chemical_formula_structural   Pr2MgPtO6
_chemical_formula_sum   'Pr4 Mg2 Pt2 O12'
_cell_volume   253.91410166
_cell_formula_units_Z   2
loop_
 _symmetry_equiv_pos_site_id
 _symmetry_equiv_pos_as_xyz
  1  'x, y, z'
loop_
 _atom_site_type_symbol
 _atom_site_label
 _atom_site_symmetry_multiplicity
 _atom_site_fract_x
 _atom_site_fract_y
 _atom_site_fract_z
 _atom_site_occupancy
  Pr  Pr0  1  0.01543991  0.44109433  0.25047450  1
  Pr  Pr1  1  0.98456009  0.55890567  0.74952550  1
  Pr  Pr2  1  0.48456009  0.94109433  0.24952550  1
  Pr  Pr3  1  0.51543991  0.05890567  0.75047450  1
  Mg  Mg4  1  0.00000000  0.00000000  0.50000000  1
  Mg  Mg5  1  0.50000000  0.50000000  0.00000000  1
  Pt  Pt6  1  0.00000000  -0.00000000  0.00000000  1
  Pt  Pt7  1  0.50000000  0.50000000  0.50000000  1
  O  O8  1  0.90435876  0.02972363  0.24806118  1
  O  O9  1  0.09564124  0.97027637  0.75193882  1
  O  O10  1  0.59564124  0.52972363  0.25193882  1
  O  O11  1  0.40435876  0.47027637  0.74806118  1
  O  O12  1  0.19758151  0.70623090  0.05150395  1
  O  O13  1  0.80241849  0.29376910  0.94849605  1
  O  O14  1  0.30241849  0.20623090  0.44849605  1
  O  O15  1  0.69758151  0.79376910  0.55150395  1
  O  O16  1  0.29706622  0.20211914  0.04971390  1
  O  O17  1  0.70293378  0.79788086  0.95028610  1
  O  O18  1  0.20293378  0.70211914  0.45028610  1
  O  O19  1  0.79706622  0.29788086  0.54971390  1
