# generated using pymatgen
data_Rb2Be3Ni2F12
_symmetry_space_group_name_H-M   'P 1'
_cell_length_a   10.11336149
_cell_length_b   10.11336149
_cell_length_c   10.11336149
_cell_angle_alpha   90.00000000
_cell_angle_beta   90.00000000
_cell_angle_gamma   90.00000000
_symmetry_Int_Tables_number   1
_chemical_formula_structural   Rb2Be3Ni2F12
_chemical_formula_sum   'Rb8 Be12 Ni8 F48'
_cell_volume   1034.39542861
_cell_formula_units_Z   4
loop_
 _symmetry_equiv_pos_site_id
 _symmetry_equiv_pos_as_xyz
  1  'x, y, z'
loop_
 _atom_site_type_symbol
 _atom_site_label
 _atom_site_symmetry_multiplicity
 _atom_site_fract_x
 _atom_site_fract_y
 _atom_site_fract_z
 _atom_site_occupancy
  Rb  Rb0  1  0.04833110  0.04833110  0.04833110  1
  Rb  Rb1  1  0.45166890  0.95166890  0.54833110  1
  Rb  Rb2  1  0.95166890  0.54833110  0.45166890  1
  Rb  Rb3  1  0.54833110  0.45166890  0.95166890  1
  Rb  Rb4  1  0.81561264  0.81561264  0.81561264  1
  Rb  Rb5  1  0.68438736  0.18438736  0.31561264  1
  Rb  Rb6  1  0.18438736  0.31561264  0.68438736  1
  Rb  Rb7  1  0.31561264  0.68438736  0.18438736  1
  Be  Be8  1  0.02040783  0.21397705  0.37565448  1
  Be  Be9  1  0.47959217  0.78602295  0.87565448  1
  Be  Be10  1  0.97959217  0.71397705  0.12434552  1
  Be  Be11  1  0.37565448  0.02040783  0.21397705  1
  Be  Be12  1  0.52040783  0.28602295  0.62434552  1
  Be  Be13  1  0.87565448  0.47959217  0.78602295  1
  Be  Be14  1  0.12434552  0.97959217  0.71397705  1
  Be  Be15  1  0.62434552  0.52040783  0.28602295  1
  Be  Be16  1  0.21397705  0.37565448  0.02040783  1
  Be  Be17  1  0.71397705  0.12434552  0.97959217  1
  Be  Be18  1  0.28602295  0.62434552  0.52040783  1
  Be  Be19  1  0.78602295  0.87565448  0.47959217  1
  Ni  Ni20  1  0.33553236  0.33553236  0.33553236  1
  Ni  Ni21  1  0.16446764  0.66446764  0.83553236  1
  Ni  Ni22  1  0.66446764  0.83553236  0.16446764  1
  Ni  Ni23  1  0.83553236  0.16446764  0.66446764  1
  Ni  Ni24  1  0.59937303  0.59937303  0.59937303  1
  Ni  Ni25  1  0.90062697  0.40062697  0.09937303  1
  Ni  Ni26  1  0.40062697  0.09937303  0.90062697  1
  Ni  Ni27  1  0.09937303  0.90062697  0.40062697  1
  F  F28  1  0.01240345  0.06669921  0.33027792  1
  F  F29  1  0.48759655  0.93330079  0.83027792  1
  F  F30  1  0.98759655  0.56669921  0.16972208  1
  F  F31  1  0.33027792  0.01240345  0.06669921  1
  F  F32  1  0.51240345  0.43330079  0.66972208  1
  F  F33  1  0.83027792  0.48759655  0.93330079  1
  F  F34  1  0.16972208  0.98759655  0.56669921  1
  F  F35  1  0.66972208  0.51240345  0.43330079  1
  F  F36  1  0.06669921  0.33027792  0.01240345  1
  F  F37  1  0.56669921  0.16972208  0.98759655  1
  F  F38  1  0.43330079  0.66972208  0.51240345  1
  F  F39  1  0.93330079  0.83027792  0.48759655  1
  F  F40  1  0.26616860  0.49551572  0.43643694  1
  F  F41  1  0.23383140  0.50448428  0.93643694  1
  F  F42  1  0.73383140  0.99551572  0.06356306  1
  F  F43  1  0.43643694  0.26616860  0.49551572  1
  F  F44  1  0.76616860  0.00448428  0.56356306  1
  F  F45  1  0.93643694  0.23383140  0.50448428  1
  F  F46  1  0.06356306  0.73383140  0.99551572  1
  F  F47  1  0.56356306  0.76616860  0.00448428  1
  F  F48  1  0.49551572  0.43643694  0.26616860  1
  F  F49  1  0.99551572  0.06356306  0.73383140  1
  F  F50  1  0.00448428  0.56356306  0.76616860  1
  F  F51  1  0.50448428  0.93643694  0.23383140  1
  F  F52  1  0.04596421  0.80595742  0.23081534  1
  F  F53  1  0.45403579  0.19404258  0.73081534  1
  F  F54  1  0.95403579  0.30595742  0.26918466  1
  F  F55  1  0.23081534  0.04596421  0.80595742  1
  F  F56  1  0.54596421  0.69404258  0.76918466  1
  F  F57  1  0.73081534  0.45403579  0.19404258  1
  F  F58  1  0.26918466  0.95403579  0.30595742  1
  F  F59  1  0.76918466  0.54596421  0.69404258  1
  F  F60  1  0.80595742  0.23081534  0.04596421  1
  F  F61  1  0.30595742  0.26918466  0.95403579  1
  F  F62  1  0.69404258  0.76918466  0.54596421  1
  F  F63  1  0.19404258  0.73081534  0.45403579  1
  F  F64  1  0.16519370  0.25596341  0.40197233  1
  F  F65  1  0.33480630  0.74403659  0.90197233  1
  F  F66  1  0.83480630  0.75596341  0.09802767  1
  F  F67  1  0.40197233  0.16519370  0.25596341  1
  F  F68  1  0.66519370  0.24403659  0.59802767  1
  F  F69  1  0.90197233  0.33480630  0.74403659  1
  F  F70  1  0.09802767  0.83480630  0.75596341  1
  F  F71  1  0.59802767  0.66519370  0.24403659  1
  F  F72  1  0.25596341  0.40197233  0.16519370  1
  F  F73  1  0.75596341  0.09802767  0.83480630  1
  F  F74  1  0.24403659  0.59802767  0.66519370  1
  F  F75  1  0.74403659  0.90197233  0.33480630  1
