# generated using pymatgen
data_Pr3CBr3
_symmetry_space_group_name_H-M   'P 1'
_cell_length_a   10.00081896
_cell_length_b   10.00081896
_cell_length_c   10.00081896
_cell_angle_alpha   109.47122063
_cell_angle_beta   109.47122063
_cell_angle_gamma   109.47122063
_symmetry_Int_Tables_number   1
_chemical_formula_structural   Pr3CBr3
_chemical_formula_sum   'Pr12 C4 Br12'
_cell_volume   769.98950565
_cell_formula_units_Z   4
loop_
 _symmetry_equiv_pos_site_id
 _symmetry_equiv_pos_as_xyz
  1  'x, y, z'
loop_
 _atom_site_type_symbol
 _atom_site_label
 _atom_site_symmetry_multiplicity
 _atom_site_fract_x
 _atom_site_fract_y
 _atom_site_fract_z
 _atom_site_occupancy
  Pr  Pr0  1  0.77073868  0.52073868  0.54147736  1
  Pr  Pr1  1  0.72926132  0.77073868  0.25000000  1
  Pr  Pr2  1  0.52073868  0.97926132  0.25000000  1
  Pr  Pr3  1  0.52073868  0.54147736  0.77073868  1
  Pr  Pr4  1  0.77073868  0.25000000  0.72926132  1
  Pr  Pr5  1  0.97926132  0.72926132  0.95852264  1
  Pr  Pr6  1  0.72926132  0.95852264  0.97926132  1
  Pr  Pr7  1  0.97926132  0.25000000  0.52073868  1
  Pr  Pr8  1  0.54147736  0.77073868  0.52073868  1
  Pr  Pr9  1  0.25000000  0.52073868  0.97926132  1
  Pr  Pr10  1  0.95852264  0.97926132  0.72926132  1
  Pr  Pr11  1  0.25000000  0.72926132  0.77073868  1
  C  C12  1  0.75000000  0.75000000  0.75000000  1
  C  C13  1  0.75000000  0.00000000  0.50000000  1
  C  C14  1  0.50000000  0.75000000  -0.00000000  1
  C  C15  1  -0.00000000  0.50000000  0.75000000  1
  Br  Br16  1  0.25996382  0.24003618  0.75000000  1
  Br  Br17  1  0.24003618  0.49003618  0.48007237  1
  Br  Br18  1  0.00996382  0.25996382  0.01992763  1
  Br  Br19  1  0.24003618  0.75000000  0.25996382  1
  Br  Br20  1  0.25996382  0.01992763  0.00996382  1
  Br  Br21  1  0.49003618  0.00996382  0.75000000  1
  Br  Br22  1  0.49003618  0.48007237  0.24003618  1
  Br  Br23  1  0.00996382  0.75000000  0.49003618  1
  Br  Br24  1  0.75000000  0.25996382  0.24003618  1
  Br  Br25  1  0.01992763  0.00996382  0.25996382  1
  Br  Br26  1  0.75000000  0.49003618  0.00996382  1
  Br  Br27  1  0.48007237  0.24003618  0.49003618  1
