# generated using pymatgen
data_Te2Mo2W(SeS)2
_symmetry_space_group_name_H-M   'P 1'
_cell_length_a   3.35149796
_cell_length_b   3.35156959
_cell_length_c   30.93880656
_cell_angle_alpha   90.00076392
_cell_angle_beta   90.00002112
_cell_angle_gamma   119.99806004
_symmetry_Int_Tables_number   1
_chemical_formula_structural   Te2Mo2W(SeS)2
_chemical_formula_sum   'Te2 Mo2 W1 Se2 S2'
_cell_volume   300.97462320
_cell_formula_units_Z   1
loop_
 _symmetry_equiv_pos_site_id
 _symmetry_equiv_pos_as_xyz
  1  'x, y, z'
loop_
 _atom_site_type_symbol
 _atom_site_label
 _atom_site_symmetry_multiplicity
 _atom_site_fract_x
 _atom_site_fract_y
 _atom_site_fract_z
 _atom_site_occupancy
  Te  Te0  1  0.66664271  0.33328538  0.51673155  1
  Te  Te1  1  0.66663971  0.33327940  0.63988648  1
  Mo  Mo2  1  0.33331029  0.66662010  0.11564926  1
  Mo  Mo3  1  0.66670982  0.33341738  0.34696268  1
  W  W4  1  0.33330862  0.66661654  0.57833376  1
  Se  Se5  1  0.66664502  0.33329040  0.06187401  1
  Se  Se6  1  0.66665075  0.33330149  0.16945994  1
  S  S7  1  0.33334870  0.66669804  0.39591066  1
  S  S8  1  0.33334539  0.66669128  0.29803266  1
