# generated using pymatgen
data_Nd9Ga4
_symmetry_space_group_name_H-M   'P 1'
_cell_length_a   5.20377405
_cell_length_b   8.91576383
_cell_length_c   8.91576383
_cell_angle_alpha   85.11450260
_cell_angle_beta   73.03245496
_cell_angle_gamma   73.03245496
_symmetry_Int_Tables_number   1
_chemical_formula_structural   Nd9Ga4
_chemical_formula_sum   'Nd9 Ga4'
_cell_volume   378.42380175
_cell_formula_units_Z   1
loop_
 _symmetry_equiv_pos_site_id
 _symmetry_equiv_pos_as_xyz
  1  'x, y, z'
loop_
 _atom_site_type_symbol
 _atom_site_label
 _atom_site_symmetry_multiplicity
 _atom_site_fract_x
 _atom_site_fract_y
 _atom_site_fract_z
 _atom_site_occupancy
  Nd  Nd0  1  0.09625778  0.27760455  0.52987989  1
  Nd  Nd1  1  0.90374222  0.72239545  0.47012011  1
  Nd  Nd2  1  0.62613767  0.47012011  0.27760455  1
  Nd  Nd3  1  0.37386233  0.52987989  0.72239545  1
  Nd  Nd4  1  0.00000000  0.00000000  -0.00000000  1
  Nd  Nd5  1  0.38874517  0.92709314  0.29541653  1
  Nd  Nd6  1  0.61125483  0.07290686  0.70458347  1
  Nd  Nd7  1  0.68416169  0.70458347  0.92709314  1
  Nd  Nd8  1  0.31583831  0.29541653  0.07290686  1
  Ga  Ga9  1  0.23272574  0.88064651  0.65390201  1
  Ga  Ga10  1  0.76727426  0.11935349  0.34609799  1
  Ga  Ga11  1  0.88662775  0.34609799  0.88064651  1
  Ga  Ga12  1  0.11337225  0.65390201  0.11935349  1
