# generated using pymatgen
data_Te2MoW2(SeS)2
_symmetry_space_group_name_H-M   'P 1'
_cell_length_a   3.35126694
_cell_length_b   3.35126155
_cell_length_c   31.04885163
_cell_angle_alpha   89.99970318
_cell_angle_beta   90.00000000
_cell_angle_gamma   120.00005321
_symmetry_Int_Tables_number   1
_chemical_formula_structural   Te2MoW2(SeS)2
_chemical_formula_sum   'Te2 Mo1 W2 Se2 S2'
_cell_volume   301.99050391
_cell_formula_units_Z   1
loop_
 _symmetry_equiv_pos_site_id
 _symmetry_equiv_pos_as_xyz
  1  'x, y, z'
loop_
 _atom_site_type_symbol
 _atom_site_label
 _atom_site_symmetry_multiplicity
 _atom_site_fract_x
 _atom_site_fract_y
 _atom_site_fract_z
 _atom_site_occupancy
  Te  Te0  1  0.33335771  0.66671642  0.40832185  1
  Te  Te1  1  0.33335329  0.66670757  0.28554791  1
  Mo  Mo2  1  0.33329448  0.66658895  0.11564790  1
  W  W3  1  0.33330706  0.66661413  0.57837185  1
  W  W4  1  0.66669038  0.33338076  0.34693462  1
  Se  Se5  1  0.66664645  0.33329191  0.52445582  1
  Se  Se6  1  0.66664100  0.33328100  0.63226298  1
  S  S7  1  0.66665399  0.33330699  0.06684845  1
  S  S8  1  0.66665664  0.33331228  0.16444963  1
