# generated using pymatgen
data_NdZrF7
_symmetry_space_group_name_H-M   'P 1'
_cell_length_a   5.86897566
_cell_length_b   6.31900338
_cell_length_c   8.52141632
_cell_angle_alpha   101.64828939
_cell_angle_beta   90.00000000
_cell_angle_gamma   90.00000000
_symmetry_Int_Tables_number   1
_chemical_formula_structural   NdZrF7
_chemical_formula_sum   'Nd2 Zr2 F14'
_cell_volume   309.51748460
_cell_formula_units_Z   2
loop_
 _symmetry_equiv_pos_site_id
 _symmetry_equiv_pos_as_xyz
  1  'x, y, z'
loop_
 _atom_site_type_symbol
 _atom_site_label
 _atom_site_symmetry_multiplicity
 _atom_site_fract_x
 _atom_site_fract_y
 _atom_site_fract_z
 _atom_site_occupancy
  Nd  Nd0  1  0.69908832  0.65712985  0.68681359  1
  Nd  Nd1  1  0.19908832  0.34287015  0.31318641  1
  Zr  Zr2  1  0.70836494  0.81158158  0.22404157  1
  Zr  Zr3  1  0.20836494  0.18841842  0.77595843  1
  F  F4  1  0.88575351  0.44992267  0.47444748  1
  F  F5  1  0.38575351  0.55007733  0.52555252  1
  F  F6  1  0.42214389  0.93109180  0.76896955  1
  F  F7  1  0.92214389  0.06890820  0.23103045  1
  F  F8  1  0.94749614  0.96842936  0.76082350  1
  F  F9  1  0.44749614  0.03157064  0.23917650  1
  F  F10  1  0.99869698  0.44977116  0.78626546  1
  F  F11  1  0.49869698  0.55022884  0.21373454  1
  F  F12  1  0.70496815  0.75619576  0.97992715  1
  F  F13  1  0.20496815  0.24380424  0.02007285  1
  F  F14  1  0.71289130  0.85797688  0.46851329  1
  F  F15  1  0.21289130  0.14202312  0.53148671  1
  F  F16  1  0.49695677  0.37504364  0.78295586  1
  F  F17  1  0.99695677  0.62495636  0.21704414  1
