# generated using pymatgen
data_NaLiTm2F8
_symmetry_space_group_name_H-M   'P 1'
_cell_length_a   6.65348588
_cell_length_b   6.65348588
_cell_length_c   7.00904937
_cell_angle_alpha   89.97148783
_cell_angle_beta   90.02851217
_cell_angle_gamma   103.18125923
_symmetry_Int_Tables_number   1
_chemical_formula_structural   NaLiTm2F8
_chemical_formula_sum   'Na2 Li2 Tm4 F16'
_cell_volume   302.10781471
_cell_formula_units_Z   2
loop_
 _symmetry_equiv_pos_site_id
 _symmetry_equiv_pos_as_xyz
  1  'x, y, z'
loop_
 _atom_site_type_symbol
 _atom_site_label
 _atom_site_symmetry_multiplicity
 _atom_site_fract_x
 _atom_site_fract_y
 _atom_site_fract_z
 _atom_site_occupancy
  Na  Na0  1  0.65591849  0.65591849  0.25000000  1
  Na  Na1  1  0.34408151  0.34408151  0.75000000  1
  Li  Li2  1  -0.00000000  0.00000000  -0.00000000  1
  Li  Li3  1  -0.00000000  0.00000000  0.50000000  1
  Tm  Tm4  1  0.45014610  0.07540661  0.25000600  1
  Tm  Tm5  1  0.54985390  0.92459339  0.74999400  1
  Tm  Tm6  1  0.07540661  0.45014610  0.24999400  1
  Tm  Tm7  1  0.92459339  0.54985390  0.75000600  1
  F  F8  1  0.08774447  0.08774447  0.25000000  1
  F  F9  1  0.91225553  0.91225553  0.75000000  1
  F  F10  1  0.65759360  0.93466764  0.05017623  1
  F  F11  1  0.34240640  0.06533236  0.94982377  1
  F  F12  1  0.93466764  0.65759360  0.44982377  1
  F  F13  1  0.06533236  0.34240640  0.55017623  1
  F  F14  1  0.38818389  0.38818389  0.25000000  1
  F  F15  1  0.61181611  0.61181611  0.75000000  1
  F  F16  1  0.30453795  0.74604381  0.25075702  1
  F  F17  1  0.69546205  0.25395619  0.74924298  1
  F  F18  1  0.74604381  0.30453795  0.24924298  1
  F  F19  1  0.25395619  0.69546205  0.75075702  1
  F  F20  1  0.34211380  0.06501630  0.55019908  1
  F  F21  1  0.65788620  0.93498370  0.44980092  1
  F  F22  1  0.06501630  0.34211380  0.94980092  1
  F  F23  1  0.93498370  0.65788620  0.05019908  1
