# generated using pymatgen
data_Ni3BO5
_symmetry_space_group_name_H-M   'P 1'
_cell_length_a   3.00214920
_cell_length_b   9.16298011
_cell_length_c   12.28462655
_cell_angle_alpha   90.00000000
_cell_angle_beta   90.00000000
_cell_angle_gamma   90.00000000
_symmetry_Int_Tables_number   1
_chemical_formula_structural   Ni3BO5
_chemical_formula_sum   'Ni12 B4 O20'
_cell_volume   337.93328830
_cell_formula_units_Z   4
loop_
 _symmetry_equiv_pos_site_id
 _symmetry_equiv_pos_as_xyz
  1  'x, y, z'
loop_
 _atom_site_type_symbol
 _atom_site_label
 _atom_site_symmetry_multiplicity
 _atom_site_fract_x
 _atom_site_fract_y
 _atom_site_fract_z
 _atom_site_occupancy
  Ni  Ni0  1  -0.00000000  0.24385091  0.38655470  1
  Ni  Ni1  1  0.00000000  0.75614909  0.61344530  1
  Ni  Ni2  1  -0.00000000  0.25614909  0.88655470  1
  Ni  Ni3  1  0.00000000  0.74385091  0.11344530  1
  Ni  Ni4  1  0.50000000  0.00395698  0.22021001  1
  Ni  Ni5  1  0.50000000  0.99604302  0.77978999  1
  Ni  Ni6  1  0.50000000  0.49604302  0.72021001  1
  Ni  Ni7  1  0.50000000  0.50395698  0.27978999  1
  Ni  Ni8  1  0.50000000  -0.00000000  0.50000000  1
  Ni  Ni9  1  0.50000000  0.50000000  0.00000000  1
  Ni  Ni10  1  -0.00000000  -0.00000000  0.00000000  1
  Ni  Ni11  1  -0.00000000  0.50000000  0.50000000  1
  B  B12  1  0.00000000  0.27708305  0.13976700  1
  B  B13  1  0.00000000  0.72291695  0.86023300  1
  B  B14  1  0.00000000  0.22291695  0.63976700  1
  B  B15  1  0.00000000  0.77708305  0.36023300  1
  O  O16  1  0.00000000  0.12594492  0.14148240  1
  O  O17  1  0.00000000  0.87405508  0.85851760  1
  O  O18  1  0.00000000  0.37405508  0.64148240  1
  O  O19  1  0.00000000  0.62594492  0.35851760  1
  O  O20  1  0.00000000  0.35115971  0.04191435  1
  O  O21  1  0.00000000  0.64884029  0.95808565  1
  O  O22  1  0.00000000  0.14884029  0.54191435  1
  O  O23  1  0.00000000  0.85115971  0.45808565  1
  O  O24  1  0.00000000  0.35320016  0.23699459  1
  O  O25  1  0.00000000  0.64679984  0.76300541  1
  O  O26  1  0.00000000  0.14679984  0.73699459  1
  O  O27  1  0.00000000  0.85320016  0.26300541  1
  O  O28  1  0.50000000  0.11261721  0.35769309  1
  O  O29  1  0.50000000  0.88738279  0.64230691  1
  O  O30  1  0.50000000  0.38738279  0.85769309  1
  O  O31  1  0.50000000  0.61261721  0.14230691  1
  O  O32  1  0.50000000  0.38919579  0.42039153  1
  O  O33  1  0.50000000  0.61080421  0.57960847  1
  O  O34  1  0.50000000  0.11080421  0.92039153  1
  O  O35  1  0.50000000  0.88919579  0.07960847  1
