# generated using pymatgen
data_PrIn2Cu9
_symmetry_space_group_name_H-M   'P 1'
_cell_length_a   5.04188412
_cell_length_b   8.51539374
_cell_length_c   8.51539374
_cell_angle_alpha   90.00000000
_cell_angle_beta   90.00000000
_cell_angle_gamma   90.00000000
_symmetry_Int_Tables_number   1
_chemical_formula_structural   PrIn2Cu9
_chemical_formula_sum   'Pr2 In4 Cu18'
_cell_volume   365.59675114
_cell_formula_units_Z   2
loop_
 _symmetry_equiv_pos_site_id
 _symmetry_equiv_pos_as_xyz
  1  'x, y, z'
loop_
 _atom_site_type_symbol
 _atom_site_label
 _atom_site_symmetry_multiplicity
 _atom_site_fract_x
 _atom_site_fract_y
 _atom_site_fract_z
 _atom_site_occupancy
  Pr  Pr0  1  -0.00000000  0.00000000  -0.00000000  1
  Pr  Pr1  1  -0.00000000  0.50000000  0.50000000  1
  In  In2  1  -0.00000000  0.62255691  0.12255691  1
  In  In3  1  -0.00000000  0.37744309  0.87744309  1
  In  In4  1  -0.00000000  0.87744309  0.62255691  1
  In  In5  1  -0.00000000  0.12255691  0.37744309  1
  Cu  Cu6  1  0.50000000  0.00000000  0.50000000  1
  Cu  Cu7  1  0.50000000  0.50000000  -0.00000000  1
  Cu  Cu8  1  0.50000000  0.06410367  0.20714287  1
  Cu  Cu9  1  0.50000000  0.93589633  0.79285713  1
  Cu  Cu10  1  0.50000000  0.79285713  0.06410367  1
  Cu  Cu11  1  0.50000000  0.43589633  0.70714287  1
  Cu  Cu12  1  0.50000000  0.20714287  0.93589633  1
  Cu  Cu13  1  0.50000000  0.56410367  0.29285713  1
  Cu  Cu14  1  0.50000000  0.70714287  0.56410367  1
  Cu  Cu15  1  0.50000000  0.29285713  0.43589633  1
  Cu  Cu16  1  0.24662799  0.17656833  0.67656833  1
  Cu  Cu17  1  0.75337201  0.82343167  0.32343167  1
  Cu  Cu18  1  0.24662799  0.82343167  0.32343167  1
  Cu  Cu19  1  0.24662799  0.32343167  0.17656833  1
  Cu  Cu20  1  0.75337201  0.32343167  0.17656833  1
  Cu  Cu21  1  0.75337201  0.17656833  0.67656833  1
  Cu  Cu22  1  0.75337201  0.67656833  0.82343167  1
  Cu  Cu23  1  0.24662799  0.67656833  0.82343167  1
