# generated using pymatgen
data_Be(BO2)4
_symmetry_space_group_name_H-M   'P 1'
_cell_length_a   4.34357046
_cell_length_b   7.34249275
_cell_length_c   18.15679872
_cell_angle_alpha   92.42385646
_cell_angle_beta   90.00000000
_cell_angle_gamma   90.00000000
_symmetry_Int_Tables_number   1
_chemical_formula_structural   Be(BO2)4
_chemical_formula_sum   'Be4 B16 O32'
_cell_volume   578.55005907
_cell_formula_units_Z   4
loop_
 _symmetry_equiv_pos_site_id
 _symmetry_equiv_pos_as_xyz
  1  'x, y, z'
loop_
 _atom_site_type_symbol
 _atom_site_label
 _atom_site_symmetry_multiplicity
 _atom_site_fract_x
 _atom_site_fract_y
 _atom_site_fract_z
 _atom_site_occupancy
  Be  Be0  1  0.59779217  0.63750104  0.25935096  1
  Be  Be1  1  0.90220783  0.13750104  0.75935096  1
  Be  Be2  1  0.40220783  0.36249896  0.74064904  1
  Be  Be3  1  0.09779217  0.86249896  0.24064904  1
  B  B4  1  0.91611210  0.86457417  0.64836968  1
  B  B5  1  0.58388790  0.36457417  0.14836968  1
  B  B6  1  0.08388790  0.13542583  0.35163032  1
  B  B7  1  0.41611210  0.63542583  0.85163032  1
  B  B8  1  0.41881884  0.01437688  0.69478582  1
  B  B9  1  0.08118116  0.51437688  0.19478582  1
  B  B10  1  0.58118116  0.98562312  0.30521418  1
  B  B11  1  0.91881884  0.48562312  0.80521418  1
  B  B12  1  0.13016588  0.76051298  0.52569762  1
  B  B13  1  0.36983412  0.26051298  0.02569762  1
  B  B14  1  0.86983412  0.23948702  0.47430238  1
  B  B15  1  0.63016588  0.73948702  0.97430238  1
  B  B16  1  0.21743318  0.57606979  0.62752139  1
  B  B17  1  0.28256682  0.07606979  0.12752139  1
  B  B18  1  0.78256682  0.42393021  0.37247861  1
  B  B19  1  0.71743318  0.92393021  0.87247861  1
  O  O20  1  0.00788539  0.67955008  0.66926262  1
  O  O21  1  0.49211461  0.17955008  0.16926262  1
  O  O22  1  0.99211461  0.32044992  0.33073738  1
  O  O23  1  0.50788539  0.82044992  0.83073738  1
  O  O24  1  0.98800096  0.89042211  0.57049456  1
  O  O25  1  0.51199904  0.39042211  0.07049456  1
  O  O26  1  0.01199904  0.10957789  0.42950544  1
  O  O27  1  0.48800096  0.60957789  0.92950544  1
  O  O28  1  0.23777039  0.59685336  0.55211052  1
  O  O29  1  0.26222961  0.09685336  0.05211052  1
  O  O30  1  0.76222961  0.40314664  0.44788948  1
  O  O31  1  0.73777039  0.90314664  0.94788948  1
  O  O32  1  0.55520896  0.16301401  0.72978050  1
  O  O33  1  0.94479104  0.66301401  0.22978050  1
  O  O34  1  0.44479104  0.83698599  0.27021950  1
  O  O35  1  0.05520896  0.33698599  0.77021950  1
  O  O36  1  0.39686512  0.46165538  0.66428979  1
  O  O37  1  0.10313488  0.96165538  0.16428979  1
  O  O38  1  0.60313488  0.53834462  0.33571021  1
  O  O39  1  0.89686512  0.03834462  0.83571021  1
  O  O40  1  0.09476327  0.00549687  0.69568287  1
  O  O41  1  0.40523673  0.50549687  0.19568287  1
  O  O42  1  0.90523673  0.99450313  0.30431713  1
  O  O43  1  0.59476327  0.49450313  0.80431713  1
  O  O44  1  0.58832113  0.88130843  0.66007613  1
  O  O45  1  0.91167887  0.38130843  0.16007613  1
  O  O46  1  0.41167887  0.11869157  0.33992387  1
  O  O47  1  0.08832113  0.61869157  0.83992387  1
  O  O48  1  0.17683784  0.78770375  0.45203475  1
  O  O49  1  0.32316216  0.28770375  0.95203475  1
  O  O50  1  0.82316216  0.21229625  0.54796525  1
  O  O51  1  0.67683784  0.71229625  0.04796525  1
