# generated using pymatgen
data_Na3TmBr6
_symmetry_space_group_name_H-M   'P 1'
_cell_length_a   7.37812632
_cell_length_b   7.71751084
_cell_length_c   10.86451086
_cell_angle_alpha   90.00000000
_cell_angle_beta   90.52616694
_cell_angle_gamma   90.00000000
_symmetry_Int_Tables_number   1
_chemical_formula_structural   Na3TmBr6
_chemical_formula_sum   'Na6 Tm2 Br12'
_cell_volume   618.60752666
_cell_formula_units_Z   2
loop_
 _symmetry_equiv_pos_site_id
 _symmetry_equiv_pos_as_xyz
  1  'x, y, z'
loop_
 _atom_site_type_symbol
 _atom_site_label
 _atom_site_symmetry_multiplicity
 _atom_site_fract_x
 _atom_site_fract_y
 _atom_site_fract_z
 _atom_site_occupancy
  Na  Na0  1  -0.00000000  -0.00000000  0.50000000  1
  Na  Na1  1  0.50000000  0.50000000  -0.00000000  1
  Na  Na2  1  0.98526124  0.56298454  0.25927774  1
  Na  Na3  1  0.01473876  0.43701546  0.74072226  1
  Na  Na4  1  0.51473876  0.06298454  0.24072226  1
  Na  Na5  1  0.48526124  0.93701546  0.75927774  1
  Tm  Tm6  1  -0.00000000  -0.00000000  -0.00000000  1
  Tm  Tm7  1  0.50000000  0.50000000  0.50000000  1
  Br  Br8  1  0.83070752  0.30116653  0.07681251  1
  Br  Br9  1  0.16929248  0.69883347  0.92318749  1
  Br  Br10  1  0.66929248  0.80116653  0.42318749  1
  Br  Br11  1  0.33070752  0.19883347  0.57681251  1
  Br  Br12  1  0.12988922  0.93690175  0.23746362  1
  Br  Br13  1  0.87011078  0.06309825  0.76253638  1
  Br  Br14  1  0.37011078  0.43690175  0.26253638  1
  Br  Br15  1  0.62988922  0.56309825  0.73746362  1
  Br  Br16  1  0.69004816  0.82068677  0.05989643  1
  Br  Br17  1  0.30995184  0.17931323  0.94010357  1
  Br  Br18  1  0.80995184  0.32068677  0.44010357  1
  Br  Br19  1  0.19004816  0.67931323  0.55989643  1
