# generated using pymatgen
data_Na3LiTi2F12
_symmetry_space_group_name_H-M   'P 1'
_cell_length_a   5.24057989
_cell_length_b   5.24057989
_cell_length_c   18.46334068
_cell_angle_alpha   90.00000000
_cell_angle_beta   90.00000000
_cell_angle_gamma   90.00000000
_symmetry_Int_Tables_number   1
_chemical_formula_structural   Na3LiTi2F12
_chemical_formula_sum   'Na6 Li2 Ti4 F24'
_cell_volume   507.07123555
_cell_formula_units_Z   2
loop_
 _symmetry_equiv_pos_site_id
 _symmetry_equiv_pos_as_xyz
  1  'x, y, z'
loop_
 _atom_site_type_symbol
 _atom_site_label
 _atom_site_symmetry_multiplicity
 _atom_site_fract_x
 _atom_site_fract_y
 _atom_site_fract_z
 _atom_site_occupancy
  Na  Na0  1  0.00000000  0.50000000  0.31081019  1
  Na  Na1  1  0.50000000  0.00000000  0.68918981  1
  Na  Na2  1  0.50000000  -0.00000000  0.18918981  1
  Na  Na3  1  0.00000000  0.50000000  0.81081019  1
  Na  Na4  1  0.00000000  -0.00000000  0.50000000  1
  Na  Na5  1  0.50000000  0.50000000  -0.00000000  1
  Li  Li6  1  0.00000000  0.00000000  -0.00000000  1
  Li  Li7  1  0.50000000  0.50000000  0.50000000  1
  Ti  Ti8  1  0.00000000  0.50000000  0.12442264  1
  Ti  Ti9  1  0.50000000  0.00000000  0.87557736  1
  Ti  Ti10  1  0.50000000  0.00000000  0.37557736  1
  Ti  Ti11  1  0.00000000  0.50000000  0.62442264  1
  F  F12  1  0.20950044  0.20860191  0.38356104  1
  F  F13  1  0.79049956  0.79139809  0.38356104  1
  F  F14  1  0.20860191  0.79049956  0.61643896  1
  F  F15  1  0.29049956  0.70860191  0.11643896  1
  F  F16  1  0.79139809  0.20950044  0.61643896  1
  F  F17  1  0.70950044  0.29139809  0.11643896  1
  F  F18  1  0.29139809  0.29049956  0.88356104  1
  F  F19  1  0.70860191  0.70950044  0.88356104  1
  F  F20  1  0.14733176  0.29886391  0.19751925  1
  F  F21  1  0.85266824  0.70113609  0.19751925  1
  F  F22  1  0.29886391  0.85266824  0.80248075  1
  F  F23  1  0.35266824  0.79886391  0.30248075  1
  F  F24  1  0.70113609  0.14733176  0.80248075  1
  F  F25  1  0.64733176  0.20113609  0.30248075  1
  F  F26  1  0.20113609  0.35266824  0.69751925  1
  F  F27  1  0.79886391  0.64733176  0.69751925  1
  F  F28  1  0.15025703  0.28598937  0.05103866  1
  F  F29  1  0.84974297  0.71401063  0.05103866  1
  F  F30  1  0.28598937  0.84974297  0.94896134  1
  F  F31  1  0.34974297  0.78598937  0.44896134  1
  F  F32  1  0.71401063  0.15025703  0.94896134  1
  F  F33  1  0.65025703  0.21401063  0.44896134  1
  F  F34  1  0.21401063  0.34974297  0.55103866  1
  F  F35  1  0.78598937  0.65025703  0.55103866  1
