# generated using pymatgen
data_Ni16GeP5
_symmetry_space_group_name_H-M   'P 1'
_cell_length_a   6.58097621
_cell_length_b   6.65841132
_cell_length_c   6.74945347
_cell_angle_alpha   98.64316688
_cell_angle_beta   102.53516221
_cell_angle_gamma   119.23581725
_symmetry_Int_Tables_number   1
_chemical_formula_structural   Ni16GeP5
_chemical_formula_sum   'Ni16 Ge1 P5'
_cell_volume   240.25472184
_cell_formula_units_Z   1
loop_
 _symmetry_equiv_pos_site_id
 _symmetry_equiv_pos_as_xyz
  1  'x, y, z'
loop_
 _atom_site_type_symbol
 _atom_site_label
 _atom_site_symmetry_multiplicity
 _atom_site_fract_x
 _atom_site_fract_y
 _atom_site_fract_z
 _atom_site_occupancy
  Ni  Ni0  1  0.27870639  0.64534489  0.29758676  1
  Ni  Ni1  1  0.72129361  0.35465511  0.70241324  1
  Ni  Ni2  1  0.58568465  0.72878552  0.10645476  1
  Ni  Ni3  1  0.41431535  0.27121448  0.89354524  1
  Ni  Ni4  1  0.55517186  0.44438054  0.33552497  1
  Ni  Ni5  1  0.44482814  0.55561946  0.66447503  1
  Ni  Ni6  1  0.61370628  0.08367088  0.35107114  1
  Ni  Ni7  1  0.38629372  0.91632912  0.64892886  1
  Ni  Ni8  1  0.20606191  0.00416025  0.10331152  1
  Ni  Ni9  1  0.79393809  0.99583975  0.89668848  1
  Ni  Ni10  1  0.04467665  0.20418663  0.29903290  1
  Ni  Ni11  1  0.95532335  0.79581337  0.70096710  1
  Ni  Ni12  1  0.82618098  0.37504696  0.10201842  1
  Ni  Ni13  1  0.17381902  0.62495304  0.89798158  1
  Ni  Ni14  1  0.01791149  0.19723989  0.66268396  1
  Ni  Ni15  1  0.98208851  0.80276011  0.33731604  1
  Ge  Ge16  1  -0.00000000  0.50000000  0.50000000  1
  P  P17  1  0.17352207  0.33580977  0.03251545  1
  P  P18  1  0.82647793  0.66419023  0.96748455  1
  P  P19  1  0.33034834  0.16927331  0.49913373  1
  P  P20  1  0.66965166  0.83072669  0.50086627  1
  P  P21  1  0.50000000  -0.00000000  -0.00000000  1
