# generated using pymatgen
data_NaGdCu2F8
_symmetry_space_group_name_H-M   'P 1'
_cell_length_a   5.48065442
_cell_length_b   5.48065442
_cell_length_c   6.49037970
_cell_angle_alpha   114.97442187
_cell_angle_beta   114.97442187
_cell_angle_gamma   90.00000000
_symmetry_Int_Tables_number   1
_chemical_formula_structural   NaGdCu2F8
_chemical_formula_sum   'Na1 Gd1 Cu2 F8'
_cell_volume   156.38659962
_cell_formula_units_Z   1
loop_
 _symmetry_equiv_pos_site_id
 _symmetry_equiv_pos_as_xyz
  1  'x, y, z'
loop_
 _atom_site_type_symbol
 _atom_site_label
 _atom_site_symmetry_multiplicity
 _atom_site_fract_x
 _atom_site_fract_y
 _atom_site_fract_z
 _atom_site_occupancy
  Na  Na0  1  0.50000000  0.50000000  -0.00000000  1
  Gd  Gd1  1  0.00000000  -0.00000000  -0.00000000  1
  Cu  Cu2  1  0.25000000  0.75000000  0.50000000  1
  Cu  Cu3  1  0.75000000  0.25000000  0.50000000  1
  F  F4  1  0.29095197  0.43476694  0.24573141  1
  F  F5  1  0.95477944  0.81096447  0.24573141  1
  F  F6  1  0.81096447  0.29095197  0.24573141  1
  F  F7  1  0.70904803  0.18903553  0.75426859  1
  F  F8  1  0.43476694  0.95477944  0.24573141  1
  F  F9  1  0.04522056  0.56523306  0.75426859  1
  F  F10  1  0.18903553  0.04522056  0.75426859  1
  F  F11  1  0.56523306  0.70904803  0.75426859  1
