# generated using pymatgen
data_Lu5BiPd2
_symmetry_space_group_name_H-M   'P 1'
_cell_length_a   7.60847331
_cell_length_b   7.60847331
_cell_length_c   8.72317847
_cell_angle_alpha   115.85573268
_cell_angle_beta   115.85573268
_cell_angle_gamma   90.00000000
_symmetry_Int_Tables_number   1
_chemical_formula_structural   Lu5BiPd2
_chemical_formula_sum   'Lu10 Bi2 Pd4'
_cell_volume   397.49640746
_cell_formula_units_Z   2
loop_
 _symmetry_equiv_pos_site_id
 _symmetry_equiv_pos_as_xyz
  1  'x, y, z'
loop_
 _atom_site_type_symbol
 _atom_site_label
 _atom_site_symmetry_multiplicity
 _atom_site_fract_x
 _atom_site_fract_y
 _atom_site_fract_z
 _atom_site_occupancy
  Lu  Lu0  1  -0.00000000  -0.00000000  -0.00000000  1
  Lu  Lu1  1  0.50000000  0.50000000  -0.00000000  1
  Lu  Lu2  1  0.29517540  0.79517540  0.27843192  1
  Lu  Lu3  1  0.70482460  0.20482460  0.72156808  1
  Lu  Lu4  1  0.98325652  0.48325652  0.27843192  1
  Lu  Lu5  1  0.48325652  0.29517540  0.27843192  1
  Lu  Lu6  1  0.20482460  0.01674348  0.72156808  1
  Lu  Lu7  1  0.01674348  0.51674348  0.72156808  1
  Lu  Lu8  1  0.51674348  0.70482460  0.72156808  1
  Lu  Lu9  1  0.79517540  0.98325652  0.27843192  1
  Bi  Bi10  1  0.25000000  0.25000000  0.50000000  1
  Bi  Bi11  1  0.75000000  0.75000000  0.50000000  1
  Pd  Pd12  1  0.63798620  0.13798620  1.00000000  1
  Pd  Pd13  1  0.36201380  0.86201380  0.00000000  1
  Pd  Pd14  1  0.86201380  0.63798620  -0.00000000  1
  Pd  Pd15  1  0.13798620  0.36201380  -0.00000000  1
