# generated using pymatgen
data_Na2Mn3(PO4)3
_symmetry_space_group_name_H-M   'P 1'
_cell_length_a   6.74999567
_cell_length_b   8.79070324
_cell_length_c   8.79070324
_cell_angle_alpha   92.68284441
_cell_angle_beta   107.22068774
_cell_angle_gamma   107.22068774
_symmetry_Int_Tables_number   1
_chemical_formula_structural   Na2Mn3(PO4)3
_chemical_formula_sum   'Na4 Mn6 P6 O24'
_cell_volume   470.70133183
_cell_formula_units_Z   2
loop_
 _symmetry_equiv_pos_site_id
 _symmetry_equiv_pos_as_xyz
  1  'x, y, z'
loop_
 _atom_site_type_symbol
 _atom_site_label
 _atom_site_symmetry_multiplicity
 _atom_site_fract_x
 _atom_site_fract_y
 _atom_site_fract_z
 _atom_site_occupancy
  Na  Na0  1  0.75000000  0.98570200  0.01429800  1
  Na  Na1  1  0.25000000  0.01429800  0.98570200  1
  Na  Na2  1  0.00000000  0.50000000  0.50000000  1
  Na  Na3  1  0.50000000  0.50000000  0.50000000  1
  Mn  Mn4  1  0.75000000  0.26851938  0.73148062  1
  Mn  Mn5  1  0.25000000  0.73148062  0.26851938  1
  Mn  Mn6  1  0.63586271  0.38105202  0.06271043  1
  Mn  Mn7  1  0.36413729  0.61894798  0.93728957  1
  Mn  Mn8  1  0.86413729  0.93728957  0.61894798  1
  Mn  Mn9  1  0.13586271  0.06271043  0.38105202  1
  P  P10  1  0.87531791  0.65675186  0.87511279  1
  P  P11  1  0.12468209  0.34324814  0.12488721  1
  P  P12  1  0.62468209  0.12488721  0.34324814  1
  P  P13  1  0.37531791  0.87511279  0.65675186  1
  P  P14  1  0.75000000  0.71645452  0.28354548  1
  P  P15  1  0.25000000  0.28354548  0.71645452  1
  O  O16  1  0.75358985  0.54085825  0.26325077  1
  O  O17  1  0.24641015  0.45914175  0.73674923  1
  O  O18  1  0.74641015  0.73674923  0.45914175  1
  O  O19  1  0.25358985  0.26325077  0.54085825  1
  O  O20  1  0.68976915  0.59926330  0.95342297  1
  O  O21  1  0.31023085  0.40073670  0.04657703  1
  O  O22  1  0.81023085  0.04657703  0.40073670  1
  O  O23  1  0.18976915  0.95342297  0.59926330  1
  O  O24  1  0.89788249  0.32352736  0.99636189  1
  O  O25  1  0.10211751  0.67647264  0.00363811  1
  O  O26  1  0.60211751  0.00363811  0.67647264  1
  O  O27  1  0.39788249  0.99636189  0.32352736  1
  O  O28  1  0.54062730  0.74414854  0.17005357  1
  O  O29  1  0.45937270  0.25585146  0.82994643  1
  O  O30  1  0.95937270  0.82994643  0.25585146  1
  O  O31  1  0.04062730  0.17005357  0.74414854  1
  O  O32  1  0.82593191  0.53125585  0.72845362  1
  O  O33  1  0.17406809  0.46874415  0.27154638  1
  O  O34  1  0.67406809  0.27154638  0.46874415  1
  O  O35  1  0.32593191  0.72845362  0.53125585  1
  O  O36  1  0.88430992  0.82753355  0.82934939  1
  O  O37  1  0.11569008  0.17246645  0.17065061  1
  O  O38  1  0.61569008  0.17065061  0.17246645  1
  O  O39  1  0.38430992  0.82934939  0.82753355  1
