# generated using pymatgen
data_Sm8Ni18P11
_symmetry_space_group_name_H-M   'P 1'
_cell_length_a   3.88853739
_cell_length_b   18.13731444
_cell_length_c   18.13731444
_cell_angle_alpha   120.00000221
_cell_angle_beta   90.00000000
_cell_angle_gamma   90.00000000
_symmetry_Int_Tables_number   1
_chemical_formula_structural   Sm8Ni18P11
_chemical_formula_sum   'Sm16 Ni36 P22'
_cell_volume   1107.80383958
_cell_formula_units_Z   2
loop_
 _symmetry_equiv_pos_site_id
 _symmetry_equiv_pos_as_xyz
  1  'x, y, z'
loop_
 _atom_site_type_symbol
 _atom_site_label
 _atom_site_symmetry_multiplicity
 _atom_site_fract_x
 _atom_site_fract_y
 _atom_site_fract_z
 _atom_site_occupancy
  Sm  Sm0  1  0.50000000  0.52289149  0.04578298  1
  Sm  Sm1  1  0.50000000  0.52289149  0.47710851  1
  Sm  Sm2  1  0.50000000  0.95421702  0.47710851  1
  Sm  Sm3  1  0.50000000  0.73976977  0.47953955  1
  Sm  Sm4  1  0.50000000  0.73976977  0.26023023  1
  Sm  Sm5  1  0.50000000  0.52046045  0.26023023  1
  Sm  Sm6  1  0.00000000  0.22054064  0.44108128  1
  Sm  Sm7  1  0.00000000  0.22054064  0.77945936  1
  Sm  Sm8  1  -0.00000000  0.55891872  0.77945936  1
  Sm  Sm9  1  -0.00000000  0.99871962  0.21653643  1
  Sm  Sm10  1  -0.00000000  0.21781681  0.00128038  1
  Sm  Sm11  1  -0.00000000  0.21781681  0.21653643  1
  Sm  Sm12  1  0.00000000  0.78346357  0.78218319  1
  Sm  Sm13  1  0.00000000  0.78346357  0.00128038  1
  Sm  Sm14  1  0.00000000  0.99871962  0.78218319  1
  Sm  Sm15  1  0.00000000  -0.00000000  0.00000000  1
  Ni  Ni16  1  0.50000000  0.28953199  0.57906398  1
  Ni  Ni17  1  0.50000000  0.28953199  0.71046801  1
  Ni  Ni18  1  0.50000000  0.42093602  0.71046801  1
  Ni  Ni19  1  0.50000000  0.92392496  0.29376733  1
  Ni  Ni20  1  0.50000000  0.36984237  0.07607504  1
  Ni  Ni21  1  0.50000000  0.36984237  0.29376733  1
  Ni  Ni22  1  0.50000000  0.70623267  0.63015763  1
  Ni  Ni23  1  0.50000000  0.70623267  0.07607504  1
  Ni  Ni24  1  0.50000000  0.92392496  0.63015763  1
  Ni  Ni25  1  0.00000000  0.59993937  0.63000718  1
  Ni  Ni26  1  0.00000000  0.03006781  0.40006063  1
  Ni  Ni27  1  0.00000000  0.03006781  0.63000718  1
  Ni  Ni28  1  -0.00000000  0.36999282  0.96993219  1
  Ni  Ni29  1  -0.00000000  0.36999282  0.40006063  1
  Ni  Ni30  1  -0.00000000  0.59993937  0.96993219  1
  Ni  Ni31  1  0.00000000  0.81582547  0.63165095  1
  Ni  Ni32  1  -0.00000000  0.81582547  0.18417453  1
  Ni  Ni33  1  -0.00000000  0.36834905  0.18417453  1
  Ni  Ni34  1  -0.00000000  0.59423518  0.18847037  1
  Ni  Ni35  1  -0.00000000  0.59423518  0.40576482  1
  Ni  Ni36  1  0.00000000  0.81152963  0.40576482  1
  Ni  Ni37  1  0.50000000  0.92709347  0.85418693  1
  Ni  Ni38  1  0.50000000  0.92709347  0.07290653  1
  Ni  Ni39  1  0.50000000  0.14581307  0.07290653  1
  Ni  Ni40  1  0.50000000  0.50223828  0.63157446  1
  Ni  Ni41  1  0.50000000  0.12933618  0.49776172  1
  Ni  Ni42  1  0.50000000  0.12933618  0.63157446  1
  Ni  Ni43  1  0.50000000  0.36842554  0.87066382  1
  Ni  Ni44  1  0.50000000  0.36842554  0.49776172  1
  Ni  Ni45  1  0.50000000  0.50223828  0.87066382  1
  Ni  Ni46  1  -0.00000000  0.38391609  0.76783218  1
  Ni  Ni47  1  0.00000000  0.38391609  0.61608391  1
  Ni  Ni48  1  0.00000000  0.23216782  0.61608391  1
  Ni  Ni49  1  0.50000000  0.14442111  0.28884222  1
  Ni  Ni50  1  0.50000000  0.14442111  0.85557889  1
  Ni  Ni51  1  0.50000000  0.71115778  0.85557889  1
  P  P52  1  0.00000000  0.66666700  0.33333300  1
  P  P53  1  0.50000000  0.85520506  0.71041013  1
  P  P54  1  0.50000000  0.85520506  0.14479494  1
  P  P55  1  0.50000000  0.28958987  0.14479494  1
  P  P56  1  0.00000000  0.88189427  0.33243103  1
  P  P57  1  -0.00000000  0.45053677  0.11810573  1
  P  P58  1  -0.00000000  0.45053677  0.33243103  1
  P  P59  1  0.00000000  0.66756897  0.54946323  1
  P  P60  1  -0.00000000  0.66756897  0.11810573  1
  P  P61  1  0.00000000  0.88189427  0.54946323  1
  P  P62  1  0.00000000  0.45276831  0.90553662  1
  P  P63  1  0.00000000  0.45276831  0.54723169  1
  P  P64  1  -0.00000000  0.09446338  0.54723169  1
  P  P65  1  0.50000000  0.64218243  0.71392931  1
  P  P66  1  0.50000000  0.07174687  0.35781757  1
  P  P67  1  0.50000000  0.07174687  0.71392931  1
  P  P68  1  0.50000000  0.28607069  0.92825313  1
  P  P69  1  0.50000000  0.28607069  0.35781757  1
  P  P70  1  0.50000000  0.64218243  0.92825313  1
  P  P71  1  0.50000000  0.07190038  0.14380076  1
  P  P72  1  0.50000000  0.07190038  0.92809962  1
  P  P73  1  0.50000000  0.85619924  0.92809962  1
