# generated using pymatgen
data_Nd6Al5Fe9
_symmetry_space_group_name_H-M   'P 1'
_cell_length_a   8.15169455
_cell_length_b   8.15169455
_cell_length_c   13.05756321
_cell_angle_alpha   108.18851676
_cell_angle_beta   108.18851676
_cell_angle_gamma   90.00000000
_symmetry_Int_Tables_number   1
_chemical_formula_structural   Nd6Al5Fe9
_chemical_formula_sum   'Nd12 Al10 Fe18'
_cell_volume   778.55871185
_cell_formula_units_Z   2
loop_
 _symmetry_equiv_pos_site_id
 _symmetry_equiv_pos_as_xyz
  1  'x, y, z'
loop_
 _atom_site_type_symbol
 _atom_site_label
 _atom_site_symmetry_multiplicity
 _atom_site_fract_x
 _atom_site_fract_y
 _atom_site_fract_z
 _atom_site_occupancy
  Nd  Nd0  1  0.10589509  0.10589509  0.21179018  1
  Nd  Nd1  1  0.89410491  0.89410491  0.78820982  1
  Nd  Nd2  1  0.39410491  0.39410491  0.78820982  1
  Nd  Nd3  1  0.60589509  0.60589509  0.21179018  1
  Nd  Nd4  1  0.35695012  0.85695012  0.38047703  1
  Nd  Nd5  1  0.64304988  0.14304988  0.61952297  1
  Nd  Nd6  1  0.02352691  0.52352691  0.38047703  1
  Nd  Nd7  1  0.52352691  0.35695012  0.38047703  1
  Nd  Nd8  1  0.14304988  0.97647309  0.61952297  1
  Nd  Nd9  1  0.97647309  0.47647309  0.61952297  1
  Nd  Nd10  1  0.47647309  0.64304988  0.61952297  1
  Nd  Nd11  1  0.85695012  0.02352691  0.38047703  1
  Al  Al12  1  0.71276150  0.21276150  0.18728467  1
  Al  Al13  1  0.28723850  0.78723850  0.81271533  1
  Al  Al14  1  0.47452317  0.97452317  0.18728467  1
  Al  Al15  1  0.97452317  0.71276150  0.18728467  1
  Al  Al16  1  0.78723850  0.52547683  0.81271533  1
  Al  Al17  1  0.52547683  0.02547683  0.81271533  1
  Al  Al18  1  0.02547683  0.28723850  0.81271533  1
  Al  Al19  1  0.21276150  0.47452317  0.18728467  1
  Al  Al20  1  0.25000000  0.25000000  0.50000000  1
  Al  Al21  1  0.75000000  0.75000000  0.50000000  1
  Fe  Fe22  1  0.23289534  0.73289534  0.11386016  1
  Fe  Fe23  1  0.76710466  0.26710466  0.88613984  1
  Fe  Fe24  1  0.88096482  0.38096482  0.11386016  1
  Fe  Fe25  1  0.38096482  0.23289534  0.11386016  1
  Fe  Fe26  1  0.26710466  0.11903518  0.88613984  1
  Fe  Fe27  1  0.11903518  0.61903518  0.88613984  1
  Fe  Fe28  1  0.61903518  0.76710466  0.88613984  1
  Fe  Fe29  1  0.73289534  0.88096482  0.11386016  1
  Fe  Fe30  1  0.00000000  0.50000000  -0.00000000  1
  Fe  Fe31  1  0.50000000  -0.00000000  -0.00000000  1
  Fe  Fe32  1  0.06829873  0.21128298  1.00000000  1
  Fe  Fe33  1  0.93170127  0.78871702  0.00000000  1
  Fe  Fe34  1  0.78871702  0.06829873  0.00000000  1
  Fe  Fe35  1  0.43170127  0.71128298  1.00000000  1
  Fe  Fe36  1  0.21128298  0.93170127  1.00000000  1
  Fe  Fe37  1  0.56829873  0.28871702  0.00000000  1
  Fe  Fe38  1  0.71128298  0.56829873  1.00000000  1
  Fe  Fe39  1  0.28871702  0.43170127  0.00000000  1
