# generated using pymatgen
data_Na2MgGaF7
_symmetry_space_group_name_H-M   'P 1'
_cell_length_a   7.23353479
_cell_length_b   7.34836969
_cell_length_c   7.34836969
_cell_angle_alpha   61.53950580
_cell_angle_beta   60.51560903
_cell_angle_gamma   60.51560903
_symmetry_Int_Tables_number   1
_chemical_formula_structural   Na2MgGaF7
_chemical_formula_sum   'Na4 Mg2 Ga2 F14'
_cell_volume   281.47350733
_cell_formula_units_Z   2
loop_
 _symmetry_equiv_pos_site_id
 _symmetry_equiv_pos_as_xyz
  1  'x, y, z'
loop_
 _atom_site_type_symbol
 _atom_site_label
 _atom_site_symmetry_multiplicity
 _atom_site_fract_x
 _atom_site_fract_y
 _atom_site_fract_z
 _atom_site_occupancy
  Na  Na0  1  0.24799159  0.61515147  0.88886535  1
  Na  Na1  1  0.75200841  0.11113465  0.38484853  1
  Na  Na2  1  0.25077492  0.61188534  0.38811466  1
  Na  Na3  1  0.74922508  0.61188534  0.38811466  1
  Mg  Mg4  1  0.25020926  0.11234979  0.88765021  1
  Mg  Mg5  1  0.74979074  0.11234979  0.88765021  1
  Ga  Ga6  1  0.24961105  0.11235376  0.38842413  1
  Ga  Ga7  1  0.75038895  0.61157587  0.88764624  1
  F  F8  1  0.34055274  0.79466266  0.52423186  1
  F  F9  1  0.65944726  0.47576814  0.20533734  1
  F  F10  1  0.55972936  0.06474418  0.20545832  1
  F  F11  1  0.44027064  0.79454168  0.93525582  1
  F  F12  1  0.82993185  0.79454168  0.93525582  1
  F  F13  1  0.17006815  0.06474418  0.20545832  1
  F  F14  1  0.33027742  0.15962174  0.56992824  1
  F  F15  1  0.66972258  0.43007176  0.84037826  1
  F  F16  1  0.05982740  0.43007176  0.84037826  1
  F  F17  1  0.94017260  0.15962174  0.56992824  1
  F  F18  1  -0.00000000  0.01143480  0.98856520  1
  F  F19  1  0.15858656  0.43061534  0.25221154  1
  F  F20  1  0.84141344  0.74778846  0.56938466  1
  F  F21  1  0.50000000  0.21258586  0.78741414  1
