# generated using pymatgen
data_Te2Mo2W(SeS)2
_symmetry_space_group_name_H-M   'P 1'
_cell_length_a   3.35191105
_cell_length_b   3.35187561
_cell_length_c   30.99364524
_cell_angle_alpha   89.99991402
_cell_angle_beta   90.00001368
_cell_angle_gamma   119.99808875
_symmetry_Int_Tables_number   1
_chemical_formula_structural   Te2Mo2W(SeS)2
_chemical_formula_sum   'Te2 Mo2 W1 Se2 S2'
_cell_volume   301.57270480
_cell_formula_units_Z   1
loop_
 _symmetry_equiv_pos_site_id
 _symmetry_equiv_pos_as_xyz
  1  'x, y, z'
loop_
 _atom_site_type_symbol
 _atom_site_label
 _atom_site_symmetry_multiplicity
 _atom_site_fract_x
 _atom_site_fract_y
 _atom_site_fract_z
 _atom_site_occupancy
  Te  Te0  1  0.33334936  0.66670212  0.40843196  1
  Te  Te1  1  0.33334658  0.66669649  0.28542130  1
  Mo  Mo2  1  0.33329012  0.66658929  0.11563901  1
  Mo  Mo3  1  0.33331240  0.66662831  0.57837858  1
  W  W4  1  0.66669002  0.33337359  0.34695071  1
  Se  Se5  1  0.66664655  0.33328971  0.52461261  1
  Se  Se6  1  0.66665323  0.33330345  0.63210934  1
  S  S7  1  0.66665725  0.33331045  0.06671274  1
  S  S8  1  0.66665550  0.33330661  0.16458475  1
