# generated using pymatgen
data_Na2Eu2B2O7
_symmetry_space_group_name_H-M   'P 1'
_cell_length_a   6.46350284
_cell_length_b   10.90968511
_cell_length_c   10.53151443
_cell_angle_alpha   117.62542096
_cell_angle_beta   90.00000000
_cell_angle_gamma   90.00000000
_symmetry_Int_Tables_number   1
_chemical_formula_structural   Na2Eu2B2O7
_chemical_formula_sum   'Na8 Eu8 B8 O28'
_cell_volume   657.96637168
_cell_formula_units_Z   4
loop_
 _symmetry_equiv_pos_site_id
 _symmetry_equiv_pos_as_xyz
  1  'x, y, z'
loop_
 _atom_site_type_symbol
 _atom_site_label
 _atom_site_symmetry_multiplicity
 _atom_site_fract_x
 _atom_site_fract_y
 _atom_site_fract_z
 _atom_site_occupancy
  Na  Na0  1  0.26274943  0.88966045  0.95305170  1
  Na  Na1  1  0.73725057  0.11033955  0.04694830  1
  Na  Na2  1  0.76274943  0.11033955  0.54694830  1
  Na  Na3  1  0.23725057  0.88966045  0.45305170  1
  Na  Na4  1  0.94258502  0.97726807  0.73768682  1
  Na  Na5  1  0.05741498  0.02273193  0.26231318  1
  Na  Na6  1  0.44258502  0.02273193  0.76231318  1
  Na  Na7  1  0.55741498  0.97726807  0.23768682  1
  Eu  Eu8  1  0.95769074  0.48289969  0.68156722  1
  Eu  Eu9  1  0.04230926  0.51710031  0.31843278  1
  Eu  Eu10  1  0.45769074  0.51710031  0.81843278  1
  Eu  Eu11  1  0.54230926  0.48289969  0.18156722  1
  Eu  Eu12  1  0.58340809  0.68550941  0.59021249  1
  Eu  Eu13  1  0.41659191  0.31449059  0.40978751  1
  Eu  Eu14  1  0.08340809  0.31449059  0.90978751  1
  Eu  Eu15  1  0.91659191  0.68550941  0.09021249  1
  B  B16  1  0.74903678  0.81719538  0.91948821  1
  B  B17  1  0.25096322  0.18280462  0.08051179  1
  B  B18  1  0.24903678  0.18280462  0.58051179  1
  B  B19  1  0.75096322  0.81719538  0.41948821  1
  B  B20  1  0.65284256  0.29059173  0.85008075  1
  B  B21  1  0.34715744  0.70940827  0.14991925  1
  B  B22  1  0.15284256  0.70940827  0.64991925  1
  B  B23  1  0.84715744  0.29059173  0.35008075  1
  O  O24  1  0.75686175  0.34698468  0.77217038  1
  O  O25  1  0.24313825  0.65301532  0.22782962  1
  O  O26  1  0.25686175  0.65301532  0.72782962  1
  O  O27  1  0.74313825  0.34698468  0.27217038  1
  O  O28  1  0.96324848  0.65240821  0.58887660  1
  O  O29  1  0.03675152  0.34759179  0.41112340  1
  O  O30  1  0.46324848  0.34759179  0.91112340  1
  O  O31  1  0.53675152  0.65240821  0.08887660  1
  O  O32  1  0.65116862  0.87346237  0.84214819  1
  O  O33  1  0.34883138  0.12653763  0.15785181  1
  O  O34  1  0.15116862  0.12653763  0.65785181  1
  O  O35  1  0.84883138  0.87346237  0.34214819  1
  O  O36  1  0.62217877  0.47369259  0.59612231  1
  O  O37  1  0.37782123  0.52630741  0.40387769  1
  O  O38  1  0.12217877  0.52630741  0.90387769  1
  O  O39  1  0.87782123  0.47369259  0.09612231  1
  O  O40  1  0.76233588  0.67260649  0.86590418  1
  O  O41  1  0.23766412  0.32739351  0.13409582  1
  O  O42  1  0.26233588  0.32739351  0.63409582  1
  O  O43  1  0.73766412  0.67260649  0.36590418  1
  O  O44  1  0.24156774  0.81717182  0.63626408  1
  O  O45  1  0.75843226  0.18282818  0.36373592  1
  O  O46  1  0.74156774  0.18282818  0.86373592  1
  O  O47  1  0.25843226  0.81717182  0.13626408  1
  O  O48  1  0.66361095  0.89729803  0.55336918  1
  O  O49  1  0.33638905  0.10270197  0.44663082  1
  O  O50  1  0.16361095  0.10270197  0.94663082  1
  O  O51  1  0.83638905  0.89729803  0.05336918  1
