# generated using pymatgen
data_LuIn2Pd
_symmetry_space_group_name_H-M   'P 1'
_cell_length_a   9.12180970
_cell_length_b   10.74665408
_cell_length_c   10.74665408
_cell_angle_alpha   79.62340636
_cell_angle_beta   64.88716235
_cell_angle_gamma   64.88716235
_symmetry_Int_Tables_number   1
_chemical_formula_structural   LuIn2Pd
_chemical_formula_sum   'Lu10 In20 Pd10'
_cell_volume   863.73249233
_cell_formula_units_Z   10
loop_
 _symmetry_equiv_pos_site_id
 _symmetry_equiv_pos_as_xyz
  1  'x, y, z'
loop_
 _atom_site_type_symbol
 _atom_site_label
 _atom_site_symmetry_multiplicity
 _atom_site_fract_x
 _atom_site_fract_y
 _atom_site_fract_z
 _atom_site_occupancy
  Lu  Lu0  1  0.66987644  0.71936662  0.71936662  1
  Lu  Lu1  1  0.10860967  0.28063338  0.28063338  1
  Lu  Lu2  1  0.38924305  0.28063338  0.71936662  1
  Lu  Lu3  1  0.38924305  0.71936662  0.28063338  1
  Lu  Lu4  1  0.67667653  -0.00000000  0.40289060  1
  Lu  Lu5  1  0.07956713  0.00000000  0.59710940  1
  Lu  Lu6  1  0.07956713  0.59710940  0.00000000  1
  Lu  Lu7  1  0.67667653  0.40289060  0.00000000  1
  Lu  Lu8  1  0.45664877  0.00000000  -0.00000000  1
  Lu  Lu9  1  0.99505759  0.00000000  -0.00000000  1
  In  In10  1  0.26867969  0.20820512  0.50716623  1
  In  In11  1  0.98405104  0.79179488  0.49283377  1
  In  In12  1  0.77584592  0.49283377  0.20820512  1
  In  In13  1  0.26867969  0.50716623  0.20820512  1
  In  In14  1  0.47688481  0.50716623  0.79179488  1
  In  In15  1  0.98405104  0.49283377  0.79179488  1
  In  In16  1  0.77584592  0.20820512  0.49283377  1
  In  In17  1  0.47688481  0.79179488  0.50716623  1
  In  In18  1  0.24826148  0.61725573  0.61725573  1
  In  In19  1  0.48277293  0.38274427  0.38274427  1
  In  In20  1  0.86551720  0.38274427  0.61725573  1
  In  In21  1  0.86551720  0.61725573  0.38274427  1
  In  In22  1  0.35779728  0.00000000  0.73652033  1
  In  In23  1  0.09431760  -0.00000000  0.26347967  1
  In  In24  1  0.09431760  0.26347967  0.00000000  1
  In  In25  1  0.35779728  0.73652033  -0.00000000  1
  In  In26  1  0.87993423  0.83946554  0.83946554  1
  In  In27  1  0.55886532  0.16053446  0.16053446  1
  In  In28  1  0.71939977  0.16053446  0.83946554  1
  In  In29  1  0.71939977  0.83946554  0.16053446  1
  Pd  Pd30  1  0.11493415  0.50000000  0.50000000  1
  Pd  Pd31  1  0.61493415  0.50000000  0.50000000  1
  Pd  Pd32  1  0.37066062  -0.00000000  0.32236268  1
  Pd  Pd33  1  0.69302330  0.00000000  0.67763732  1
  Pd  Pd34  1  0.69302330  0.67763732  -0.00000000  1
  Pd  Pd35  1  0.37066062  0.32236268  0.00000000  1
  Pd  Pd36  1  0.23658630  0.78838305  0.78838305  1
  Pd  Pd37  1  0.81335240  0.21161695  0.21161695  1
  Pd  Pd38  1  0.02496935  0.21161695  0.78838305  1
  Pd  Pd39  1  0.02496935  0.78838305  0.21161695  1
