# generated using pymatgen
data_Na4Gd2(IrO4)3
_symmetry_space_group_name_H-M   'P 1'
_cell_length_a   3.22017452
_cell_length_b   9.55988701
_cell_length_c   9.56567829
_cell_angle_alpha   119.57781610
_cell_angle_beta   89.97614497
_cell_angle_gamma   90.01206526
_symmetry_Int_Tables_number   1
_chemical_formula_structural   Na4Gd2(IrO4)3
_chemical_formula_sum   'Na4 Gd2 Ir3 O12'
_cell_volume   256.10050553
_cell_formula_units_Z   1
loop_
 _symmetry_equiv_pos_site_id
 _symmetry_equiv_pos_as_xyz
  1  'x, y, z'
loop_
 _atom_site_type_symbol
 _atom_site_label
 _atom_site_symmetry_multiplicity
 _atom_site_fract_x
 _atom_site_fract_y
 _atom_site_fract_z
 _atom_site_occupancy
  Na  Na0  1  0.49987605  0.30367113  0.30373921  1
  Na  Na1  1  0.49981658  0.00075244  0.69771907  1
  Na  Na2  1  0.49992724  0.69756128  0.00066315  1
  Na  Na3  1  0.99995894  0.00016518  0.00025943  1
  Gd  Gd4  1  0.50015839  0.66416677  0.33132425  1
  Gd  Gd5  1  0.49999728  0.33195861  0.66447402  1
  Ir  Ir6  1  0.99977984  0.66971632  0.66974039  1
  Ir  Ir7  1  0.99987422  0.99954388  0.33202286  1
  Ir  Ir8  1  0.00013771  0.33200563  0.99936929  1
  O  O9  1  0.49987638  0.54188649  0.54181264  1
  O  O10  1  0.49991501  0.99844567  0.45665081  1
  O  O11  1  0.50005148  0.45666989  0.99859172  1
  O  O12  1  0.99980674  0.75907551  0.21770068  1
  O  O13  1  0.00013768  0.45813745  0.23942078  1
  O  O14  1  0.00020848  0.54290413  0.78072416  1
  O  O15  1  0.99975708  0.78054207  0.54302152  1
  O  O16  1  0.00056821  0.21807026  0.75928431  1
  O  O17  1  0.00033701  0.23972531  0.45831800  1
  O  O18  1  0.49973696  0.80224538  0.80259009  1
  O  O19  1  0.49972750  0.00088608  0.20221455  1
  O  O20  1  0.50035122  0.20187052  0.00035909  1
