# generated using pymatgen
data_Lu4CdNi
_symmetry_space_group_name_H-M   'P 1'
_cell_length_a   9.33982614
_cell_length_b   9.33982614
_cell_length_c   9.33982614
_cell_angle_alpha   60.00000000
_cell_angle_beta   60.00000000
_cell_angle_gamma   60.00000000
_symmetry_Int_Tables_number   1
_chemical_formula_structural   Lu4CdNi
_chemical_formula_sum   'Lu16 Cd4 Ni4'
_cell_volume   576.10464689
_cell_formula_units_Z   4
loop_
 _symmetry_equiv_pos_site_id
 _symmetry_equiv_pos_as_xyz
  1  'x, y, z'
loop_
 _atom_site_type_symbol
 _atom_site_label
 _atom_site_symmetry_multiplicity
 _atom_site_fract_x
 _atom_site_fract_y
 _atom_site_fract_z
 _atom_site_occupancy
  Lu  Lu0  1  0.65127980  0.65127980  0.65127980  1
  Lu  Lu1  1  0.04616060  0.65127980  0.65127980  1
  Lu  Lu2  1  0.65127980  0.04616060  0.65127980  1
  Lu  Lu3  1  0.65127980  0.65127980  0.04616060  1
  Lu  Lu4  1  0.81090308  0.81090308  0.18909692  1
  Lu  Lu5  1  0.18909692  0.18909692  0.81090308  1
  Lu  Lu6  1  0.81090308  0.18909692  0.81090308  1
  Lu  Lu7  1  0.18909692  0.81090308  0.18909692  1
  Lu  Lu8  1  0.18909692  0.81090308  0.81090308  1
  Lu  Lu9  1  0.81090308  0.18909692  0.18909692  1
  Lu  Lu10  1  0.43676694  0.43676694  0.06323306  1
  Lu  Lu11  1  0.06323306  0.06323306  0.43676694  1
  Lu  Lu12  1  0.43676694  0.06323306  0.43676694  1
  Lu  Lu13  1  0.06323306  0.43676694  0.06323306  1
  Lu  Lu14  1  0.06323306  0.43676694  0.43676694  1
  Lu  Lu15  1  0.43676694  0.06323306  0.06323306  1
  Cd  Cd16  1  0.41825602  0.41825602  0.41825602  1
  Cd  Cd17  1  0.74523195  0.41825602  0.41825602  1
  Cd  Cd18  1  0.41825602  0.74523195  0.41825602  1
  Cd  Cd19  1  0.41825602  0.41825602  0.74523195  1
  Ni  Ni20  1  0.85763106  0.85763106  0.85763106  1
  Ni  Ni21  1  0.42710683  0.85763106  0.85763106  1
  Ni  Ni22  1  0.85763106  0.42710683  0.85763106  1
  Ni  Ni23  1  0.85763106  0.85763106  0.42710683  1
