# generated using pymatgen
data_Lu2(Ga3Rh)3
_symmetry_space_group_name_H-M   'P 1'
_cell_length_a   7.53318859
_cell_length_b   7.53318859
_cell_length_c   9.47461726
_cell_angle_alpha   90.00000000
_cell_angle_beta   90.00000000
_cell_angle_gamma   119.81514015
_symmetry_Int_Tables_number   1
_chemical_formula_structural   Lu2(Ga3Rh)3
_chemical_formula_sum   'Lu4 Ga18 Rh6'
_cell_volume   466.50463965
_cell_formula_units_Z   2
loop_
 _symmetry_equiv_pos_site_id
 _symmetry_equiv_pos_as_xyz
  1  'x, y, z'
loop_
 _atom_site_type_symbol
 _atom_site_label
 _atom_site_symmetry_multiplicity
 _atom_site_fract_x
 _atom_site_fract_y
 _atom_site_fract_z
 _atom_site_occupancy
  Lu  Lu0  1  0.66962237  0.99784612  0.25000000  1
  Lu  Lu1  1  0.33037763  0.00215388  0.75000000  1
  Lu  Lu2  1  0.99784612  0.66962237  0.25000000  1
  Lu  Lu3  1  0.00215388  0.33037763  0.75000000  1
  Ga  Ga4  1  0.54952136  0.33879922  0.25000000  1
  Ga  Ga5  1  0.45047864  0.66120078  0.75000000  1
  Ga  Ga6  1  0.33879922  0.54952136  0.25000000  1
  Ga  Ga7  1  0.66120078  0.45047864  0.75000000  1
  Ga  Ga8  1  0.33504805  0.00002990  0.08072344  1
  Ga  Ga9  1  0.66495195  -0.00002990  0.91927656  1
  Ga  Ga10  1  0.66495195  -0.00002990  0.58072344  1
  Ga  Ga11  1  0.00002990  0.33504805  0.41927656  1
  Ga  Ga12  1  0.33504805  0.00002990  0.41927656  1
  Ga  Ga13  1  -0.00002990  0.66495195  0.58072344  1
  Ga  Ga14  1  -0.00002990  0.66495195  0.91927656  1
  Ga  Ga15  1  0.00002990  0.33504805  0.08072344  1
  Ga  Ga16  1  0.33221970  0.33221970  0.56649929  1
  Ga  Ga17  1  0.66778030  0.66778030  0.43350071  1
  Ga  Ga18  1  0.66778030  0.66778030  0.06649929  1
  Ga  Ga19  1  0.33221970  0.33221970  0.93350071  1
  Ga  Ga20  1  0.12580783  0.12580783  0.25000000  1
  Ga  Ga21  1  0.87419217  0.87419217  0.75000000  1
  Rh  Rh22  1  0.32810128  0.67189872  -0.00000000  1
  Rh  Rh23  1  0.67189872  0.32810128  -0.00000000  1
  Rh  Rh24  1  0.67189872  0.32810128  0.50000000  1
  Rh  Rh25  1  0.32810128  0.67189872  0.50000000  1
  Rh  Rh26  1  -0.00000000  -0.00000000  -0.00000000  1
  Rh  Rh27  1  -0.00000000  -0.00000000  0.50000000  1
