# generated using pymatgen
data_Te2Mo2W(SeS)2
_symmetry_space_group_name_H-M   'P 1'
_cell_length_a   3.35201417
_cell_length_b   3.35204366
_cell_length_c   31.00676711
_cell_angle_alpha   89.99984305
_cell_angle_beta   90.00000000
_cell_angle_gamma   119.99970911
_symmetry_Int_Tables_number   1
_chemical_formula_structural   Te2Mo2W(SeS)2
_chemical_formula_sum   'Te2 Mo2 W1 Se2 S2'
_cell_volume   301.71986450
_cell_formula_units_Z   1
loop_
 _symmetry_equiv_pos_site_id
 _symmetry_equiv_pos_as_xyz
  1  'x, y, z'
loop_
 _atom_site_type_symbol
 _atom_site_label
 _atom_site_symmetry_multiplicity
 _atom_site_fract_x
 _atom_site_fract_y
 _atom_site_fract_z
 _atom_site_occupancy
  Te  Te0  1  0.66665080  0.33330060  0.51690660  1
  Te  Te1  1  0.66664500  0.33328901  0.63979526  1
  Mo  Mo2  1  0.33330500  0.66661000  0.11565807  1
  Mo  Mo3  1  0.66669149  0.33338297  0.34692624  1
  W  W4  1  0.33331033  0.66662066  0.57837454  1
  Se  Se5  1  0.33335101  0.66670303  0.40065406  1
  Se  Se6  1  0.33335285  0.66670669  0.29320517  1
  S  S7  1  0.66664824  0.33329547  0.06677506  1
  S  S8  1  0.66664628  0.33329156  0.16454600  1
