# generated using pymatgen
data_Sm11(In3Ge2)2
_symmetry_space_group_name_H-M   'P 1'
_cell_length_a   11.81742881
_cell_length_b   11.81742881
_cell_length_c   11.75326621
_cell_angle_alpha   120.18074884
_cell_angle_beta   120.18074884
_cell_angle_gamma   90.00000000
_symmetry_Int_Tables_number   1
_chemical_formula_structural   Sm11(In3Ge2)2
_chemical_formula_sum   'Sm22 In12 Ge8'
_cell_volume   1154.24804841
_cell_formula_units_Z   2
loop_
 _symmetry_equiv_pos_site_id
 _symmetry_equiv_pos_as_xyz
  1  'x, y, z'
loop_
 _atom_site_type_symbol
 _atom_site_label
 _atom_site_symmetry_multiplicity
 _atom_site_fract_x
 _atom_site_fract_y
 _atom_site_fract_z
 _atom_site_occupancy
  Sm  Sm0  1  0.16419910  0.16419910  0.32839819  1
  Sm  Sm1  1  0.83580090  0.83580090  0.67160181  1
  Sm  Sm2  1  0.31292018  0.56382534  0.62584036  1
  Sm  Sm3  1  0.68707982  0.43617466  0.37415964  1
  Sm  Sm4  1  0.31292018  0.06201501  0.62584036  1
  Sm  Sm5  1  0.06201501  0.31292018  0.62584036  1
  Sm  Sm6  1  0.68707982  0.93798499  0.37415964  1
  Sm  Sm7  1  0.93798499  0.68707982  0.37415964  1
  Sm  Sm8  1  0.56382534  0.31292018  0.62584036  1
  Sm  Sm9  1  0.43617466  0.68707982  0.37415964  1
  Sm  Sm10  1  0.09946679  0.44469673  0.19893357  1
  Sm  Sm11  1  0.90053321  0.55530327  0.80106643  1
  Sm  Sm12  1  0.09946679  0.75423684  0.19893357  1
  Sm  Sm13  1  0.75423684  0.09946679  0.19893357  1
  Sm  Sm14  1  0.90053321  0.24576316  0.80106643  1
  Sm  Sm15  1  0.24576316  0.90053321  0.80106643  1
  Sm  Sm16  1  0.44469673  0.09946679  0.19893357  1
  Sm  Sm17  1  0.55530327  0.90053321  0.80106643  1
  Sm  Sm18  1  0.33173754  0.33173754  0.00000000  1
  Sm  Sm19  1  0.66826246  0.66826246  1.00000000  1
  Sm  Sm20  1  0.66826246  0.33173754  -0.00000000  1
  Sm  Sm21  1  0.33173754  0.66826246  -0.00000000  1
  In  In22  1  0.37785660  0.37785660  0.34188384  1
  In  In23  1  0.62214340  0.62214340  0.65811616  1
  In  In24  1  0.96402723  0.96402723  0.34188384  1
  In  In25  1  0.96402723  0.37785660  0.34188384  1
  In  In26  1  0.62214340  0.03597277  0.65811616  1
  In  In27  1  0.03597277  0.03597277  0.65811616  1
  In  In28  1  0.03597277  0.62214340  0.65811616  1
  In  In29  1  0.37785660  0.96402723  0.34188384  1
  In  In30  1  0.12872458  0.12872458  0.00000000  1
  In  In31  1  0.87127542  0.87127542  1.00000000  1
  In  In32  1  0.87127542  0.12872458  -0.00000000  1
  In  In33  1  0.12872458  0.87127542  -0.00000000  1
  Ge  Ge34  1  0.15398529  0.50000000  -0.00000000  1
  Ge  Ge35  1  0.84601471  0.50000000  0.00000000  1
  Ge  Ge36  1  0.50000000  0.15398529  -0.00000000  1
  Ge  Ge37  1  0.50000000  0.84601471  0.00000000  1
  Ge  Ge38  1  0.37920259  0.37920259  0.75840518  1
  Ge  Ge39  1  0.62079741  0.62079741  0.24159482  1
  Ge  Ge40  1  0.25000000  0.75000000  0.50000000  1
  Ge  Ge41  1  0.75000000  0.25000000  0.50000000  1
