# generated using pymatgen
data_Li2Sm(NO3)5
_symmetry_space_group_name_H-M   'P 1'
_cell_length_a   9.01442767
_cell_length_b   10.54785714
_cell_length_c   11.77291130
_cell_angle_alpha   90.00000000
_cell_angle_beta   90.00000000
_cell_angle_gamma   90.00000000
_symmetry_Int_Tables_number   1
_chemical_formula_structural   Li2Sm(NO3)5
_chemical_formula_sum   'Li8 Sm4 N20 O60'
_cell_volume   1119.40249207
_cell_formula_units_Z   4
loop_
 _symmetry_equiv_pos_site_id
 _symmetry_equiv_pos_as_xyz
  1  'x, y, z'
loop_
 _atom_site_type_symbol
 _atom_site_label
 _atom_site_symmetry_multiplicity
 _atom_site_fract_x
 _atom_site_fract_y
 _atom_site_fract_z
 _atom_site_occupancy
  Li  Li0  1  0.11704861  0.22815497  0.32100040  1
  Li  Li1  1  0.88295139  0.77184503  0.67899960  1
  Li  Li2  1  0.88295139  0.77184503  0.32100040  1
  Li  Li3  1  0.38295139  0.72815497  0.17899960  1
  Li  Li4  1  0.11704861  0.22815497  0.67899960  1
  Li  Li5  1  0.61704861  0.27184503  0.82100040  1
  Li  Li6  1  0.61704861  0.27184503  0.17899960  1
  Li  Li7  1  0.38295139  0.72815497  0.82100040  1
  Sm  Sm8  1  -0.00000000  0.00000000  -0.00000000  1
  Sm  Sm9  1  0.50000000  0.50000000  0.50000000  1
  Sm  Sm10  1  -0.00000000  0.50000000  -0.00000000  1
  Sm  Sm11  1  0.50000000  0.00000000  0.50000000  1
  N  N12  1  -0.00000000  0.00000000  0.25881885  1
  N  N13  1  -0.00000000  0.00000000  0.74118115  1
  N  N14  1  0.50000000  0.50000000  0.24118115  1
  N  N15  1  0.50000000  0.50000000  0.75881885  1
  N  N16  1  0.17328739  0.24908750  -0.00000000  1
  N  N17  1  0.82671261  0.75091250  -0.00000000  1
  N  N18  1  0.32671261  0.74908750  0.50000000  1
  N  N19  1  0.67328739  0.25091250  0.50000000  1
  N  N20  1  0.40053957  0.15412331  0.29222251  1
  N  N21  1  0.59946043  0.84587669  0.70777749  1
  N  N22  1  0.59946043  0.84587669  0.29222251  1
  N  N23  1  0.09946043  0.65412331  0.20777749  1
  N  N24  1  0.40053957  0.15412331  0.70777749  1
  N  N25  1  0.90053957  0.34587669  0.79222251  1
  N  N26  1  0.90053957  0.34587669  0.20777749  1
  N  N27  1  0.09946043  0.65412331  0.79222251  1
  N  N28  1  0.70749083  0.14606346  -0.00000000  1
  N  N29  1  0.29250917  0.85393654  -0.00000000  1
  N  N30  1  0.79250917  0.64606346  0.50000000  1
  N  N31  1  0.20749083  0.35393654  0.50000000  1
  O  O32  1  0.31275789  0.11128303  0.36950724  1
  O  O33  1  0.68724211  0.88871697  0.63049276  1
  O  O34  1  0.68724211  0.88871697  0.36950724  1
  O  O35  1  0.18724211  0.61128303  0.13049276  1
  O  O36  1  0.31275789  0.11128303  0.63049276  1
  O  O37  1  0.81275789  0.38871697  0.86950724  1
  O  O38  1  0.81275789  0.38871697  0.13049276  1
  O  O39  1  0.18724211  0.61128303  0.86950724  1
  O  O40  1  0.02878118  0.24672868  -0.00000000  1
  O  O41  1  0.97121882  0.75327132  -0.00000000  1
  O  O42  1  0.47121882  0.74672868  0.50000000  1
  O  O43  1  0.52878118  0.25327132  0.50000000  1
  O  O44  1  0.03752546  0.37493276  0.20076012  1
  O  O45  1  0.96247454  0.62506724  0.79923988  1
  O  O46  1  0.96247454  0.62506724  0.20076012  1
  O  O47  1  0.46247454  0.87493276  0.29923988  1
  O  O48  1  0.03752546  0.37493276  0.79923988  1
  O  O49  1  0.53752546  0.12506724  0.70076012  1
  O  O50  1  0.53752546  0.12506724  0.29923988  1
  O  O51  1  0.46247454  0.87493276  0.70076012  1
  O  O52  1  0.23968877  0.14513380  -0.00000000  1
  O  O53  1  0.76031123  0.85486620  -0.00000000  1
  O  O54  1  0.26031123  0.64513380  0.50000000  1
  O  O55  1  0.73968877  0.35486620  0.50000000  1
  O  O56  1  0.59722918  0.21922148  -0.00000000  1
  O  O57  1  0.40277082  0.78077852  -0.00000000  1
  O  O58  1  0.90277082  0.71922148  0.50000000  1
  O  O59  1  0.09722918  0.28077852  0.50000000  1
  O  O60  1  -0.00000000  0.00000000  0.36334573  1
  O  O61  1  -0.00000000  0.00000000  0.63665427  1
  O  O62  1  0.50000000  0.50000000  0.13665427  1
  O  O63  1  0.50000000  0.50000000  0.86334573  1
  O  O64  1  0.23589315  0.35516982  -0.00000000  1
  O  O65  1  0.76410685  0.64483018  -0.00000000  1
  O  O66  1  0.26410685  0.85516982  0.50000000  1
  O  O67  1  0.73589315  0.14483018  0.50000000  1
  O  O68  1  0.26590817  0.39015732  0.40718780  1
  O  O69  1  0.73409183  0.60984268  0.59281220  1
  O  O70  1  0.73409183  0.60984268  0.40718780  1
  O  O71  1  0.23409183  0.89015732  0.09281220  1
  O  O72  1  0.26590817  0.39015732  0.59281220  1
  O  O73  1  0.76590817  0.10984268  0.90718780  1
  O  O74  1  0.76590817  0.10984268  0.09281220  1
  O  O75  1  0.23409183  0.89015732  0.90718780  1
  O  O76  1  0.05812012  0.09043854  0.20043347  1
  O  O77  1  0.94187988  0.90956146  0.79956653  1
  O  O78  1  0.94187988  0.90956146  0.20043347  1
  O  O79  1  0.44187988  0.59043854  0.29956653  1
  O  O80  1  0.05812012  0.09043854  0.79956653  1
  O  O81  1  0.55812012  0.40956146  0.70043347  1
  O  O82  1  0.55812012  0.40956146  0.29956653  1
  O  O83  1  0.44187988  0.59043854  0.70043347  1
  O  O84  1  0.35339724  0.22397690  0.21535237  1
  O  O85  1  0.64660276  0.77602310  0.78464763  1
  O  O86  1  0.64660276  0.77602310  0.21535237  1
  O  O87  1  0.14660276  0.72397690  0.28464763  1
  O  O88  1  0.35339724  0.22397690  0.78464763  1
  O  O89  1  0.85339724  0.27602310  0.71535237  1
  O  O90  1  0.85339724  0.27602310  0.28464763  1
  O  O91  1  0.14660276  0.72397690  0.71535237  1
