# generated using pymatgen
data_KLa(MoO4)2
_symmetry_space_group_name_H-M   'P 1'
_cell_length_a   7.72357771
_cell_length_b   7.72357771
_cell_length_c   8.05751032
_cell_angle_alpha   116.73315241
_cell_angle_beta   118.81805870
_cell_angle_gamma   91.59558684
_symmetry_Int_Tables_number   1
_chemical_formula_structural   KLa(MoO4)2
_chemical_formula_sum   'K2 La2 Mo4 O16'
_cell_volume   357.25815127
_cell_formula_units_Z   2
loop_
 _symmetry_equiv_pos_site_id
 _symmetry_equiv_pos_as_xyz
  1  'x, y, z'
loop_
 _atom_site_type_symbol
 _atom_site_label
 _atom_site_symmetry_multiplicity
 _atom_site_fract_x
 _atom_site_fract_y
 _atom_site_fract_z
 _atom_site_occupancy
  K  K0  1  0.45046569  0.20046569  0.25000000  1
  K  K1  1  0.54953431  0.79953431  0.75000000  1
  La  La2  1  0.02057433  0.77057433  0.25000000  1
  La  La3  1  0.97942567  0.22942567  0.75000000  1
  Mo  Mo4  1  0.95158664  0.30434759  0.26094191  1
  Mo  Mo5  1  0.04841336  0.69565241  0.73905809  1
  Mo  Mo6  1  0.54340568  0.69064473  0.23905809  1
  Mo  Mo7  1  0.45659432  0.30935527  0.76094191  1
  O  O8  1  0.67979142  0.23373070  0.06537391  1
  O  O9  1  0.32020858  0.76626930  0.93462609  1
  O  O10  1  0.66835680  0.61441751  0.43462609  1
  O  O11  1  0.33164320  0.38558249  0.56537391  1
  O  O12  1  0.75014811  0.92426482  0.36653602  1
  O  O13  1  0.24985189  0.07573518  0.63346398  1
  O  O14  1  0.05772880  0.38361209  0.13346398  1
  O  O15  1  0.94227120  0.61638791  0.86653602  1
  O  O16  1  0.05661478  0.63004672  0.47598605  1
  O  O17  1  0.94338522  0.36995328  0.52401395  1
  O  O18  1  0.65406067  0.58062873  0.02401395  1
  O  O19  1  0.34593933  0.41937127  0.97598605  1
  O  O20  1  0.98435794  0.05610246  0.19121504  1
  O  O21  1  0.01564206  0.94389754  0.80878496  1
  O  O22  1  0.36488742  0.79314290  0.30878496  1
  O  O23  1  0.63511258  0.20685710  0.69121504  1
