# generated using pymatgen
data_La3TiGa5O14
_symmetry_space_group_name_H-M   'P 1'
_cell_length_a   5.15311801
_cell_length_b   8.29361754
_cell_length_c   8.29361754
_cell_angle_alpha   120.00000539
_cell_angle_beta   90.00000000
_cell_angle_gamma   90.00000000
_symmetry_Int_Tables_number   1
_chemical_formula_structural   La3TiGa5O14
_chemical_formula_sum   'La3 Ti1 Ga5 O14'
_cell_volume   306.96488947
_cell_formula_units_Z   1
loop_
 _symmetry_equiv_pos_site_id
 _symmetry_equiv_pos_as_xyz
  1  'x, y, z'
loop_
 _atom_site_type_symbol
 _atom_site_label
 _atom_site_symmetry_multiplicity
 _atom_site_fract_x
 _atom_site_fract_y
 _atom_site_fract_z
 _atom_site_occupancy
  La  La0  1  -0.00000000  0.42369908  0.42369908  1
  La  La1  1  -0.00000000  1.00000000  0.57630092  1
  La  La2  1  -0.00000000  0.57630092  1.00000000  1
  Ti  Ti3  1  -0.00000000  0.00000000  -0.00000000  1
  Ga  Ga4  1  0.47028668  0.66666700  0.33333300  1
  Ga  Ga5  1  0.52971332  0.33333300  0.66666700  1
  Ga  Ga6  1  0.50000000  0.76106240  0.76106240  1
  Ga  Ga7  1  0.50000000  1.00000000  0.23893760  1
  Ga  Ga8  1  0.50000000  0.23893760  1.00000000  1
  O  O9  1  0.76582327  0.85793804  0.07558823  1
  O  O10  1  0.76582327  0.21765020  0.14206196  1
  O  O11  1  0.23417673  0.78234980  0.92441177  1
  O  O12  1  0.76582327  0.92441177  0.78234980  1
  O  O13  1  0.23417673  0.07558823  0.85793804  1
  O  O14  1  0.23417673  0.14206196  0.21765020  1
  O  O15  1  0.82244727  0.66666700  0.33333300  1
  O  O16  1  0.17755273  0.33333300  0.66666700  1
  O  O17  1  0.69736360  0.54411250  0.69102769  1
  O  O18  1  0.69736360  0.14691519  0.45588750  1
  O  O19  1  0.30263640  0.85308481  0.30897231  1
  O  O20  1  0.69736360  0.30897231  0.85308481  1
  O  O21  1  0.30263640  0.69102769  0.54411250  1
  O  O22  1  0.30263640  0.45588750  0.14691519  1
