# generated using pymatgen
data_Lu6Ti4Al43
_symmetry_space_group_name_H-M   'P 1'
_cell_length_a   11.04522879
_cell_length_b   11.04522879
_cell_length_c   17.65665455
_cell_angle_alpha   90.00000000
_cell_angle_beta   90.00000000
_cell_angle_gamma   120.00000231
_symmetry_Int_Tables_number   1
_chemical_formula_structural   Lu6Ti4Al43
_chemical_formula_sum   'Lu12 Ti8 Al86'
_cell_volume   1865.47087918
_cell_formula_units_Z   2
loop_
 _symmetry_equiv_pos_site_id
 _symmetry_equiv_pos_as_xyz
  1  'x, y, z'
loop_
 _atom_site_type_symbol
 _atom_site_label
 _atom_site_symmetry_multiplicity
 _atom_site_fract_x
 _atom_site_fract_y
 _atom_site_fract_z
 _atom_site_occupancy
  Lu  Lu0  1  0.46868991  0.46868991  0.90359060  1
  Lu  Lu1  1  0.53131009  0.53131009  0.09640940  1
  Lu  Lu2  1  1.00000000  0.53131009  0.90359060  1
  Lu  Lu3  1  0.53131009  0.53131009  0.40359060  1
  Lu  Lu4  1  1.00000000  0.53131009  0.59640940  1
  Lu  Lu5  1  0.00000000  0.46868991  0.09640940  1
  Lu  Lu6  1  0.46868991  0.46868991  0.59640940  1
  Lu  Lu7  1  0.00000000  0.46868991  0.40359060  1
  Lu  Lu8  1  0.53131009  1.00000000  0.90359060  1
  Lu  Lu9  1  0.46868991  0.00000000  0.09640940  1
  Lu  Lu10  1  0.46868991  0.00000000  0.40359060  1
  Lu  Lu11  1  0.53131009  1.00000000  0.59640940  1
  Ti  Ti12  1  -0.00000000  0.00000000  -0.00000000  1
  Ti  Ti13  1  -0.00000000  0.00000000  0.50000000  1
  Ti  Ti14  1  0.27249561  0.27249561  0.75000000  1
  Ti  Ti15  1  0.72750439  0.72750439  0.25000000  1
  Ti  Ti16  1  1.00000000  0.72750439  0.75000000  1
  Ti  Ti17  1  0.00000000  0.27249561  0.25000000  1
  Ti  Ti18  1  0.72750439  1.00000000  0.75000000  1
  Ti  Ti19  1  0.27249561  0.00000000  0.25000000  1
  Al  Al20  1  0.85079154  0.44784418  0.75000000  1
  Al  Al21  1  0.14920846  0.55215582  0.25000000  1
  Al  Al22  1  0.59705264  0.14920846  0.75000000  1
  Al  Al23  1  0.40294736  0.55215582  0.75000000  1
  Al  Al24  1  0.40294736  0.85079154  0.25000000  1
  Al  Al25  1  0.59705264  0.44784418  0.25000000  1
  Al  Al26  1  0.55215582  0.40294736  0.75000000  1
  Al  Al27  1  0.44784418  0.85079154  0.75000000  1
  Al  Al28  1  0.44784418  0.59705264  0.25000000  1
  Al  Al29  1  0.55215582  0.14920846  0.25000000  1
  Al  Al30  1  0.14920846  0.59705264  0.75000000  1
  Al  Al31  1  0.85079154  0.40294736  0.25000000  1
  Al  Al32  1  0.84281437  0.84281437  0.38422151  1
  Al  Al33  1  0.15718563  0.15718563  0.61577849  1
  Al  Al34  1  1.00000000  0.15718563  0.38422151  1
  Al  Al35  1  0.15718563  0.15718563  0.88422151  1
  Al  Al36  1  1.00000000  0.15718563  0.11577849  1
  Al  Al37  1  0.00000000  0.84281437  0.61577849  1
  Al  Al38  1  0.84281437  0.84281437  0.11577849  1
  Al  Al39  1  0.00000000  0.84281437  0.88422151  1
  Al  Al40  1  0.15718563  1.00000000  0.38422151  1
  Al  Al41  1  0.84281437  0.00000000  0.61577849  1
  Al  Al42  1  0.84281437  0.00000000  0.88422151  1
  Al  Al43  1  0.15718563  1.00000000  0.11577849  1
  Al  Al44  1  0.75255395  0.24744605  -0.00000000  1
  Al  Al45  1  0.24744605  0.75255395  -0.00000000  1
  Al  Al46  1  0.49489210  0.24744605  -0.00000000  1
  Al  Al47  1  0.24744605  0.75255395  0.50000000  1
  Al  Al48  1  0.50510790  0.75255395  0.50000000  1
  Al  Al49  1  0.50510790  0.75255395  -0.00000000  1
  Al  Al50  1  0.75255395  0.24744605  0.50000000  1
  Al  Al51  1  0.49489210  0.24744605  0.50000000  1
  Al  Al52  1  0.75255395  0.50510790  -0.00000000  1
  Al  Al53  1  0.24744605  0.49489210  -0.00000000  1
  Al  Al54  1  0.24744605  0.49489210  0.50000000  1
  Al  Al55  1  0.75255395  0.50510790  0.50000000  1
  Al  Al56  1  0.85321055  0.85321055  0.75000000  1
  Al  Al57  1  0.14678945  0.14678945  0.25000000  1
  Al  Al58  1  1.00000000  0.14678945  0.75000000  1
  Al  Al59  1  0.00000000  0.85321055  0.25000000  1
  Al  Al60  1  0.14678945  1.00000000  0.75000000  1
  Al  Al61  1  0.85321055  0.00000000  0.25000000  1
  Al  Al62  1  0.66666700  0.33333300  0.87411249  1
  Al  Al63  1  0.33333300  0.66666700  0.12588751  1
  Al  Al64  1  0.33333300  0.66666700  0.37411249  1
  Al  Al65  1  0.33333300  0.66666700  0.62588751  1
  Al  Al66  1  0.66666700  0.33333300  0.62588751  1
  Al  Al67  1  0.66666700  0.33333300  0.37411249  1
  Al  Al68  1  0.66666700  0.33333300  0.12588751  1
  Al  Al69  1  0.33333300  0.66666700  0.87411249  1
  Al  Al70  1  0.74502968  0.74502968  0.97081855  1
  Al  Al71  1  0.25497032  0.25497032  0.02918145  1
  Al  Al72  1  1.00000000  0.25497032  0.97081855  1
  Al  Al73  1  0.25497032  0.25497032  0.47081855  1
  Al  Al74  1  1.00000000  0.25497032  0.52918145  1
  Al  Al75  1  0.00000000  0.74502968  0.02918145  1
  Al  Al76  1  0.74502968  0.74502968  0.52918145  1
  Al  Al77  1  0.00000000  0.74502968  0.47081855  1
  Al  Al78  1  0.25497032  1.00000000  0.97081855  1
  Al  Al79  1  0.74502968  0.00000000  0.02918145  1
  Al  Al80  1  0.74502968  0.00000000  0.47081855  1
  Al  Al81  1  0.25497032  1.00000000  0.52918145  1
  Al  Al82  1  0.84172525  0.23571530  0.83607273  1
  Al  Al83  1  0.15827475  0.76428470  0.16392727  1
  Al  Al84  1  0.39399005  0.15827475  0.83607273  1
  Al  Al85  1  0.15827475  0.76428470  0.33607273  1
  Al  Al86  1  0.60600995  0.76428470  0.66392727  1
  Al  Al87  1  0.60600995  0.84172525  0.16392727  1
  Al  Al88  1  0.84172525  0.23571530  0.66392727  1
  Al  Al89  1  0.39399005  0.23571530  0.33607273  1
  Al  Al90  1  0.76428470  0.60600995  0.83607273  1
  Al  Al91  1  0.60600995  0.84172525  0.33607273  1
  Al  Al92  1  0.23571530  0.84172525  0.66392727  1
  Al  Al93  1  0.23571530  0.39399005  0.16392727  1
  Al  Al94  1  0.39399005  0.15827475  0.66392727  1
  Al  Al95  1  0.76428470  0.15827475  0.33607273  1
  Al  Al96  1  0.39399005  0.23571530  0.16392727  1
  Al  Al97  1  0.60600995  0.76428470  0.83607273  1
  Al  Al98  1  0.23571530  0.39399005  0.33607273  1
  Al  Al99  1  0.76428470  0.15827475  0.16392727  1
  Al  Al100  1  0.76428470  0.60600995  0.66392727  1
  Al  Al101  1  0.23571530  0.84172525  0.83607273  1
  Al  Al102  1  0.15827475  0.39399005  0.66392727  1
  Al  Al103  1  0.84172525  0.60600995  0.33607273  1
  Al  Al104  1  0.84172525  0.60600995  0.16392727  1
  Al  Al105  1  0.15827475  0.39399005  0.83607273  1
