# generated using pymatgen
data_LaVSb3
_symmetry_space_group_name_H-M   'P 1'
_cell_length_a   6.15193648
_cell_length_b   6.31559120
_cell_length_c   13.42559318
_cell_angle_alpha   90.00000000
_cell_angle_beta   90.00000000
_cell_angle_gamma   90.00000000
_symmetry_Int_Tables_number   1
_chemical_formula_structural   LaVSb3
_chemical_formula_sum   'La4 V4 Sb12'
_cell_volume   521.62612780
_cell_formula_units_Z   4
loop_
 _symmetry_equiv_pos_site_id
 _symmetry_equiv_pos_as_xyz
  1  'x, y, z'
loop_
 _atom_site_type_symbol
 _atom_site_label
 _atom_site_symmetry_multiplicity
 _atom_site_fract_x
 _atom_site_fract_y
 _atom_site_fract_z
 _atom_site_occupancy
  La  La0  1  0.75000000  0.99792795  0.69148423  1
  La  La1  1  0.25000000  0.00207205  0.30851577  1
  La  La2  1  0.75000000  0.49792795  0.30851577  1
  La  La3  1  0.25000000  0.50207205  0.69148423  1
  V  V4  1  -0.00000000  0.75000000  0.09216698  1
  V  V5  1  0.00000000  0.25000000  0.90783302  1
  V  V6  1  0.50000000  0.25000000  0.90783302  1
  V  V7  1  0.50000000  0.75000000  0.09216698  1
  Sb  Sb8  1  -0.00000000  0.75000000  0.49909055  1
  Sb  Sb9  1  -0.00000000  0.25000000  0.50090945  1
  Sb  Sb10  1  0.50000000  0.25000000  0.50090945  1
  Sb  Sb11  1  0.50000000  0.75000000  0.49909055  1
  Sb  Sb12  1  0.75000000  0.89796662  0.93676396  1
  Sb  Sb13  1  0.25000000  0.10203338  0.06323604  1
  Sb  Sb14  1  0.75000000  0.39796662  0.06323604  1
  Sb  Sb15  1  0.25000000  0.60203338  0.93676396  1
  Sb  Sb16  1  0.75000000  0.49962860  0.78523540  1
  Sb  Sb17  1  0.25000000  0.50037140  0.21476460  1
  Sb  Sb18  1  0.75000000  0.99962860  0.21476460  1
  Sb  Sb19  1  0.25000000  0.00037140  0.78523540  1
