# generated using pymatgen
data_KTh2F9
_symmetry_space_group_name_H-M   'P 1'
_cell_length_a   7.25771777
_cell_length_b   8.94076839
_cell_length_c   11.83085425
_cell_angle_alpha   90.00000000
_cell_angle_beta   90.00000000
_cell_angle_gamma   90.00000000
_symmetry_Int_Tables_number   1
_chemical_formula_structural   KTh2F9
_chemical_formula_sum   'K4 Th8 F36'
_cell_volume   767.69908786
_cell_formula_units_Z   4
loop_
 _symmetry_equiv_pos_site_id
 _symmetry_equiv_pos_as_xyz
  1  'x, y, z'
loop_
 _atom_site_type_symbol
 _atom_site_label
 _atom_site_symmetry_multiplicity
 _atom_site_fract_x
 _atom_site_fract_y
 _atom_site_fract_z
 _atom_site_occupancy
  K  K0  1  0.64356243  0.03679270  0.25000000  1
  K  K1  1  0.35643757  0.96320730  0.75000000  1
  K  K2  1  0.14356243  0.46320730  0.75000000  1
  K  K3  1  0.85643757  0.53679270  0.25000000  1
  Th  Th4  1  0.15339243  0.17495462  0.05028963  1
  Th  Th5  1  0.84660757  0.82504538  0.94971037  1
  Th  Th6  1  0.65339243  0.32504538  0.94971037  1
  Th  Th7  1  0.84660757  0.82504538  0.55028963  1
  Th  Th8  1  0.34660757  0.67495462  0.05028963  1
  Th  Th9  1  0.15339243  0.17495462  0.44971037  1
  Th  Th10  1  0.34660757  0.67495462  0.44971037  1
  Th  Th11  1  0.65339243  0.32504538  0.55028963  1
  F  F12  1  0.19874809  0.43678191  0.07973051  1
  F  F13  1  0.80125191  0.56321809  0.92026949  1
  F  F14  1  0.69874809  0.06321809  0.92026949  1
  F  F15  1  0.80125191  0.56321809  0.57973051  1
  F  F16  1  0.30125191  0.93678191  0.07973051  1
  F  F17  1  0.19874809  0.43678191  0.42026949  1
  F  F18  1  0.30125191  0.93678191  0.42026949  1
  F  F19  1  0.69874809  0.06321809  0.57973051  1
  F  F20  1  0.07583178  0.00383119  0.59779119  1
  F  F21  1  0.92416822  0.99616881  0.40220881  1
  F  F22  1  0.57583178  0.49616881  0.40220881  1
  F  F23  1  0.92416822  0.99616881  0.09779119  1
  F  F24  1  0.42416822  0.50383119  0.59779119  1
  F  F25  1  0.07583178  0.00383119  0.90220881  1
  F  F26  1  0.42416822  0.50383119  0.90220881  1
  F  F27  1  0.57583178  0.49616881  0.09779119  1
  F  F28  1  0.47102392  0.20991968  0.09545045  1
  F  F29  1  0.52897608  0.79008032  0.90454955  1
  F  F30  1  0.97102392  0.29008032  0.90454955  1
  F  F31  1  0.52897608  0.79008032  0.59545045  1
  F  F32  1  0.02897608  0.70991968  0.09545045  1
  F  F33  1  0.47102392  0.20991968  0.40454955  1
  F  F34  1  0.02897608  0.70991968  0.40454955  1
  F  F35  1  0.97102392  0.29008032  0.59545045  1
  F  F36  1  0.16189290  0.17864812  0.25000000  1
  F  F37  1  0.83810710  0.82135188  0.75000000  1
  F  F38  1  0.66189290  0.32135188  0.75000000  1
  F  F39  1  0.33810710  0.67864812  0.25000000  1
  F  F40  1  0.35516541  0.21666336  0.60620283  1
  F  F41  1  0.64483459  0.78333664  0.39379717  1
  F  F42  1  0.85516541  0.28333664  0.39379717  1
  F  F43  1  0.64483459  0.78333664  0.10620283  1
  F  F44  1  0.14483459  0.71666336  0.60620283  1
  F  F45  1  0.35516541  0.21666336  0.89379717  1
  F  F46  1  0.14483459  0.71666336  0.89379717  1
  F  F47  1  0.85516541  0.28333664  0.10620283  1
