# generated using pymatgen
data_KDy(MoO4)2
_symmetry_space_group_name_H-M   'P 1'
_cell_length_a   5.14558937
_cell_length_b   8.13448834
_cell_length_c   18.44763081
_cell_angle_alpha   90.00000000
_cell_angle_beta   90.00000000
_cell_angle_gamma   90.00000000
_symmetry_Int_Tables_number   1
_chemical_formula_structural   KDy(MoO4)2
_chemical_formula_sum   'K4 Dy4 Mo8 O32'
_cell_volume   772.15762616
_cell_formula_units_Z   4
loop_
 _symmetry_equiv_pos_site_id
 _symmetry_equiv_pos_as_xyz
  1  'x, y, z'
loop_
 _atom_site_type_symbol
 _atom_site_label
 _atom_site_symmetry_multiplicity
 _atom_site_fract_x
 _atom_site_fract_y
 _atom_site_fract_z
 _atom_site_occupancy
  K  K0  1  -0.00000000  0.75000000  0.23010408  1
  K  K1  1  0.00000000  0.25000000  0.76989592  1
  K  K2  1  0.50000000  0.25000000  0.26989592  1
  K  K3  1  0.50000000  0.75000000  0.73010408  1
  Dy  Dy4  1  0.00000000  0.75000000  0.99403907  1
  Dy  Dy5  1  -0.00000000  0.25000000  0.00596093  1
  Dy  Dy6  1  0.50000000  0.25000000  0.50596093  1
  Dy  Dy7  1  0.50000000  0.75000000  0.49403907  1
  Mo  Mo8  1  0.97694409  0.98371998  0.60081515  1
  Mo  Mo9  1  0.02305591  0.01628002  0.39918485  1
  Mo  Mo10  1  0.52305591  0.48371998  0.89918485  1
  Mo  Mo11  1  0.02305591  0.51628002  0.60081515  1
  Mo  Mo12  1  0.47694409  0.51628002  0.10081515  1
  Mo  Mo13  1  0.97694409  0.48371998  0.39918485  1
  Mo  Mo14  1  0.47694409  0.01628002  0.89918485  1
  Mo  Mo15  1  0.52305591  0.98371998  0.10081515  1
  O  O16  1  0.89773855  0.52553333  0.68928211  1
  O  O17  1  0.10226145  0.47446667  0.31071789  1
  O  O18  1  0.60226145  0.02553333  0.81071789  1
  O  O19  1  0.10226145  0.97446667  0.68928211  1
  O  O20  1  0.39773855  0.97446667  0.18928211  1
  O  O21  1  0.89773855  0.02553333  0.31071789  1
  O  O22  1  0.39773855  0.47446667  0.81071789  1
  O  O23  1  0.60226145  0.52553333  0.18928211  1
  O  O24  1  0.73067181  0.66154955  0.90116856  1
  O  O25  1  0.26932819  0.33845045  0.09883144  1
  O  O26  1  0.76932819  0.16154955  0.59883144  1
  O  O27  1  0.26932819  0.83845045  0.90116856  1
  O  O28  1  0.23067181  0.83845045  0.40116856  1
  O  O29  1  0.73067181  0.16154955  0.09883144  1
  O  O30  1  0.23067181  0.33845045  0.59883144  1
  O  O31  1  0.76932819  0.66154955  0.40116856  1
  O  O32  1  0.75121397  0.99566529  0.96507091  1
  O  O33  1  0.24878603  0.00433471  0.03492909  1
  O  O34  1  0.74878603  0.49566529  0.53492909  1
  O  O35  1  0.24878603  0.50433471  0.96507091  1
  O  O36  1  0.25121397  0.50433471  0.46507091  1
  O  O37  1  0.75121397  0.49566529  0.03492909  1
  O  O38  1  0.25121397  0.00433471  0.53492909  1
  O  O39  1  0.74878603  0.99566529  0.46507091  1
  O  O40  1  0.75402662  0.81072778  0.59241408  1
  O  O41  1  0.24597338  0.18927222  0.40758592  1
  O  O42  1  0.74597338  0.31072778  0.90758592  1
  O  O43  1  0.24597338  0.68927222  0.59241408  1
  O  O44  1  0.25402662  0.68927222  0.09241408  1
  O  O45  1  0.75402662  0.31072778  0.40758592  1
  O  O46  1  0.25402662  0.18927222  0.90758592  1
  O  O47  1  0.74597338  0.81072778  0.09241408  1
