# generated using pymatgen
data_KY2F7
_symmetry_space_group_name_H-M   'P 1'
_cell_length_a   8.11393075
_cell_length_b   8.31461663
_cell_length_c   10.67973372
_cell_angle_alpha   78.05880015
_cell_angle_beta   67.67404855
_cell_angle_gamma   60.79526518
_symmetry_Int_Tables_number   1
_chemical_formula_structural   KY2F7
_chemical_formula_sum   'K4 Y8 F28'
_cell_volume   581.55933449
_cell_formula_units_Z   4
loop_
 _symmetry_equiv_pos_site_id
 _symmetry_equiv_pos_as_xyz
  1  'x, y, z'
loop_
 _atom_site_type_symbol
 _atom_site_label
 _atom_site_symmetry_multiplicity
 _atom_site_fract_x
 _atom_site_fract_y
 _atom_site_fract_z
 _atom_site_occupancy
  K  K0  1  0.14350406  0.34518148  0.36781041  1
  K  K1  1  0.65022032  0.65726054  0.04229881  1
  K  K2  1  0.11844749  0.02828348  0.73482155  1
  K  K3  1  0.62033749  0.35268063  0.40664438  1
  Y  Y4  1  0.62166024  0.84930094  0.38825722  1
  Y  Y5  1  0.14078160  0.84930094  0.38825722  1
  Y  Y6  1  0.12389610  0.68558100  0.06662679  1
  Y  Y7  1  0.64133565  0.00746819  0.70986051  1
  Y  Y8  1  0.64697699  0.52478342  0.70614845  1
  Y  Y9  1  0.12209114  0.52478342  0.70614845  1
  Y  Y10  1  0.64415093  0.16885186  0.06827678  1
  Y  Y11  1  0.11872044  0.16885186  0.06827678  1
  F  F12  1  0.76109360  0.84986897  0.15063908  1
  F  F13  1  0.23839834  0.84986897  0.15063908  1
  F  F14  1  0.75069811  0.56234468  0.47193733  1
  F  F15  1  0.21501988  0.56234468  0.47193733  1
  F  F16  1  0.37612513  0.12887517  0.11887458  1
  F  F17  1  0.98727421  0.38669776  0.63875383  1
  F  F18  1  0.27599439  0.98439316  0.46361806  1
  F  F19  1  0.38650217  0.67052043  0.88822047  1
  F  F20  1  0.05475694  0.67052043  0.88822047  1
  F  F21  1  0.78033016  0.30176578  0.13757390  1
  F  F22  1  0.37831336  0.01976223  0.88721471  1
  F  F23  1  0.71470971  0.01976223  0.88721471  1
  F  F24  1  0.52918729  0.84734429  0.62470778  1
  F  F25  1  0.99876064  0.84734429  0.62470778  1
  F  F26  1  0.70501144  0.34556064  0.88660638  1
  F  F27  1  0.06282154  0.34556064  0.88660638  1
  F  F28  1  0.38481884  0.57870368  0.65165864  1
  F  F29  1  0.98603124  0.72784369  0.30009384  1
  F  F30  1  0.38059505  0.45544347  0.12728905  1
  F  F31  1  0.03667243  0.45544347  0.12728905  1
  F  F32  1  0.38551188  0.24282386  0.64923170  1
  F  F33  1  0.72243256  0.24282386  0.64923170  1
  F  F34  1  0.76936507  0.69042062  0.77084925  1
  F  F35  1  0.48561425  0.71236996  0.31640154  1
  F  F36  1  0.77525996  0.97424388  0.47523620  1
  F  F37  1  0.54234491  0.13552440  0.30360002  1
  F  F38  1  0.01853067  0.13552440  0.30360002  1
  F  F39  1  0.99640380  0.99977258  0.00741981  1
