# generated using pymatgen
data_LiEu2RuO6
_symmetry_space_group_name_H-M   'P 1'
_cell_length_a   5.38360013
_cell_length_b   5.75580989
_cell_length_c   7.62505782
_cell_angle_alpha   90.00000000
_cell_angle_beta   90.75338180
_cell_angle_gamma   90.00000000
_symmetry_Int_Tables_number   1
_chemical_formula_structural   LiEu2RuO6
_chemical_formula_sum   'Li2 Eu4 Ru2 O12'
_cell_volume   236.25708001
_cell_formula_units_Z   2
loop_
 _symmetry_equiv_pos_site_id
 _symmetry_equiv_pos_as_xyz
  1  'x, y, z'
loop_
 _atom_site_type_symbol
 _atom_site_label
 _atom_site_symmetry_multiplicity
 _atom_site_fract_x
 _atom_site_fract_y
 _atom_site_fract_z
 _atom_site_occupancy
  Li  Li0  1  0.00000000  -0.00000000  0.50000000  1
  Li  Li1  1  0.50000000  0.50000000  -0.00000000  1
  Eu  Eu2  1  0.98267948  0.57219765  0.25123286  1
  Eu  Eu3  1  0.01732052  0.42780235  0.74876714  1
  Eu  Eu4  1  0.51732052  0.07219765  0.24876714  1
  Eu  Eu5  1  0.48267948  0.92780235  0.75123286  1
  Ru  Ru6  1  0.00000000  -0.00000000  -0.00000000  1
  Ru  Ru7  1  0.50000000  0.50000000  0.50000000  1
  O  O8  1  0.09959841  0.96827119  0.24475451  1
  O  O9  1  0.90040159  0.03172881  0.75524549  1
  O  O10  1  0.40040159  0.46827119  0.25524549  1
  O  O11  1  0.59959841  0.53172881  0.74475451  1
  O  O12  1  0.82326467  0.28902969  0.05277157  1
  O  O13  1  0.17673533  0.71097031  0.94722843  1
  O  O14  1  0.67673533  0.78902969  0.44722843  1
  O  O15  1  0.32326467  0.21097031  0.55277157  1
  O  O16  1  0.70143111  0.81471165  0.04884670  1
  O  O17  1  0.29856889  0.18528835  0.95115330  1
  O  O18  1  0.79856889  0.31471165  0.45115330  1
  O  O19  1  0.20143111  0.68528835  0.54884670  1
