# generated using pymatgen
data_KEr(CO3)2
_symmetry_space_group_name_H-M   'P 1'
_cell_length_a   6.38206546
_cell_length_b   6.38206546
_cell_length_c   6.92534579
_cell_angle_alpha   103.78213427
_cell_angle_beta   103.78213427
_cell_angle_gamma   96.16591921
_symmetry_Int_Tables_number   1
_chemical_formula_structural   KEr(CO3)2
_chemical_formula_sum   'K2 Er2 C4 O12'
_cell_volume   262.00527543
_cell_formula_units_Z   2
loop_
 _symmetry_equiv_pos_site_id
 _symmetry_equiv_pos_as_xyz
  1  'x, y, z'
loop_
 _atom_site_type_symbol
 _atom_site_label
 _atom_site_symmetry_multiplicity
 _atom_site_fract_x
 _atom_site_fract_y
 _atom_site_fract_z
 _atom_site_occupancy
  K  K0  1  0.62026772  0.37973228  0.75000000  1
  K  K1  1  0.37973228  0.62026772  0.25000000  1
  Er  Er2  1  0.09590159  0.90409841  0.75000000  1
  Er  Er3  1  0.90409841  0.09590159  0.25000000  1
  C  C4  1  0.64528975  0.89001588  0.74286479  1
  C  C5  1  0.35471025  0.10998412  0.25713521  1
  C  C6  1  0.10998412  0.35471025  0.75713521  1
  C  C7  1  0.89001588  0.64528975  0.24286479  1
  O  O8  1  0.44196632  0.89537734  0.72059173  1
  O  O9  1  0.55803368  0.10462266  0.27940827  1
  O  O10  1  0.10462266  0.55803368  0.77940827  1
  O  O11  1  0.89537734  0.44196632  0.22059173  1
  O  O12  1  0.71655889  0.74954260  0.61654748  1
  O  O13  1  0.28344111  0.25045740  0.38345252  1
  O  O14  1  0.25045740  0.28344111  0.88345252  1
  O  O15  1  0.74954260  0.71655889  0.11654748  1
  O  O16  1  0.79776896  0.03373687  0.89341723  1
  O  O17  1  0.20223104  0.96626313  0.10658277  1
  O  O18  1  0.96626313  0.20223104  0.60658277  1
  O  O19  1  0.03373687  0.79776896  0.39341723  1
