# generated using pymatgen
data_KLi3TiO4
_symmetry_space_group_name_H-M   'P 1'
_cell_length_a   5.99215236
_cell_length_b   7.64959458
_cell_length_c   10.14883516
_cell_angle_alpha   83.46809804
_cell_angle_beta   76.41188236
_cell_angle_gamma   79.65347891
_symmetry_Int_Tables_number   1
_chemical_formula_structural   KLi3TiO4
_chemical_formula_sum   'K4 Li12 Ti4 O16'
_cell_volume   443.57656559
_cell_formula_units_Z   4
loop_
 _symmetry_equiv_pos_site_id
 _symmetry_equiv_pos_as_xyz
  1  'x, y, z'
loop_
 _atom_site_type_symbol
 _atom_site_label
 _atom_site_symmetry_multiplicity
 _atom_site_fract_x
 _atom_site_fract_y
 _atom_site_fract_z
 _atom_site_occupancy
  K  K0  1  0.00266715  0.38146378  0.88551296  1
  K  K1  1  0.99733285  0.61853622  0.11448704  1
  K  K2  1  0.04663080  0.14117872  0.62753598  1
  K  K3  1  0.95336920  0.85882128  0.37246402  1
  Li  Li4  1  0.80889708  0.05875405  0.10226460  1
  Li  Li5  1  0.19110292  0.94124595  0.89773540  1
  Li  Li6  1  0.47944883  0.32178236  0.61178331  1
  Li  Li7  1  0.52055117  0.67821764  0.38821669  1
  Li  Li8  1  0.19259496  0.17516904  0.14658642  1
  Li  Li9  1  0.80740504  0.82483096  0.85341358  1
  Li  Li10  1  0.53324463  0.42653519  0.12817515  1
  Li  Li11  1  0.46675537  0.57346481  0.87182485  1
  Li  Li12  1  0.43471260  0.04674329  0.37763135  1
  Li  Li13  1  0.56528740  0.95325671  0.62236865  1
  Li  Li14  1  0.18556339  0.44658034  0.39767777  1
  Li  Li15  1  0.81443661  0.55341966  0.60232223  1
  Ti  Ti16  1  0.83298344  0.29537323  0.35110110  1
  Ti  Ti17  1  0.16701656  0.70462677  0.64889890  1
  Ti  Ti18  1  0.44361404  0.79074417  0.13413200  1
  Ti  Ti19  1  0.55638596  0.20925583  0.86586800  1
  O  O20  1  0.63872592  0.15845225  0.46897216  1
  O  O21  1  0.36127408  0.84154775  0.53102784  1
  O  O22  1  0.18363183  0.93657236  0.09487083  1
  O  O23  1  0.81636817  0.06342764  0.90512917  1
  O  O24  1  0.34767734  0.60831540  0.25790833  1
  O  O25  1  0.65232266  0.39168460  0.74209167  1
  O  O26  1  0.13918245  0.20409143  0.34846471  1
  O  O27  1  0.86081755  0.79590857  0.65153529  1
  O  O28  1  0.19293699  0.48177181  0.58903769  1
  O  O29  1  0.80706301  0.51822819  0.41096231  1
  O  O30  1  0.37628334  0.32914981  0.01099983  1
  O  O31  1  0.62371666  0.67085019  0.98900017  1
  O  O32  1  0.82012606  0.29159649  0.17218543  1
  O  O33  1  0.17987394  0.70840351  0.82781457  1
  O  O34  1  0.39036806  0.10297891  0.77654522  1
  O  O35  1  0.60963194  0.89702109  0.22345478  1
