# generated using pymatgen
data_K4ZrO4
_symmetry_space_group_name_H-M   'P 1'
_cell_length_a   6.64856138
_cell_length_b   6.67875821
_cell_length_c   9.92888535
_cell_angle_alpha   71.50599641
_cell_angle_beta   79.79359485
_cell_angle_gamma   66.90703700
_symmetry_Int_Tables_number   1
_chemical_formula_structural   K4ZrO4
_chemical_formula_sum   'K8 Zr2 O8'
_cell_volume   383.90669640
_cell_formula_units_Z   2
loop_
 _symmetry_equiv_pos_site_id
 _symmetry_equiv_pos_as_xyz
  1  'x, y, z'
loop_
 _atom_site_type_symbol
 _atom_site_label
 _atom_site_symmetry_multiplicity
 _atom_site_fract_x
 _atom_site_fract_y
 _atom_site_fract_z
 _atom_site_occupancy
  K  K0  1  0.77858325  0.03968220  0.38164499  1
  K  K1  1  0.22141675  0.96031780  0.61835501  1
  K  K2  1  0.74189627  0.58739258  0.16661890  1
  K  K3  1  0.25810373  0.41260742  0.83338110  1
  K  K4  1  0.24238889  0.76320976  0.02661713  1
  K  K5  1  0.75761111  0.23679024  0.97338287  1
  K  K6  1  0.27377386  0.51207839  0.44103549  1
  K  K7  1  0.72622614  0.48792161  0.55896451  1
  Zr  Zr8  1  0.27670001  0.15429567  0.24661725  1
  Zr  Zr9  1  0.72329999  0.84570433  0.75338275  1
  O  O10  1  0.03540260  0.29409175  0.37887174  1
  O  O11  1  0.96459740  0.70590825  0.62112826  1
  O  O12  1  0.53843036  0.15802443  0.64706300  1
  O  O13  1  0.46156964  0.84197557  0.35293700  1
  O  O14  1  0.46501891  0.34406366  0.19022963  1
  O  O15  1  0.53498109  0.65593634  0.80977037  1
  O  O16  1  0.12881687  0.15910793  0.08618392  1
  O  O17  1  0.87118313  0.84089207  0.91381608  1
