# generated using pymatgen
data_LuCo5Si3
_symmetry_space_group_name_H-M   'P 1'
_cell_length_a   3.64652068
_cell_length_b   14.67943839
_cell_length_c   14.67943840
_cell_angle_alpha   120.00000016
_cell_angle_beta   90.00000000
_cell_angle_gamma   90.00000000
_symmetry_Int_Tables_number   1
_chemical_formula_structural   LuCo5Si3
_chemical_formula_sum   'Lu6 Co30 Si18'
_cell_volume   680.50009990
_cell_formula_units_Z   6
loop_
 _symmetry_equiv_pos_site_id
 _symmetry_equiv_pos_as_xyz
  1  'x, y, z'
loop_
 _atom_site_type_symbol
 _atom_site_label
 _atom_site_symmetry_multiplicity
 _atom_site_fract_x
 _atom_site_fract_y
 _atom_site_fract_z
 _atom_site_occupancy
  Lu  Lu0  1  0.75000000  0.70637790  0.10075889  1
  Lu  Lu1  1  0.25000000  0.29362210  0.89924111  1
  Lu  Lu2  1  0.75000000  0.39438099  0.29362210  1
  Lu  Lu3  1  0.25000000  0.60561901  0.70637790  1
  Lu  Lu4  1  0.75000000  0.89924111  0.60561901  1
  Lu  Lu5  1  0.25000000  0.10075889  0.39438099  1
  Co  Co6  1  0.75000000  0.58641858  0.85190617  1
  Co  Co7  1  0.25000000  0.41358142  0.14809383  1
  Co  Co8  1  0.75000000  0.26548759  0.41358142  1
  Co  Co9  1  0.25000000  0.73451241  0.58641858  1
  Co  Co10  1  0.75000000  0.14809383  0.73451241  1
  Co  Co11  1  0.25000000  0.85190617  0.26548759  1
  Co  Co12  1  0.75000000  0.45977072  0.53416870  1
  Co  Co13  1  0.25000000  0.54022928  0.46583130  1
  Co  Co14  1  0.75000000  0.07439798  0.54022928  1
  Co  Co15  1  0.25000000  0.92560202  0.45977072  1
  Co  Co16  1  0.75000000  0.46583130  0.92560202  1
  Co  Co17  1  0.25000000  0.53416870  0.07439798  1
  Co  Co18  1  0.75000000  0.89798881  0.02872884  1
  Co  Co19  1  0.25000000  0.10201119  0.97127116  1
  Co  Co20  1  0.75000000  0.13074004  0.10201119  1
  Co  Co21  1  0.25000000  0.86925996  0.89798881  1
  Co  Co22  1  0.75000000  0.97127116  0.86925996  1
  Co  Co23  1  0.25000000  0.02872884  0.13074004  1
  Co  Co24  1  0.75000000  0.77530777  0.34756034  1
  Co  Co25  1  0.25000000  0.22469223  0.65243966  1
  Co  Co26  1  0.75000000  0.57225257  0.22469223  1
  Co  Co27  1  0.25000000  0.42774743  0.77530777  1
  Co  Co28  1  0.75000000  0.65243966  0.42774743  1
  Co  Co29  1  0.25000000  0.34756034  0.57225257  1
  Co  Co30  1  0.75000000  0.95181445  0.21966212  1
  Co  Co31  1  0.25000000  0.04818555  0.78033788  1
  Co  Co32  1  0.75000000  0.26784766  0.04818555  1
  Co  Co33  1  0.25000000  0.73215234  0.95181445  1
  Co  Co34  1  0.75000000  0.78033788  0.73215234  1
  Co  Co35  1  0.25000000  0.21966212  0.26784766  1
  Si  Si36  1  0.75000000  0.44384937  0.68211440  1
  Si  Si37  1  0.25000000  0.55615063  0.31788560  1
  Si  Si38  1  0.75000000  0.23826503  0.55615063  1
  Si  Si39  1  0.25000000  0.76173497  0.44384937  1
  Si  Si40  1  0.75000000  0.31788560  0.76173497  1
  Si  Si41  1  0.25000000  0.68211440  0.23826503  1
  Si  Si42  1  0.75000000  0.75076921  0.86923912  1
  Si  Si43  1  0.25000000  0.24923079  0.13076088  1
  Si  Si44  1  0.75000000  0.11846991  0.24923079  1
  Si  Si45  1  0.25000000  0.88153009  0.75076921  1
  Si  Si46  1  0.75000000  0.13076088  0.88153009  1
  Si  Si47  1  0.25000000  0.86923912  0.11846991  1
  Si  Si48  1  0.75000000  0.93889771  0.37020065  1
  Si  Si49  1  0.25000000  0.06110229  0.62979935  1
  Si  Si50  1  0.75000000  0.43130295  0.06110229  1
  Si  Si51  1  0.25000000  0.56869705  0.93889771  1
  Si  Si52  1  0.75000000  0.62979935  0.56869705  1
  Si  Si53  1  0.25000000  0.37020065  0.43130295  1
