# generated using pymatgen
data_K2BeCl4
_symmetry_space_group_name_H-M   'P 1'
_cell_length_a   6.94852177
_cell_length_b   8.95776413
_cell_length_c   12.22098599
_cell_angle_alpha   90.00000000
_cell_angle_beta   90.00000000
_cell_angle_gamma   90.00000000
_symmetry_Int_Tables_number   1
_chemical_formula_structural   K2BeCl4
_chemical_formula_sum   'K8 Be4 Cl16'
_cell_volume   760.67350820
_cell_formula_units_Z   4
loop_
 _symmetry_equiv_pos_site_id
 _symmetry_equiv_pos_as_xyz
  1  'x, y, z'
loop_
 _atom_site_type_symbol
 _atom_site_label
 _atom_site_symmetry_multiplicity
 _atom_site_fract_x
 _atom_site_fract_y
 _atom_site_fract_z
 _atom_site_occupancy
  K  K0  1  0.75000000  0.51466812  0.32095187  1
  K  K1  1  0.25000000  0.48533188  0.67904813  1
  K  K2  1  0.25000000  0.98533188  0.82095187  1
  K  K3  1  0.75000000  0.01466812  0.17904813  1
  K  K4  1  0.75000000  0.84975572  0.58666008  1
  K  K5  1  0.25000000  0.15024428  0.41333992  1
  K  K6  1  0.25000000  0.65024428  0.08666008  1
  K  K7  1  0.75000000  0.34975572  0.91333992  1
  Be  Be8  1  0.75000000  0.76799813  0.92214536  1
  Be  Be9  1  0.25000000  0.23200187  0.07785464  1
  Be  Be10  1  0.25000000  0.73200187  0.42214536  1
  Be  Be11  1  0.75000000  0.26799813  0.57785464  1
  Cl  Cl12  1  0.98865839  0.68706116  0.84656500  1
  Cl  Cl13  1  0.01134161  0.31293884  0.15343500  1
  Cl  Cl14  1  0.01134161  0.81293884  0.34656500  1
  Cl  Cl15  1  0.48865839  0.31293884  0.15343500  1
  Cl  Cl16  1  0.98865839  0.18706116  0.65343500  1
  Cl  Cl17  1  0.51134161  0.68706116  0.84656500  1
  Cl  Cl18  1  0.51134161  0.18706116  0.65343500  1
  Cl  Cl19  1  0.48865839  0.81293884  0.34656500  1
  Cl  Cl20  1  0.75000000  0.99431287  0.91661198  1
  Cl  Cl21  1  0.25000000  0.00568713  0.08338802  1
  Cl  Cl22  1  0.25000000  0.50568713  0.41661198  1
  Cl  Cl23  1  0.75000000  0.49431287  0.58338802  1
  Cl  Cl24  1  0.75000000  0.18941058  0.42033109  1
  Cl  Cl25  1  0.25000000  0.81058942  0.57966891  1
  Cl  Cl26  1  0.25000000  0.31058942  0.92033109  1
  Cl  Cl27  1  0.75000000  0.68941058  0.07966891  1
