# generated using pymatgen
data_K2TeMo2(PO7)2
_symmetry_space_group_name_H-M   'P 1'
_cell_length_a   8.86617224
_cell_length_b   12.72333527
_cell_length_c   11.37962349
_cell_angle_alpha   90.00000000
_cell_angle_beta   90.00000000
_cell_angle_gamma   90.00000000
_symmetry_Int_Tables_number   1
_chemical_formula_structural   K2TeMo2(PO7)2
_chemical_formula_sum   'K8 Te4 Mo8 P8 O56'
_cell_volume   1283.70439576
_cell_formula_units_Z   4
loop_
 _symmetry_equiv_pos_site_id
 _symmetry_equiv_pos_as_xyz
  1  'x, y, z'
loop_
 _atom_site_type_symbol
 _atom_site_label
 _atom_site_symmetry_multiplicity
 _atom_site_fract_x
 _atom_site_fract_y
 _atom_site_fract_z
 _atom_site_occupancy
  K  K0  1  0.97125840  0.69633504  0.78259863  1
  K  K1  1  0.02874160  0.30366496  0.21740137  1
  K  K2  1  0.52874160  0.80366496  0.28259863  1
  K  K3  1  0.97125840  0.30366496  0.71740137  1
  K  K4  1  0.47125840  0.19633504  0.71740137  1
  K  K5  1  0.02874160  0.69633504  0.28259863  1
  K  K6  1  0.52874160  0.19633504  0.21740137  1
  K  K7  1  0.47125840  0.80366496  0.78259863  1
  Te  Te8  1  0.86014771  0.00000000  0.75000000  1
  Te  Te9  1  0.13985229  0.00000000  0.25000000  1
  Te  Te10  1  0.63985229  0.50000000  0.25000000  1
  Te  Te11  1  0.36014771  0.50000000  0.75000000  1
  Mo  Mo12  1  0.76218062  0.62008929  0.52101720  1
  Mo  Mo13  1  0.23781938  0.37991071  0.47898280  1
  Mo  Mo14  1  0.73781938  0.87991071  0.02101720  1
  Mo  Mo15  1  0.76218062  0.37991071  0.97898280  1
  Mo  Mo16  1  0.26218062  0.12008929  0.97898280  1
  Mo  Mo17  1  0.23781938  0.62008929  0.02101720  1
  Mo  Mo18  1  0.73781938  0.12008929  0.47898280  1
  Mo  Mo19  1  0.26218062  0.87991071  0.52101720  1
  P  P20  1  0.64311347  0.63024063  0.99408609  1
  P  P21  1  0.35688653  0.36975937  0.00591391  1
  P  P22  1  0.85688653  0.86975937  0.49408609  1
  P  P23  1  0.64311347  0.36975937  0.50591391  1
  P  P24  1  0.14311347  0.13024063  0.50591391  1
  P  P25  1  0.35688653  0.63024063  0.49408609  1
  P  P26  1  0.85688653  0.13024063  0.00591391  1
  P  P27  1  0.14311347  0.86975937  0.99408609  1
  O  O28  1  0.72749056  0.53387442  0.94153993  1
  O  O29  1  0.27250944  0.46612558  0.05846007  1
  O  O30  1  0.77250944  0.96612558  0.44153993  1
  O  O31  1  0.72749056  0.46612558  0.55846007  1
  O  O32  1  0.22749056  0.03387442  0.55846007  1
  O  O33  1  0.27250944  0.53387442  0.44153993  1
  O  O34  1  0.77250944  0.03387442  0.05846007  1
  O  O35  1  0.22749056  0.96612558  0.94153993  1
  O  O36  1  0.68958316  0.66167038  0.65599539  1
  O  O37  1  0.31041684  0.33832962  0.34400461  1
  O  O38  1  0.81041684  0.83832962  0.15599539  1
  O  O39  1  0.68958316  0.33832962  0.84400461  1
  O  O40  1  0.18958316  0.16167038  0.84400461  1
  O  O41  1  0.31041684  0.66167038  0.15599539  1
  O  O42  1  0.81041684  0.16167038  0.34400461  1
  O  O43  1  0.18958316  0.83832962  0.65599539  1
  O  O44  1  0.97903564  0.87143050  0.94988879  1
  O  O45  1  0.02096436  0.12856950  0.05011121  1
  O  O46  1  0.52096436  0.62856950  0.44988879  1
  O  O47  1  0.97903564  0.12856950  0.55011121  1
  O  O48  1  0.47903564  0.37143050  0.55011121  1
  O  O49  1  0.02096436  0.87143050  0.44988879  1
  O  O50  1  0.52096436  0.37143050  0.05011121  1
  O  O51  1  0.47903564  0.62856950  0.94988879  1
  O  O52  1  0.71794056  0.92847811  0.84466469  1
  O  O53  1  0.28205944  0.07152189  0.15533531  1
  O  O54  1  0.78205944  0.57152189  0.34466469  1
  O  O55  1  0.71794056  0.07152189  0.65533531  1
  O  O56  1  0.21794056  0.42847811  0.65533531  1
  O  O57  1  0.28205944  0.92847811  0.34466469  1
  O  O58  1  0.78205944  0.42847811  0.15533531  1
  O  O59  1  0.21794056  0.57152189  0.84466469  1
  O  O60  1  0.95419326  0.62037890  0.54822219  1
  O  O61  1  0.04580674  0.37962110  0.45177781  1
  O  O62  1  0.54580674  0.87962110  0.04822219  1
  O  O63  1  0.95419326  0.37962110  0.95177781  1
  O  O64  1  0.45419326  0.12037890  0.95177781  1
  O  O65  1  0.04580674  0.62037890  0.04822219  1
  O  O66  1  0.54580674  0.12037890  0.45177781  1
  O  O67  1  0.45419326  0.87962110  0.54822219  1
  O  O68  1  0.72527806  0.73050108  0.94696141  1
  O  O69  1  0.27472194  0.26949892  0.05303859  1
  O  O70  1  0.77472194  0.76949892  0.44696141  1
  O  O71  1  0.72527806  0.26949892  0.55303859  1
  O  O72  1  0.22527806  0.23050108  0.55303859  1
  O  O73  1  0.27472194  0.73050108  0.44696141  1
  O  O74  1  0.77472194  0.23050108  0.05303859  1
  O  O75  1  0.22527806  0.76949892  0.94696141  1
  O  O76  1  0.84512998  0.86976530  0.63036457  1
  O  O77  1  0.15487002  0.13023470  0.36963543  1
  O  O78  1  0.65487002  0.63023470  0.13036457  1
  O  O79  1  0.84512998  0.13023470  0.86963543  1
  O  O80  1  0.34512998  0.36976530  0.86963543  1
  O  O81  1  0.15487002  0.86976530  0.13036457  1
  O  O82  1  0.65487002  0.36976530  0.36963543  1
  O  O83  1  0.34512998  0.63023470  0.63036457  1
