# generated using pymatgen
data_K2NdBr5
_symmetry_space_group_name_H-M   'P 1'
_cell_length_a   8.59914990
_cell_length_b   9.29579054
_cell_length_c   13.64104335
_cell_angle_alpha   90.00000000
_cell_angle_beta   90.00000000
_cell_angle_gamma   90.00000000
_symmetry_Int_Tables_number   1
_chemical_formula_structural   K2NdBr5
_chemical_formula_sum   'K8 Nd4 Br20'
_cell_volume   1090.40902655
_cell_formula_units_Z   4
loop_
 _symmetry_equiv_pos_site_id
 _symmetry_equiv_pos_as_xyz
  1  'x, y, z'
loop_
 _atom_site_type_symbol
 _atom_site_label
 _atom_site_symmetry_multiplicity
 _atom_site_fract_x
 _atom_site_fract_y
 _atom_site_fract_z
 _atom_site_occupancy
  K  K0  1  0.54992986  0.49449301  0.67099735  1
  K  K1  1  0.45007014  0.50550699  0.32900265  1
  K  K2  1  0.04992986  0.50550699  0.82900265  1
  K  K3  1  0.45007014  0.99449301  0.32900265  1
  K  K4  1  0.95007014  0.49449301  0.17099735  1
  K  K5  1  0.54992986  0.00550699  0.67099735  1
  K  K6  1  0.95007014  0.00550699  0.17099735  1
  K  K7  1  0.04992986  0.99449301  0.82900265  1
  Nd  Nd8  1  0.57742262  0.75000000  0.99430813  1
  Nd  Nd9  1  0.42257738  0.25000000  0.00569187  1
  Nd  Nd10  1  0.07742262  0.25000000  0.50569187  1
  Nd  Nd11  1  0.92257738  0.75000000  0.49430813  1
  Br  Br12  1  0.37336634  0.75000000  0.81967146  1
  Br  Br13  1  0.62663366  0.25000000  0.18032854  1
  Br  Br14  1  0.87336634  0.25000000  0.68032854  1
  Br  Br15  1  0.12663366  0.75000000  0.31967146  1
  Br  Br16  1  0.66460704  0.45664974  0.92264247  1
  Br  Br17  1  0.33539296  0.54335026  0.07735753  1
  Br  Br18  1  0.16460704  0.54335026  0.57735753  1
  Br  Br19  1  0.33539296  0.95664974  0.07735753  1
  Br  Br20  1  0.83539296  0.45664974  0.42264247  1
  Br  Br21  1  0.66460704  0.04335026  0.92264247  1
  Br  Br22  1  0.83539296  0.04335026  0.42264247  1
  Br  Br23  1  0.16460704  0.95664974  0.57735753  1
  Br  Br24  1  0.92473144  0.75000000  0.99280208  1
  Br  Br25  1  0.07526856  0.25000000  0.00719792  1
  Br  Br26  1  0.42473144  0.25000000  0.50719792  1
  Br  Br27  1  0.57526856  0.75000000  0.49280208  1
  Br  Br28  1  0.83539688  0.75000000  0.70489221  1
  Br  Br29  1  0.16460312  0.25000000  0.29510779  1
  Br  Br30  1  0.33539688  0.25000000  0.79510779  1
  Br  Br31  1  0.66460312  0.75000000  0.20489221  1
