# generated using pymatgen
data_LaGa4Fe9C
_symmetry_space_group_name_H-M   'P 1'
_cell_length_a   8.27611938
_cell_length_b   8.27611938
_cell_length_c   8.27611938
_cell_angle_alpha   90.99525248
_cell_angle_beta   119.42706391
_cell_angle_gamma   119.42706391
_symmetry_Int_Tables_number   1
_chemical_formula_structural   LaGa4Fe9C
_chemical_formula_sum   'La2 Ga8 Fe18 C2'
_cell_volume   404.23981634
_cell_formula_units_Z   2
loop_
 _symmetry_equiv_pos_site_id
 _symmetry_equiv_pos_as_xyz
  1  'x, y, z'
loop_
 _atom_site_type_symbol
 _atom_site_label
 _atom_site_symmetry_multiplicity
 _atom_site_fract_x
 _atom_site_fract_y
 _atom_site_fract_z
 _atom_site_occupancy
  La  La0  1  -0.00000000  0.75000000  0.75000000  1
  La  La1  1  -0.00000000  0.25000000  0.25000000  1
  Ga  Ga2  1  0.13374264  0.69453027  0.19453027  1
  Ga  Ga3  1  0.86625736  0.30546973  0.80546973  1
  Ga  Ga4  1  0.86625736  0.06078763  0.56078763  1
  Ga  Ga5  1  0.50000000  0.56078763  0.69453027  1
  Ga  Ga6  1  0.50000000  0.80546973  0.93921237  1
  Ga  Ga7  1  0.13374264  0.93921237  0.43921237  1
  Ga  Ga8  1  0.50000000  0.43921237  0.30546973  1
  Ga  Ga9  1  0.50000000  0.19453027  0.06078763  1
  Fe  Fe10  1  0.72330624  0.93518558  0.78812066  1
  Fe  Fe11  1  0.27669376  0.06481442  0.21187934  1
  Fe  Fe12  1  0.14706492  0.21187934  0.93518558  1
  Fe  Fe13  1  0.85293508  0.56481442  0.28812066  1
  Fe  Fe14  1  0.85293508  0.78812066  0.06481442  1
  Fe  Fe15  1  0.14706492  0.43518558  0.71187934  1
  Fe  Fe16  1  0.72330624  0.28812066  0.43518558  1
  Fe  Fe17  1  0.27669376  0.71187934  0.56481442  1
  Fe  Fe18  1  0.28344364  0.21748241  0.71748241  1
  Fe  Fe19  1  0.71655636  0.78251759  0.28251759  1
  Fe  Fe20  1  0.71655636  0.43403877  0.93403877  1
  Fe  Fe21  1  0.50000000  0.93403877  0.21748241  1
  Fe  Fe22  1  0.50000000  0.28251759  0.56596123  1
  Fe  Fe23  1  0.28344364  0.56596123  0.06596123  1
  Fe  Fe24  1  0.50000000  0.06596123  0.78251759  1
  Fe  Fe25  1  0.50000000  0.71748241  0.43403877  1
  Fe  Fe26  1  0.50000000  -0.00000000  0.50000000  1
  Fe  Fe27  1  0.50000000  0.50000000  -0.00000000  1
  C  C28  1  -0.00000000  -0.00000000  -0.00000000  1
  C  C29  1  -0.00000000  0.50000000  0.50000000  1
