# generated using pymatgen
data_K2Hg3S4
_symmetry_space_group_name_H-M   'P 1'
_cell_length_a   6.69102784
_cell_length_b   10.82101508
_cell_length_c   13.95155008
_cell_angle_alpha   90.00000000
_cell_angle_beta   90.00000000
_cell_angle_gamma   90.00000000
_symmetry_Int_Tables_number   1
_chemical_formula_structural   K2Hg3S4
_chemical_formula_sum   'K8 Hg12 S16'
_cell_volume   1010.14403009
_cell_formula_units_Z   4
loop_
 _symmetry_equiv_pos_site_id
 _symmetry_equiv_pos_as_xyz
  1  'x, y, z'
loop_
 _atom_site_type_symbol
 _atom_site_label
 _atom_site_symmetry_multiplicity
 _atom_site_fract_x
 _atom_site_fract_y
 _atom_site_fract_z
 _atom_site_occupancy
  K  K0  1  0.76592416  0.62105133  0.99815180  1
  K  K1  1  0.23407584  0.37894867  0.00184820  1
  K  K2  1  0.73407584  0.87894867  0.49815180  1
  K  K3  1  0.76592416  0.37894867  0.50184820  1
  K  K4  1  0.26592416  0.12105133  0.50184820  1
  K  K5  1  0.23407584  0.62105133  0.49815180  1
  K  K6  1  0.73407584  0.12105133  0.00184820  1
  K  K7  1  0.26592416  0.87894867  0.99815180  1
  Hg  Hg8  1  0.91597151  0.00000000  0.75000000  1
  Hg  Hg9  1  0.08402849  0.00000000  0.25000000  1
  Hg  Hg10  1  0.58402849  0.50000000  0.25000000  1
  Hg  Hg11  1  0.41597151  0.50000000  0.75000000  1
  Hg  Hg12  1  0.91412371  0.65828430  0.74155459  1
  Hg  Hg13  1  0.08587629  0.34171570  0.25844541  1
  Hg  Hg14  1  0.58587629  0.84171570  0.24155459  1
  Hg  Hg15  1  0.91412371  0.34171570  0.75844541  1
  Hg  Hg16  1  0.41412371  0.15828430  0.75844541  1
  Hg  Hg17  1  0.08587629  0.65828430  0.24155459  1
  Hg  Hg18  1  0.58587629  0.15828430  0.25844541  1
  Hg  Hg19  1  0.41412371  0.84171570  0.74155459  1
  S  S20  1  0.67403896  0.86705785  0.85850761  1
  S  S21  1  0.32596104  0.13294215  0.14149239  1
  S  S22  1  0.82596104  0.63294215  0.35850761  1
  S  S23  1  0.67403896  0.13294215  0.64149239  1
  S  S24  1  0.17403896  0.36705785  0.64149239  1
  S  S25  1  0.32596104  0.86705785  0.35850761  1
  S  S26  1  0.82596104  0.36705785  0.14149239  1
  S  S27  1  0.17403896  0.63294215  0.85850761  1
  S  S28  1  0.63863042  0.62911006  0.63247846  1
  S  S29  1  0.36136958  0.37088994  0.36752154  1
  S  S30  1  0.86136958  0.87088994  0.13247846  1
  S  S31  1  0.63863042  0.37088994  0.86752154  1
  S  S32  1  0.13863042  0.12911006  0.86752154  1
  S  S33  1  0.36136958  0.62911006  0.13247846  1
  S  S34  1  0.86136958  0.12911006  0.36752154  1
  S  S35  1  0.13863042  0.87088994  0.63247846  1
