# generated using pymatgen
data_HoTl(MoO4)2
_symmetry_space_group_name_H-M   'P 1'
_cell_length_a   5.13488214
_cell_length_b   8.16055194
_cell_length_c   18.84014231
_cell_angle_alpha   90.00000000
_cell_angle_beta   90.00000000
_cell_angle_gamma   90.00000000
_symmetry_Int_Tables_number   1
_chemical_formula_structural   HoTl(MoO4)2
_chemical_formula_sum   'Ho4 Tl4 Mo8 O32'
_cell_volume   789.46738347
_cell_formula_units_Z   4
loop_
 _symmetry_equiv_pos_site_id
 _symmetry_equiv_pos_as_xyz
  1  'x, y, z'
loop_
 _atom_site_type_symbol
 _atom_site_label
 _atom_site_symmetry_multiplicity
 _atom_site_fract_x
 _atom_site_fract_y
 _atom_site_fract_z
 _atom_site_occupancy
  Ho  Ho0  1  -0.00000000  0.75000000  0.99352715  1
  Ho  Ho1  1  -0.00000000  0.25000000  0.00647285  1
  Ho  Ho2  1  0.50000000  0.25000000  0.50647285  1
  Ho  Ho3  1  0.50000000  0.75000000  0.49352715  1
  Tl  Tl4  1  -0.00000000  0.75000000  0.23056621  1
  Tl  Tl5  1  -0.00000000  0.25000000  0.76943379  1
  Tl  Tl6  1  0.50000000  0.25000000  0.26943379  1
  Tl  Tl7  1  0.50000000  0.75000000  0.73056621  1
  Mo  Mo8  1  0.97760068  0.98458480  0.59939695  1
  Mo  Mo9  1  0.02239932  0.01541520  0.40060305  1
  Mo  Mo10  1  0.52239932  0.48458480  0.90060305  1
  Mo  Mo11  1  0.02239932  0.51541520  0.59939695  1
  Mo  Mo12  1  0.47760068  0.51541520  0.09939695  1
  Mo  Mo13  1  0.97760068  0.48458480  0.40060305  1
  Mo  Mo14  1  0.47760068  0.01541520  0.90060305  1
  Mo  Mo15  1  0.52239932  0.98458480  0.09939695  1
  O  O16  1  0.90073799  0.52409017  0.68678644  1
  O  O17  1  0.09926201  0.47590983  0.31321356  1
  O  O18  1  0.59926201  0.02409017  0.81321356  1
  O  O19  1  0.09926201  0.97590983  0.68678644  1
  O  O20  1  0.40073799  0.97590983  0.18678644  1
  O  O21  1  0.90073799  0.02409017  0.31321356  1
  O  O22  1  0.40073799  0.47590983  0.81321356  1
  O  O23  1  0.59926201  0.52409017  0.18678644  1
  O  O24  1  0.73257563  0.66095641  0.90304975  1
  O  O25  1  0.26742437  0.33904359  0.09695025  1
  O  O26  1  0.76742437  0.16095641  0.59695025  1
  O  O27  1  0.26742437  0.83904359  0.90304975  1
  O  O28  1  0.23257563  0.83904359  0.40304975  1
  O  O29  1  0.73257563  0.16095641  0.09695025  1
  O  O30  1  0.23257563  0.33904359  0.59695025  1
  O  O31  1  0.76742437  0.66095641  0.40304975  1
  O  O32  1  0.75407754  0.99444449  0.96437711  1
  O  O33  1  0.24592246  0.00555551  0.03562289  1
  O  O34  1  0.74592246  0.49444449  0.53562289  1
  O  O35  1  0.24592246  0.50555551  0.96437711  1
  O  O36  1  0.25407754  0.50555551  0.46437711  1
  O  O37  1  0.75407754  0.49444449  0.03562289  1
  O  O38  1  0.25407754  0.00555551  0.53562289  1
  O  O39  1  0.74592246  0.99444449  0.46437711  1
  O  O40  1  0.75744416  0.81066990  0.58906679  1
  O  O41  1  0.24255584  0.18933010  0.41093321  1
  O  O42  1  0.74255584  0.31066990  0.91093321  1
  O  O43  1  0.24255584  0.68933010  0.58906679  1
  O  O44  1  0.25744416  0.68933010  0.08906679  1
  O  O45  1  0.75744416  0.31066990  0.41093321  1
  O  O46  1  0.25744416  0.18933010  0.91093321  1
  O  O47  1  0.74255584  0.81066990  0.08906679  1
