# generated using pymatgen
data_Ho5(GeSb)2
_symmetry_space_group_name_H-M   'P 1'
_cell_length_a   7.88181362
_cell_length_b   7.91174395
_cell_length_c   8.50986287
_cell_angle_alpha   90.00000000
_cell_angle_beta   117.58724530
_cell_angle_gamma   90.00000000
_symmetry_Int_Tables_number   1
_chemical_formula_structural   Ho5(GeSb)2
_chemical_formula_sum   'Ho10 Ge4 Sb4'
_cell_volume   470.33248407
_cell_formula_units_Z   2
loop_
 _symmetry_equiv_pos_site_id
 _symmetry_equiv_pos_as_xyz
  1  'x, y, z'
loop_
 _atom_site_type_symbol
 _atom_site_label
 _atom_site_symmetry_multiplicity
 _atom_site_fract_x
 _atom_site_fract_y
 _atom_site_fract_z
 _atom_site_occupancy
  Ho  Ho0  1  0.29263961  0.33611739  0.25599485  1
  Ho  Ho1  1  0.70736039  0.66388261  0.74400515  1
  Ho  Ho2  1  0.20736039  0.83611739  0.74400515  1
  Ho  Ho3  1  0.53664476  0.16388261  0.74400515  1
  Ho  Ho4  1  0.79263961  0.16388261  0.25599485  1
  Ho  Ho5  1  0.46335524  0.83611739  0.25599485  1
  Ho  Ho6  1  0.96335524  0.66388261  0.25599485  1
  Ho  Ho7  1  0.03664476  0.33611739  0.74400515  1
  Ho  Ho8  1  0.00000000  -0.00000000  0.00000000  1
  Ho  Ho9  1  0.50000000  0.50000000  0.00000000  1
  Ge  Ge10  1  0.36141536  0.13743139  0.00000000  1
  Ge  Ge11  1  0.63858464  0.86256861  0.00000000  1
  Ge  Ge12  1  0.13858464  0.63743139  0.00000000  1
  Ge  Ge13  1  0.86141536  0.36256861  0.00000000  1
  Sb  Sb14  1  0.20495431  -0.00000000  0.40990862  1
  Sb  Sb15  1  0.79504569  0.00000000  0.59009138  1
  Sb  Sb16  1  0.29504569  0.50000000  0.59009138  1
  Sb  Sb17  1  0.70495431  0.50000000  0.40990862  1
