# generated using pymatgen
data_KCeAgTe4
_symmetry_space_group_name_H-M   'P 1'
_cell_length_a   4.46801091
_cell_length_b   4.47213716
_cell_length_c   21.37648909
_cell_angle_alpha   90.00000000
_cell_angle_beta   90.01083955
_cell_angle_gamma   90.00000000
_symmetry_Int_Tables_number   1
_chemical_formula_structural   KCeAgTe4
_chemical_formula_sum   'K2 Ce2 Ag2 Te8'
_cell_volume   427.13554140
_cell_formula_units_Z   2
loop_
 _symmetry_equiv_pos_site_id
 _symmetry_equiv_pos_as_xyz
  1  'x, y, z'
loop_
 _atom_site_type_symbol
 _atom_site_label
 _atom_site_symmetry_multiplicity
 _atom_site_fract_x
 _atom_site_fract_y
 _atom_site_fract_z
 _atom_site_occupancy
  K  K0  1  0.52318823  0.50000000  0.74468477  1
  K  K1  1  0.02379679  -0.00000000  0.44645478  1
  Ce  Ce2  1  0.50599136  0.50000000  0.19313523  1
  Ce  Ce3  1  0.00596999  -0.00000000  -0.00110194  1
  Ag  Ag4  1  0.52548540  0.00000000  0.59532438  1
  Ag  Ag5  1  0.02541955  0.50000000  0.59560478  1
  Te  Te6  1  0.50519429  0.50000000  0.04071685  1
  Te  Te7  1  0.52479734  0.50000000  0.51185572  1
  Te  Te8  1  0.50760156  0.00000000  0.88756225  1
  Te  Te9  1  0.00547975  0.00000000  0.15122994  1
  Te  Te10  1  0.50838725  0.00000000  0.30403313  1
  Te  Te11  1  0.02450759  -0.00000000  0.67913318  1
  Te  Te12  1  0.00791493  0.50000000  0.30397706  1
  Te  Te13  1  0.00806597  0.50000000  0.88750988  1
