# generated using pymatgen
data_Hf2Si4Mo3
_symmetry_space_group_name_H-M   'P 1'
_cell_length_a   6.58412441
_cell_length_b   6.76274345
_cell_length_c   12.59666579
_cell_angle_alpha   90.00000000
_cell_angle_beta   90.00000000
_cell_angle_gamma   90.00000000
_symmetry_Int_Tables_number   1
_chemical_formula_structural   Hf2Si4Mo3
_chemical_formula_sum   'Hf8 Si16 Mo12'
_cell_volume   560.88851575
_cell_formula_units_Z   4
loop_
 _symmetry_equiv_pos_site_id
 _symmetry_equiv_pos_as_xyz
  1  'x, y, z'
loop_
 _atom_site_type_symbol
 _atom_site_label
 _atom_site_symmetry_multiplicity
 _atom_site_fract_x
 _atom_site_fract_y
 _atom_site_fract_z
 _atom_site_occupancy
  Hf  Hf0  1  0.00680552  0.82806017  0.40739820  1
  Hf  Hf1  1  0.99319448  0.17193983  0.59260180  1
  Hf  Hf2  1  0.49319448  0.32806017  0.59260180  1
  Hf  Hf3  1  0.99319448  0.17193983  0.90739820  1
  Hf  Hf4  1  0.50680552  0.67193983  0.40739820  1
  Hf  Hf5  1  0.00680552  0.82806017  0.09260180  1
  Hf  Hf6  1  0.50680552  0.67193983  0.09260180  1
  Hf  Hf7  1  0.49319448  0.32806017  0.90739820  1
  Si  Si8  1  0.96774382  0.87886343  0.75000000  1
  Si  Si9  1  0.03225618  0.12113657  0.25000000  1
  Si  Si10  1  0.53225618  0.37886343  0.25000000  1
  Si  Si11  1  0.46774382  0.62113657  0.75000000  1
  Si  Si12  1  0.69923121  0.13841610  0.75000000  1
  Si  Si13  1  0.30076879  0.86158390  0.25000000  1
  Si  Si14  1  0.80076879  0.63841610  0.25000000  1
  Si  Si15  1  0.19923121  0.36158390  0.75000000  1
  Si  Si16  1  0.83230168  0.54052233  0.95694096  1
  Si  Si17  1  0.16769832  0.45947767  0.04305904  1
  Si  Si18  1  0.66769832  0.04052233  0.04305904  1
  Si  Si19  1  0.16769832  0.45947767  0.45694096  1
  Si  Si20  1  0.33230168  0.95947767  0.95694096  1
  Si  Si21  1  0.83230168  0.54052233  0.54305904  1
  Si  Si22  1  0.33230168  0.95947767  0.54305904  1
  Si  Si23  1  0.66769832  0.04052233  0.45694096  1
  Mo  Mo24  1  0.83162224  0.48606631  0.75000000  1
  Mo  Mo25  1  0.16837776  0.51393369  0.25000000  1
  Mo  Mo26  1  0.66837776  0.98606631  0.25000000  1
  Mo  Mo27  1  0.33162224  0.01393369  0.75000000  1
  Mo  Mo28  1  0.66910638  0.83518853  0.87657143  1
  Mo  Mo29  1  0.33089362  0.16481147  0.12342857  1
  Mo  Mo30  1  0.83089362  0.33518853  0.12342857  1
  Mo  Mo31  1  0.33089362  0.16481147  0.37657143  1
  Mo  Mo32  1  0.16910638  0.66481147  0.87657143  1
  Mo  Mo33  1  0.66910638  0.83518853  0.62342857  1
  Mo  Mo34  1  0.16910638  0.66481147  0.62342857  1
  Mo  Mo35  1  0.83089362  0.33518853  0.37657143  1
