# generated using pymatgen
data_GdTl(WO4)2
_symmetry_space_group_name_H-M   'P 1'
_cell_length_a   7.67791686
_cell_length_b   7.67791686
_cell_length_c   7.51819454
_cell_angle_alpha   62.69697517
_cell_angle_beta   62.69697517
_cell_angle_gamma   89.03924782
_symmetry_Int_Tables_number   1
_chemical_formula_structural   GdTl(WO4)2
_chemical_formula_sum   'Gd2 Tl2 W4 O16'
_cell_volume   339.26416315
_cell_formula_units_Z   2
loop_
 _symmetry_equiv_pos_site_id
 _symmetry_equiv_pos_as_xyz
  1  'x, y, z'
loop_
 _atom_site_type_symbol
 _atom_site_label
 _atom_site_symmetry_multiplicity
 _atom_site_fract_x
 _atom_site_fract_y
 _atom_site_fract_z
 _atom_site_occupancy
  Gd  Gd0  1  0.22427152  0.77572848  0.75000000  1
  Gd  Gd1  1  0.77572848  0.22427152  0.25000000  1
  Tl  Tl2  1  0.79661872  0.20338128  0.75000000  1
  Tl  Tl3  1  0.20338128  0.79661872  0.25000000  1
  W  W4  1  0.30118049  0.31118976  0.72106319  1
  W  W5  1  0.69881951  0.68881024  0.27893681  1
  W  W6  1  0.68881024  0.69881951  0.77893681  1
  W  W7  1  0.31118976  0.30118049  0.22106319  1
  O  O8  1  0.38053505  0.24407296  0.94247908  1
  O  O9  1  0.61946495  0.75592704  0.05752092  1
  O  O10  1  0.75592704  0.61946495  0.55752092  1
  O  O11  1  0.24407296  0.38053505  0.44247908  1
  O  O12  1  0.62085378  0.93309748  0.62601915  1
  O  O13  1  0.37914622  0.06690252  0.37398085  1
  O  O14  1  0.06690252  0.37914622  0.87398085  1
  O  O15  1  0.93309748  0.62085378  0.12601915  1
  O  O16  1  0.41351086  0.62951050  0.53161200  1
  O  O17  1  0.58648914  0.37048950  0.46838800  1
  O  O18  1  0.37048950  0.58648914  0.96838800  1
  O  O19  1  0.62951050  0.41351086  0.03161200  1
  O  O20  1  0.21339250  0.04845247  0.80953223  1
  O  O21  1  0.78660750  0.95154753  0.19046777  1
  O  O22  1  0.95154753  0.78660750  0.69046777  1
  O  O23  1  0.04845247  0.21339250  0.30953223  1
