# generated using pymatgen
data_Ho2(Ga3Ru)3
_symmetry_space_group_name_H-M   'P 1'
_cell_length_a   7.48782404
_cell_length_b   7.48782404
_cell_length_c   9.72729098
_cell_angle_alpha   90.00000000
_cell_angle_beta   90.00000000
_cell_angle_gamma   119.53440669
_symmetry_Int_Tables_number   1
_chemical_formula_structural   Ho2(Ga3Ru)3
_chemical_formula_sum   'Ho4 Ga18 Ru6'
_cell_volume   474.51755850
_cell_formula_units_Z   2
loop_
 _symmetry_equiv_pos_site_id
 _symmetry_equiv_pos_as_xyz
  1  'x, y, z'
loop_
 _atom_site_type_symbol
 _atom_site_label
 _atom_site_symmetry_multiplicity
 _atom_site_fract_x
 _atom_site_fract_y
 _atom_site_fract_z
 _atom_site_occupancy
  Ho  Ho0  1  0.66929545  0.99698140  0.25000000  1
  Ho  Ho1  1  0.33070455  0.00301860  0.75000000  1
  Ho  Ho2  1  0.99698140  0.66929545  0.25000000  1
  Ho  Ho3  1  0.00301860  0.33070455  0.75000000  1
  Ga  Ga4  1  0.12548700  0.12548700  0.25000000  1
  Ga  Ga5  1  0.87451300  0.87451300  0.75000000  1
  Ga  Ga6  1  0.33525712  0.00507582  0.07613522  1
  Ga  Ga7  1  0.66474288  0.99492418  0.92386478  1
  Ga  Ga8  1  0.66474288  0.99492418  0.57613522  1
  Ga  Ga9  1  0.00507582  0.33525712  0.42386478  1
  Ga  Ga10  1  0.33525712  0.00507582  0.42386478  1
  Ga  Ga11  1  0.99492418  0.66474288  0.57613522  1
  Ga  Ga12  1  0.99492418  0.66474288  0.92386478  1
  Ga  Ga13  1  0.00507582  0.33525712  0.07613522  1
  Ga  Ga14  1  0.33687860  0.33687860  0.56012736  1
  Ga  Ga15  1  0.66312140  0.66312140  0.43987264  1
  Ga  Ga16  1  0.66312140  0.66312140  0.06012736  1
  Ga  Ga17  1  0.33687860  0.33687860  0.93987264  1
  Ga  Ga18  1  0.54792959  0.33667457  0.25000000  1
  Ga  Ga19  1  0.45207041  0.66332543  0.75000000  1
  Ga  Ga20  1  0.33667457  0.54792959  0.25000000  1
  Ga  Ga21  1  0.66332543  0.45207041  0.75000000  1
  Ru  Ru22  1  0.32598604  0.67401396  -0.00000000  1
  Ru  Ru23  1  0.67401396  0.32598604  -0.00000000  1
  Ru  Ru24  1  0.67401396  0.32598604  0.50000000  1
  Ru  Ru25  1  0.32598604  0.67401396  0.50000000  1
  Ru  Ru26  1  0.00000000  0.00000000  -0.00000000  1
  Ru  Ru27  1  0.00000000  0.00000000  0.50000000  1
