# generated using pymatgen
data_La3Lu2(GaO4)3
_symmetry_space_group_name_H-M   'P 1'
_cell_length_a   11.33052651
_cell_length_b   11.33052651
_cell_length_c   11.33052651
_cell_angle_alpha   109.47122063
_cell_angle_beta   109.47122063
_cell_angle_gamma   109.47122063
_symmetry_Int_Tables_number   1
_chemical_formula_structural   La3Lu2(GaO4)3
_chemical_formula_sum   'La12 Lu8 Ga12 O48'
_cell_volume   1119.76885219
_cell_formula_units_Z   4
loop_
 _symmetry_equiv_pos_site_id
 _symmetry_equiv_pos_as_xyz
  1  'x, y, z'
loop_
 _atom_site_type_symbol
 _atom_site_label
 _atom_site_symmetry_multiplicity
 _atom_site_fract_x
 _atom_site_fract_y
 _atom_site_fract_z
 _atom_site_occupancy
  La  La0  1  0.87500000  0.62500000  0.75000000  1
  La  La1  1  0.12500000  0.37500000  0.25000000  1
  La  La2  1  0.62500000  0.87500000  0.25000000  1
  La  La3  1  0.62500000  0.75000000  0.87500000  1
  La  La4  1  0.87500000  0.25000000  0.62500000  1
  La  La5  1  0.37500000  0.12500000  0.75000000  1
  La  La6  1  0.37500000  0.25000000  0.12500000  1
  La  La7  1  0.12500000  0.75000000  0.37500000  1
  La  La8  1  0.75000000  0.87500000  0.62500000  1
  La  La9  1  0.25000000  0.12500000  0.37500000  1
  La  La10  1  0.25000000  0.62500000  0.87500000  1
  La  La11  1  0.75000000  0.37500000  0.12500000  1
  Lu  Lu12  1  -0.00000000  -0.00000000  -0.00000000  1
  Lu  Lu13  1  0.50000000  -0.00000000  0.50000000  1
  Lu  Lu14  1  0.50000000  0.50000000  -0.00000000  1
  Lu  Lu15  1  -0.00000000  -0.00000000  0.50000000  1
  Lu  Lu16  1  -0.00000000  0.50000000  0.50000000  1
  Lu  Lu17  1  0.50000000  0.50000000  0.50000000  1
  Lu  Lu18  1  0.50000000  -0.00000000  -0.00000000  1
  Lu  Lu19  1  -0.00000000  0.50000000  -0.00000000  1
  Ga  Ga20  1  0.62500000  0.37500000  0.75000000  1
  Ga  Ga21  1  0.37500000  0.62500000  0.25000000  1
  Ga  Ga22  1  0.87500000  0.12500000  0.25000000  1
  Ga  Ga23  1  0.37500000  0.75000000  0.62500000  1
  Ga  Ga24  1  0.62500000  0.25000000  0.37500000  1
  Ga  Ga25  1  0.12500000  0.87500000  0.75000000  1
  Ga  Ga26  1  0.12500000  0.25000000  0.87500000  1
  Ga  Ga27  1  0.87500000  0.75000000  0.12500000  1
  Ga  Ga28  1  0.75000000  0.62500000  0.37500000  1
  Ga  Ga29  1  0.25000000  0.37500000  0.62500000  1
  Ga  Ga30  1  0.25000000  0.87500000  0.12500000  1
  Ga  Ga31  1  0.75000000  0.12500000  0.87500000  1
  O  O32  1  0.71007257  0.62515691  0.52394551  1
  O  O33  1  0.28992743  0.37484309  0.47605449  1
  O  O34  1  0.78992743  0.81387294  0.41508434  1
  O  O35  1  0.39878860  0.87484309  0.08491566  1
  O  O36  1  0.62515691  0.52394551  0.71007257  1
  O  O37  1  0.71007257  0.08491566  0.68612706  1
  O  O38  1  0.21007257  0.18612706  0.58491566  1
  O  O39  1  0.60121140  0.12515691  0.91508434  1
  O  O40  1  0.37484309  0.47605449  0.28992743  1
  O  O41  1  0.28992743  0.91508434  0.31387294  1
  O  O42  1  0.10121140  0.68612706  0.97605449  1
  O  O43  1  0.81387294  0.41508434  0.78992743  1
  O  O44  1  0.78992743  0.97605449  0.87484309  1
  O  O45  1  0.89878860  0.31387294  0.02394551  1
  O  O46  1  0.18612706  0.58491566  0.21007257  1
  O  O47  1  0.21007257  0.02394551  0.12515691  1
  O  O48  1  0.87484309  0.08491566  0.39878860  1
  O  O49  1  0.39878860  0.52394551  0.81387294  1
  O  O50  1  0.12515691  0.91508434  0.60121140  1
  O  O51  1  0.60121140  0.47605449  0.18612706  1
  O  O52  1  0.68612706  0.97605449  0.10121140  1
  O  O53  1  0.10121140  0.41508434  0.62515691  1
  O  O54  1  0.31387294  0.02394551  0.89878860  1
  O  O55  1  0.89878860  0.58491566  0.37484309  1
  O  O56  1  0.52394551  0.71007257  0.62515691  1
  O  O57  1  0.62515691  0.10121140  0.41508434  1
  O  O58  1  0.47605449  0.28992743  0.37484309  1
  O  O59  1  0.37484309  0.89878860  0.58491566  1
  O  O60  1  0.08491566  0.39878860  0.87484309  1
  O  O61  1  0.87484309  0.78992743  0.97605449  1
  O  O62  1  0.91508434  0.60121140  0.12515691  1
  O  O63  1  0.12515691  0.21007257  0.02394551  1
  O  O64  1  0.97605449  0.10121140  0.68612706  1
  O  O65  1  0.68612706  0.71007257  0.08491566  1
  O  O66  1  0.02394551  0.89878860  0.31387294  1
  O  O67  1  0.31387294  0.28992743  0.91508434  1
  O  O68  1  0.41508434  0.78992743  0.81387294  1
  O  O69  1  0.81387294  0.39878860  0.52394551  1
  O  O70  1  0.58491566  0.21007257  0.18612706  1
  O  O71  1  0.18612706  0.60121140  0.47605449  1
  O  O72  1  0.08491566  0.68612706  0.71007257  1
  O  O73  1  0.91508434  0.31387294  0.28992743  1
  O  O74  1  0.97605449  0.87484309  0.78992743  1
  O  O75  1  0.02394551  0.12515691  0.21007257  1
  O  O76  1  0.41508434  0.62515691  0.10121140  1
  O  O77  1  0.58491566  0.37484309  0.89878860  1
  O  O78  1  0.52394551  0.81387294  0.39878860  1
  O  O79  1  0.47605449  0.18612706  0.60121140  1
