# generated using pymatgen
data_HfMg14Ga
_symmetry_space_group_name_H-M   'P 1'
_cell_length_a   6.35547312
_cell_length_b   6.35547261
_cell_length_c   10.13978689
_cell_angle_alpha   90.00000000
_cell_angle_beta   90.00000000
_cell_angle_gamma   120.00000264
_symmetry_Int_Tables_number   1
_chemical_formula_structural   HfMg14Ga
_chemical_formula_sum   'Hf1 Mg14 Ga1'
_cell_volume   354.69509721
_cell_formula_units_Z   1
loop_
 _symmetry_equiv_pos_site_id
 _symmetry_equiv_pos_as_xyz
  1  'x, y, z'
loop_
 _atom_site_type_symbol
 _atom_site_label
 _atom_site_symmetry_multiplicity
 _atom_site_fract_x
 _atom_site_fract_y
 _atom_site_fract_z
 _atom_site_occupancy
  Hf  Hf0  1  0.16666700  0.33333300  0.62500000  1
  Mg  Mg1  1  0.16489804  0.83244852  0.12500000  1
  Mg  Mg2  1  0.17176185  0.83588043  0.62500000  1
  Mg  Mg3  1  0.66755148  0.33510196  0.12500000  1
  Mg  Mg4  1  0.66411957  0.32823815  0.62500000  1
  Mg  Mg5  1  0.66755148  0.83244852  0.12500000  1
  Mg  Mg6  1  0.66411957  0.83588043  0.62500000  1
  Mg  Mg7  1  0.32877741  0.17122259  0.37441290  1
  Mg  Mg8  1  0.32877741  0.17122259  0.87558710  1
  Mg  Mg9  1  0.32877741  0.65755582  0.37441290  1
  Mg  Mg10  1  0.32877741  0.65755582  0.87558710  1
  Mg  Mg11  1  0.84244418  0.17122259  0.37441290  1
  Mg  Mg12  1  0.84244418  0.17122259  0.87558710  1
  Mg  Mg13  1  0.83333300  0.66666700  0.38031908  1
  Mg  Mg14  1  0.83333300  0.66666700  0.86968092  1
  Ga  Ga15  1  0.16666700  0.33333300  0.12500000  1
