# generated using pymatgen
data_Gd5B3O13
_symmetry_space_group_name_H-M   'P 1'
_cell_length_a   6.84179687
_cell_length_b   9.06209954
_cell_length_c   9.06209954
_cell_angle_alpha   120.00000539
_cell_angle_beta   90.00000000
_cell_angle_gamma   90.00000000
_symmetry_Int_Tables_number   1
_chemical_formula_structural   Gd5B3O13
_chemical_formula_sum   'Gd10 B6 O26'
_cell_volume   486.58469044
_cell_formula_units_Z   2
loop_
 _symmetry_equiv_pos_site_id
 _symmetry_equiv_pos_as_xyz
  1  'x, y, z'
loop_
 _atom_site_type_symbol
 _atom_site_label
 _atom_site_symmetry_multiplicity
 _atom_site_fract_x
 _atom_site_fract_y
 _atom_site_fract_z
 _atom_site_occupancy
  Gd  Gd0  1  0.75000000  0.74922241  0.98853715  1
  Gd  Gd1  1  0.25000000  0.25077759  0.01146285  1
  Gd  Gd2  1  0.75000000  0.23931474  0.25077759  1
  Gd  Gd3  1  0.25000000  0.76068526  0.74922241  1
  Gd  Gd4  1  0.75000000  0.01146285  0.76068526  1
  Gd  Gd5  1  0.25000000  0.98853715  0.23931474  1
  Gd  Gd6  1  0.99861342  0.66666700  0.33333300  1
  Gd  Gd7  1  0.00138658  0.33333300  0.66666700  1
  Gd  Gd8  1  0.49861342  0.33333300  0.66666700  1
  Gd  Gd9  1  0.50138658  0.66666700  0.33333300  1
  B  B10  1  0.75000000  0.96974385  0.36955230  1
  B  B11  1  0.25000000  0.03025615  0.63044770  1
  B  B12  1  0.75000000  0.39980845  0.03025615  1
  B  B13  1  0.25000000  0.60019155  0.96974385  1
  B  B14  1  0.75000000  0.63044770  0.60019155  1
  B  B15  1  0.25000000  0.36955230  0.39980845  1
  O  O16  1  0.75000000  0.87579571  0.46452104  1
  O  O17  1  0.25000000  0.12420429  0.53547896  1
  O  O18  1  0.75000000  0.58872533  0.12420429  1
  O  O19  1  0.25000000  0.41127467  0.87579571  1
  O  O20  1  0.75000000  0.53547896  0.41127467  1
  O  O21  1  0.25000000  0.46452104  0.58872533  1
  O  O22  1  0.92638884  0.91125359  0.25799735  1
  O  O23  1  0.07361116  0.08874641  0.74200265  1
  O  O24  1  0.92638884  0.34674376  0.08874641  1
  O  O25  1  0.42638884  0.08874641  0.74200265  1
  O  O26  1  0.07361116  0.65325624  0.91125359  1
  O  O27  1  0.57361116  0.91125359  0.25799735  1
  O  O28  1  0.92638884  0.74200265  0.65325624  1
  O  O29  1  0.42638884  0.65325624  0.91125359  1
  O  O30  1  0.07361116  0.25799735  0.34674376  1
  O  O31  1  0.57361116  0.34674376  0.08874641  1
  O  O32  1  0.42638884  0.25799735  0.34674376  1
  O  O33  1  0.57361116  0.74200265  0.65325624  1
  O  O34  1  0.75000000  0.51772158  0.67260364  1
  O  O35  1  0.25000000  0.48227842  0.32739636  1
  O  O36  1  0.75000000  0.15488206  0.48227842  1
  O  O37  1  0.25000000  0.84511794  0.51772158  1
  O  O38  1  0.75000000  0.32739636  0.84511794  1
  O  O39  1  0.25000000  0.67260364  0.15488206  1
  O  O40  1  0.75000000  0.00000000  0.00000000  1
  O  O41  1  0.25000000  0.00000000  0.00000000  1
