# generated using pymatgen
data_Ho4(Al8Pt3)3
_symmetry_space_group_name_H-M   'P 1'
_cell_length_a   7.49869258
_cell_length_b   7.54924593
_cell_length_c   13.21864884
_cell_angle_alpha   84.63665209
_cell_angle_beta   79.26334132
_cell_angle_gamma   59.94171965
_symmetry_Int_Tables_number   1
_chemical_formula_structural   Ho4(Al8Pt3)3
_chemical_formula_sum   'Ho4 Al24 Pt9'
_cell_volume   636.32836728
_cell_formula_units_Z   1
loop_
 _symmetry_equiv_pos_site_id
 _symmetry_equiv_pos_as_xyz
  1  'x, y, z'
loop_
 _atom_site_type_symbol
 _atom_site_label
 _atom_site_symmetry_multiplicity
 _atom_site_fract_x
 _atom_site_fract_y
 _atom_site_fract_z
 _atom_site_occupancy
  Ho  Ho0  1  0.39318842  0.16880849  0.80785312  1
  Ho  Ho1  1  0.60681158  0.83119151  0.19214688  1
  Ho  Ho2  1  0.73441161  0.49834720  0.80736225  1
  Ho  Ho3  1  0.26558839  0.50165280  0.19263775  1
  Al  Al4  1  0.68493331  0.83373676  0.94447648  1
  Al  Al5  1  0.31506669  0.16626324  0.05552352  1
  Al  Al6  1  0.14659925  0.83236444  0.56067252  1
  Al  Al7  1  0.85340075  0.16763556  0.43932748  1
  Al  Al8  1  0.47947468  0.16669579  0.55834969  1
  Al  Al9  1  0.52052532  0.83330421  0.44165031  1
  Al  Al10  1  0.21680491  0.16528606  0.32943553  1
  Al  Al11  1  0.78319509  0.83471394  0.67056447  1
  Al  Al12  1  0.43765397  0.50589586  0.67061246  1
  Al  Al13  1  0.56234603  0.49410414  0.32938754  1
  Al  Al14  1  0.10925184  0.16031921  0.66972756  1
  Al  Al15  1  0.89074816  0.83968079  0.33027244  1
  Al  Al16  1  0.35336890  0.49929039  0.94468185  1
  Al  Al17  1  0.64663110  0.50070961  0.05531815  1
  Al  Al18  1  0.01572706  0.16768795  0.95274998  1
  Al  Al19  1  0.98427294  0.83231205  0.04725002  1
  Al  Al20  1  0.18648424  0.49932274  0.44149227  1
  Al  Al21  1  0.81351576  0.50067726  0.55850773  1
  Al  Al22  1  0.73441294  0.16348134  0.18317713  1
  Al  Al23  1  0.26558706  0.83651866  0.81682287  1
  Al  Al24  1  0.06178507  0.63154577  0.81557998  1
  Al  Al25  1  0.93821493  0.36845423  0.18442002  1
  Al  Al26  1  0.85528572  0.04128422  0.81590627  1
  Al  Al27  1  0.14471428  0.95871578  0.18409373  1
  Pt  Pt28  1  0.12003368  0.49271009  0.63866115  1
  Pt  Pt29  1  0.87996632  0.50728991  0.36133885  1
  Pt  Pt30  1  0.65697421  0.17124060  0.99975629  1
  Pt  Pt31  1  0.34302579  0.82875940  0.00024371  1
  Pt  Pt32  1  0.53887377  0.16667055  0.36126682  1
  Pt  Pt33  1  0.46112623  0.83332945  0.63873318  1
  Pt  Pt34  1  0.77929308  0.17451921  0.63658448  1
  Pt  Pt35  1  0.22070692  0.82548079  0.36341552  1
  Pt  Pt36  1  0.00000000  0.50000000  0.00000000  1
