# generated using pymatgen
data_Hf6Be15Co8
_symmetry_space_group_name_H-M   'P 1'
_cell_length_a   7.72890563
_cell_length_b   7.72890563
_cell_length_c   7.72890563
_cell_angle_alpha   60.00000000
_cell_angle_beta   60.00000000
_cell_angle_gamma   60.00000000
_symmetry_Int_Tables_number   1
_chemical_formula_structural   Hf6Be15Co8
_chemical_formula_sum   'Hf6 Be15 Co8'
_cell_volume   326.46679481
_cell_formula_units_Z   1
loop_
 _symmetry_equiv_pos_site_id
 _symmetry_equiv_pos_as_xyz
  1  'x, y, z'
loop_
 _atom_site_type_symbol
 _atom_site_label
 _atom_site_symmetry_multiplicity
 _atom_site_fract_x
 _atom_site_fract_y
 _atom_site_fract_z
 _atom_site_occupancy
  Hf  Hf0  1  0.71105482  0.71105482  0.28894518  1
  Hf  Hf1  1  0.28894518  0.28894518  0.71105482  1
  Hf  Hf2  1  0.71105482  0.28894518  0.71105482  1
  Hf  Hf3  1  0.28894518  0.71105482  0.28894518  1
  Hf  Hf4  1  0.28894518  0.71105482  0.71105482  1
  Hf  Hf5  1  0.71105482  0.28894518  0.28894518  1
  Be  Be6  1  0.67779492  0.67779492  0.67779492  1
  Be  Be7  1  0.32220508  0.32220508  0.32220508  1
  Be  Be8  1  0.96661524  0.67779492  0.67779492  1
  Be  Be9  1  0.67779492  0.96661524  0.67779492  1
  Be  Be10  1  0.03338476  0.32220508  0.32220508  1
  Be  Be11  1  0.32220508  0.03338476  0.32220508  1
  Be  Be12  1  0.67779492  0.67779492  0.96661524  1
  Be  Be13  1  0.32220508  0.32220508  0.03338476  1
  Be  Be14  1  0.00000000  0.00000000  0.50000000  1
  Be  Be15  1  0.50000000  0.50000000  -0.00000000  1
  Be  Be16  1  0.00000000  0.50000000  -0.00000000  1
  Be  Be17  1  0.50000000  0.00000000  0.50000000  1
  Be  Be18  1  0.50000000  0.00000000  -0.00000000  1
  Be  Be19  1  0.00000000  0.50000000  0.50000000  1
  Be  Be20  1  0.00000000  0.00000000  -0.00000000  1
  Co  Co21  1  0.87531881  0.87531881  0.87531881  1
  Co  Co22  1  0.12468119  0.12468119  0.12468119  1
  Co  Co23  1  0.37404358  0.87531881  0.87531881  1
  Co  Co24  1  0.87531881  0.37404358  0.87531881  1
  Co  Co25  1  0.62595642  0.12468119  0.12468119  1
  Co  Co26  1  0.12468119  0.62595642  0.12468119  1
  Co  Co27  1  0.87531881  0.87531881  0.37404358  1
  Co  Co28  1  0.12468119  0.12468119  0.62595642  1
