# generated using pymatgen
data_K4Te8O23
_symmetry_space_group_name_H-M   'P 1'
_cell_length_a   7.40928373
_cell_length_b   14.86449751
_cell_length_c   20.00382862
_cell_angle_alpha   90.00000000
_cell_angle_beta   90.00000000
_cell_angle_gamma   90.00000000
_symmetry_Int_Tables_number   1
_chemical_formula_structural   K4Te8O23
_chemical_formula_sum   'K16 Te32 O92'
_cell_volume   2203.12725724
_cell_formula_units_Z   4
loop_
 _symmetry_equiv_pos_site_id
 _symmetry_equiv_pos_as_xyz
  1  'x, y, z'
loop_
 _atom_site_type_symbol
 _atom_site_label
 _atom_site_symmetry_multiplicity
 _atom_site_fract_x
 _atom_site_fract_y
 _atom_site_fract_z
 _atom_site_occupancy
  K  K0  1  0.49531577  0.74848249  0.57098051  1
  K  K1  1  0.99531577  0.25151751  0.42901949  1
  K  K2  1  0.49531577  0.75151751  0.07098051  1
  K  K3  1  0.99531577  0.24848249  0.92901949  1
  K  K4  1  0.99684816  0.49474744  0.81474269  1
  K  K5  1  0.49684816  0.50525256  0.18525731  1
  K  K6  1  0.99684816  0.00525256  0.31474269  1
  K  K7  1  0.49684816  0.99474744  0.68525731  1
  K  K8  1  0.99559766  0.74077517  0.93778860  1
  K  K9  1  0.49559766  0.25922483  0.06221140  1
  K  K10  1  0.99559766  0.75922483  0.43778860  1
  K  K11  1  0.49559766  0.24077517  0.56221140  1
  K  K12  1  0.99444796  0.99893746  0.82755072  1
  K  K13  1  0.49444796  0.00106254  0.17244928  1
  K  K14  1  0.99444796  0.50106254  0.32755072  1
  K  K15  1  0.49444796  0.49893746  0.67244928  1
  Te  Te16  1  0.99575797  0.87533760  0.63557676  1
  Te  Te17  1  0.49575797  0.12466240  0.36442324  1
  Te  Te18  1  0.99575797  0.62466240  0.13557676  1
  Te  Te19  1  0.49575797  0.37533760  0.86442324  1
  Te  Te20  1  0.24385764  0.73733778  0.75619796  1
  Te  Te21  1  0.74385764  0.26266222  0.24380204  1
  Te  Te22  1  0.24385764  0.76266222  0.25619796  1
  Te  Te23  1  0.74385764  0.23733778  0.74380204  1
  Te  Te24  1  0.74146964  0.99971601  0.00016952  1
  Te  Te25  1  0.24146964  0.00028399  0.99983048  1
  Te  Te26  1  0.74146964  0.50028399  0.50016952  1
  Te  Te27  1  0.24146964  0.49971601  0.49983048  1
  Te  Te28  1  0.74459380  0.50032710  0.00043861  1
  Te  Te29  1  0.24459380  0.49967290  0.99956139  1
  Te  Te30  1  0.74459380  0.99967290  0.50043861  1
  Te  Te31  1  0.24459380  0.00032710  0.49956139  1
  Te  Te32  1  0.99323485  0.61727968  0.62825106  1
  Te  Te33  1  0.49323485  0.38272032  0.37174894  1
  Te  Te34  1  0.99323485  0.88272032  0.12825106  1
  Te  Te35  1  0.49323485  0.11727968  0.87174894  1
  Te  Te36  1  0.49597254  0.62757819  0.89167477  1
  Te  Te37  1  0.99597254  0.37242181  0.10832523  1
  Te  Te38  1  0.49597254  0.87242181  0.39167477  1
  Te  Te39  1  0.99597254  0.12757819  0.60832523  1
  Te  Te40  1  0.74458969  0.73991523  0.75633470  1
  Te  Te41  1  0.24458969  0.26008477  0.24366530  1
  Te  Te42  1  0.74458969  0.76008477  0.25633470  1
  Te  Te43  1  0.24458969  0.23991523  0.74366530  1
  Te  Te44  1  0.49120573  0.87147037  0.87708327  1
  Te  Te45  1  0.99120573  0.12852963  0.12291673  1
  Te  Te46  1  0.49120573  0.62852963  0.37708327  1
  Te  Te47  1  0.99120573  0.37147037  0.62291673  1
  O  O48  1  0.68140933  0.89452585  0.94220401  1
  O  O49  1  0.18140933  0.10547415  0.05779599  1
  O  O50  1  0.68140933  0.60547415  0.44220401  1
  O  O51  1  0.18140933  0.39452585  0.55779599  1
  O  O52  1  0.79327089  0.95227029  0.58917611  1
  O  O53  1  0.29327089  0.04772971  0.41082389  1
  O  O54  1  0.79327089  0.54772971  0.08917611  1
  O  O55  1  0.29327089  0.45227029  0.91082389  1
  O  O56  1  0.68092078  0.84775678  0.81222107  1
  O  O57  1  0.18092078  0.15224322  0.18777893  1
  O  O58  1  0.68092078  0.65224322  0.31222107  1
  O  O59  1  0.18092078  0.34775678  0.68777893  1
  O  O60  1  0.99288863  0.77867407  0.57711290  1
  O  O61  1  0.49288863  0.22132593  0.42288710  1
  O  O62  1  0.99288863  0.72132593  0.07711290  1
  O  O63  1  0.49288863  0.27867407  0.92288710  1
  O  O64  1  0.30274857  0.84553847  0.81252267  1
  O  O65  1  0.80274857  0.15446153  0.18747733  1
  O  O66  1  0.30274857  0.65446153  0.31252267  1
  O  O67  1  0.80274857  0.34553847  0.68747733  1
  O  O68  1  0.25124540  0.66076286  0.83318510  1
  O  O69  1  0.75124540  0.33923714  0.16681490  1
  O  O70  1  0.25124540  0.83923714  0.33318510  1
  O  O71  1  0.75124540  0.16076286  0.66681490  1
  O  O72  1  0.99448200  0.52684427  0.96798556  1
  O  O73  1  0.49448200  0.47315573  0.03201444  1
  O  O74  1  0.99448200  0.97315573  0.46798556  1
  O  O75  1  0.49448200  0.02684427  0.53201444  1
  O  O76  1  0.49489375  0.70390044  0.73461978  1
  O  O77  1  0.99489375  0.29609956  0.26538022  1
  O  O78  1  0.49489375  0.79609956  0.23461978  1
  O  O79  1  0.99489375  0.20390044  0.76538022  1
  O  O80  1  0.73997136  0.66446751  0.83409483  1
  O  O81  1  0.23997136  0.33553249  0.16590517  1
  O  O82  1  0.73997136  0.83553249  0.33409483  1
  O  O83  1  0.23997136  0.16446751  0.66590517  1
  O  O84  1  0.74513528  0.81982758  0.68211347  1
  O  O85  1  0.24513528  0.18017242  0.31788653  1
  O  O86  1  0.74513528  0.68017242  0.18211347  1
  O  O87  1  0.24513528  0.31982758  0.81788653  1
  O  O88  1  0.76508635  0.42485792  0.42444673  1
  O  O89  1  0.26508635  0.57514208  0.57555327  1
  O  O90  1  0.76508635  0.07514208  0.92444673  1
  O  O91  1  0.26508635  0.92485792  0.07555327  1
  O  O92  1  0.29911996  0.89496974  0.94139500  1
  O  O93  1  0.79911996  0.10503026  0.05860500  1
  O  O94  1  0.29911996  0.60503026  0.44139500  1
  O  O95  1  0.79911996  0.39496974  0.55860500  1
  O  O96  1  0.99174022  0.95488607  0.99019614  1
  O  O97  1  0.49174022  0.04511393  0.00980386  1
  O  O98  1  0.99174022  0.54511393  0.49019614  1
  O  O99  1  0.49174022  0.45488607  0.50980386  1
  O  O100  1  0.48946694  0.99158531  0.83804545  1
  O  O101  1  0.98946694  0.00841469  0.16195455  1
  O  O102  1  0.48946694  0.50841469  0.33804545  1
  O  O103  1  0.98946694  0.49158531  0.66195455  1
  O  O104  1  0.49175139  0.75247038  0.91958268  1
  O  O105  1  0.99175139  0.24752962  0.08041732  1
  O  O106  1  0.49175139  0.74752962  0.41958268  1
  O  O107  1  0.99175139  0.25247038  0.58041732  1
  O  O108  1  0.80800050  0.63523884  0.70173215  1
  O  O109  1  0.30800050  0.36476116  0.29826785  1
  O  O110  1  0.80800050  0.86476116  0.20173215  1
  O  O111  1  0.30800050  0.13523884  0.79826785  1
  O  O112  1  0.67631430  0.13143561  0.79659387  1
  O  O113  1  0.17631430  0.86856439  0.20340613  1
  O  O114  1  0.67631430  0.36856439  0.29659387  1
  O  O115  1  0.17631430  0.63143561  0.70340613  1
  O  O116  1  0.30806866  0.61981469  0.96792249  1
  O  O117  1  0.80806866  0.38018531  0.03207751  1
  O  O118  1  0.30806866  0.88018531  0.46792249  1
  O  O119  1  0.80806866  0.11981469  0.53207751  1
  O  O120  1  0.99475947  0.77560471  0.78023469  1
  O  O121  1  0.49475947  0.22439529  0.21976531  1
  O  O122  1  0.99475947  0.72439529  0.28023469  1
  O  O123  1  0.49475947  0.27560471  0.71976531  1
  O  O124  1  0.74466815  0.31517716  0.81929262  1
  O  O125  1  0.24466815  0.68482284  0.18070738  1
  O  O126  1  0.74466815  0.18482284  0.31929262  1
  O  O127  1  0.24466815  0.81517716  0.68070738  1
  O  O128  1  0.68102870  0.62087040  0.96905114  1
  O  O129  1  0.18102870  0.37912960  0.03094886  1
  O  O130  1  0.68102870  0.87912960  0.46905114  1
  O  O131  1  0.18102870  0.12087040  0.53094886  1
  O  O132  1  0.72033864  0.57675416  0.57560335  1
  O  O133  1  0.22033864  0.42324584  0.42439665  1
  O  O134  1  0.72033864  0.92324584  0.07560335  1
  O  O135  1  0.22033864  0.07675416  0.92439665  1
  O  O136  1  0.69639931  0.45304932  0.91154746  1
  O  O137  1  0.19639931  0.54695068  0.08845254  1
  O  O138  1  0.69639931  0.04695068  0.41154746  1
  O  O139  1  0.19639931  0.95304932  0.58845254  1
