# generated using pymatgen
data_HgH12C2(I2N3)2
_symmetry_space_group_name_H-M   'P 1'
_cell_length_a   9.43867520
_cell_length_b   9.33794832
_cell_length_c   13.18619773
_cell_angle_alpha   106.87533461
_cell_angle_beta   94.95597312
_cell_angle_gamma   119.67166451
_symmetry_Int_Tables_number   1
_chemical_formula_structural   HgH12C2(I2N3)2
_chemical_formula_sum   'Hg2 H24 C4 I8 N12'
_cell_volume   928.58923581
_cell_formula_units_Z   2
loop_
 _symmetry_equiv_pos_site_id
 _symmetry_equiv_pos_as_xyz
  1  'x, y, z'
loop_
 _atom_site_type_symbol
 _atom_site_label
 _atom_site_symmetry_multiplicity
 _atom_site_fract_x
 _atom_site_fract_y
 _atom_site_fract_z
 _atom_site_occupancy
  Hg  Hg0  1  0.34651802  0.11463796  0.23410919  1
  Hg  Hg1  1  0.65348198  0.88536204  0.76589081  1
  H  H2  1  0.34324875  0.68661186  0.45630148  1
  H  H3  1  0.65675125  0.31338814  0.54369852  1
  H  H4  1  0.55664028  0.36483118  0.04785666  1
  H  H5  1  0.44335972  0.63516882  0.95214334  1
  H  H6  1  0.06897510  0.23188376  0.92118072  1
  H  H7  1  0.93102490  0.76811624  0.07881928  1
  H  H8  1  0.46301784  0.75001006  0.08729358  1
  H  H9  1  0.53698216  0.24998994  0.91270642  1
  H  H10  1  0.02632219  0.30871828  0.61838312  1
  H  H11  1  0.97367781  0.69128172  0.38161688  1
  H  H12  1  0.16775940  0.61982564  0.69137346  1
  H  H13  1  0.83224060  0.38017436  0.30862654  1
  H  H14  1  0.26383991  0.60659594  0.17560786  1
  H  H15  1  0.73616009  0.39340406  0.82439214  1
  H  H16  1  0.05446284  0.72090533  0.68470685  1
  H  H17  1  0.94553716  0.27909467  0.31529315  1
  H  H18  1  0.19189639  0.82330891  0.44216703  1
  H  H19  1  0.80810361  0.17669109  0.55783297  1
  H  H20  1  0.23705157  0.45388617  0.39920078  1
  H  H21  1  0.76294843  0.54611383  0.60079922  1
  H  H22  1  0.08796303  0.38607777  0.10093506  1
  H  H23  1  0.91203697  0.61392223  0.89906494  1
  H  H24  1  0.22246477  0.33741287  0.85782614  1
  H  H25  1  0.77753523  0.66258713  0.14217386  1
  C  C26  1  0.08832866  0.55294711  0.38220469  1
  C  C27  1  0.91167134  0.44705289  0.61779531  1
  C  C28  1  0.26055827  0.49051751  0.01730276  1
  C  C29  1  0.73944173  0.50948249  0.98269724  1
  I  I30  1  0.08791706  0.08379800  0.34069873  1
  I  I31  1  0.91208294  0.91620200  0.65930127  1
  I  I32  1  0.48641764  0.03455338  0.68609987  1
  I  I33  1  0.51358236  0.96544662  0.31390013  1
  I  I34  1  0.78717569  0.05775741  0.99902017  1
  I  I35  1  0.21282431  0.94224259  0.00097983  1
  I  I36  1  0.60146314  0.48651169  0.28915493  1
  I  I37  1  0.39853686  0.51348831  0.71084507  1
  N  N38  1  0.05428117  0.60801504  0.67305645  1
  N  N39  1  0.94571883  0.39198496  0.32694355  1
  N  N40  1  0.40975496  0.63080994  0.02304410  1
  N  N41  1  0.59024504  0.36919006  0.97695590  1
  N  N42  1  0.17608427  0.34382298  0.92435602  1
  N  N43  1  0.82391573  0.65617702  0.07564398  1
  N  N44  1  0.08400125  0.69984981  0.40584082  1
  N  N45  1  0.91599875  0.30015019  0.59415918  1
  N  N46  1  0.23534700  0.56615844  0.41169486  1
  N  N47  1  0.76465300  0.43384156  0.58830514  1
  N  N48  1  0.19773056  0.49597751  0.10431144  1
  N  N49  1  0.80226944  0.50402249  0.89568856  1
