# generated using pymatgen
data_Er2B6Rh
_symmetry_space_group_name_H-M   'P 1'
_cell_length_a   3.64074636
_cell_length_b   9.14592507
_cell_length_c   11.46686940
_cell_angle_alpha   90.00000000
_cell_angle_beta   90.00000000
_cell_angle_gamma   90.00000000
_symmetry_Int_Tables_number   1
_chemical_formula_structural   Er2B6Rh
_chemical_formula_sum   'Er8 B24 Rh4'
_cell_volume   381.82374169
_cell_formula_units_Z   4
loop_
 _symmetry_equiv_pos_site_id
 _symmetry_equiv_pos_as_xyz
  1  'x, y, z'
loop_
 _atom_site_type_symbol
 _atom_site_label
 _atom_site_symmetry_multiplicity
 _atom_site_fract_x
 _atom_site_fract_y
 _atom_site_fract_z
 _atom_site_occupancy
  Er  Er0  1  0.50000000  0.32226185  0.41330987  1
  Er  Er1  1  0.50000000  0.67773815  0.58669013  1
  Er  Er2  1  0.50000000  0.17773815  0.91330987  1
  Er  Er3  1  0.50000000  0.82226185  0.08669013  1
  Er  Er4  1  0.50000000  0.44483152  0.12607983  1
  Er  Er5  1  0.50000000  0.55516848  0.87392017  1
  Er  Er6  1  0.50000000  0.05516848  0.62607983  1
  Er  Er7  1  0.50000000  0.94483152  0.37392017  1
  B  B8  1  0.00000000  0.11052069  0.46967278  1
  B  B9  1  0.00000000  0.88947931  0.53032722  1
  B  B10  1  -0.00000000  0.38947931  0.96967278  1
  B  B11  1  -0.00000000  0.61052069  0.03032722  1
  B  B12  1  0.00000000  0.13368392  0.31558631  1
  B  B13  1  0.00000000  0.86631608  0.68441369  1
  B  B14  1  -0.00000000  0.36631608  0.81558631  1
  B  B15  1  -0.00000000  0.63368392  0.18441369  1
  B  B16  1  -0.00000000  0.05351406  0.06593984  1
  B  B17  1  -0.00000000  0.94648594  0.93406016  1
  B  B18  1  -0.00000000  0.44648594  0.56593984  1
  B  B19  1  0.00000000  0.55351406  0.43406016  1
  B  B20  1  -0.00000000  0.48346666  0.28787853  1
  B  B21  1  0.00000000  0.51653334  0.71212147  1
  B  B22  1  0.00000000  0.01653334  0.78787853  1
  B  B23  1  -0.00000000  0.98346666  0.21212147  1
  B  B24  1  0.00000000  0.25067002  0.07937778  1
  B  B25  1  -0.00000000  0.74932998  0.92062222  1
  B  B26  1  -0.00000000  0.24932998  0.57937778  1
  B  B27  1  0.00000000  0.75067002  0.42062222  1
  B  B28  1  0.00000000  0.29467047  0.23480508  1
  B  B29  1  -0.00000000  0.70532953  0.76519492  1
  B  B30  1  -0.00000000  0.20532953  0.73480508  1
  B  B31  1  -0.00000000  0.79467047  0.26519492  1
  Rh  Rh32  1  0.50000000  0.13988270  0.17827317  1
  Rh  Rh33  1  0.50000000  0.86011730  0.82172683  1
  Rh  Rh34  1  0.50000000  0.36011730  0.67827317  1
  Rh  Rh35  1  0.50000000  0.63988270  0.32172683  1
