# generated using pymatgen
data_Er3SbO7
_symmetry_space_group_name_H-M   'P 1'
_cell_length_a   6.44968378
_cell_length_b   6.44968378
_cell_length_c   7.47067197
_cell_angle_alpha   90.00000000
_cell_angle_beta   90.00000000
_cell_angle_gamma   109.11992974
_symmetry_Int_Tables_number   1
_chemical_formula_structural   Er3SbO7
_chemical_formula_sum   'Er6 Sb2 O14'
_cell_volume   293.62464216
_cell_formula_units_Z   2
loop_
 _symmetry_equiv_pos_site_id
 _symmetry_equiv_pos_as_xyz
  1  'x, y, z'
loop_
 _atom_site_type_symbol
 _atom_site_label
 _atom_site_symmetry_multiplicity
 _atom_site_fract_x
 _atom_site_fract_y
 _atom_site_fract_z
 _atom_site_occupancy
  Er  Er0  1  0.53242189  0.00029018  0.75035457  1
  Er  Er1  1  0.46757811  0.99970982  0.25035457  1
  Er  Er2  1  0.99970982  0.46757811  0.74964543  1
  Er  Er3  1  0.00029018  0.53242189  0.24964543  1
  Er  Er4  1  0.48478742  0.48478742  -0.00000000  1
  Er  Er5  1  0.51521258  0.51521258  0.50000000  1
  Sb  Sb6  1  0.00107389  0.00107389  -0.00000000  1
  Sb  Sb7  1  0.99892611  0.99892611  0.50000000  1
  O  O8  1  0.63898004  0.36101996  0.75000000  1
  O  O9  1  0.36101996  0.63898004  0.25000000  1
  O  O10  1  0.92755496  0.07244504  0.75000000  1
  O  O11  1  0.07244504  0.92755496  0.25000000  1
  O  O12  1  0.32685789  0.07980952  0.97129369  1
  O  O13  1  0.67314211  0.92019048  0.47129369  1
  O  O14  1  0.92019048  0.67314211  0.52870631  1
  O  O15  1  0.07980952  0.32685789  0.02870631  1
  O  O16  1  0.37107796  0.62892204  0.75000000  1
  O  O17  1  0.62892204  0.37107796  0.25000000  1
  O  O18  1  0.31819254  0.06167269  0.53353558  1
  O  O19  1  0.68180746  0.93832731  0.03353558  1
  O  O20  1  0.93832731  0.68180746  0.96646442  1
  O  O21  1  0.06167269  0.31819254  0.46646442  1
