# generated using pymatgen
data_K2CdGeO4
_symmetry_space_group_name_H-M   'P 1'
_cell_length_a   5.86674587
_cell_length_b   11.73679217
_cell_length_c   16.41379120
_cell_angle_alpha   90.00000000
_cell_angle_beta   90.00000000
_cell_angle_gamma   90.00000000
_symmetry_Int_Tables_number   1
_chemical_formula_structural   K2CdGeO4
_chemical_formula_sum   'K16 Cd8 Ge8 O32'
_cell_volume   1130.20076023
_cell_formula_units_Z   8
loop_
 _symmetry_equiv_pos_site_id
 _symmetry_equiv_pos_as_xyz
  1  'x, y, z'
loop_
 _atom_site_type_symbol
 _atom_site_label
 _atom_site_symmetry_multiplicity
 _atom_site_fract_x
 _atom_site_fract_y
 _atom_site_fract_z
 _atom_site_occupancy
  K  K0  1  0.97125019  0.77421234  0.62844952  1
  K  K1  1  0.02874981  0.22578766  0.12844952  1
  K  K2  1  0.02874981  0.27421234  0.62844952  1
  K  K3  1  0.97125019  0.72578766  0.12844952  1
  K  K4  1  0.98571207  0.50501340  0.75760570  1
  K  K5  1  0.01428793  0.49498660  0.25760570  1
  K  K6  1  0.01428793  0.00501340  0.75760570  1
  K  K7  1  0.98571207  0.99498660  0.25760570  1
  K  K8  1  0.46828620  0.73229660  0.99939763  1
  K  K9  1  0.53171380  0.26770340  0.49939763  1
  K  K10  1  0.53171380  0.23229660  0.99939763  1
  K  K11  1  0.46828620  0.76770340  0.49939763  1
  K  K12  1  0.48559880  0.99461022  0.87459226  1
  K  K13  1  0.51440120  0.00538978  0.37459226  1
  K  K14  1  0.51440120  0.49461022  0.87459226  1
  K  K15  1  0.48559880  0.50538978  0.37459226  1
  Cd  Cd16  1  0.98165734  0.98172678  0.00426938  1
  Cd  Cd17  1  0.01834266  0.01827322  0.50426938  1
  Cd  Cd18  1  0.01834266  0.48172678  0.00426938  1
  Cd  Cd19  1  0.98165734  0.51827322  0.50426938  1
  Cd  Cd20  1  0.48427611  0.76176744  0.75140055  1
  Cd  Cd21  1  0.51572389  0.23823256  0.25140055  1
  Cd  Cd22  1  0.51572389  0.26176744  0.75140055  1
  Cd  Cd23  1  0.48427611  0.73823256  0.25140055  1
  Ge  Ge24  1  0.47667263  0.51264083  0.62503894  1
  Ge  Ge25  1  0.52332737  0.48735917  0.12503894  1
  Ge  Ge26  1  0.52332737  0.01264083  0.62503894  1
  Ge  Ge27  1  0.47667263  0.98735917  0.12503894  1
  Ge  Ge28  1  0.99220757  0.72956353  0.88104500  1
  Ge  Ge29  1  0.00779243  0.27043647  0.38104500  1
  Ge  Ge30  1  0.00779243  0.22956353  0.88104500  1
  Ge  Ge31  1  0.99220757  0.77043647  0.38104500  1
  O  O32  1  0.40231306  0.65872358  0.64391154  1
  O  O33  1  0.59768694  0.34127642  0.14391154  1
  O  O34  1  0.59768694  0.15872358  0.64391154  1
  O  O35  1  0.40231306  0.84127642  0.14391154  1
  O  O36  1  0.75541470  0.68028605  0.82235680  1
  O  O37  1  0.24458530  0.31971395  0.32235680  1
  O  O38  1  0.24458530  0.18028605  0.82235680  1
  O  O39  1  0.75541470  0.81971395  0.32235680  1
  O  O40  1  0.85696158  0.39591648  0.41119510  1
  O  O41  1  0.14303842  0.60408352  0.91119510  1
  O  O42  1  0.14303842  0.89591648  0.41119510  1
  O  O43  1  0.85696158  0.10408352  0.91119510  1
  O  O44  1  0.77516917  0.48542735  0.61548444  1
  O  O45  1  0.22483083  0.51457265  0.11548444  1
  O  O46  1  0.22483083  0.98542735  0.61548444  1
  O  O47  1  0.77516917  0.01457265  0.11548444  1
  O  O48  1  0.81421483  0.31661343  0.82416271  1
  O  O49  1  0.18578517  0.68338657  0.32416271  1
  O  O50  1  0.18578517  0.81661343  0.82416271  1
  O  O51  1  0.81421483  0.18338657  0.32416271  1
  O  O52  1  0.65822719  0.97696542  0.53051101  1
  O  O53  1  0.34177281  0.02303458  0.03051101  1
  O  O54  1  0.34177281  0.47696542  0.53051101  1
  O  O55  1  0.65822719  0.52303458  0.03051101  1
  O  O56  1  0.89433313  0.80587061  0.96892180  1
  O  O57  1  0.10566687  0.19412939  0.46892180  1
  O  O58  1  0.10566687  0.30587061  0.96892180  1
  O  O59  1  0.89433313  0.69412939  0.46892180  1
  O  O60  1  0.62712752  0.92616822  0.70695762  1
  O  O61  1  0.37287248  0.07383178  0.20695762  1
  O  O62  1  0.37287248  0.42616822  0.70695762  1
  O  O63  1  0.62712752  0.57383178  0.20695762  1
