# generated using pymatgen
data_DyB7Mo3
_symmetry_space_group_name_H-M   'P 1'
_cell_length_a   3.10990167
_cell_length_b   11.02148446
_cell_length_c   12.91029250
_cell_angle_alpha   90.00000000
_cell_angle_beta   90.00000000
_cell_angle_gamma   90.00000000
_symmetry_Int_Tables_number   1
_chemical_formula_structural   DyB7Mo3
_chemical_formula_sum   'Dy4 B28 Mo12'
_cell_volume   442.50973775
_cell_formula_units_Z   4
loop_
 _symmetry_equiv_pos_site_id
 _symmetry_equiv_pos_as_xyz
  1  'x, y, z'
loop_
 _atom_site_type_symbol
 _atom_site_label
 _atom_site_symmetry_multiplicity
 _atom_site_fract_x
 _atom_site_fract_y
 _atom_site_fract_z
 _atom_site_occupancy
  Dy  Dy0  1  0.75000000  0.55114211  0.30814257  1
  Dy  Dy1  1  0.25000000  0.44885789  0.69185743  1
  Dy  Dy2  1  0.25000000  0.94885789  0.80814257  1
  Dy  Dy3  1  0.75000000  0.05114211  0.19185743  1
  B  B4  1  0.75000000  0.75057795  0.17354491  1
  B  B5  1  0.25000000  0.24942205  0.82645509  1
  B  B6  1  0.25000000  0.74942205  0.67354491  1
  B  B7  1  0.75000000  0.25057795  0.32645509  1
  B  B8  1  0.75000000  0.93216498  0.38393876  1
  B  B9  1  0.25000000  0.06783502  0.61606124  1
  B  B10  1  0.25000000  0.56783502  0.88393876  1
  B  B11  1  0.75000000  0.43216498  0.11606124  1
  B  B12  1  0.75000000  0.98949282  0.63745347  1
  B  B13  1  0.25000000  0.01050718  0.36254653  1
  B  B14  1  0.25000000  0.51050718  0.13745347  1
  B  B15  1  0.75000000  0.48949282  0.86254653  1
  B  B16  1  0.75000000  0.76964898  0.41809508  1
  B  B17  1  0.25000000  0.23035102  0.58190492  1
  B  B18  1  0.25000000  0.73035102  0.91809508  1
  B  B19  1  0.75000000  0.26964898  0.08190492  1
  B  B20  1  0.75000000  0.96265571  0.98200174  1
  B  B21  1  0.25000000  0.03734429  0.01799826  1
  B  B22  1  0.25000000  0.53734429  0.48200174  1
  B  B23  1  0.75000000  0.46265571  0.51799826  1
  B  B24  1  0.75000000  0.81304701  0.93338983  1
  B  B25  1  0.25000000  0.18695299  0.06661017  1
  B  B26  1  0.25000000  0.68695299  0.43338983  1
  B  B27  1  0.75000000  0.31304701  0.56661017  1
  B  B28  1  0.75000000  0.83387331  0.66712957  1
  B  B29  1  0.25000000  0.16612669  0.33287043  1
  B  B30  1  0.25000000  0.66612669  0.16712957  1
  B  B31  1  0.75000000  0.33387331  0.83287043  1
  Mo  Mo32  1  0.75000000  0.11774279  0.47306365  1
  Mo  Mo33  1  0.25000000  0.88225721  0.52693635  1
  Mo  Mo34  1  0.25000000  0.38225721  0.97306365  1
  Mo  Mo35  1  0.75000000  0.61774279  0.02693635  1
  Mo  Mo36  1  0.75000000  0.65958649  0.56385222  1
  Mo  Mo37  1  0.25000000  0.34041351  0.43614778  1
  Mo  Mo38  1  0.25000000  0.84041351  0.06385222  1
  Mo  Mo39  1  0.75000000  0.15958649  0.93614778  1
  Mo  Mo40  1  0.75000000  0.68478552  0.79824272  1
  Mo  Mo41  1  0.25000000  0.31521448  0.20175728  1
  Mo  Mo42  1  0.25000000  0.81521448  0.29824272  1
  Mo  Mo43  1  0.75000000  0.18478552  0.70175728  1
