# generated using pymatgen
data_Fe2Co3H4(Se3O10)2
_symmetry_space_group_name_H-M   'P 1'
_cell_length_a   6.58395856
_cell_length_b   8.12713715
_cell_length_c   9.04450575
_cell_angle_alpha   85.86972219
_cell_angle_beta   78.72490170
_cell_angle_gamma   76.25011913
_symmetry_Int_Tables_number   1
_chemical_formula_structural   Fe2Co3H4(Se3O10)2
_chemical_formula_sum   'Fe2 Co3 H4 Se6 O20'
_cell_volume   460.85222603
_cell_formula_units_Z   1
loop_
 _symmetry_equiv_pos_site_id
 _symmetry_equiv_pos_as_xyz
  1  'x, y, z'
loop_
 _atom_site_type_symbol
 _atom_site_label
 _atom_site_symmetry_multiplicity
 _atom_site_fract_x
 _atom_site_fract_y
 _atom_site_fract_z
 _atom_site_occupancy
  Fe  Fe0  1  0.13571408  0.39739853  0.11794240  1
  Fe  Fe1  1  0.86428592  0.60260147  0.88205760  1
  Co  Co2  1  0.31407288  0.67771353  0.26508078  1
  Co  Co3  1  0.68592712  0.32228647  0.73491922  1
  Co  Co4  1  0.50000000  -0.00000000  -0.00000000  1
  H  H5  1  0.14620837  0.63724975  0.56004194  1
  H  H6  1  0.85379163  0.36275025  0.43995806  1
  H  H7  1  0.32053681  0.46515798  0.53589386  1
  H  H8  1  0.67946319  0.53484202  0.46410614  1
  Se  Se9  1  0.23581624  0.07791706  0.36545493  1
  Se  Se10  1  0.76418376  0.92208294  0.63454507  1
  Se  Se11  1  0.66941136  0.29093855  0.12888191  1
  Se  Se12  1  0.33058864  0.70906145  0.87111809  1
  Se  Se13  1  0.20062591  0.21466006  0.77547479  1
  Se  Se14  1  0.79937409  0.78533994  0.22452521  1
  O  O15  1  0.26391976  0.57391636  0.48510057  1
  O  O16  1  0.73608024  0.42608364  0.51489943  1
  O  O17  1  0.02392786  0.61818620  0.23363073  1
  O  O18  1  0.97607214  0.38181380  0.76636927  1
  O  O19  1  0.45861652  0.05892527  0.22293828  1
  O  O20  1  0.54138348  0.94107473  0.77706172  1
  O  O21  1  0.23430095  0.20493208  0.96710651  1
  O  O22  1  0.76569905  0.79506792  0.03289349  1
  O  O23  1  0.05653978  0.24742457  0.28946688  1
  O  O24  1  0.94346022  0.75257543  0.71053312  1
  O  O25  1  0.83091524  0.43816240  0.06962956  1
  O  O26  1  0.16908476  0.56183760  0.93037044  1
  O  O27  1  0.13712155  0.90683059  0.34677323  1
  O  O28  1  0.86287845  0.09316941  0.65322677  1
  O  O29  1  0.39706175  0.30827727  0.68378984  1
  O  O30  1  0.60293825  0.69172273  0.31621016  1
  O  O31  1  0.32969766  0.79948239  0.03685434  1
  O  O32  1  0.67030234  0.20051761  0.96314566  1
  O  O33  1  0.41688546  0.43136455  0.16192305  1
  O  O34  1  0.58311454  0.56863545  0.83807695  1
