# generated using pymatgen
data_DyRhO3
_symmetry_space_group_name_H-M   'P 1'
_cell_length_a   5.28419704
_cell_length_b   5.82443687
_cell_length_c   7.67218559
_cell_angle_alpha   90.00000000
_cell_angle_beta   90.00000000
_cell_angle_gamma   90.00000000
_symmetry_Int_Tables_number   1
_chemical_formula_structural   DyRhO3
_chemical_formula_sum   'Dy4 Rh4 O12'
_cell_volume   236.13047770
_cell_formula_units_Z   4
loop_
 _symmetry_equiv_pos_site_id
 _symmetry_equiv_pos_as_xyz
  1  'x, y, z'
loop_
 _atom_site_type_symbol
 _atom_site_label
 _atom_site_symmetry_multiplicity
 _atom_site_fract_x
 _atom_site_fract_y
 _atom_site_fract_z
 _atom_site_occupancy
  Dy  Dy0  1  0.03185354  0.41461558  0.25000000  1
  Dy  Dy1  1  0.96814646  0.58538442  0.75000000  1
  Dy  Dy2  1  0.53185354  0.08538442  0.75000000  1
  Dy  Dy3  1  0.46814646  0.91461558  0.25000000  1
  Rh  Rh4  1  -0.00000000  -0.00000000  -0.00000000  1
  Rh  Rh5  1  0.50000000  0.50000000  -0.00000000  1
  Rh  Rh6  1  0.00000000  -0.00000000  0.50000000  1
  Rh  Rh7  1  0.50000000  0.50000000  0.50000000  1
  O  O8  1  0.32246989  0.19052296  0.06375151  1
  O  O9  1  0.67753011  0.80947704  0.93624849  1
  O  O10  1  0.82246989  0.30947704  0.93624849  1
  O  O11  1  0.67753011  0.80947704  0.56375151  1
  O  O12  1  0.17753011  0.69052296  0.06375151  1
  O  O13  1  0.32246989  0.19052296  0.43624849  1
  O  O14  1  0.17753011  0.69052296  0.43624849  1
  O  O15  1  0.82246989  0.30947704  0.56375151  1
  O  O16  1  0.63727975  0.55306749  0.25000000  1
  O  O17  1  0.36272025  0.44693251  0.75000000  1
  O  O18  1  0.13727975  0.94693251  0.75000000  1
  O  O19  1  0.86272025  0.05306749  0.25000000  1
