# generated using pymatgen
data_Mg14NbBi
_symmetry_space_group_name_H-M   'P 1'
_cell_length_a   6.36479597
_cell_length_b   6.36479545
_cell_length_c   10.32744365
_cell_angle_alpha   90.00000000
_cell_angle_beta   90.00000000
_cell_angle_gamma   120.00000266
_symmetry_Int_Tables_number   1
_chemical_formula_structural   Mg14NbBi
_chemical_formula_sum   'Mg14 Nb1 Bi1'
_cell_volume   362.32006981
_cell_formula_units_Z   1
loop_
 _symmetry_equiv_pos_site_id
 _symmetry_equiv_pos_as_xyz
  1  'x, y, z'
loop_
 _atom_site_type_symbol
 _atom_site_label
 _atom_site_symmetry_multiplicity
 _atom_site_fract_x
 _atom_site_fract_y
 _atom_site_fract_z
 _atom_site_occupancy
  Mg  Mg0  1  0.16781860  0.83390880  0.12500000  1
  Mg  Mg1  1  0.16518932  0.83259416  0.62500000  1
  Mg  Mg2  1  0.66609120  0.33218140  0.12500000  1
  Mg  Mg3  1  0.66740584  0.33481068  0.62500000  1
  Mg  Mg4  1  0.66609120  0.83390880  0.12500000  1
  Mg  Mg5  1  0.66740584  0.83259416  0.62500000  1
  Mg  Mg6  1  0.33023275  0.16976725  0.36475671  1
  Mg  Mg7  1  0.33023275  0.16976725  0.88524329  1
  Mg  Mg8  1  0.33023275  0.66046651  0.36475671  1
  Mg  Mg9  1  0.33023275  0.66046651  0.88524329  1
  Mg  Mg10  1  0.83953349  0.16976725  0.36475671  1
  Mg  Mg11  1  0.83953349  0.16976725  0.88524329  1
  Mg  Mg12  1  0.83333300  0.66666700  0.37132959  1
  Mg  Mg13  1  0.83333300  0.66666700  0.87867041  1
  Nb  Nb14  1  0.16666700  0.33333300  0.12500000  1
  Bi  Bi15  1  0.16666700  0.33333300  0.62500000  1
