# generated using pymatgen
data_DyTl(MoO4)2
_symmetry_space_group_name_H-M   'P 1'
_cell_length_a   5.14301176
_cell_length_b   8.15703179
_cell_length_c   18.78305173
_cell_angle_alpha   90.00000000
_cell_angle_beta   90.00000000
_cell_angle_gamma   90.00000000
_symmetry_Int_Tables_number   1
_chemical_formula_structural   DyTl(MoO4)2
_chemical_formula_sum   'Dy4 Tl4 Mo8 O32'
_cell_volume   787.98114703
_cell_formula_units_Z   4
loop_
 _symmetry_equiv_pos_site_id
 _symmetry_equiv_pos_as_xyz
  1  'x, y, z'
loop_
 _atom_site_type_symbol
 _atom_site_label
 _atom_site_symmetry_multiplicity
 _atom_site_fract_x
 _atom_site_fract_y
 _atom_site_fract_z
 _atom_site_occupancy
  Dy  Dy0  1  -0.00000000  0.75000000  0.99365868  1
  Dy  Dy1  1  -0.00000000  0.25000000  0.00634132  1
  Dy  Dy2  1  0.50000000  0.25000000  0.50634132  1
  Dy  Dy3  1  0.50000000  0.75000000  0.49365868  1
  Tl  Tl4  1  0.00000000  0.75000000  0.23023017  1
  Tl  Tl5  1  -0.00000000  0.25000000  0.76976983  1
  Tl  Tl6  1  0.50000000  0.25000000  0.26976983  1
  Tl  Tl7  1  0.50000000  0.75000000  0.73023017  1
  Mo  Mo8  1  0.97777524  0.98398742  0.60001501  1
  Mo  Mo9  1  0.02222476  0.01601258  0.39998499  1
  Mo  Mo10  1  0.52222476  0.48398742  0.89998499  1
  Mo  Mo11  1  0.02222476  0.51601258  0.60001501  1
  Mo  Mo12  1  0.47777524  0.51601258  0.10001501  1
  Mo  Mo13  1  0.97777524  0.48398742  0.39998499  1
  Mo  Mo14  1  0.47777524  0.01601258  0.89998499  1
  Mo  Mo15  1  0.52222476  0.98398742  0.10001501  1
  O  O16  1  0.89958439  0.52472626  0.68717479  1
  O  O17  1  0.10041561  0.47527374  0.31282521  1
  O  O18  1  0.60041561  0.02472626  0.81282521  1
  O  O19  1  0.10041561  0.97527374  0.68717479  1
  O  O20  1  0.39958439  0.97527374  0.18717479  1
  O  O21  1  0.89958439  0.02472626  0.31282521  1
  O  O22  1  0.39958439  0.47527374  0.81282521  1
  O  O23  1  0.60041561  0.52472626  0.18717479  1
  O  O24  1  0.73100593  0.66069627  0.90220605  1
  O  O25  1  0.26899407  0.33930373  0.09779395  1
  O  O26  1  0.76899407  0.16069627  0.59779395  1
  O  O27  1  0.26899407  0.83930373  0.90220605  1
  O  O28  1  0.23100593  0.83930373  0.40220605  1
  O  O29  1  0.73100593  0.16069627  0.09779395  1
  O  O30  1  0.23100593  0.33930373  0.59779395  1
  O  O31  1  0.76899407  0.66069627  0.40220605  1
  O  O32  1  0.75248298  0.99511734  0.96460437  1
  O  O33  1  0.24751702  0.00488266  0.03539563  1
  O  O34  1  0.74751702  0.49511734  0.53539563  1
  O  O35  1  0.24751702  0.50488266  0.96460437  1
  O  O36  1  0.25248298  0.50488266  0.46460437  1
  O  O37  1  0.75248298  0.49511734  0.03539563  1
  O  O38  1  0.25248298  0.00488266  0.53539563  1
  O  O39  1  0.74751702  0.99511734  0.46460437  1
  O  O40  1  0.75739197  0.81038003  0.59047327  1
  O  O41  1  0.24260803  0.18961997  0.40952673  1
  O  O42  1  0.74260803  0.31038003  0.90952673  1
  O  O43  1  0.24260803  0.68961997  0.59047327  1
  O  O44  1  0.25739197  0.68961997  0.09047327  1
  O  O45  1  0.75739197  0.31038003  0.40952673  1
  O  O46  1  0.25739197  0.18961997  0.90952673  1
  O  O47  1  0.74260803  0.81038003  0.09047327  1
