# generated using pymatgen
data_Dy2(Ga3Rh)3
_symmetry_space_group_name_H-M   'P 1'
_cell_length_a   7.56364537
_cell_length_b   7.56364537
_cell_length_c   9.53582378
_cell_angle_alpha   90.00000000
_cell_angle_beta   90.00000000
_cell_angle_gamma   119.88244605
_symmetry_Int_Tables_number   1
_chemical_formula_structural   Dy2(Ga3Rh)3
_chemical_formula_sum   'Dy4 Ga18 Rh6'
_cell_volume   473.00354041
_cell_formula_units_Z   2
loop_
 _symmetry_equiv_pos_site_id
 _symmetry_equiv_pos_as_xyz
  1  'x, y, z'
loop_
 _atom_site_type_symbol
 _atom_site_label
 _atom_site_symmetry_multiplicity
 _atom_site_fract_x
 _atom_site_fract_y
 _atom_site_fract_z
 _atom_site_occupancy
  Dy  Dy0  1  0.66768653  0.99682365  0.25000000  1
  Dy  Dy1  1  0.33231347  0.00317635  0.75000000  1
  Dy  Dy2  1  0.99682365  0.66768653  0.25000000  1
  Dy  Dy3  1  0.00317635  0.33231347  0.75000000  1
  Ga  Ga4  1  0.12465695  0.12465695  0.25000000  1
  Ga  Ga5  1  0.87534305  0.87534305  0.75000000  1
  Ga  Ga6  1  0.33395560  0.00044241  0.07745967  1
  Ga  Ga7  1  0.66604440  0.99955759  0.92254033  1
  Ga  Ga8  1  0.66604440  0.99955759  0.57745967  1
  Ga  Ga9  1  0.00044241  0.33395560  0.42254033  1
  Ga  Ga10  1  0.33395560  0.00044241  0.42254033  1
  Ga  Ga11  1  0.99955759  0.66604440  0.57745967  1
  Ga  Ga12  1  0.99955759  0.66604440  0.92254033  1
  Ga  Ga13  1  0.00044241  0.33395560  0.07745967  1
  Ga  Ga14  1  0.33376887  0.33376887  0.56185960  1
  Ga  Ga15  1  0.66623113  0.66623113  0.43814040  1
  Ga  Ga16  1  0.66623113  0.66623113  0.06185960  1
  Ga  Ga17  1  0.33376887  0.33376887  0.93814040  1
  Ga  Ga18  1  0.54694120  0.33739706  0.25000000  1
  Ga  Ga19  1  0.45305880  0.66260294  0.75000000  1
  Ga  Ga20  1  0.33739706  0.54694120  0.25000000  1
  Ga  Ga21  1  0.66260294  0.45305880  0.75000000  1
  Rh  Rh22  1  0.32841814  0.67158186  0.00000000  1
  Rh  Rh23  1  0.67158186  0.32841814  0.00000000  1
  Rh  Rh24  1  0.67158186  0.32841814  0.50000000  1
  Rh  Rh25  1  0.32841814  0.67158186  0.50000000  1
  Rh  Rh26  1  0.00000000  -0.00000000  0.00000000  1
  Rh  Rh27  1  0.00000000  -0.00000000  0.50000000  1
