# generated using pymatgen
data_Eu2TlCl5
_symmetry_space_group_name_H-M   'P 1'
_cell_length_a   7.94266277
_cell_length_b   8.99237655
_cell_length_c   12.75898705
_cell_angle_alpha   90.33447391
_cell_angle_beta   90.00000000
_cell_angle_gamma   90.00000000
_symmetry_Int_Tables_number   1
_chemical_formula_structural   Eu2TlCl5
_chemical_formula_sum   'Eu8 Tl4 Cl20'
_cell_volume   911.27489249
_cell_formula_units_Z   4
loop_
 _symmetry_equiv_pos_site_id
 _symmetry_equiv_pos_as_xyz
  1  'x, y, z'
loop_
 _atom_site_type_symbol
 _atom_site_label
 _atom_site_symmetry_multiplicity
 _atom_site_fract_x
 _atom_site_fract_y
 _atom_site_fract_z
 _atom_site_occupancy
  Eu  Eu0  1  0.97672051  0.00047215  0.67840353  1
  Eu  Eu1  1  0.02327949  0.99952785  0.32159647  1
  Eu  Eu2  1  0.47672051  0.99952785  0.82159647  1
  Eu  Eu3  1  0.52327949  0.00047215  0.17840353  1
  Eu  Eu4  1  0.92674199  0.75344613  0.99345614  1
  Eu  Eu5  1  0.07325801  0.24655387  0.00654386  1
  Eu  Eu6  1  0.42674199  0.24655387  0.50654386  1
  Eu  Eu7  1  0.57325801  0.75344613  0.49345614  1
  Tl  Tl8  1  0.97971035  0.50503829  0.67466344  1
  Tl  Tl9  1  0.02028965  0.49496171  0.32533656  1
  Tl  Tl10  1  0.47971035  0.49496171  0.82533656  1
  Tl  Tl11  1  0.52028965  0.50503829  0.17466344  1
  Cl  Cl12  1  0.83943561  0.46406009  0.91265224  1
  Cl  Cl13  1  0.16056439  0.53593991  0.08734776  1
  Cl  Cl14  1  0.33943561  0.53593991  0.58734776  1
  Cl  Cl15  1  0.66056439  0.46406009  0.41265224  1
  Cl  Cl16  1  0.16186183  0.78816968  0.81670162  1
  Cl  Cl17  1  0.83813817  0.21183032  0.18329838  1
  Cl  Cl18  1  0.66186183  0.21183032  0.68329838  1
  Cl  Cl19  1  0.33813817  0.78816968  0.31670162  1
  Cl  Cl20  1  0.69425935  0.77944171  0.71500616  1
  Cl  Cl21  1  0.30574065  0.22055829  0.28499384  1
  Cl  Cl22  1  0.19425935  0.22055829  0.78499384  1
  Cl  Cl23  1  0.80574065  0.77944171  0.21500616  1
  Cl  Cl24  1  0.54969239  0.78835581  0.99719902  1
  Cl  Cl25  1  0.45030761  0.21164419  0.00280098  1
  Cl  Cl26  1  0.04969239  0.21164419  0.50280098  1
  Cl  Cl27  1  0.95030761  0.78835581  0.49719902  1
  Cl  Cl28  1  0.34062160  0.95829734  0.60009551  1
  Cl  Cl29  1  0.65937840  0.04170266  0.39990449  1
  Cl  Cl30  1  0.84062160  0.04170266  0.89990449  1
  Cl  Cl31  1  0.15937840  0.95829734  0.10009551  1
