# generated using pymatgen
data_Dy4CdPt
_symmetry_space_group_name_H-M   'P 1'
_cell_length_a   9.70413614
_cell_length_b   9.70413614
_cell_length_c   9.70413614
_cell_angle_alpha   60.00000000
_cell_angle_beta   60.00000000
_cell_angle_gamma   60.00000000
_symmetry_Int_Tables_number   1
_chemical_formula_structural   Dy4CdPt
_chemical_formula_sum   'Dy16 Cd4 Pt4'
_cell_volume   646.18317233
_cell_formula_units_Z   4
loop_
 _symmetry_equiv_pos_site_id
 _symmetry_equiv_pos_as_xyz
  1  'x, y, z'
loop_
 _atom_site_type_symbol
 _atom_site_label
 _atom_site_symmetry_multiplicity
 _atom_site_fract_x
 _atom_site_fract_y
 _atom_site_fract_z
 _atom_site_occupancy
  Dy  Dy0  1  0.64841445  0.64841445  0.64841445  1
  Dy  Dy1  1  0.05475666  0.64841445  0.64841445  1
  Dy  Dy2  1  0.64841445  0.05475666  0.64841445  1
  Dy  Dy3  1  0.64841445  0.64841445  0.05475666  1
  Dy  Dy4  1  0.81030623  0.81030623  0.18969377  1
  Dy  Dy5  1  0.18969377  0.18969377  0.81030623  1
  Dy  Dy6  1  0.81030623  0.18969377  0.81030623  1
  Dy  Dy7  1  0.18969377  0.81030623  0.18969377  1
  Dy  Dy8  1  0.18969377  0.81030623  0.81030623  1
  Dy  Dy9  1  0.81030623  0.18969377  0.18969377  1
  Dy  Dy10  1  0.43492450  0.43492450  0.06507550  1
  Dy  Dy11  1  0.06507550  0.06507550  0.43492450  1
  Dy  Dy12  1  0.43492450  0.06507550  0.43492450  1
  Dy  Dy13  1  0.06507550  0.43492450  0.06507550  1
  Dy  Dy14  1  0.06507550  0.43492450  0.43492450  1
  Dy  Dy15  1  0.43492450  0.06507550  0.06507550  1
  Cd  Cd16  1  0.41813883  0.41813883  0.41813883  1
  Cd  Cd17  1  0.74558351  0.41813883  0.41813883  1
  Cd  Cd18  1  0.41813883  0.74558351  0.41813883  1
  Cd  Cd19  1  0.41813883  0.41813883  0.74558351  1
  Pt  Pt20  1  0.85700427  0.85700427  0.85700427  1
  Pt  Pt21  1  0.42898719  0.85700427  0.85700427  1
  Pt  Pt22  1  0.85700427  0.42898719  0.85700427  1
  Pt  Pt23  1  0.85700427  0.85700427  0.42898719  1
