# generated using pymatgen
data_CsYb(WO4)2
_symmetry_space_group_name_H-M   'P 1'
_cell_length_a   5.34440859
_cell_length_b   9.44974759
_cell_length_c   7.44729522
_cell_angle_alpha   95.48612916
_cell_angle_beta   90.00000000
_cell_angle_gamma   90.00000000
_symmetry_Int_Tables_number   1
_chemical_formula_structural   CsYb(WO4)2
_chemical_formula_sum   'Cs2 Yb2 W4 O16'
_cell_volume   374.39024168
_cell_formula_units_Z   2
loop_
 _symmetry_equiv_pos_site_id
 _symmetry_equiv_pos_as_xyz
  1  'x, y, z'
loop_
 _atom_site_type_symbol
 _atom_site_label
 _atom_site_symmetry_multiplicity
 _atom_site_fract_x
 _atom_site_fract_y
 _atom_site_fract_z
 _atom_site_occupancy
  Cs  Cs0  1  0.40684041  0.50000000  0.75000000  1
  Cs  Cs1  1  0.59315959  0.50000000  0.25000000  1
  Yb  Yb2  1  0.47094532  0.00000000  0.75000000  1
  Yb  Yb3  1  0.52905468  0.00000000  0.25000000  1
  W  W4  1  0.97806444  0.81886575  0.51137927  1
  W  W5  1  0.02193556  0.18113425  0.48862073  1
  W  W6  1  0.97806444  0.18113425  0.98862073  1
  W  W7  1  0.02193556  0.81886575  0.01137927  1
  O  O8  1  0.86589243  0.83289297  0.25607144  1
  O  O9  1  0.13410757  0.16710703  0.74392856  1
  O  O10  1  0.86589243  0.16710703  0.24392856  1
  O  O11  1  0.13410757  0.83289297  0.75607144  1
  O  O12  1  0.89001520  0.64662348  0.94927627  1
  O  O13  1  0.10998480  0.35337652  0.05072373  1
  O  O14  1  0.89001520  0.35337652  0.55072373  1
  O  O15  1  0.10998480  0.64662348  0.44927627  1
  O  O16  1  0.77105198  0.96542707  0.97068300  1
  O  O17  1  0.22894802  0.03457293  0.02931700  1
  O  O18  1  0.77105198  0.03457293  0.52931700  1
  O  O19  1  0.22894802  0.96542707  0.47068300  1
  O  O20  1  0.66648563  0.78298474  0.60141929  1
  O  O21  1  0.33351437  0.21701526  0.39858071  1
  O  O22  1  0.66648563  0.21701526  0.89858071  1
  O  O23  1  0.33351437  0.78298474  0.10141929  1
