# generated using pymatgen
data_Fe2H10Cl6O5
_symmetry_space_group_name_H-M   'P 1'
_cell_length_a   6.29785754
_cell_length_b   13.29313464
_cell_length_c   16.97027069
_cell_angle_alpha   90.00000000
_cell_angle_beta   90.00000000
_cell_angle_gamma   90.00000000
_symmetry_Int_Tables_number   1
_chemical_formula_structural   Fe2H10Cl6O5
_chemical_formula_sum   'Fe8 H40 Cl24 O20'
_cell_volume   1420.72167344
_cell_formula_units_Z   4
loop_
 _symmetry_equiv_pos_site_id
 _symmetry_equiv_pos_as_xyz
  1  'x, y, z'
loop_
 _atom_site_type_symbol
 _atom_site_label
 _atom_site_symmetry_multiplicity
 _atom_site_fract_x
 _atom_site_fract_y
 _atom_site_fract_z
 _atom_site_occupancy
  Fe  Fe0  1  0.44826812  0.75544501  0.74761738  1
  Fe  Fe1  1  0.55173188  0.24455499  0.24761738  1
  Fe  Fe2  1  0.55173188  0.25544501  0.74761738  1
  Fe  Fe3  1  0.44826812  0.74455499  0.24761738  1
  Fe  Fe4  1  0.96333744  0.98428595  0.99864935  1
  Fe  Fe5  1  0.03666256  0.01571405  0.49864935  1
  Fe  Fe6  1  0.03666256  0.48428595  0.99864935  1
  Fe  Fe7  1  0.96333744  0.51571405  0.49864935  1
  H  H8  1  0.99578327  0.69163660  0.71792945  1
  H  H9  1  0.00421673  0.30836340  0.21792945  1
  H  H10  1  0.00421673  0.19163660  0.71792945  1
  H  H11  1  0.99578327  0.80836340  0.21792945  1
  H  H12  1  0.91547172  0.35602551  0.78114915  1
  H  H13  1  0.08452828  0.64397449  0.28114915  1
  H  H14  1  0.08452828  0.85602551  0.78114915  1
  H  H15  1  0.91547172  0.14397449  0.28114915  1
  H  H16  1  0.44323465  0.69830998  0.90505823  1
  H  H17  1  0.55676535  0.30169002  0.40505823  1
  H  H18  1  0.55676535  0.19830998  0.90505823  1
  H  H19  1  0.44323465  0.80169002  0.40505823  1
  H  H20  1  0.74393094  0.43237685  0.81220809  1
  H  H21  1  0.25606906  0.56762315  0.31220809  1
  H  H22  1  0.25606906  0.93237685  0.81220809  1
  H  H23  1  0.74393094  0.06762315  0.31220809  1
  H  H24  1  0.72327795  0.73420067  0.99304511  1
  H  H25  1  0.27672205  0.26579933  0.49304511  1
  H  H26  1  0.27672205  0.23420067  0.99304511  1
  H  H27  1  0.72327795  0.76579933  0.49304511  1
  H  H28  1  0.54123274  0.81202188  0.99543888  1
  H  H29  1  0.45876726  0.18797812  0.49543888  1
  H  H30  1  0.45876726  0.31202188  0.99543888  1
  H  H31  1  0.54123274  0.68797812  0.49543888  1
  H  H32  1  0.82710268  0.12056505  0.68297952  1
  H  H33  1  0.17289732  0.87943495  0.18297952  1
  H  H34  1  0.17289732  0.62056505  0.68297952  1
  H  H35  1  0.82710268  0.37943495  0.18297952  1
  H  H36  1  0.48830088  0.80366451  0.58847965  1
  H  H37  1  0.51169912  0.19633549  0.08847965  1
  H  H38  1  0.51169912  0.30366451  0.58847965  1
  H  H39  1  0.48830088  0.69633549  0.08847965  1
  H  H40  1  0.23902835  0.65042440  0.86096904  1
  H  H41  1  0.76097165  0.34957560  0.36096904  1
  H  H42  1  0.76097165  0.15042440  0.86096904  1
  H  H43  1  0.23902835  0.84957560  0.36096904  1
  H  H44  1  0.31012048  0.87110170  0.63164794  1
  H  H45  1  0.68987952  0.12889830  0.13164794  1
  H  H46  1  0.68987952  0.37110170  0.63164794  1
  H  H47  1  0.31012048  0.62889830  0.13164794  1
  Cl  Cl48  1  0.91260611  0.56860611  0.89325862  1
  Cl  Cl49  1  0.08739389  0.43139389  0.39325862  1
  Cl  Cl50  1  0.08739389  0.06860611  0.89325862  1
  Cl  Cl51  1  0.91260611  0.93139389  0.39325862  1
  Cl  Cl52  1  0.94029360  0.94066249  0.61031126  1
  Cl  Cl53  1  0.05970640  0.05933751  0.11031126  1
  Cl  Cl54  1  0.05970640  0.44066249  0.61031126  1
  Cl  Cl55  1  0.94029360  0.55933751  0.11031126  1
  Cl  Cl56  1  0.61182560  0.62033816  0.69286241  1
  Cl  Cl57  1  0.38817440  0.37966184  0.19286241  1
  Cl  Cl58  1  0.38817440  0.12033816  0.69286241  1
  Cl  Cl59  1  0.61182560  0.87966184  0.19286241  1
  Cl  Cl60  1  0.74011153  0.83440181  0.79979186  1
  Cl  Cl61  1  0.25988847  0.16559819  0.29979186  1
  Cl  Cl62  1  0.25988847  0.33440181  0.79979186  1
  Cl  Cl63  1  0.74011153  0.66559819  0.29979186  1
  Cl  Cl64  1  0.61222677  0.98801936  0.98969423  1
  Cl  Cl65  1  0.38777323  0.01198064  0.48969423  1
  Cl  Cl66  1  0.38777323  0.48801936  0.98969423  1
  Cl  Cl67  1  0.61222677  0.51198064  0.48969423  1
  Cl  Cl68  1  0.92623606  0.32545304  0.99918087  1
  Cl  Cl69  1  0.07376394  0.67454696  0.49918087  1
  Cl  Cl70  1  0.07376394  0.82545304  0.99918087  1
  Cl  Cl71  1  0.92623606  0.17454696  0.49918087  1
  O  O72  1  0.76376079  0.37367279  0.77793201  1
  O  O73  1  0.23623921  0.62632721  0.27793201  1
  O  O74  1  0.23623921  0.87367279  0.77793201  1
  O  O75  1  0.76376079  0.12632721  0.27793201  1
  O  O76  1  0.56787231  0.73908037  0.99686083  1
  O  O77  1  0.43212769  0.26091963  0.49686083  1
  O  O78  1  0.43212769  0.23908037  0.99686083  1
  O  O79  1  0.56787231  0.76091963  0.49686083  1
  O  O80  1  0.43500311  0.82898918  0.64067624  1
  O  O81  1  0.56499689  0.17101082  0.14067624  1
  O  O82  1  0.56499689  0.32898918  0.64067624  1
  O  O83  1  0.43500311  0.67101082  0.14067624  1
  O  O84  1  0.85034824  0.18144645  0.71416548  1
  O  O85  1  0.14965176  0.81855355  0.21416548  1
  O  O86  1  0.14965176  0.68144645  0.71416548  1
  O  O87  1  0.85034824  0.31855355  0.21416548  1
  O  O88  1  0.37417594  0.68579619  0.85319438  1
  O  O89  1  0.62582406  0.31420381  0.35319438  1
  O  O90  1  0.62582406  0.18579619  0.85319438  1
  O  O91  1  0.37417594  0.81420381  0.35319438  1
