# generated using pymatgen
data_Er2(Ga3Rh)3
_symmetry_space_group_name_H-M   'P 1'
_cell_length_a   7.56713323
_cell_length_b   7.57965998
_cell_length_c   9.51937177
_cell_angle_alpha   90.00000000
_cell_angle_beta   90.00000000
_cell_angle_gamma   120.05477582
_symmetry_Int_Tables_number   1
_chemical_formula_structural   Er2(Ga3Rh)3
_chemical_formula_sum   'Er4 Ga18 Rh6'
_cell_volume   472.58512461
_cell_formula_units_Z   2
loop_
 _symmetry_equiv_pos_site_id
 _symmetry_equiv_pos_as_xyz
  1  'x, y, z'
loop_
 _atom_site_type_symbol
 _atom_site_label
 _atom_site_symmetry_multiplicity
 _atom_site_fract_x
 _atom_site_fract_y
 _atom_site_fract_z
 _atom_site_occupancy
  Er  Er0  1  0.67080394  0.66760755  0.25000000  1
  Er  Er1  1  0.32919606  0.33239245  0.75000000  1
  Er  Er2  1  0.32919606  0.99680362  0.25000000  1
  Er  Er3  1  0.67080394  0.00319638  0.75000000  1
  Ga  Ga4  1  -0.00000000  0.12459416  0.25000000  1
  Ga  Ga5  1  -0.00000000  0.87540584  0.75000000  1
  Ga  Ga6  1  0.33414120  0.33398600  0.07923134  1
  Ga  Ga7  1  0.66585880  0.66601400  0.92076866  1
  Ga  Ga8  1  0.66585880  0.66601400  0.57923134  1
  Ga  Ga9  1  0.66585880  0.99984480  0.42076866  1
  Ga  Ga10  1  0.33414120  0.33398600  0.42076866  1
  Ga  Ga11  1  0.33414120  0.00015520  0.57923134  1
  Ga  Ga12  1  0.33414120  0.00015520  0.92076866  1
  Ga  Ga13  1  0.66585880  0.99984480  0.07923134  1
  Ga  Ga14  1  -0.00000000  0.33310606  0.56376264  1
  Ga  Ga15  1  -0.00000000  0.66689394  0.43623736  1
  Ga  Ga16  1  -0.00000000  0.66689394  0.06376264  1
  Ga  Ga17  1  -0.00000000  0.33310606  0.93623736  1
  Ga  Ga18  1  0.20953371  0.54759500  0.25000000  1
  Ga  Ga19  1  0.79046629  0.45240500  0.75000000  1
  Ga  Ga20  1  0.79046629  0.33806129  0.25000000  1
  Ga  Ga21  1  0.20953371  0.66193871  0.75000000  1
  Rh  Rh22  1  0.65655730  0.32827865  -0.00000000  1
  Rh  Rh23  1  0.34344270  0.67172135  -0.00000000  1
  Rh  Rh24  1  0.34344270  0.67172135  0.50000000  1
  Rh  Rh25  1  0.65655730  0.32827865  0.50000000  1
  Rh  Rh26  1  -0.00000000  -0.00000000  -0.00000000  1
  Rh  Rh27  1  -0.00000000  -0.00000000  0.50000000  1
