# generated using pymatgen
data_CsTb(NbBr3)6
_symmetry_space_group_name_H-M   'P 1'
_cell_length_a   9.97950986
_cell_length_b   9.97950986
_cell_length_c   18.62718847
_cell_angle_alpha   90.00000000
_cell_angle_beta   90.00000000
_cell_angle_gamma   120.00000069
_symmetry_Int_Tables_number   1
_chemical_formula_structural   CsTb(NbBr3)6
_chemical_formula_sum   'Cs2 Tb2 Nb12 Br36'
_cell_volume   1606.55782221
_cell_formula_units_Z   2
loop_
 _symmetry_equiv_pos_site_id
 _symmetry_equiv_pos_as_xyz
  1  'x, y, z'
loop_
 _atom_site_type_symbol
 _atom_site_label
 _atom_site_symmetry_multiplicity
 _atom_site_fract_x
 _atom_site_fract_y
 _atom_site_fract_z
 _atom_site_occupancy
  Cs  Cs0  1  0.33333300  0.66666700  0.75000000  1
  Cs  Cs1  1  0.66666700  0.33333300  0.25000000  1
  Tb  Tb2  1  0.66666700  0.33333300  0.75000000  1
  Tb  Tb3  1  0.33333300  0.66666700  0.25000000  1
  Nb  Nb4  1  0.96179118  0.14934933  0.93517889  1
  Nb  Nb5  1  0.03820882  0.85065067  0.06482111  1
  Nb  Nb6  1  0.18755815  0.03820882  0.93517889  1
  Nb  Nb7  1  0.18755815  0.14934933  0.56482111  1
  Nb  Nb8  1  0.81244185  0.96179118  0.06482111  1
  Nb  Nb9  1  0.81244185  0.85065067  0.43517889  1
  Nb  Nb10  1  0.85065067  0.81244185  0.93517889  1
  Nb  Nb11  1  0.85065067  0.03820882  0.56482111  1
  Nb  Nb12  1  0.14934933  0.18755815  0.06482111  1
  Nb  Nb13  1  0.14934933  0.96179118  0.43517889  1
  Nb  Nb14  1  0.96179118  0.81244185  0.56482111  1
  Nb  Nb15  1  0.03820882  0.18755815  0.43517889  1
  Br  Br16  1  0.91491632  0.36294222  0.83862410  1
  Br  Br17  1  0.08508368  0.63705778  0.16137590  1
  Br  Br18  1  0.44802590  0.08508368  0.83862410  1
  Br  Br19  1  0.44802590  0.36294222  0.66137590  1
  Br  Br20  1  0.55197410  0.91491632  0.16137590  1
  Br  Br21  1  0.55197410  0.63705778  0.33862410  1
  Br  Br22  1  0.63705778  0.55197410  0.83862410  1
  Br  Br23  1  0.63705778  0.08508368  0.66137590  1
  Br  Br24  1  0.36294222  0.44802590  0.16137590  1
  Br  Br25  1  0.36294222  0.91491632  0.33862410  1
  Br  Br26  1  0.91491632  0.55197410  0.66137590  1
  Br  Br27  1  0.08508368  0.44802590  0.33862410  1
  Br  Br28  1  0.76905137  0.95384171  0.84099946  1
  Br  Br29  1  0.23094863  0.04615829  0.15900054  1
  Br  Br30  1  0.18479034  0.23094863  0.84099946  1
  Br  Br31  1  0.18479034  0.95384171  0.65900054  1
  Br  Br32  1  0.81520966  0.76905137  0.15900054  1
  Br  Br33  1  0.81520966  0.04615829  0.34099946  1
  Br  Br34  1  0.04615829  0.81520966  0.84099946  1
  Br  Br35  1  0.04615829  0.23094863  0.65900054  1
  Br  Br36  1  0.95384171  0.18479034  0.15900054  1
  Br  Br37  1  0.95384171  0.76905137  0.34099946  1
  Br  Br38  1  0.76905137  0.81520966  0.65900054  1
  Br  Br39  1  0.23094863  0.18479034  0.34099946  1
  Br  Br40  1  0.58575856  0.72453617  0.99917597  1
  Br  Br41  1  0.41424144  0.27546383  0.00082403  1
  Br  Br42  1  0.13877761  0.41424144  0.99917597  1
  Br  Br43  1  0.13877761  0.72453617  0.50082403  1
  Br  Br44  1  0.86122239  0.58575856  0.00082403  1
  Br  Br45  1  0.86122239  0.27546383  0.49917597  1
  Br  Br46  1  0.27546383  0.86122239  0.99917597  1
  Br  Br47  1  0.27546383  0.41424144  0.50082403  1
  Br  Br48  1  0.72453617  0.13877761  0.00082403  1
  Br  Br49  1  0.72453617  0.58575856  0.49917597  1
  Br  Br50  1  0.58575856  0.86122239  0.50082403  1
  Br  Br51  1  0.41424144  0.13877761  0.49917597  1
