# generated using pymatgen
data_CsSm(MoO4)2
_symmetry_space_group_name_H-M   'P 1'
_cell_length_a   5.14131909
_cell_length_b   9.88702560
_cell_length_c   8.42623470
_cell_angle_alpha   91.75150308
_cell_angle_beta   90.00000000
_cell_angle_gamma   90.00000000
_symmetry_Int_Tables_number   1
_chemical_formula_structural   CsSm(MoO4)2
_chemical_formula_sum   'Cs2 Sm2 Mo4 O16'
_cell_volume   428.12522261
_cell_formula_units_Z   2
loop_
 _symmetry_equiv_pos_site_id
 _symmetry_equiv_pos_as_xyz
  1  'x, y, z'
loop_
 _atom_site_type_symbol
 _atom_site_label
 _atom_site_symmetry_multiplicity
 _atom_site_fract_x
 _atom_site_fract_y
 _atom_site_fract_z
 _atom_site_occupancy
  Cs  Cs0  1  0.46787051  0.50000000  0.75000000  1
  Cs  Cs1  1  0.53212949  0.50000000  0.25000000  1
  Sm  Sm2  1  0.50323464  -0.00000000  0.75000000  1
  Sm  Sm3  1  0.49676536  -0.00000000  0.25000000  1
  Mo  Mo4  1  0.97694862  0.80762666  0.49208485  1
  Mo  Mo5  1  0.02305138  0.19237334  0.50791515  1
  Mo  Mo6  1  0.97694862  0.19237334  0.00791515  1
  Mo  Mo7  1  0.02305138  0.80762666  0.99208485  1
  O  O8  1  0.88850735  0.64425473  0.98377519  1
  O  O9  1  0.11149265  0.35574527  0.01622481  1
  O  O10  1  0.88850735  0.35574527  0.51622481  1
  O  O11  1  0.11149265  0.64425473  0.48377519  1
  O  O12  1  0.76390238  0.81885242  0.32242046  1
  O  O13  1  0.23609762  0.18114758  0.67757954  1
  O  O14  1  0.76390238  0.18114758  0.17757954  1
  O  O15  1  0.23609762  0.81885242  0.82242046  1
  O  O16  1  0.75145927  0.93201653  0.99675944  1
  O  O17  1  0.24854073  0.06798347  0.00324056  1
  O  O18  1  0.75145927  0.06798347  0.50324056  1
  O  O19  1  0.24854073  0.93201653  0.49675944  1
  O  O20  1  0.76383759  0.81651433  0.66279009  1
  O  O21  1  0.23616241  0.18348567  0.33720991  1
  O  O22  1  0.76383759  0.18348567  0.83720991  1
  O  O23  1  0.23616241  0.81651433  0.16279009  1
