# generated using pymatgen
data_Er8Ni18P11
_symmetry_space_group_name_H-M   'P 1'
_cell_length_a   3.77966366
_cell_length_b   17.88673784
_cell_length_c   17.88673784
_cell_angle_alpha   119.99999756
_cell_angle_beta   90.00000000
_cell_angle_gamma   90.00000000
_symmetry_Int_Tables_number   1
_chemical_formula_structural   Er8Ni18P11
_chemical_formula_sum   'Er16 Ni36 P22'
_cell_volume   1047.23965982
_cell_formula_units_Z   2
loop_
 _symmetry_equiv_pos_site_id
 _symmetry_equiv_pos_as_xyz
  1  'x, y, z'
loop_
 _atom_site_type_symbol
 _atom_site_label
 _atom_site_symmetry_multiplicity
 _atom_site_fract_x
 _atom_site_fract_y
 _atom_site_fract_z
 _atom_site_occupancy
  Er  Er0  1  0.50000000  0.52480954  0.04961908  1
  Er  Er1  1  0.50000000  0.52480954  0.47519046  1
  Er  Er2  1  0.50000000  0.95038092  0.47519046  1
  Er  Er3  1  0.50000000  0.73890008  0.47780017  1
  Er  Er4  1  0.50000000  0.73890008  0.26109992  1
  Er  Er5  1  0.50000000  0.52219983  0.26109992  1
  Er  Er6  1  0.00000000  0.21990532  0.43981064  1
  Er  Er7  1  -0.00000000  0.21990532  0.78009468  1
  Er  Er8  1  0.00000000  0.56018936  0.78009468  1
  Er  Er9  1  -0.00000000  0.99833502  0.21524871  1
  Er  Er10  1  -0.00000000  0.21691369  0.00166498  1
  Er  Er11  1  0.00000000  0.21691369  0.21524871  1
  Er  Er12  1  0.00000000  0.78475129  0.78308631  1
  Er  Er13  1  -0.00000000  0.78475129  0.00166498  1
  Er  Er14  1  -0.00000000  0.99833502  0.78308631  1
  Er  Er15  1  -0.00000000  -0.00000000  -0.00000000  1
  Ni  Ni16  1  0.50000000  0.28851036  0.57702073  1
  Ni  Ni17  1  0.50000000  0.28851036  0.71148964  1
  Ni  Ni18  1  0.50000000  0.42297927  0.71148964  1
  Ni  Ni19  1  0.50000000  0.92327648  0.29309258  1
  Ni  Ni20  1  0.50000000  0.36981610  0.07672352  1
  Ni  Ni21  1  0.50000000  0.36981610  0.29309258  1
  Ni  Ni22  1  0.50000000  0.70690742  0.63018390  1
  Ni  Ni23  1  0.50000000  0.70690742  0.07672352  1
  Ni  Ni24  1  0.50000000  0.92327648  0.63018390  1
  Ni  Ni25  1  0.00000000  0.60217436  0.62799830  1
  Ni  Ni26  1  -0.00000000  0.02582394  0.39782564  1
  Ni  Ni27  1  0.00000000  0.02582394  0.62799830  1
  Ni  Ni28  1  0.00000000  0.37200170  0.97417606  1
  Ni  Ni29  1  0.00000000  0.37200170  0.39782564  1
  Ni  Ni30  1  -0.00000000  0.60217436  0.97417606  1
  Ni  Ni31  1  0.00000000  0.81506120  0.63012239  1
  Ni  Ni32  1  -0.00000000  0.81506120  0.18493880  1
  Ni  Ni33  1  0.00000000  0.36987761  0.18493880  1
  Ni  Ni34  1  -0.00000000  0.59549544  0.19099089  1
  Ni  Ni35  1  0.00000000  0.59549544  0.40450456  1
  Ni  Ni36  1  -0.00000000  0.80900911  0.40450456  1
  Ni  Ni37  1  0.50000000  0.92760650  0.85521299  1
  Ni  Ni38  1  0.50000000  0.92760650  0.07239350  1
  Ni  Ni39  1  0.50000000  0.14478701  0.07239350  1
  Ni  Ni40  1  0.50000000  0.50393651  0.63171984  1
  Ni  Ni41  1  0.50000000  0.12778333  0.49606349  1
  Ni  Ni42  1  0.50000000  0.12778333  0.63171984  1
  Ni  Ni43  1  0.50000000  0.36828016  0.87221667  1
  Ni  Ni44  1  0.50000000  0.36828016  0.49606349  1
  Ni  Ni45  1  0.50000000  0.50393651  0.87221667  1
  Ni  Ni46  1  -0.00000000  0.38629498  0.77258995  1
  Ni  Ni47  1  0.00000000  0.38629498  0.61370502  1
  Ni  Ni48  1  -0.00000000  0.22741005  0.61370502  1
  Ni  Ni49  1  0.50000000  0.14367073  0.28734147  1
  Ni  Ni50  1  0.50000000  0.14367073  0.85632927  1
  Ni  Ni51  1  0.50000000  0.71265853  0.85632927  1
  P  P52  1  -0.00000000  0.66666700  0.33333300  1
  P  P53  1  0.50000000  0.85623248  0.71246496  1
  P  P54  1  0.50000000  0.85623248  0.14376752  1
  P  P55  1  0.50000000  0.28753504  0.14376752  1
  P  P56  1  -0.00000000  0.87836842  0.33225944  1
  P  P57  1  -0.00000000  0.45389102  0.12163158  1
  P  P58  1  0.00000000  0.45389102  0.33225944  1
  P  P59  1  0.00000000  0.66774056  0.54610898  1
  P  P60  1  -0.00000000  0.66774056  0.12163158  1
  P  P61  1  -0.00000000  0.87836842  0.54610898  1
  P  P62  1  -0.00000000  0.45626764  0.91253528  1
  P  P63  1  0.00000000  0.45626764  0.54373236  1
  P  P64  1  -0.00000000  0.08746472  0.54373236  1
  P  P65  1  0.50000000  0.64482268  0.71608298  1
  P  P66  1  0.50000000  0.07126030  0.35517732  1
  P  P67  1  0.50000000  0.07126030  0.71608298  1
  P  P68  1  0.50000000  0.28391702  0.92873970  1
  P  P69  1  0.50000000  0.28391702  0.35517732  1
  P  P70  1  0.50000000  0.64482268  0.92873970  1
  P  P71  1  0.50000000  0.07137975  0.14275951  1
  P  P72  1  0.50000000  0.07137975  0.92862025  1
  P  P73  1  0.50000000  0.85724049  0.92862025  1
