# generated using pymatgen
data_Eu2Cu(GeO4)2
_symmetry_space_group_name_H-M   'P 1'
_cell_length_a   5.22457801
_cell_length_b   8.85769964
_cell_length_c   9.15850291
_cell_angle_alpha   118.27852502
_cell_angle_beta   105.57994554
_cell_angle_gamma   91.97293393
_symmetry_Int_Tables_number   1
_chemical_formula_structural   Eu2Cu(GeO4)2
_chemical_formula_sum   'Eu4 Cu2 Ge4 O16'
_cell_volume   352.94781060
_cell_formula_units_Z   2
loop_
 _symmetry_equiv_pos_site_id
 _symmetry_equiv_pos_as_xyz
  1  'x, y, z'
loop_
 _atom_site_type_symbol
 _atom_site_label
 _atom_site_symmetry_multiplicity
 _atom_site_fract_x
 _atom_site_fract_y
 _atom_site_fract_z
 _atom_site_occupancy
  Eu  Eu0  1  0.10845269  0.30136304  0.75957086  1
  Eu  Eu1  1  0.34888183  0.54179218  0.24042914  1
  Eu  Eu2  1  0.36526347  0.04108586  0.24148231  1
  Eu  Eu3  1  0.12378115  0.79960354  0.75851769  1
  Cu  Cu4  1  0.56035154  0.92240060  0.58686609  1
  Cu  Cu5  1  0.97348546  0.33553451  0.41313391  1
  Ge  Ge6  1  0.80494537  0.15745462  -0.00000000  1
  Ge  Ge7  1  0.97585859  0.89440276  0.42219472  1
  Ge  Ge8  1  0.55366386  0.47220804  0.57780528  1
  Ge  Ge9  1  0.67801874  0.66650160  -0.00000000  1
  O  O10  1  0.15827247  0.09292490  0.46846523  1
  O  O11  1  0.68980723  0.62445967  0.53153477  1
  O  O12  1  0.50186131  0.05214945  0.80830195  1
  O  O13  1  0.69355936  0.24384750  0.19169805  1
  O  O14  1  0.48101238  0.50030601  -0.00000000  1
  O  O15  1  0.20969344  0.77393731  0.49077725  1
  O  O16  1  0.71891619  0.28316006  0.50922275  1
  O  O17  1  0.98593505  0.75875776  0.18642358  1
  O  O18  1  0.79951147  0.57233418  0.81357642  1
  O  O19  1  0.99205381  0.32766042  -0.00000000  1
  O  O20  1  0.48062905  0.82436574  -0.00000000  1
  O  O21  1  0.60163583  0.84337903  0.35910830  1
  O  O22  1  0.24252753  0.48427073  0.64089170  1
  O  O23  1  0.00935194  0.00169045  -0.00000000  1
  O  O24  1  0.92545695  0.00399685  0.65918367  1
  O  O25  1  0.26627329  0.34481319  0.34081633  1
