# generated using pymatgen
data_CsPr(NbBr3)6
_symmetry_space_group_name_H-M   'P 1'
_cell_length_a   10.00797073
_cell_length_b   10.00797073
_cell_length_c   18.69407670
_cell_angle_alpha   90.00000000
_cell_angle_beta   90.00000000
_cell_angle_gamma   119.99999758
_symmetry_Int_Tables_number   1
_chemical_formula_structural   CsPr(NbBr3)6
_chemical_formula_sum   'Cs2 Pr2 Nb12 Br36'
_cell_volume   1621.53645147
_cell_formula_units_Z   2
loop_
 _symmetry_equiv_pos_site_id
 _symmetry_equiv_pos_as_xyz
  1  'x, y, z'
loop_
 _atom_site_type_symbol
 _atom_site_label
 _atom_site_symmetry_multiplicity
 _atom_site_fract_x
 _atom_site_fract_y
 _atom_site_fract_z
 _atom_site_occupancy
  Cs  Cs0  1  0.33333300  0.66666700  0.75000000  1
  Cs  Cs1  1  0.66666700  0.33333300  0.25000000  1
  Pr  Pr2  1  0.66666700  0.33333300  0.75000000  1
  Pr  Pr3  1  0.33333300  0.66666700  0.25000000  1
  Nb  Nb4  1  0.96242298  0.14905249  0.93550620  1
  Nb  Nb5  1  0.03757702  0.85094751  0.06449380  1
  Nb  Nb6  1  0.18662951  0.03757702  0.93550620  1
  Nb  Nb7  1  0.18662951  0.14905249  0.56449380  1
  Nb  Nb8  1  0.81337049  0.96242298  0.06449380  1
  Nb  Nb9  1  0.81337049  0.85094751  0.43550620  1
  Nb  Nb10  1  0.85094751  0.81337049  0.93550620  1
  Nb  Nb11  1  0.85094751  0.03757702  0.56449380  1
  Nb  Nb12  1  0.14905249  0.18662951  0.06449380  1
  Nb  Nb13  1  0.14905249  0.96242298  0.43550620  1
  Nb  Nb14  1  0.96242298  0.81337049  0.56449380  1
  Nb  Nb15  1  0.03757702  0.18662951  0.43550620  1
  Br  Br16  1  0.92118296  0.36330891  0.84129322  1
  Br  Br17  1  0.07881704  0.63669109  0.15870678  1
  Br  Br18  1  0.44212595  0.07881704  0.84129322  1
  Br  Br19  1  0.44212595  0.36330891  0.65870678  1
  Br  Br20  1  0.55787405  0.92118296  0.15870678  1
  Br  Br21  1  0.55787405  0.63669109  0.34129322  1
  Br  Br22  1  0.63669109  0.55787405  0.84129322  1
  Br  Br23  1  0.63669109  0.07881704  0.65870678  1
  Br  Br24  1  0.36330891  0.44212595  0.15870678  1
  Br  Br25  1  0.36330891  0.92118296  0.34129322  1
  Br  Br26  1  0.92118296  0.55787405  0.65870678  1
  Br  Br27  1  0.07881704  0.44212595  0.34129322  1
  Br  Br28  1  0.77025176  0.95469839  0.84173744  1
  Br  Br29  1  0.22974824  0.04530161  0.15826256  1
  Br  Br30  1  0.18444663  0.22974824  0.84173744  1
  Br  Br31  1  0.18444663  0.95469839  0.65826256  1
  Br  Br32  1  0.81555337  0.77025176  0.15826256  1
  Br  Br33  1  0.81555337  0.04530161  0.34173744  1
  Br  Br34  1  0.04530161  0.81555337  0.84173744  1
  Br  Br35  1  0.04530161  0.22974824  0.65826256  1
  Br  Br36  1  0.95469839  0.18444663  0.15826256  1
  Br  Br37  1  0.95469839  0.77025176  0.34173744  1
  Br  Br38  1  0.77025176  0.81555337  0.65826256  1
  Br  Br39  1  0.22974824  0.18444663  0.34173744  1
  Br  Br40  1  0.58734706  0.72616761  0.99937044  1
  Br  Br41  1  0.41265294  0.27383239  0.00062956  1
  Br  Br42  1  0.13882055  0.41265294  0.99937044  1
  Br  Br43  1  0.13882055  0.72616761  0.50062956  1
  Br  Br44  1  0.86117945  0.58734706  0.00062956  1
  Br  Br45  1  0.86117945  0.27383239  0.49937044  1
  Br  Br46  1  0.27383239  0.86117945  0.99937044  1
  Br  Br47  1  0.27383239  0.41265294  0.50062956  1
  Br  Br48  1  0.72616761  0.13882055  0.00062956  1
  Br  Br49  1  0.72616761  0.58734706  0.49937044  1
  Br  Br50  1  0.58734706  0.86117945  0.50062956  1
  Br  Br51  1  0.41265294  0.13882055  0.49937044  1
