# generated using pymatgen
data_Dy8Ni18P11
_symmetry_space_group_name_H-M   'P 1'
_cell_length_a   3.82203334
_cell_length_b   17.95281444
_cell_length_c   17.95281444
_cell_angle_alpha   120.00000302
_cell_angle_beta   90.00000000
_cell_angle_gamma   90.00000000
_symmetry_Int_Tables_number   1
_chemical_formula_structural   Dy8Ni18P11
_chemical_formula_sum   'Dy16 Ni36 P22'
_cell_volume   1066.81760428
_cell_formula_units_Z   2
loop_
 _symmetry_equiv_pos_site_id
 _symmetry_equiv_pos_as_xyz
  1  'x, y, z'
loop_
 _atom_site_type_symbol
 _atom_site_label
 _atom_site_symmetry_multiplicity
 _atom_site_fract_x
 _atom_site_fract_y
 _atom_site_fract_z
 _atom_site_occupancy
  Dy  Dy0  1  0.50000000  0.52379397  0.04758793  1
  Dy  Dy1  1  0.50000000  0.52379397  0.47620603  1
  Dy  Dy2  1  0.50000000  0.95241207  0.47620603  1
  Dy  Dy3  1  0.50000000  0.73934500  0.47869000  1
  Dy  Dy4  1  0.50000000  0.73934500  0.26065500  1
  Dy  Dy5  1  0.50000000  0.52131000  0.26065500  1
  Dy  Dy6  1  -0.00000000  0.22000161  0.44000322  1
  Dy  Dy7  1  0.00000000  0.22000161  0.77999839  1
  Dy  Dy8  1  -0.00000000  0.55999678  0.77999839  1
  Dy  Dy9  1  -0.00000000  0.99853930  0.21552609  1
  Dy  Dy10  1  -0.00000000  0.21698679  0.00146070  1
  Dy  Dy11  1  0.00000000  0.21698679  0.21552609  1
  Dy  Dy12  1  0.00000000  0.78447391  0.78301321  1
  Dy  Dy13  1  -0.00000000  0.78447391  0.00146070  1
  Dy  Dy14  1  -0.00000000  0.99853930  0.78301321  1
  Dy  Dy15  1  0.00000000  -0.00000000  -0.00000000  1
  Ni  Ni16  1  0.50000000  0.28892617  0.57785234  1
  Ni  Ni17  1  0.50000000  0.28892617  0.71107383  1
  Ni  Ni18  1  0.50000000  0.42214766  0.71107383  1
  Ni  Ni19  1  0.50000000  0.92394930  0.29312307  1
  Ni  Ni20  1  0.50000000  0.36917377  0.07605070  1
  Ni  Ni21  1  0.50000000  0.36917377  0.29312307  1
  Ni  Ni22  1  0.50000000  0.70687693  0.63082623  1
  Ni  Ni23  1  0.50000000  0.70687693  0.07605070  1
  Ni  Ni24  1  0.50000000  0.92394930  0.63082623  1
  Ni  Ni25  1  0.00000000  0.60152941  0.62944309  1
  Ni  Ni26  1  -0.00000000  0.02791368  0.39847059  1
  Ni  Ni27  1  0.00000000  0.02791368  0.62944309  1
  Ni  Ni28  1  0.00000000  0.37055691  0.97208632  1
  Ni  Ni29  1  0.00000000  0.37055691  0.39847059  1
  Ni  Ni30  1  -0.00000000  0.60152941  0.97208632  1
  Ni  Ni31  1  0.00000000  0.81549847  0.63099694  1
  Ni  Ni32  1  -0.00000000  0.81549847  0.18450153  1
  Ni  Ni33  1  0.00000000  0.36900306  0.18450153  1
  Ni  Ni34  1  0.00000000  0.59488939  0.18977877  1
  Ni  Ni35  1  -0.00000000  0.59488939  0.40511061  1
  Ni  Ni36  1  0.00000000  0.81022123  0.40511061  1
  Ni  Ni37  1  0.50000000  0.92744172  0.85488343  1
  Ni  Ni38  1  0.50000000  0.92744172  0.07255828  1
  Ni  Ni39  1  0.50000000  0.14511657  0.07255828  1
  Ni  Ni40  1  0.50000000  0.50309895  0.63214242  1
  Ni  Ni41  1  0.50000000  0.12904347  0.49690105  1
  Ni  Ni42  1  0.50000000  0.12904347  0.63214242  1
  Ni  Ni43  1  0.50000000  0.36785758  0.87095653  1
  Ni  Ni44  1  0.50000000  0.36785758  0.49690105  1
  Ni  Ni45  1  0.50000000  0.50309895  0.87095653  1
  Ni  Ni46  1  -0.00000000  0.38535751  0.77071501  1
  Ni  Ni47  1  0.00000000  0.38535751  0.61464249  1
  Ni  Ni48  1  -0.00000000  0.22928499  0.61464249  1
  Ni  Ni49  1  0.50000000  0.14356624  0.28713249  1
  Ni  Ni50  1  0.50000000  0.14356624  0.85643376  1
  Ni  Ni51  1  0.50000000  0.71286751  0.85643376  1
  P  P52  1  0.00000000  0.66666700  0.33333300  1
  P  P53  1  0.50000000  0.85611194  0.71222387  1
  P  P54  1  0.50000000  0.85611194  0.14388806  1
  P  P55  1  0.50000000  0.28777613  0.14388806  1
  P  P56  1  -0.00000000  0.87998239  0.33248371  1
  P  P57  1  0.00000000  0.45250132  0.12001761  1
  P  P58  1  -0.00000000  0.45250132  0.33248371  1
  P  P59  1  -0.00000000  0.66751629  0.54749868  1
  P  P60  1  -0.00000000  0.66751629  0.12001761  1
  P  P61  1  0.00000000  0.87998239  0.54749868  1
  P  P62  1  0.00000000  0.45442709  0.90885418  1
  P  P63  1  -0.00000000  0.45442709  0.54557291  1
  P  P64  1  0.00000000  0.09114582  0.54557291  1
  P  P65  1  0.50000000  0.64383876  0.71551126  1
  P  P66  1  0.50000000  0.07167250  0.35616124  1
  P  P67  1  0.50000000  0.07167250  0.71551126  1
  P  P68  1  0.50000000  0.28448874  0.92832750  1
  P  P69  1  0.50000000  0.28448874  0.35616124  1
  P  P70  1  0.50000000  0.64383876  0.92832750  1
  P  P71  1  0.50000000  0.07156977  0.14313954  1
  P  P72  1  0.50000000  0.07156977  0.92843023  1
  P  P73  1  0.50000000  0.85686046  0.92843023  1
