# generated using pymatgen
data_Cs2Mn2(MoO4)3
_symmetry_space_group_name_H-M   'P 1'
_cell_length_a   11.27290108
_cell_length_b   11.27290108
_cell_length_c   11.27290108
_cell_angle_alpha   90.00000000
_cell_angle_beta   90.00000000
_cell_angle_gamma   90.00000000
_symmetry_Int_Tables_number   1
_chemical_formula_structural   Cs2Mn2(MoO4)3
_chemical_formula_sum   'Cs8 Mn8 Mo12 O48'
_cell_volume   1432.54109133
_cell_formula_units_Z   4
loop_
 _symmetry_equiv_pos_site_id
 _symmetry_equiv_pos_as_xyz
  1  'x, y, z'
loop_
 _atom_site_type_symbol
 _atom_site_label
 _atom_site_symmetry_multiplicity
 _atom_site_fract_x
 _atom_site_fract_y
 _atom_site_fract_z
 _atom_site_occupancy
  Cs  Cs0  1  0.04978529  0.04978529  0.04978529  1
  Cs  Cs1  1  0.45021471  0.95021471  0.54978529  1
  Cs  Cs2  1  0.95021471  0.54978529  0.45021471  1
  Cs  Cs3  1  0.54978529  0.45021471  0.95021471  1
  Cs  Cs4  1  0.81792322  0.81792322  0.81792322  1
  Cs  Cs5  1  0.68207678  0.18207678  0.31792322  1
  Cs  Cs6  1  0.18207678  0.31792322  0.68207678  1
  Cs  Cs7  1  0.31792322  0.68207678  0.18207678  1
  Mn  Mn8  1  0.33547354  0.33547354  0.33547354  1
  Mn  Mn9  1  0.16452646  0.66452646  0.83547354  1
  Mn  Mn10  1  0.66452646  0.83547354  0.16452646  1
  Mn  Mn11  1  0.83547354  0.16452646  0.66452646  1
  Mn  Mn12  1  0.60084500  0.60084500  0.60084500  1
  Mn  Mn13  1  0.89915500  0.39915500  0.10084500  1
  Mn  Mn14  1  0.39915500  0.10084500  0.89915500  1
  Mn  Mn15  1  0.10084500  0.89915500  0.39915500  1
  Mo  Mo16  1  0.01997501  0.21440515  0.37599909  1
  Mo  Mo17  1  0.48002499  0.78559485  0.87599909  1
  Mo  Mo18  1  0.98002499  0.71440515  0.12400091  1
  Mo  Mo19  1  0.37599909  0.01997501  0.21440515  1
  Mo  Mo20  1  0.51997501  0.28559485  0.62400091  1
  Mo  Mo21  1  0.87599909  0.48002499  0.78559485  1
  Mo  Mo22  1  0.12400091  0.98002499  0.71440515  1
  Mo  Mo23  1  0.62400091  0.51997501  0.28559485  1
  Mo  Mo24  1  0.21440515  0.37599909  0.01997501  1
  Mo  Mo25  1  0.71440515  0.12400091  0.98002499  1
  Mo  Mo26  1  0.28559485  0.62400091  0.51997501  1
  Mo  Mo27  1  0.78559485  0.87599909  0.48002499  1
  O  O28  1  0.01420500  0.06126195  0.32976701  1
  O  O29  1  0.48579500  0.93873805  0.82976701  1
  O  O30  1  0.98579500  0.56126195  0.17023299  1
  O  O31  1  0.32976701  0.01420500  0.06126195  1
  O  O32  1  0.51420500  0.43873805  0.67023299  1
  O  O33  1  0.82976701  0.48579500  0.93873805  1
  O  O34  1  0.17023299  0.98579500  0.56126195  1
  O  O35  1  0.67023299  0.51420500  0.43873805  1
  O  O36  1  0.06126195  0.32976701  0.01420500  1
  O  O37  1  0.56126195  0.17023299  0.98579500  1
  O  O38  1  0.43873805  0.67023299  0.51420500  1
  O  O39  1  0.93873805  0.82976701  0.48579500  1
  O  O40  1  0.26777299  0.48928645  0.43575400  1
  O  O41  1  0.23222701  0.51071355  0.93575400  1
  O  O42  1  0.73222701  0.98928645  0.06424600  1
  O  O43  1  0.43575400  0.26777299  0.48928645  1
  O  O44  1  0.76777299  0.01071355  0.56424600  1
  O  O45  1  0.93575400  0.23222701  0.51071355  1
  O  O46  1  0.06424600  0.73222701  0.98928645  1
  O  O47  1  0.56424600  0.76777299  0.01071355  1
  O  O48  1  0.48928645  0.43575400  0.26777299  1
  O  O49  1  0.98928645  0.06424600  0.73222701  1
  O  O50  1  0.01071355  0.56424600  0.76777299  1
  O  O51  1  0.51071355  0.93575400  0.23222701  1
  O  O52  1  0.04698827  0.80783783  0.23511130  1
  O  O53  1  0.45301173  0.19216217  0.73511130  1
  O  O54  1  0.95301173  0.30783783  0.26488870  1
  O  O55  1  0.23511130  0.04698827  0.80783783  1
  O  O56  1  0.54698827  0.69216217  0.76488870  1
  O  O57  1  0.73511130  0.45301173  0.19216217  1
  O  O58  1  0.26488870  0.95301173  0.30783783  1
  O  O59  1  0.76488870  0.54698827  0.69216217  1
  O  O60  1  0.80783783  0.23511130  0.04698827  1
  O  O61  1  0.30783783  0.26488870  0.95301173  1
  O  O62  1  0.69216217  0.76488870  0.54698827  1
  O  O63  1  0.19216217  0.73511130  0.45301173  1
  O  O64  1  0.17054767  0.25921293  0.40129215  1
  O  O65  1  0.32945233  0.74078707  0.90129215  1
  O  O66  1  0.82945233  0.75921293  0.09870785  1
  O  O67  1  0.40129215  0.17054767  0.25921293  1
  O  O68  1  0.67054767  0.24078707  0.59870785  1
  O  O69  1  0.90129215  0.32945233  0.74078707  1
  O  O70  1  0.09870785  0.82945233  0.75921293  1
  O  O71  1  0.59870785  0.67054767  0.24078707  1
  O  O72  1  0.25921293  0.40129215  0.17054767  1
  O  O73  1  0.75921293  0.09870785  0.82945233  1
  O  O74  1  0.24078707  0.59870785  0.67054767  1
  O  O75  1  0.74078707  0.90129215  0.32945233  1
