# generated using pymatgen
data_Cs2La10Os2I17
_symmetry_space_group_name_H-M   'P 1'
_cell_length_a   10.18849637
_cell_length_b   11.94416788
_cell_length_c   11.94416788
_cell_angle_alpha   107.62589684
_cell_angle_beta   93.15856683
_cell_angle_gamma   93.15856683
_symmetry_Int_Tables_number   1
_chemical_formula_structural   Cs2La10Os2I17
_chemical_formula_sum   'Cs2 La10 Os2 I17'
_cell_volume   1379.24030669
_cell_formula_units_Z   1
loop_
 _symmetry_equiv_pos_site_id
 _symmetry_equiv_pos_as_xyz
  1  'x, y, z'
loop_
 _atom_site_type_symbol
 _atom_site_label
 _atom_site_symmetry_multiplicity
 _atom_site_fract_x
 _atom_site_fract_y
 _atom_site_fract_z
 _atom_site_occupancy
  Cs  Cs0  1  0.00000000  0.67448462  0.32551538  1
  Cs  Cs1  1  0.00000000  0.32551538  0.67448462  1
  La  La2  1  0.57219843  0.70721283  0.00655418  1
  La  La3  1  0.42780157  0.29278717  0.99344582  1
  La  La4  1  0.42780157  0.99344582  0.29278717  1
  La  La5  1  0.57219843  0.00655418  0.70721283  1
  La  La6  1  0.44253803  0.67023673  0.67023673  1
  La  La7  1  0.55746197  0.32976327  0.32976327  1
  La  La8  1  0.32058839  0.93543656  0.93543656  1
  La  La9  1  0.67941161  0.06456344  0.06456344  1
  La  La10  1  0.81552603  0.79392397  0.79392397  1
  La  La11  1  0.18447397  0.20607603  0.20607603  1
  Os  Os12  1  0.57009956  0.85786924  0.85786924  1
  Os  Os13  1  0.42990044  0.14213076  0.14213076  1
  I  I14  1  0.86053653  0.61617362  0.95002184  1
  I  I15  1  0.13946347  0.38382638  0.04997816  1
  I  I16  1  0.13946347  0.04997816  0.38382638  1
  I  I17  1  0.86053653  0.95002184  0.61617362  1
  I  I18  1  0.57964755  0.52720417  0.18916230  1
  I  I19  1  0.42035245  0.47279583  0.81083770  1
  I  I20  1  0.42035245  0.81083770  0.47279583  1
  I  I21  1  0.57964755  0.18916230  0.52720417  1
  I  I22  1  0.71541862  0.56278095  0.56278095  1
  I  I23  1  0.28458138  0.43721905  0.43721905  1
  I  I24  1  0.72429679  0.24631428  0.89924872  1
  I  I25  1  0.27570321  0.75368572  0.10075128  1
  I  I26  1  0.27570321  0.10075128  0.75368572  1
  I  I27  1  0.72429679  0.89924872  0.24631428  1
  I  I28  1  0.86871663  0.28859949  0.28859949  1
  I  I29  1  0.13128337  0.71140051  0.71140051  1
  I  I30  1  0.00000000  0.00000000  0.00000000  1
