# generated using pymatgen
data_CeHfF7
_symmetry_space_group_name_H-M   'P 1'
_cell_length_a   5.84402303
_cell_length_b   6.31633911
_cell_length_c   8.50979341
_cell_angle_alpha   101.67634086
_cell_angle_beta   90.00000000
_cell_angle_gamma   90.00000000
_symmetry_Int_Tables_number   1
_chemical_formula_structural   CeHfF7
_chemical_formula_sum   'Ce2 Hf2 F14'
_cell_volume   307.62030257
_cell_formula_units_Z   2
loop_
 _symmetry_equiv_pos_site_id
 _symmetry_equiv_pos_as_xyz
  1  'x, y, z'
loop_
 _atom_site_type_symbol
 _atom_site_label
 _atom_site_symmetry_multiplicity
 _atom_site_fract_x
 _atom_site_fract_y
 _atom_site_fract_z
 _atom_site_occupancy
  Ce  Ce0  1  0.70273910  0.65751370  0.68744846  1
  Ce  Ce1  1  0.20273910  0.34248630  0.31255154  1
  Hf  Hf2  1  0.71081648  0.81304575  0.22467366  1
  Hf  Hf3  1  0.21081648  0.18695425  0.77532634  1
  F  F4  1  0.88015810  0.44484070  0.47334560  1
  F  F5  1  0.38015810  0.55515930  0.52665440  1
  F  F6  1  0.41734855  0.93090553  0.76557356  1
  F  F7  1  0.91734855  0.06909447  0.23442644  1
  F  F8  1  0.94824907  0.97686795  0.76322462  1
  F  F9  1  0.44824907  0.02313205  0.23677538  1
  F  F10  1  0.00435333  0.44285650  0.78657276  1
  F  F11  1  0.50435333  0.55714350  0.21342724  1
  F  F12  1  0.70581218  0.75897948  0.98426621  1
  F  F13  1  0.20581218  0.24102052  0.01573379  1
  F  F14  1  0.71295423  0.85829618  0.46533382  1
  F  F15  1  0.21295423  0.14170382  0.53466618  1
  F  F16  1  0.49392896  0.37140519  0.78183370  1
  F  F17  1  0.99392896  0.62859481  0.21816630  1
