# generated using pymatgen
data_CsCoPO4
_symmetry_space_group_name_H-M   'P 1'
_cell_length_a   5.54570589
_cell_length_b   9.43670441
_cell_length_c   9.48641094
_cell_angle_alpha   89.82409765
_cell_angle_beta   90.00000000
_cell_angle_gamma   90.00000000
_symmetry_Int_Tables_number   1
_chemical_formula_structural   CsCoPO4
_chemical_formula_sum   'Cs4 Co4 P4 O16'
_cell_volume   496.45177987
_cell_formula_units_Z   4
loop_
 _symmetry_equiv_pos_site_id
 _symmetry_equiv_pos_as_xyz
  1  'x, y, z'
loop_
 _atom_site_type_symbol
 _atom_site_label
 _atom_site_symmetry_multiplicity
 _atom_site_fract_x
 _atom_site_fract_y
 _atom_site_fract_z
 _atom_site_occupancy
  Cs  Cs0  1  0.99848331  0.99931986  0.81055531  1
  Cs  Cs1  1  0.49848331  0.00068014  0.18944469  1
  Cs  Cs2  1  0.96862207  0.49320208  0.70602731  1
  Cs  Cs3  1  0.46862207  0.50679792  0.29397269  1
  Co  Co4  1  0.46938428  0.67509596  0.91905507  1
  Co  Co5  1  0.96938428  0.32490404  0.08094493  1
  Co  Co6  1  0.99886885  0.83473128  0.41134586  1
  Co  Co7  1  0.49886885  0.16526872  0.58865414  1
  P  P8  1  0.47240330  0.30761888  0.91520624  1
  P  P9  1  0.97240330  0.69238112  0.08479376  1
  P  P10  1  0.49816052  0.81091515  0.59599825  1
  P  P11  1  0.99816052  0.18908485  0.40400175  1
  O  O12  1  0.91983849  0.72411895  0.24157095  1
  O  O13  1  0.41983849  0.27588105  0.75842905  1
  O  O14  1  0.98048570  0.53134539  0.06219343  1
  O  O15  1  0.48048570  0.46865461  0.93780657  1
  O  O16  1  0.77098405  0.76032115  -0.00857658  1
  O  O17  1  0.27098405  0.23967885  0.00857658  1
  O  O18  1  0.47744964  0.96607369  0.64924088  1
  O  O19  1  0.97744964  0.03392631  0.35075912  1
  O  O20  1  0.42176663  0.70961440  0.71728254  1
  O  O21  1  0.92176663  0.29038560  0.28271746  1
  O  O22  1  0.76310697  0.77527164  0.55544342  1
  O  O23  1  0.26310697  0.22472836  0.44455658  1
  O  O24  1  0.71876112  0.24018865  0.95970859  1
  O  O25  1  0.21876112  0.75981135  0.04029141  1
  O  O26  1  0.33068408  0.78342195  0.46732391  1
  O  O27  1  0.83068408  0.21657805  0.53267609  1
