# generated using pymatgen
data_CsErMnSe3
_symmetry_space_group_name_H-M   'P 1'
_cell_length_a   4.22644644
_cell_length_b   8.36436269
_cell_length_c   11.01123969
_cell_angle_alpha   90.00000000
_cell_angle_beta   90.00000000
_cell_angle_gamma   104.63414739
_symmetry_Int_Tables_number   1
_chemical_formula_structural   CsErMnSe3
_chemical_formula_sum   'Cs2 Er2 Mn2 Se6'
_cell_volume   376.63597121
_cell_formula_units_Z   2
loop_
 _symmetry_equiv_pos_site_id
 _symmetry_equiv_pos_as_xyz
  1  'x, y, z'
loop_
 _atom_site_type_symbol
 _atom_site_label
 _atom_site_symmetry_multiplicity
 _atom_site_fract_x
 _atom_site_fract_y
 _atom_site_fract_z
 _atom_site_occupancy
  Cs  Cs0  1  0.74271222  0.48542445  0.25000000  1
  Cs  Cs1  1  0.25728778  0.51457555  0.75000000  1
  Er  Er2  1  -0.00000000  0.00000000  0.00000000  1
  Er  Er3  1  -0.00000000  -0.00000000  0.50000000  1
  Mn  Mn4  1  0.46279519  0.92559038  0.25000000  1
  Mn  Mn5  1  0.53720481  0.07440962  0.75000000  1
  Se  Se6  1  0.38507045  0.77014090  0.05513421  1
  Se  Se7  1  0.61492955  0.22985910  0.94486579  1
  Se  Se8  1  0.61492955  0.22985910  0.55513421  1
  Se  Se9  1  0.38507045  0.77014090  0.44486579  1
  Se  Se10  1  0.05416083  0.10832167  0.25000000  1
  Se  Se11  1  0.94583917  0.89167833  0.75000000  1
