# generated using pymatgen
data_CsCaTa6Cl18
_symmetry_space_group_name_H-M   'P 1'
_cell_length_a   9.42961516
_cell_length_b   9.42961516
_cell_length_c   17.58142778
_cell_angle_alpha   90.00000000
_cell_angle_beta   90.00000000
_cell_angle_gamma   120.00000405
_symmetry_Int_Tables_number   1
_chemical_formula_structural   CsCaTa6Cl18
_chemical_formula_sum   'Cs2 Ca2 Ta12 Cl36'
_cell_volume   1353.85668018
_cell_formula_units_Z   2
loop_
 _symmetry_equiv_pos_site_id
 _symmetry_equiv_pos_as_xyz
  1  'x, y, z'
loop_
 _atom_site_type_symbol
 _atom_site_label
 _atom_site_symmetry_multiplicity
 _atom_site_fract_x
 _atom_site_fract_y
 _atom_site_fract_z
 _atom_site_occupancy
  Cs  Cs0  1  0.33333300  0.66666700  0.75000467  1
  Cs  Cs1  1  0.66666700  0.33333300  0.24999533  1
  Ca  Ca2  1  0.66666700  0.33333300  0.75000965  1
  Ca  Ca3  1  0.33333300  0.66666700  0.24999035  1
  Ta  Ta4  1  0.96213821  0.15803266  0.93165330  1
  Ta  Ta5  1  0.03786179  0.84196734  0.06834670  1
  Ta  Ta6  1  0.19589445  0.03786179  0.93165330  1
  Ta  Ta7  1  0.19549412  0.15770682  0.56821474  1
  Ta  Ta8  1  0.80410555  0.96213821  0.06834670  1
  Ta  Ta9  1  0.80450588  0.84229318  0.43178526  1
  Ta  Ta10  1  0.84196734  0.80410555  0.93165330  1
  Ta  Ta11  1  0.84229318  0.03778731  0.56821474  1
  Ta  Ta12  1  0.15803266  0.19589445  0.06834670  1
  Ta  Ta13  1  0.15770682  0.96221269  0.43178526  1
  Ta  Ta14  1  0.96221269  0.80450588  0.56821474  1
  Ta  Ta15  1  0.03778731  0.19549412  0.43178526  1
  Cl  Cl16  1  0.92179967  0.35885644  0.84328529  1
  Cl  Cl17  1  0.07820033  0.64114356  0.15671471  1
  Cl  Cl18  1  0.43705677  0.07820033  0.84328529  1
  Cl  Cl19  1  0.43703848  0.35884346  0.65672276  1
  Cl  Cl20  1  0.56294323  0.92179967  0.15671471  1
  Cl  Cl21  1  0.56296152  0.64115654  0.34327724  1
  Cl  Cl22  1  0.64114356  0.56294323  0.84328529  1
  Cl  Cl23  1  0.64115654  0.07819503  0.65672276  1
  Cl  Cl24  1  0.35885644  0.43705677  0.15671471  1
  Cl  Cl25  1  0.35884346  0.92180497  0.34327724  1
  Cl  Cl26  1  0.92180497  0.56296152  0.65672276  1
  Cl  Cl27  1  0.07819503  0.43703848  0.34327724  1
  Cl  Cl28  1  0.77040164  0.95629547  0.84099111  1
  Cl  Cl29  1  0.22959836  0.04370453  0.15900889  1
  Cl  Cl30  1  0.18589382  0.22959836  0.84099111  1
  Cl  Cl31  1  0.18592889  0.95628486  0.65905528  1
  Cl  Cl32  1  0.81410618  0.77040164  0.15900889  1
  Cl  Cl33  1  0.81407111  0.04371514  0.34094472  1
  Cl  Cl34  1  0.04370453  0.81410618  0.84099111  1
  Cl  Cl35  1  0.04371514  0.22964402  0.65905528  1
  Cl  Cl36  1  0.95629547  0.18589382  0.15900889  1
  Cl  Cl37  1  0.95628486  0.77035598  0.34094472  1
  Cl  Cl38  1  0.77035598  0.81407111  0.65905528  1
  Cl  Cl39  1  0.22964402  0.18592889  0.34094472  1
  Cl  Cl40  1  0.58664509  0.72680025  -0.00001039  1
  Cl  Cl41  1  0.41335491  0.27319975  0.00001039  1
  Cl  Cl42  1  0.14015516  0.41335491  -0.00001039  1
  Cl  Cl43  1  0.14019069  0.72673767  0.50001177  1
  Cl  Cl44  1  0.85984484  0.58664509  0.00001039  1
  Cl  Cl45  1  0.85980931  0.27326233  0.49998823  1
  Cl  Cl46  1  0.27319975  0.85984484  -0.00001039  1
  Cl  Cl47  1  0.27326233  0.41345302  0.50001177  1
  Cl  Cl48  1  0.72680025  0.14015516  0.00001039  1
  Cl  Cl49  1  0.72673767  0.58654698  0.49998823  1
  Cl  Cl50  1  0.58654698  0.85980931  0.50001177  1
  Cl  Cl51  1  0.41345302  0.14019069  0.49998823  1
