# generated using pymatgen
data_KSiO3
_symmetry_space_group_name_H-M   'P 1'
_cell_length_a   7.83872034
_cell_length_b   7.84364167
_cell_length_c   11.00797248
_cell_angle_alpha   90.00000000
_cell_angle_beta   90.00000000
_cell_angle_gamma   97.22152434
_symmetry_Int_Tables_number   1
_chemical_formula_structural   KSiO3
_chemical_formula_sum   'K8 Si8 O24'
_cell_volume   671.44662259
_cell_formula_units_Z   8
loop_
 _symmetry_equiv_pos_site_id
 _symmetry_equiv_pos_as_xyz
  1  'x, y, z'
loop_
 _atom_site_type_symbol
 _atom_site_label
 _atom_site_symmetry_multiplicity
 _atom_site_fract_x
 _atom_site_fract_y
 _atom_site_fract_z
 _atom_site_occupancy
  K  K0  1  0.01302485  0.01477246  0.74886825  1
  K  K1  1  0.51302485  0.51477246  0.75113175  1
  K  K2  1  0.98697515  0.98522754  0.25113175  1
  K  K3  1  0.48697515  0.48522754  0.24886825  1
  K  K4  1  0.67808740  0.17907940  0.52377653  1
  K  K5  1  0.17808740  0.67907940  0.97622347  1
  K  K6  1  0.32191260  0.82092060  0.47622347  1
  K  K7  1  0.82191260  0.32092060  0.02377653  1
  Si  Si8  1  0.00693474  0.50815743  0.68667993  1
  Si  Si9  1  0.50693474  0.00815743  0.81332007  1
  Si  Si10  1  0.99306526  0.49184257  0.31332007  1
  Si  Si11  1  0.49306526  0.99184257  0.18667993  1
  Si  Si12  1  0.80269797  0.69635602  0.50013706  1
  Si  Si13  1  0.30269797  0.19635602  -0.00013706  1
  Si  Si14  1  0.19730203  0.30364398  0.49986294  1
  Si  Si15  1  0.69730203  0.80364398  0.00013706  1
  O  O16  1  0.96160082  0.45590707  0.82618442  1
  O  O17  1  0.46160082  0.95590707  0.67381558  1
  O  O18  1  0.03839918  0.54409293  0.17381558  1
  O  O19  1  0.53839918  0.04409293  0.32618442  1
  O  O20  1  0.83769180  0.56510918  0.61364748  1
  O  O21  1  0.33769180  0.06510918  0.88635252  1
  O  O22  1  0.16230820  0.43489082  0.38635252  1
  O  O23  1  0.66230820  0.93489082  0.11364748  1
  O  O24  1  0.06033591  0.34167567  0.60907855  1
  O  O25  1  0.56033591  0.84167567  0.89092145  1
  O  O26  1  0.93966409  0.65832433  0.39092145  1
  O  O27  1  0.43966409  0.15832433  0.10907855  1
  O  O28  1  0.16271646  0.66147849  0.70862415  1
  O  O29  1  0.66271646  0.16147849  0.79137585  1
  O  O30  1  0.83728354  0.33852151  0.29137585  1
  O  O31  1  0.33728354  0.83852151  0.20862415  1
  O  O32  1  0.83519262  0.89746487  0.53636698  1
  O  O33  1  0.33519262  0.39746487  0.96363302  1
  O  O34  1  0.16480738  0.10253513  0.46363302  1
  O  O35  1  0.66480738  0.60253513  0.03636698  1
  O  O36  1  0.60258742  0.66231057  0.46118698  1
  O  O37  1  0.10258742  0.16231057  0.03881302  1
  O  O38  1  0.39741258  0.33768943  0.53881302  1
  O  O39  1  0.89741258  0.83768943  0.96118698  1
