# generated using pymatgen
data_Ca3Ge4Au7
_symmetry_space_group_name_H-M   'P 1'
_cell_length_a   4.52294929
_cell_length_b   9.70927198
_cell_length_c   13.29966412
_cell_angle_alpha   90.00000000
_cell_angle_beta   90.00000000
_cell_angle_gamma   90.00000000
_symmetry_Int_Tables_number   1
_chemical_formula_structural   Ca3Ge4Au7
_chemical_formula_sum   'Ca6 Ge8 Au14'
_cell_volume   584.04869593
_cell_formula_units_Z   2
loop_
 _symmetry_equiv_pos_site_id
 _symmetry_equiv_pos_as_xyz
  1  'x, y, z'
loop_
 _atom_site_type_symbol
 _atom_site_label
 _atom_site_symmetry_multiplicity
 _atom_site_fract_x
 _atom_site_fract_y
 _atom_site_fract_z
 _atom_site_occupancy
  Ca  Ca0  1  0.00000000  0.00097713  0.18898979  1
  Ca  Ca1  1  -0.00000000  0.99902287  0.81101021  1
  Ca  Ca2  1  0.50000000  0.49902287  0.68898979  1
  Ca  Ca3  1  0.50000000  0.50097713  0.31101021  1
  Ca  Ca4  1  -0.00000000  0.00000000  0.50000000  1
  Ca  Ca5  1  0.50000000  0.50000000  0.00000000  1
  Ge  Ge6  1  0.00000000  0.35222205  0.18268141  1
  Ge  Ge7  1  -0.00000000  0.64777795  0.81731859  1
  Ge  Ge8  1  0.50000000  0.14777795  0.68268141  1
  Ge  Ge9  1  0.50000000  0.85222205  0.31731859  1
  Ge  Ge10  1  -0.00000000  0.27578912  0.37459772  1
  Ge  Ge11  1  -0.00000000  0.72421088  0.62540228  1
  Ge  Ge12  1  0.50000000  0.22421088  0.87459772  1
  Ge  Ge13  1  0.50000000  0.77578912  0.12540228  1
  Au  Au14  1  0.00000000  0.19843687  0.00273295  1
  Au  Au15  1  0.00000000  0.80156313  0.99726705  1
  Au  Au16  1  0.50000000  0.30156313  0.50273295  1
  Au  Au17  1  0.50000000  0.69843687  0.49726705  1
  Au  Au18  1  0.00000000  0.26016708  0.63923745  1
  Au  Au19  1  0.00000000  0.73983292  0.36076255  1
  Au  Au20  1  0.50000000  0.23983292  0.13923745  1
  Au  Au21  1  0.50000000  0.76016708  0.86076255  1
  Au  Au22  1  0.50000000  -0.00000000  0.00000000  1
  Au  Au23  1  -0.00000000  0.50000000  0.50000000  1
  Au  Au24  1  -0.00000000  0.61325475  0.15826276  1
  Au  Au25  1  0.00000000  0.38674525  0.84173724  1
  Au  Au26  1  0.50000000  0.88674525  0.65826276  1
  Au  Au27  1  0.50000000  0.11325475  0.34173724  1
