# generated using pymatgen
data_Ca3BCBr2N
_symmetry_space_group_name_H-M   'P 1'
_cell_length_a   3.92379299
_cell_length_b   14.54722954
_cell_length_c   11.43886240
_cell_angle_alpha   90.00000000
_cell_angle_beta   90.00000000
_cell_angle_gamma   90.00000000
_symmetry_Int_Tables_number   1
_chemical_formula_structural   Ca3BCBr2N
_chemical_formula_sum   'Ca12 B4 C4 Br8 N4'
_cell_volume   652.93389526
_cell_formula_units_Z   4
loop_
 _symmetry_equiv_pos_site_id
 _symmetry_equiv_pos_as_xyz
  1  'x, y, z'
loop_
 _atom_site_type_symbol
 _atom_site_label
 _atom_site_symmetry_multiplicity
 _atom_site_fract_x
 _atom_site_fract_y
 _atom_site_fract_z
 _atom_site_occupancy
  Ca  Ca0  1  0.75000000  0.60864237  0.64252229  1
  Ca  Ca1  1  0.25000000  0.39135763  0.35747771  1
  Ca  Ca2  1  0.25000000  0.89135763  0.14252229  1
  Ca  Ca3  1  0.75000000  0.10864237  0.85747771  1
  Ca  Ca4  1  0.75000000  0.85681960  0.43070218  1
  Ca  Ca5  1  0.25000000  0.14318040  0.56929782  1
  Ca  Ca6  1  0.25000000  0.64318040  0.93070218  1
  Ca  Ca7  1  0.75000000  0.35681960  0.06929782  1
  Ca  Ca8  1  0.75000000  0.80731872  0.80028317  1
  Ca  Ca9  1  0.25000000  0.19268128  0.19971683  1
  Ca  Ca10  1  0.25000000  0.69268128  0.30028317  1
  Ca  Ca11  1  0.75000000  0.30731872  0.69971683  1
  B  B12  1  0.75000000  0.75627382  0.10136026  1
  B  B13  1  0.25000000  0.24372618  0.89863974  1
  B  B14  1  0.25000000  0.74372618  0.60136026  1
  B  B15  1  0.75000000  0.25627382  0.39863974  1
  C  C16  1  0.75000000  0.79318236  0.21965242  1
  C  C17  1  0.25000000  0.20681764  0.78034758  1
  C  C18  1  0.25000000  0.70681764  0.71965242  1
  C  C19  1  0.75000000  0.29318236  0.28034758  1
  Br  Br20  1  0.75000000  0.55563761  0.39372142  1
  Br  Br21  1  0.25000000  0.44436239  0.60627858  1
  Br  Br22  1  0.25000000  0.94436239  0.89372142  1
  Br  Br23  1  0.75000000  0.05563761  0.10627858  1
  Br  Br24  1  0.75000000  0.98860428  0.63904564  1
  Br  Br25  1  0.25000000  0.01139572  0.36095436  1
  Br  Br26  1  0.25000000  0.51139572  0.13904564  1
  Br  Br27  1  0.75000000  0.48860428  0.86095436  1
  N  N28  1  0.75000000  0.72987879  0.98671245  1
  N  N29  1  0.25000000  0.27012121  0.01328755  1
  N  N30  1  0.25000000  0.77012121  0.48671245  1
  N  N31  1  0.75000000  0.22987879  0.51328755  1
