# generated using pymatgen
data_Ce3Cr10N11
_symmetry_space_group_name_H-M   'P 1'
_cell_length_a   8.98979864
_cell_length_b   8.98979864
_cell_length_c   8.98979864
_cell_angle_alpha   60.00000000
_cell_angle_beta   60.00000000
_cell_angle_gamma   60.00000000
_symmetry_Int_Tables_number   1
_chemical_formula_structural   Ce3Cr10N11
_chemical_formula_sum   'Ce6 Cr20 N22'
_cell_volume   513.72996107
_cell_formula_units_Z   2
loop_
 _symmetry_equiv_pos_site_id
 _symmetry_equiv_pos_as_xyz
  1  'x, y, z'
loop_
 _atom_site_type_symbol
 _atom_site_label
 _atom_site_symmetry_multiplicity
 _atom_site_fract_x
 _atom_site_fract_y
 _atom_site_fract_z
 _atom_site_occupancy
  Ce  Ce0  1  0.69403042  0.69403042  0.30596958  1
  Ce  Ce1  1  0.30596958  0.30596958  0.69403042  1
  Ce  Ce2  1  0.69403042  0.30596958  0.69403042  1
  Ce  Ce3  1  0.30596958  0.69403042  0.30596958  1
  Ce  Ce4  1  0.30596958  0.69403042  0.69403042  1
  Ce  Ce5  1  0.69403042  0.30596958  0.30596958  1
  Cr  Cr6  1  0.90157925  0.90157925  0.90157925  1
  Cr  Cr7  1  0.09842075  0.09842075  0.09842075  1
  Cr  Cr8  1  0.29526224  0.90157925  0.90157925  1
  Cr  Cr9  1  0.90157925  0.29526224  0.90157925  1
  Cr  Cr10  1  0.70473776  0.09842075  0.09842075  1
  Cr  Cr11  1  0.09842075  0.70473776  0.09842075  1
  Cr  Cr12  1  0.90157925  0.90157925  0.29526224  1
  Cr  Cr13  1  0.09842075  0.09842075  0.70473776  1
  Cr  Cr14  1  0.89039113  0.89039113  0.60960887  1
  Cr  Cr15  1  0.10960887  0.10960887  0.39039113  1
  Cr  Cr16  1  0.60960887  0.60960887  0.89039113  1
  Cr  Cr17  1  0.89039113  0.60960887  0.89039113  1
  Cr  Cr18  1  0.39039113  0.10960887  0.39039113  1
  Cr  Cr19  1  0.39039113  0.39039113  0.10960887  1
  Cr  Cr20  1  0.10960887  0.39039113  0.10960887  1
  Cr  Cr21  1  0.60960887  0.89039113  0.60960887  1
  Cr  Cr22  1  0.60960887  0.89039113  0.89039113  1
  Cr  Cr23  1  0.39039113  0.10960887  0.10960887  1
  Cr  Cr24  1  0.89039113  0.60960887  0.60960887  1
  Cr  Cr25  1  0.10960887  0.39039113  0.39039113  1
  N  N26  1  0.00000000  -0.00000000  0.65419758  1
  N  N27  1  -0.00000000  0.00000000  0.34580242  1
  N  N28  1  0.34580242  0.65419758  -0.00000000  1
  N  N29  1  0.65419758  0.34580242  -0.00000000  1
  N  N30  1  0.00000000  0.65419758  -0.00000000  1
  N  N31  1  0.65419758  -0.00000000  0.34580242  1
  N  N32  1  -0.00000000  0.34580242  0.00000000  1
  N  N33  1  0.34580242  0.00000000  0.65419758  1
  N  N34  1  0.65419758  0.00000000  -0.00000000  1
  N  N35  1  0.34580242  0.00000000  -0.00000000  1
  N  N36  1  -0.00000000  0.65419758  0.34580242  1
  N  N37  1  0.00000000  0.34580242  0.65419758  1
  N  N38  1  0.63805392  0.63805392  0.63805392  1
  N  N39  1  0.36194608  0.36194608  0.36194608  1
  N  N40  1  0.08583825  0.63805392  0.63805392  1
  N  N41  1  0.63805392  0.08583825  0.63805392  1
  N  N42  1  0.91416175  0.36194608  0.36194608  1
  N  N43  1  0.36194608  0.91416175  0.36194608  1
  N  N44  1  0.63805392  0.63805392  0.08583825  1
  N  N45  1  0.36194608  0.36194608  0.91416175  1
  N  N46  1  0.50000000  0.50000000  0.50000000  1
  N  N47  1  -0.00000000  -0.00000000  0.00000000  1
