# generated using pymatgen
data_CaSbPd
_symmetry_space_group_name_H-M   'P 1'
_cell_length_a   4.68138916
_cell_length_b   7.40474062
_cell_length_c   7.97810412
_cell_angle_alpha   90.00000000
_cell_angle_beta   90.00000000
_cell_angle_gamma   90.00000000
_symmetry_Int_Tables_number   1
_chemical_formula_structural   CaSbPd
_chemical_formula_sum   'Ca4 Sb4 Pd4'
_cell_volume   276.55677064
_cell_formula_units_Z   4
loop_
 _symmetry_equiv_pos_site_id
 _symmetry_equiv_pos_as_xyz
  1  'x, y, z'
loop_
 _atom_site_type_symbol
 _atom_site_label
 _atom_site_symmetry_multiplicity
 _atom_site_fract_x
 _atom_site_fract_y
 _atom_site_fract_z
 _atom_site_occupancy
  Ca  Ca0  1  0.75000000  0.00518304  0.29737062  1
  Ca  Ca1  1  0.25000000  0.99481696  0.70262938  1
  Ca  Ca2  1  0.25000000  0.49481696  0.79737062  1
  Ca  Ca3  1  0.75000000  0.50518304  0.20262938  1
  Sb  Sb4  1  0.75000000  0.69897650  0.59428627  1
  Sb  Sb5  1  0.25000000  0.30102350  0.40571373  1
  Sb  Sb6  1  0.25000000  0.80102350  0.09428627  1
  Sb  Sb7  1  0.75000000  0.19897650  0.90571373  1
  Pd  Pd8  1  0.75000000  0.81571383  0.92099160  1
  Pd  Pd9  1  0.25000000  0.18428617  0.07900840  1
  Pd  Pd10  1  0.25000000  0.68428617  0.42099160  1
  Pd  Pd11  1  0.75000000  0.31571383  0.57900840  1
