# generated using pymatgen
data_CdNi(PO3)4
_symmetry_space_group_name_H-M   'P 1'
_cell_length_a   7.45187938
_cell_length_b   7.45187938
_cell_length_c   9.99613633
_cell_angle_alpha   98.17812814
_cell_angle_beta   111.22259211
_cell_angle_gamma   108.88050905
_symmetry_Int_Tables_number   1
_chemical_formula_structural   CdNi(PO3)4
_chemical_formula_sum   'Cd2 Ni2 P8 O24'
_cell_volume   467.95344881
_cell_formula_units_Z   2
loop_
 _symmetry_equiv_pos_site_id
 _symmetry_equiv_pos_as_xyz
  1  'x, y, z'
loop_
 _atom_site_type_symbol
 _atom_site_label
 _atom_site_symmetry_multiplicity
 _atom_site_fract_x
 _atom_site_fract_y
 _atom_site_fract_z
 _atom_site_occupancy
  Cd  Cd0  1  0.70013174  0.45013174  0.25000000  1
  Cd  Cd1  1  0.29986826  0.54986826  0.75000000  1
  Ni  Ni2  1  0.50000000  -0.00000000  0.00000000  1
  Ni  Ni3  1  0.50000000  0.50000000  0.50000000  1
  P  P4  1  0.24259639  0.78061325  0.47503446  1
  P  P5  1  0.75740361  0.21938675  0.52496554  1
  P  P6  1  0.80557879  0.76756193  0.02496554  1
  P  P7  1  0.19442121  0.23243807  0.97503446  1
  P  P8  1  0.00888608  0.19484394  0.19607341  1
  P  P9  1  0.99111392  0.80515606  0.80392659  1
  P  P10  1  0.49877052  0.81281266  0.30392659  1
  P  P11  1  0.50122948  0.18718734  0.69607341  1
  O  O12  1  0.01188176  0.67559912  0.41875728  1
  O  O13  1  0.98811824  0.32440088  0.58124272  1
  O  O14  1  0.75684184  0.59312449  0.08124272  1
  O  O15  1  0.24315816  0.40687551  0.91875728  1
  O  O16  1  0.46501897  0.84646595  0.15565944  1
  O  O17  1  0.53498103  0.15353405  0.84434056  1
  O  O18  1  0.19080650  0.30935952  0.34434056  1
  O  O19  1  0.80919350  0.69064048  0.65565944  1
  O  O20  1  0.79659718  0.20068893  0.16914619  1
  O  O21  1  0.20340282  0.79931107  0.83085381  1
  O  O22  1  0.53154274  0.62745099  0.33085381  1
  O  O23  1  0.46845726  0.37254901  0.66914619  1
  O  O24  1  0.37533646  0.18694938  0.07307090  1
  O  O25  1  0.62466354  0.81305062  0.92692910  1
  O  O26  1  0.61387848  0.30226556  0.42692910  1
  O  O27  1  0.38612152  0.69773444  0.57307090  1
  O  O28  1  0.97396982  0.96477990  0.16276170  1
  O  O29  1  0.02603018  0.03522010  0.83723830  1
  O  O30  1  0.30201819  0.81120812  0.33723830  1
  O  O31  1  0.69798181  0.18879188  0.66276170  1
  O  O32  1  0.30101998  0.00412748  0.56283195  1
  O  O33  1  0.69898002  0.99587252  0.43716805  1
  O  O34  1  0.94129553  0.73818803  0.93716805  1
  O  O35  1  0.05870447  0.26181197  0.06283195  1
