# generated using pymatgen
data_Ce3SiI3
_symmetry_space_group_name_H-M   'P 1'
_cell_length_a   10.73687347
_cell_length_b   10.73687347
_cell_length_c   10.73687347
_cell_angle_alpha   109.47122063
_cell_angle_beta   109.47122063
_cell_angle_gamma   109.47122063
_symmetry_Int_Tables_number   1
_chemical_formula_structural   Ce3SiI3
_chemical_formula_sum   'Ce12 Si4 I12'
_cell_volume   952.82164659
_cell_formula_units_Z   4
loop_
 _symmetry_equiv_pos_site_id
 _symmetry_equiv_pos_as_xyz
  1  'x, y, z'
loop_
 _atom_site_type_symbol
 _atom_site_label
 _atom_site_symmetry_multiplicity
 _atom_site_fract_x
 _atom_site_fract_y
 _atom_site_fract_z
 _atom_site_occupancy
  Ce  Ce0  1  0.76554330  0.51554330  0.53108661  1
  Ce  Ce1  1  0.73445670  0.76554330  0.25000000  1
  Ce  Ce2  1  0.51554330  0.98445670  0.25000000  1
  Ce  Ce3  1  0.51554330  0.53108661  0.76554330  1
  Ce  Ce4  1  0.76554330  0.25000000  0.73445670  1
  Ce  Ce5  1  0.98445670  0.73445670  0.96891339  1
  Ce  Ce6  1  0.73445670  0.96891339  0.98445670  1
  Ce  Ce7  1  0.98445670  0.25000000  0.51554330  1
  Ce  Ce8  1  0.53108661  0.76554330  0.51554330  1
  Ce  Ce9  1  0.25000000  0.51554330  0.98445670  1
  Ce  Ce10  1  0.96891339  0.98445670  0.73445670  1
  Ce  Ce11  1  0.25000000  0.73445670  0.76554330  1
  Si  Si12  1  0.75000000  0.75000000  0.75000000  1
  Si  Si13  1  0.75000000  0.00000000  0.50000000  1
  Si  Si14  1  0.50000000  0.75000000  0.00000000  1
  Si  Si15  1  0.00000000  0.50000000  0.75000000  1
  I  I16  1  0.25905151  0.24094849  0.75000000  1
  I  I17  1  0.24094849  0.49094849  0.48189698  1
  I  I18  1  0.00905151  0.25905151  0.01810302  1
  I  I19  1  0.24094849  0.75000000  0.25905151  1
  I  I20  1  0.25905151  0.01810302  0.00905151  1
  I  I21  1  0.49094849  0.00905151  0.75000000  1
  I  I22  1  0.49094849  0.48189698  0.24094849  1
  I  I23  1  0.00905151  0.75000000  0.49094849  1
  I  I24  1  0.75000000  0.25905151  0.24094849  1
  I  I25  1  0.01810302  0.00905151  0.25905151  1
  I  I26  1  0.75000000  0.49094849  0.00905151  1
  I  I27  1  0.48189698  0.24094849  0.49094849  1
