# generated using pymatgen
data_Ca3Hf3AgF20
_symmetry_space_group_name_H-M   'P 1'
_cell_length_a   8.50373820
_cell_length_b   10.69925962
_cell_length_c   10.69925962
_cell_angle_alpha   119.99999912
_cell_angle_beta   90.00000000
_cell_angle_gamma   90.00000000
_symmetry_Int_Tables_number   1
_chemical_formula_structural   Ca3Hf3AgF20
_chemical_formula_sum   'Ca6 Hf6 Ag2 F40'
_cell_volume   843.03958709
_cell_formula_units_Z   2
loop_
 _symmetry_equiv_pos_site_id
 _symmetry_equiv_pos_as_xyz
  1  'x, y, z'
loop_
 _atom_site_type_symbol
 _atom_site_label
 _atom_site_symmetry_multiplicity
 _atom_site_fract_x
 _atom_site_fract_y
 _atom_site_fract_z
 _atom_site_occupancy
  Ca  Ca0  1  0.75000000  0.72804326  0.16197641  1
  Ca  Ca1  1  0.25000000  0.27195674  0.83802359  1
  Ca  Ca2  1  0.75000000  0.43393315  0.27195674  1
  Ca  Ca3  1  0.25000000  0.56606685  0.72804326  1
  Ca  Ca4  1  0.75000000  0.83802359  0.56606685  1
  Ca  Ca5  1  0.25000000  0.16197641  0.43393315  1
  Hf  Hf6  1  0.75000000  0.58391146  0.72267497  1
  Hf  Hf7  1  0.25000000  0.41608854  0.27732503  1
  Hf  Hf8  1  0.75000000  0.13876352  0.41608854  1
  Hf  Hf9  1  0.25000000  0.86123648  0.58391146  1
  Hf  Hf10  1  0.75000000  0.27732503  0.86123648  1
  Hf  Hf11  1  0.25000000  0.72267497  0.13876352  1
  Ag  Ag12  1  0.75000000  -0.00000000  0.00000000  1
  Ag  Ag13  1  0.25000000  -0.00000000  0.00000000  1
  F  F14  1  0.98430878  0.57480329  0.72028165  1
  F  F15  1  0.01569122  0.42519671  0.27971835  1
  F  F16  1  0.98430878  0.14547836  0.42519671  1
  F  F17  1  0.48430878  0.42519671  0.27971835  1
  F  F18  1  0.01569122  0.85452164  0.57480329  1
  F  F19  1  0.51569122  0.57480329  0.72028165  1
  F  F20  1  0.98430878  0.27971835  0.85452164  1
  F  F21  1  0.48430878  0.85452164  0.57480329  1
  F  F22  1  0.01569122  0.72028165  0.14547836  1
  F  F23  1  0.51569122  0.14547836  0.42519671  1
  F  F24  1  0.48430878  0.72028165  0.14547836  1
  F  F25  1  0.51569122  0.27971835  0.85452164  1
  F  F26  1  0.75000000  0.71683420  0.94108951  1
  F  F27  1  0.25000000  0.28316580  0.05891049  1
  F  F28  1  0.75000000  0.22425531  0.28316580  1
  F  F29  1  0.25000000  0.77574469  0.71683420  1
  F  F30  1  0.75000000  0.05891049  0.77574469  1
  F  F31  1  0.25000000  0.94108951  0.22425531  1
  F  F32  1  0.75000000  0.96720114  0.20285718  1
  F  F33  1  0.25000000  0.03279886  0.79714282  1
  F  F34  1  0.75000000  0.23565604  0.03279886  1
  F  F35  1  0.25000000  0.76434396  0.96720114  1
  F  F36  1  0.75000000  0.79714282  0.76434396  1
  F  F37  1  0.25000000  0.20285718  0.23565604  1
  F  F38  1  0.75000000  0.66666700  0.33333300  1
  F  F39  1  0.25000000  0.33333300  0.66666700  1
  F  F40  1  0.75000000  0.36593246  0.55080583  1
  F  F41  1  0.25000000  0.63406754  0.44919417  1
  F  F42  1  0.75000000  0.18487336  0.63406754  1
  F  F43  1  0.25000000  0.81512664  0.36593246  1
  F  F44  1  0.75000000  0.44919417  0.81512664  1
  F  F45  1  0.25000000  0.55080583  0.18487336  1
  F  F46  1  0.75000000  0.94363305  0.41405323  1
  F  F47  1  0.25000000  0.05636695  0.58594677  1
  F  F48  1  0.75000000  0.47042018  0.05636695  1
  F  F49  1  0.25000000  0.52957982  0.94363305  1
  F  F50  1  0.75000000  0.58594677  0.52957982  1
  F  F51  1  0.25000000  0.41405323  0.47042018  1
  F  F52  1  0.00000000  -0.00000000  0.00000000  1
  F  F53  1  0.50000000  -0.00000000  0.00000000  1
