# generated using pymatgen
data_Cs3HoCl6
_symmetry_space_group_name_H-M   'P 1'
_cell_length_a   8.32126720
_cell_length_b   13.43991334
_cell_length_c   26.74855517
_cell_angle_alpha   90.00000000
_cell_angle_beta   90.00000000
_cell_angle_gamma   90.00000000
_symmetry_Int_Tables_number   1
_chemical_formula_structural   Cs3HoCl6
_chemical_formula_sum   'Cs24 Ho8 Cl48'
_cell_volume   2991.48110815
_cell_formula_units_Z   8
loop_
 _symmetry_equiv_pos_site_id
 _symmetry_equiv_pos_as_xyz
  1  'x, y, z'
loop_
 _atom_site_type_symbol
 _atom_site_label
 _atom_site_symmetry_multiplicity
 _atom_site_fract_x
 _atom_site_fract_y
 _atom_site_fract_z
 _atom_site_occupancy
  Cs  Cs0  1  0.30896507  0.40849725  0.15275736  1
  Cs  Cs1  1  0.69103493  0.59150275  0.84724264  1
  Cs  Cs2  1  0.69103493  0.59150275  0.65275736  1
  Cs  Cs3  1  0.69103493  0.90849725  0.34724264  1
  Cs  Cs4  1  0.30896507  0.40849725  0.34724264  1
  Cs  Cs5  1  0.30896507  0.09150275  0.65275736  1
  Cs  Cs6  1  0.30896507  0.09150275  0.84724264  1
  Cs  Cs7  1  0.69103493  0.90849725  0.15275736  1
  Cs  Cs8  1  0.18350571  0.75564063  0.16311626  1
  Cs  Cs9  1  0.81649429  0.24435937  0.83688374  1
  Cs  Cs10  1  0.81649429  0.24435937  0.66311626  1
  Cs  Cs11  1  0.81649429  0.25564063  0.33688374  1
  Cs  Cs12  1  0.18350571  0.75564063  0.33688374  1
  Cs  Cs13  1  0.18350571  0.74435937  0.66311626  1
  Cs  Cs14  1  0.18350571  0.74435937  0.83688374  1
  Cs  Cs15  1  0.81649429  0.25564063  0.16311626  1
  Cs  Cs16  1  0.26173406  0.08592488  0.05009874  1
  Cs  Cs17  1  0.73826594  0.91407512  0.94990126  1
  Cs  Cs18  1  0.73826594  0.91407512  0.55009874  1
  Cs  Cs19  1  0.73826594  0.58592488  0.44990126  1
  Cs  Cs20  1  0.26173406  0.08592488  0.44990126  1
  Cs  Cs21  1  0.26173406  0.41407512  0.55009874  1
  Cs  Cs22  1  0.26173406  0.41407512  0.94990126  1
  Cs  Cs23  1  0.73826594  0.58592488  0.05009874  1
  Ho  Ho24  1  0.78714366  0.25000000  -0.00000000  1
  Ho  Ho25  1  0.21285634  0.75000000  -0.00000000  1
  Ho  Ho26  1  0.21285634  0.75000000  0.50000000  1
  Ho  Ho27  1  0.78714366  0.25000000  0.50000000  1
  Ho  Ho28  1  0.25828528  0.08213969  0.25000000  1
  Ho  Ho29  1  0.74171472  0.91786031  0.75000000  1
  Ho  Ho30  1  0.74171472  0.58213969  0.25000000  1
  Ho  Ho31  1  0.25828528  0.41786031  0.75000000  1
  Cl  Cl32  1  0.60282447  0.40461262  0.25000000  1
  Cl  Cl33  1  0.39717553  0.59538738  0.75000000  1
  Cl  Cl34  1  0.39717553  0.90461262  0.25000000  1
  Cl  Cl35  1  0.60282447  0.09538738  0.75000000  1
  Cl  Cl36  1  0.45198689  0.13621351  0.17596786  1
  Cl  Cl37  1  0.54801311  0.86378649  0.82403214  1
  Cl  Cl38  1  0.54801311  0.86378649  0.67596786  1
  Cl  Cl39  1  0.54801311  0.63621351  0.32403214  1
  Cl  Cl40  1  0.45198689  0.13621351  0.32403214  1
  Cl  Cl41  1  0.45198689  0.36378649  0.67596786  1
  Cl  Cl42  1  0.45198689  0.36378649  0.82403214  1
  Cl  Cl43  1  0.54801311  0.63621351  0.17596786  1
  Cl  Cl44  1  0.13055618  0.26322316  0.25000000  1
  Cl  Cl45  1  0.86944382  0.73677684  0.75000000  1
  Cl  Cl46  1  0.86944382  0.76322316  0.25000000  1
  Cl  Cl47  1  0.13055618  0.23677684  0.75000000  1
  Cl  Cl48  1  0.22305243  0.58940560  0.05577954  1
  Cl  Cl49  1  0.77694757  0.41059440  0.94422046  1
  Cl  Cl50  1  0.77694757  0.41059440  0.55577954  1
  Cl  Cl51  1  0.77694757  0.08940560  0.44422046  1
  Cl  Cl52  1  0.22305243  0.58940560  0.44422046  1
  Cl  Cl53  1  0.22305243  0.91059440  0.55577954  1
  Cl  Cl54  1  0.22305243  0.91059440  0.94422046  1
  Cl  Cl55  1  0.77694757  0.08940560  0.05577954  1
  Cl  Cl56  1  0.56836507  0.33644478  0.05719528  1
  Cl  Cl57  1  0.43163493  0.66355522  0.94280472  1
  Cl  Cl58  1  0.43163493  0.66355522  0.55719528  1
  Cl  Cl59  1  0.43163493  0.83644478  0.44280472  1
  Cl  Cl60  1  0.56836507  0.33644478  0.44280472  1
  Cl  Cl61  1  0.56836507  0.16355522  0.55719528  1
  Cl  Cl62  1  0.56836507  0.16355522  0.94280472  1
  Cl  Cl63  1  0.43163493  0.83644478  0.05719528  1
  Cl  Cl64  1  0.02387558  0.31992658  0.05689883  1
  Cl  Cl65  1  0.97612442  0.68007342  0.94310117  1
  Cl  Cl66  1  0.97612442  0.68007342  0.55689883  1
  Cl  Cl67  1  0.97612442  0.81992658  0.44310117  1
  Cl  Cl68  1  0.02387558  0.31992658  0.44310117  1
  Cl  Cl69  1  0.02387558  0.18007342  0.55689883  1
  Cl  Cl70  1  0.02387558  0.18007342  0.94310117  1
  Cl  Cl71  1  0.97612442  0.81992658  0.05689883  1
  Cl  Cl72  1  0.05704311  0.02624496  0.17878947  1
  Cl  Cl73  1  0.94295689  0.97375504  0.82121053  1
  Cl  Cl74  1  0.94295689  0.97375504  0.67878947  1
  Cl  Cl75  1  0.94295689  0.52624496  0.32121053  1
  Cl  Cl76  1  0.05704311  0.02624496  0.32121053  1
  Cl  Cl77  1  0.05704311  0.47375504  0.67878947  1
  Cl  Cl78  1  0.05704311  0.47375504  0.82121053  1
  Cl  Cl79  1  0.94295689  0.52624496  0.17878947  1
