# generated using pymatgen
data_Ca2TaCrO6
_symmetry_space_group_name_H-M   'P 1'
_cell_length_a   5.47560436
_cell_length_b   5.57332759
_cell_length_c   7.79537755
_cell_angle_alpha   90.00000000
_cell_angle_beta   89.86017326
_cell_angle_gamma   90.00000000
_symmetry_Int_Tables_number   1
_chemical_formula_structural   Ca2TaCrO6
_chemical_formula_sum   'Ca4 Ta2 Cr2 O12'
_cell_volume   237.89345441
_cell_formula_units_Z   2
loop_
 _symmetry_equiv_pos_site_id
 _symmetry_equiv_pos_as_xyz
  1  'x, y, z'
loop_
 _atom_site_type_symbol
 _atom_site_label
 _atom_site_symmetry_multiplicity
 _atom_site_fract_x
 _atom_site_fract_y
 _atom_site_fract_z
 _atom_site_occupancy
  Ca  Ca0  1  0.00916916  0.45855073  0.25093458  1
  Ca  Ca1  1  0.99083084  0.54144927  0.74906542  1
  Ca  Ca2  1  0.49083084  0.95855073  0.24906542  1
  Ca  Ca3  1  0.50916916  0.04144927  0.75093458  1
  Ta  Ta4  1  -0.00000000  -0.00000000  0.00000000  1
  Ta  Ta5  1  0.50000000  0.50000000  0.50000000  1
  Cr  Cr6  1  -0.00000000  -0.00000000  0.50000000  1
  Cr  Cr7  1  0.50000000  0.50000000  0.00000000  1
  O  O8  1  0.91543571  0.02390851  0.24865274  1
  O  O9  1  0.08456429  0.97609149  0.75134726  1
  O  O10  1  0.58456429  0.52390851  0.25134726  1
  O  O11  1  0.41543571  0.47609149  0.74865274  1
  O  O12  1  0.20523532  0.71107135  0.04550952  1
  O  O13  1  0.79476468  0.28892865  0.95449048  1
  O  O14  1  0.29476468  0.21107135  0.45449048  1
  O  O15  1  0.70523532  0.78892865  0.54550952  1
  O  O16  1  0.29068770  0.20664569  0.04309689  1
  O  O17  1  0.70931230  0.79335431  0.95690311  1
  O  O18  1  0.20931230  0.70664569  0.45690311  1
  O  O19  1  0.79068770  0.29335431  0.54309689  1
