# generated using pymatgen
data_Ca2MgAs2(H2O5)2
_symmetry_space_group_name_H-M   'P 1'
_cell_length_a   5.74087054
_cell_length_b   5.86670008
_cell_length_c   13.09670970
_cell_angle_alpha   90.00000000
_cell_angle_beta   90.00000000
_cell_angle_gamma   107.60439338
_symmetry_Int_Tables_number   1
_chemical_formula_structural   Ca2MgAs2(H2O5)2
_chemical_formula_sum   'Ca4 Mg2 As4 H8 O20'
_cell_volume   420.43906082
_cell_formula_units_Z   2
loop_
 _symmetry_equiv_pos_site_id
 _symmetry_equiv_pos_as_xyz
  1  'x, y, z'
loop_
 _atom_site_type_symbol
 _atom_site_label
 _atom_site_symmetry_multiplicity
 _atom_site_fract_x
 _atom_site_fract_y
 _atom_site_fract_z
 _atom_site_occupancy
  Ca  Ca0  1  0.22984113  0.56155395  0.12428861  1
  Ca  Ca1  1  0.77015887  0.43844605  0.87571139  1
  Ca  Ca2  1  0.27015887  0.43844605  0.62428861  1
  Ca  Ca3  1  0.72984113  0.56155395  0.37571139  1
  Mg  Mg4  1  -0.00000000  0.00000000  -0.00000000  1
  Mg  Mg5  1  0.50000000  0.00000000  0.50000000  1
  As  As6  1  0.06553516  0.21625416  0.37938797  1
  As  As7  1  0.93446484  0.78374584  0.62061203  1
  As  As8  1  0.43446484  0.78374584  0.87938797  1
  As  As9  1  0.56553516  0.21625416  0.12061203  1
  H  H10  1  0.00101095  0.10022239  0.79313990  1
  H  H11  1  0.99898905  0.89977761  0.20686010  1
  H  H12  1  0.49898905  0.89977761  0.29313990  1
  H  H13  1  0.50101095  0.10022239  0.70686010  1
  H  H14  1  0.29770952  0.70465942  0.35379750  1
  H  H15  1  0.70229048  0.29534058  0.64620250  1
  H  H16  1  0.20229048  0.29534058  0.85379750  1
  H  H17  1  0.79770952  0.70465942  0.14620250  1
  O  O18  1  0.33576418  0.23771500  0.03901828  1
  O  O19  1  0.66423582  0.76228500  0.96098172  1
  O  O20  1  0.16423582  0.76228500  0.53901828  1
  O  O21  1  0.83576418  0.23771500  0.46098172  1
  O  O22  1  0.49622131  0.94237051  0.17760191  1
  O  O23  1  0.50377869  0.05762949  0.82239809  1
  O  O24  1  0.00377869  0.05762949  0.67760191  1
  O  O25  1  0.99622131  0.94237051  0.32239809  1
  O  O26  1  0.33541200  0.27557107  0.44850118  1
  O  O27  1  0.66458800  0.72442893  0.55149882  1
  O  O28  1  0.16458800  0.72442893  0.94850118  1
  O  O29  1  0.83541200  0.27557107  0.05149882  1
  O  O30  1  0.53442033  0.18240705  0.63688548  1
  O  O31  1  0.46557967  0.81759295  0.36311452  1
  O  O32  1  0.96557967  0.81759295  0.13688548  1
  O  O33  1  0.03442033  0.18240705  0.86311452  1
  O  O34  1  0.08068100  0.44779574  0.29537062  1
  O  O35  1  0.91931900  0.55220426  0.70462938  1
  O  O36  1  0.41931900  0.55220426  0.79537062  1
  O  O37  1  0.58068100  0.44779574  0.20462938  1
