# generated using pymatgen
data_Ce3Al4Co3
_symmetry_space_group_name_H-M   'P 1'
_cell_length_a   4.18738132
_cell_length_b   24.27635723
_cell_length_c   7.00410034
_cell_angle_alpha   90.00000000
_cell_angle_beta   90.00000000
_cell_angle_gamma   90.00000000
_symmetry_Int_Tables_number   1
_chemical_formula_structural   Ce3Al4Co3
_chemical_formula_sum   'Ce12 Al16 Co12'
_cell_volume   711.99737094
_cell_formula_units_Z   4
loop_
 _symmetry_equiv_pos_site_id
 _symmetry_equiv_pos_as_xyz
  1  'x, y, z'
loop_
 _atom_site_type_symbol
 _atom_site_label
 _atom_site_symmetry_multiplicity
 _atom_site_fract_x
 _atom_site_fract_y
 _atom_site_fract_z
 _atom_site_occupancy
  Ce  Ce0  1  0.75000000  0.96208932  0.35074437  1
  Ce  Ce1  1  0.25000000  0.03791068  0.64925563  1
  Ce  Ce2  1  0.25000000  0.53791068  0.85074437  1
  Ce  Ce3  1  0.75000000  0.46208932  0.14925563  1
  Ce  Ce4  1  0.75000000  0.86705441  0.97319578  1
  Ce  Ce5  1  0.25000000  0.13294559  0.02680422  1
  Ce  Ce6  1  0.25000000  0.63294559  0.47319578  1
  Ce  Ce7  1  0.75000000  0.36705441  0.52680422  1
  Ce  Ce8  1  0.75000000  0.82797955  0.46742547  1
  Ce  Ce9  1  0.25000000  0.17202045  0.53257453  1
  Ce  Ce10  1  0.25000000  0.67202045  0.96742547  1
  Ce  Ce11  1  0.75000000  0.32797955  0.03257453  1
  Al  Al12  1  0.75000000  0.53733112  0.51199957  1
  Al  Al13  1  0.25000000  0.46266888  0.48800043  1
  Al  Al14  1  0.25000000  0.96266888  0.01199957  1
  Al  Al15  1  0.75000000  0.03733112  0.98800043  1
  Al  Al16  1  0.75000000  0.71488208  0.27073191  1
  Al  Al17  1  0.25000000  0.28511792  0.72926809  1
  Al  Al18  1  0.25000000  0.78511792  0.77073191  1
  Al  Al19  1  0.75000000  0.21488208  0.22926809  1
  Al  Al20  1  0.75000000  0.71328994  0.66966973  1
  Al  Al21  1  0.25000000  0.28671006  0.33033027  1
  Al  Al22  1  0.25000000  0.78671006  0.16966973  1
  Al  Al23  1  0.75000000  0.21328994  0.83033027  1
  Al  Al24  1  0.75000000  0.59174165  0.14679659  1
  Al  Al25  1  0.25000000  0.40825835  0.85320341  1
  Al  Al26  1  0.25000000  0.90825835  0.64679659  1
  Al  Al27  1  0.75000000  0.09174165  0.35320341  1
  Co  Co28  1  0.75000000  0.94754975  0.79572712  1
  Co  Co29  1  0.25000000  0.05245025  0.20427288  1
  Co  Co30  1  0.25000000  0.55245025  0.29572712  1
  Co  Co31  1  0.75000000  0.44754975  0.70427288  1
  Co  Co32  1  0.75000000  0.77071950  0.96961236  1
  Co  Co33  1  0.25000000  0.22928050  0.03038764  1
  Co  Co34  1  0.25000000  0.72928050  0.46961236  1
  Co  Co35  1  0.75000000  0.27071950  0.53038764  1
  Co  Co36  1  0.75000000  0.61014677  0.77700599  1
  Co  Co37  1  0.25000000  0.38985323  0.22299401  1
  Co  Co38  1  0.25000000  0.88985323  0.27700599  1
  Co  Co39  1  0.75000000  0.11014677  0.72299401  1
