# generated using pymatgen
data_Bi2(Pb2S3)3
_symmetry_space_group_name_H-M   'P 1'
_cell_length_a   4.14865545
_cell_length_b   7.20924361
_cell_length_c   32.19814995
_cell_angle_alpha   90.00000000
_cell_angle_beta   90.00000000
_cell_angle_gamma   106.72219825
_symmetry_Int_Tables_number   1
_chemical_formula_structural   Bi2(Pb2S3)3
_chemical_formula_sum   'Bi4 Pb12 S18'
_cell_volume   922.27939119
_cell_formula_units_Z   2
loop_
 _symmetry_equiv_pos_site_id
 _symmetry_equiv_pos_as_xyz
  1  'x, y, z'
loop_
 _atom_site_type_symbol
 _atom_site_label
 _atom_site_symmetry_multiplicity
 _atom_site_fract_x
 _atom_site_fract_y
 _atom_site_fract_z
 _atom_site_occupancy
  Bi  Bi0  1  0.45696920  0.91393839  0.11622618  1
  Bi  Bi1  1  0.54303080  0.08606161  0.88377382  1
  Bi  Bi2  1  0.54303080  0.08606161  0.61622618  1
  Bi  Bi3  1  0.45696920  0.91393839  0.38377382  1
  Pb  Pb4  1  0.27065072  0.54130143  0.55740533  1
  Pb  Pb5  1  0.72934928  0.45869857  0.44259467  1
  Pb  Pb6  1  0.72934928  0.45869857  0.05740533  1
  Pb  Pb7  1  0.27065072  0.54130143  0.94259467  1
  Pb  Pb8  1  0.92644625  0.85289250  0.25000000  1
  Pb  Pb9  1  0.07355375  0.14710750  0.75000000  1
  Pb  Pb10  1  -0.00000000  -0.00000000  0.00000000  1
  Pb  Pb11  1  -0.00000000  -0.00000000  0.50000000  1
  Pb  Pb12  1  0.18345527  0.36691054  0.17461676  1
  Pb  Pb13  1  0.81654473  0.63308946  0.82538324  1
  Pb  Pb14  1  0.81654473  0.63308946  0.67461676  1
  Pb  Pb15  1  0.18345527  0.36691054  0.32538324  1
  S  S16  1  0.36245039  0.72490078  0.02912259  1
  S  S17  1  0.63754961  0.27509922  0.97087741  1
  S  S18  1  0.63754961  0.27509922  0.52912259  1
  S  S19  1  0.36245039  0.72490078  0.47087741  1
  S  S20  1  0.08434300  0.16868600  0.08514754  1
  S  S21  1  0.91565700  0.83131400  0.91485246  1
  S  S22  1  0.91565700  0.83131400  0.58514754  1
  S  S23  1  0.08434300  0.16868600  0.41485246  1
  S  S24  1  0.28551151  0.57102302  0.25000000  1
  S  S25  1  0.71448849  0.42897698  0.75000000  1
  S  S26  1  0.54134743  0.08269486  0.19104677  1
  S  S27  1  0.45865257  0.91730514  0.80895323  1
  S  S28  1  0.45865257  0.91730514  0.69104677  1
  S  S29  1  0.54134743  0.08269486  0.30895323  1
  S  S30  1  0.17218887  0.34437774  0.63792757  1
  S  S31  1  0.82781113  0.65562226  0.36207243  1
  S  S32  1  0.82781113  0.65562226  0.13792757  1
  S  S33  1  0.17218887  0.34437774  0.86207243  1
