# generated using pymatgen
data_Ca2P3Pb3ClO12
_symmetry_space_group_name_H-M   'P 1'
_cell_length_a   7.16791574
_cell_length_b   9.95782670
_cell_length_c   9.95782670
_cell_angle_alpha   119.99999411
_cell_angle_beta   90.00000000
_cell_angle_gamma   90.00000000
_symmetry_Int_Tables_number   1
_chemical_formula_structural   Ca2P3Pb3ClO12
_chemical_formula_sum   'Ca4 P6 Pb6 Cl2 O24'
_cell_volume   615.53489285
_cell_formula_units_Z   2
loop_
 _symmetry_equiv_pos_site_id
 _symmetry_equiv_pos_as_xyz
  1  'x, y, z'
loop_
 _atom_site_type_symbol
 _atom_site_label
 _atom_site_symmetry_multiplicity
 _atom_site_fract_x
 _atom_site_fract_y
 _atom_site_fract_z
 _atom_site_occupancy
  Ca  Ca0  1  0.00464526  0.66666700  0.33333300  1
  Ca  Ca1  1  0.99535474  0.33333300  0.66666700  1
  Ca  Ca2  1  0.50464526  0.33333300  0.66666700  1
  Ca  Ca3  1  0.49535474  0.66666700  0.33333300  1
  P  P4  1  0.75000000  0.96664852  0.38661949  1
  P  P5  1  0.25000000  0.03335148  0.61338051  1
  P  P6  1  0.75000000  0.41997097  0.03335148  1
  P  P7  1  0.25000000  0.58002903  0.96664852  1
  P  P8  1  0.75000000  0.61338051  0.58002903  1
  P  P9  1  0.25000000  0.38661949  0.41997097  1
  Pb  Pb10  1  0.75000000  0.75320841  0.01028227  1
  Pb  Pb11  1  0.25000000  0.24679159  0.98971773  1
  Pb  Pb12  1  0.75000000  0.25707386  0.24679159  1
  Pb  Pb13  1  0.25000000  0.74292614  0.75320841  1
  Pb  Pb14  1  0.75000000  0.98971773  0.74292614  1
  Pb  Pb15  1  0.25000000  0.01028227  0.25707386  1
  Cl  Cl16  1  0.00000000  -0.00000000  0.00000000  1
  Cl  Cl17  1  0.50000000  -0.00000000  0.00000000  1
  O  O18  1  0.75000000  0.86326273  0.46587725  1
  O  O19  1  0.25000000  0.13673727  0.53412275  1
  O  O20  1  0.75000000  0.60261452  0.13673727  1
  O  O21  1  0.25000000  0.39738548  0.86326273  1
  O  O22  1  0.75000000  0.53412275  0.39738548  1
  O  O23  1  0.25000000  0.46587725  0.60261452  1
  O  O24  1  0.75000000  0.49010579  0.63188296  1
  O  O25  1  0.25000000  0.50989421  0.36811704  1
  O  O26  1  0.75000000  0.14177717  0.50989421  1
  O  O27  1  0.25000000  0.85822283  0.49010579  1
  O  O28  1  0.75000000  0.36811704  0.85822283  1
  O  O29  1  0.25000000  0.63188296  0.14177717  1
  O  O30  1  0.92503038  0.91590122  0.27991672  1
  O  O31  1  0.07496962  0.08409878  0.72008328  1
  O  O32  1  0.92503038  0.36401550  0.08409878  1
  O  O33  1  0.42503038  0.08409878  0.72008328  1
  O  O34  1  0.07496962  0.63598450  0.91590122  1
  O  O35  1  0.57496962  0.91590122  0.27991672  1
  O  O36  1  0.92503038  0.72008328  0.63598450  1
  O  O37  1  0.42503038  0.63598450  0.91590122  1
  O  O38  1  0.07496962  0.27991672  0.36401550  1
  O  O39  1  0.57496962  0.36401550  0.08409878  1
  O  O40  1  0.42503038  0.27991672  0.36401550  1
  O  O41  1  0.57496962  0.72008328  0.63598450  1
