# generated using pymatgen
data_BiP5O14
_symmetry_space_group_name_H-M   'P 1'
_cell_length_a   8.85829469
_cell_length_b   9.25450416
_cell_length_c   13.08321309
_cell_angle_alpha   90.00000000
_cell_angle_beta   90.00000000
_cell_angle_gamma   90.00000000
_symmetry_Int_Tables_number   1
_chemical_formula_structural   BiP5O14
_chemical_formula_sum   'Bi4 P20 O56'
_cell_volume   1072.55036208
_cell_formula_units_Z   4
loop_
 _symmetry_equiv_pos_site_id
 _symmetry_equiv_pos_as_xyz
  1  'x, y, z'
loop_
 _atom_site_type_symbol
 _atom_site_label
 _atom_site_symmetry_multiplicity
 _atom_site_fract_x
 _atom_site_fract_y
 _atom_site_fract_z
 _atom_site_occupancy
  Bi  Bi0  1  0.52478972  0.93498550  0.75000000  1
  Bi  Bi1  1  0.47521028  0.06501450  0.25000000  1
  Bi  Bi2  1  0.97521028  0.43498550  0.25000000  1
  Bi  Bi3  1  0.02478972  0.56501450  0.75000000  1
  P  P4  1  0.93293069  0.99464208  0.75000000  1
  P  P5  1  0.06706931  0.00535792  0.25000000  1
  P  P6  1  0.56706931  0.49464208  0.25000000  1
  P  P7  1  0.43293069  0.50535792  0.75000000  1
  P  P8  1  0.75531299  0.72716965  0.93669061  1
  P  P9  1  0.24468701  0.27283035  0.06330939  1
  P  P10  1  0.74468701  0.22716965  0.06330939  1
  P  P11  1  0.24468701  0.27283035  0.43669061  1
  P  P12  1  0.25531299  0.77283035  0.93669061  1
  P  P13  1  0.75531299  0.72716965  0.56330939  1
  P  P14  1  0.25531299  0.77283035  0.56330939  1
  P  P15  1  0.74468701  0.22716965  0.43669061  1
  P  P16  1  0.99430481  0.20246291  0.91581924  1
  P  P17  1  0.00569519  0.79753709  0.08418076  1
  P  P18  1  0.50569519  0.70246291  0.08418076  1
  P  P19  1  0.00569519  0.79753709  0.41581924  1
  P  P20  1  0.49430481  0.29753709  0.91581924  1
  P  P21  1  0.99430481  0.20246291  0.58418076  1
  P  P22  1  0.49430481  0.29753709  0.58418076  1
  P  P23  1  0.50569519  0.70246291  0.41581924  1
  O  O24  1  0.65934239  0.65621596  0.46952254  1
  O  O25  1  0.34065761  0.34378404  0.53047746  1
  O  O26  1  0.84065761  0.15621596  0.53047746  1
  O  O27  1  0.34065761  0.34378404  0.96952254  1
  O  O28  1  0.15934239  0.84378404  0.46952254  1
  O  O29  1  0.65934239  0.65621596  0.03047746  1
  O  O30  1  0.15934239  0.84378404  0.03047746  1
  O  O31  1  0.84065761  0.15621596  0.96952254  1
  O  O32  1  0.00530449  0.65576065  0.36474913  1
  O  O33  1  0.99469551  0.34423935  0.63525087  1
  O  O34  1  0.49469551  0.15576065  0.63525087  1
  O  O35  1  0.99469551  0.34423935  0.86474913  1
  O  O36  1  0.50530449  0.84423935  0.36474913  1
  O  O37  1  0.00530449  0.65576065  0.13525087  1
  O  O38  1  0.50530449  0.84423935  0.13525087  1
  O  O39  1  0.49469551  0.15576065  0.86474913  1
  O  O40  1  0.27509095  0.44721083  0.75000000  1
  O  O41  1  0.72490905  0.55278917  0.25000000  1
  O  O42  1  0.22490905  0.94721083  0.25000000  1
  O  O43  1  0.77509095  0.05278917  0.75000000  1
  O  O44  1  0.82633849  0.60653307  0.87922391  1
  O  O45  1  0.17366151  0.39346693  0.12077609  1
  O  O46  1  0.67366151  0.10653307  0.12077609  1
  O  O47  1  0.17366151  0.39346693  0.37922391  1
  O  O48  1  0.32633849  0.89346693  0.87922391  1
  O  O49  1  0.82633849  0.60653307  0.62077609  1
  O  O50  1  0.32633849  0.89346693  0.62077609  1
  O  O51  1  0.67366151  0.10653307  0.37922391  1
  O  O52  1  0.96907494  0.83812867  0.75000000  1
  O  O53  1  0.03092506  0.16187133  0.25000000  1
  O  O54  1  0.53092506  0.33812867  0.25000000  1
  O  O55  1  0.46907494  0.66187133  0.75000000  1
  O  O56  1  0.88134637  0.82061086  0.99920110  1
  O  O57  1  0.11865363  0.17938914  0.00079890  1
  O  O58  1  0.61865363  0.32061086  0.00079890  1
  O  O59  1  0.11865363  0.17938914  0.49920110  1
  O  O60  1  0.38134637  0.67938914  0.99920110  1
  O  O61  1  0.88134637  0.82061086  0.50079890  1
  O  O62  1  0.38134637  0.67938914  0.50079890  1
  O  O63  1  0.61865363  0.32061086  0.49920110  1
  O  O64  1  0.65794995  0.83857610  0.88684822  1
  O  O65  1  0.34205005  0.16142390  0.11315178  1
  O  O66  1  0.84205005  0.33857610  0.11315178  1
  O  O67  1  0.34205005  0.16142390  0.38684822  1
  O  O68  1  0.15794995  0.66142390  0.88684822  1
  O  O69  1  0.65794995  0.83857610  0.61315178  1
  O  O70  1  0.15794995  0.66142390  0.61315178  1
  O  O71  1  0.84205005  0.33857610  0.38684822  1
  O  O72  1  0.97353682  0.93314790  0.34557472  1
  O  O73  1  0.02646318  0.06685210  0.65442528  1
  O  O74  1  0.52646318  0.43314790  0.65442528  1
  O  O75  1  0.02646318  0.06685210  0.84557472  1
  O  O76  1  0.47353682  0.56685210  0.34557472  1
  O  O77  1  0.97353682  0.93314790  0.15442528  1
  O  O78  1  0.47353682  0.56685210  0.15442528  1
  O  O79  1  0.52646318  0.43314790  0.84557472  1
