# generated using pymatgen
data_BaVCdF7
_symmetry_space_group_name_H-M   'P 1'
_cell_length_a   5.52699905
_cell_length_b   7.60038626
_cell_length_c   15.37822571
_cell_angle_alpha   91.71622102
_cell_angle_beta   90.00000000
_cell_angle_gamma   111.32144220
_symmetry_Int_Tables_number   1
_chemical_formula_structural   BaVCdF7
_chemical_formula_sum   'Ba4 V4 Cd4 F28'
_cell_volume   601.47188098
_cell_formula_units_Z   4
loop_
 _symmetry_equiv_pos_site_id
 _symmetry_equiv_pos_as_xyz
  1  'x, y, z'
loop_
 _atom_site_type_symbol
 _atom_site_label
 _atom_site_symmetry_multiplicity
 _atom_site_fract_x
 _atom_site_fract_y
 _atom_site_fract_z
 _atom_site_occupancy
  Ba  Ba0  1  0.64788893  0.37933214  0.62430853  1
  Ba  Ba1  1  0.35211107  0.62066786  0.37569147  1
  Ba  Ba2  1  0.26855680  0.62066786  0.87569147  1
  Ba  Ba3  1  0.73144320  0.37933214  0.12430853  1
  V  V4  1  0.38496920  0.75564424  0.62482446  1
  V  V5  1  0.61503080  0.24435576  0.37517554  1
  V  V6  1  0.62932496  0.24435576  0.87517554  1
  V  V7  1  0.37067504  0.75564424  0.12482446  1
  Cd  Cd8  1  -0.00000000  0.00000000  0.00000000  1
  Cd  Cd9  1  -0.00000000  0.00000000  0.50000000  1
  Cd  Cd10  1  0.95452472  0.00000000  0.75000000  1
  Cd  Cd11  1  0.04547528  0.00000000  0.25000000  1
  F  F12  1  0.42352276  0.17085266  0.98342210  1
  F  F13  1  0.57647724  0.82914734  0.01657790  1
  F  F14  1  0.25267010  0.82914734  0.51657790  1
  F  F15  1  0.74732990  0.17085266  0.48342210  1
  F  F16  1  0.68564351  0.50250708  0.90932338  1
  F  F17  1  0.31435649  0.49749292  0.09067662  1
  F  F18  1  0.18313643  0.49749292  0.59067662  1
  F  F19  1  0.81686357  0.50250708  0.40932338  1
  F  F20  1  0.54620050  0.66783188  0.72306646  1
  F  F21  1  0.45379950  0.33216812  0.27693354  1
  F  F22  1  0.87836862  0.33216812  0.77693354  1
  F  F23  1  0.12163138  0.66783188  0.22306646  1
  F  F24  1  0.60305421  0.98621741  0.84273763  1
  F  F25  1  0.39694579  0.01378259  0.15726237  1
  F  F26  1  0.61683680  0.01378259  0.65726237  1
  F  F27  1  0.38316320  0.98621741  0.34273763  1
  F  F28  1  0.34554871  0.24427279  0.79752035  1
  F  F29  1  0.65445129  0.75572721  0.20247965  1
  F  F30  1  0.10127593  0.75572721  0.70247965  1
  F  F31  1  0.89872407  0.24427279  0.29752035  1
  F  F32  1  0.66374780  0.72855450  0.54793688  1
  F  F33  1  0.33625220  0.27144550  0.45206312  1
  F  F34  1  0.93519330  0.27144550  0.95206312  1
  F  F35  1  0.06480670  0.72855450  0.04793688  1
  F  F36  1  0.84245649  0.87655316  0.37116811  1
  F  F37  1  0.15754351  0.12344684  0.62883189  1
  F  F38  1  0.96590333  0.12344684  0.12883189  1
  F  F39  1  0.03409667  0.87655316  0.87116811  1
