# generated using pymatgen
data_AsRuS
_symmetry_space_group_name_H-M   'P 1'
_cell_length_a   5.95092270
_cell_length_b   5.96465913
_cell_length_c   6.00750368
_cell_angle_alpha   111.21503603
_cell_angle_beta   90.00000000
_cell_angle_gamma   90.00000000
_symmetry_Int_Tables_number   1
_chemical_formula_structural   AsRuS
_chemical_formula_sum   'As4 Ru4 S4'
_cell_volume   198.78633732
_cell_formula_units_Z   4
loop_
 _symmetry_equiv_pos_site_id
 _symmetry_equiv_pos_as_xyz
  1  'x, y, z'
loop_
 _atom_site_type_symbol
 _atom_site_label
 _atom_site_symmetry_multiplicity
 _atom_site_fract_x
 _atom_site_fract_y
 _atom_site_fract_z
 _atom_site_occupancy
  As  As0  1  0.37365832  0.64903122  0.87142880  1
  As  As1  1  0.62634168  0.35096878  0.12857120  1
  As  As2  1  0.87365832  0.35096878  0.62857120  1
  As  As3  1  0.12634168  0.64903122  0.37142880  1
  Ru  Ru4  1  0.99457390  0.78432632  0.79625507  1
  Ru  Ru5  1  0.00542610  0.21567368  0.20374493  1
  Ru  Ru6  1  0.49457390  0.21567368  0.70374493  1
  Ru  Ru7  1  0.50542610  0.78432632  0.29625507  1
  S  S8  1  0.62765763  0.84284900  0.68417598  1
  S  S9  1  0.37234237  0.15715100  0.31582402  1
  S  S10  1  0.12765763  0.15715100  0.81582402  1
  S  S11  1  0.87234237  0.84284900  0.18417598  1
