# generated using pymatgen
data_Ba3Gd(BO2)9
_symmetry_space_group_name_H-M   'P 1'
_cell_length_a   7.29566785
_cell_length_b   7.29566786
_cell_length_c   17.69982061
_cell_angle_alpha   90.00000000
_cell_angle_beta   90.00000000
_cell_angle_gamma   120.00000359
_symmetry_Int_Tables_number   1
_chemical_formula_structural   Ba3Gd(BO2)9
_chemical_formula_sum   'Ba6 Gd2 B18 O36'
_cell_volume   815.88620231
_cell_formula_units_Z   2
loop_
 _symmetry_equiv_pos_site_id
 _symmetry_equiv_pos_as_xyz
  1  'x, y, z'
loop_
 _atom_site_type_symbol
 _atom_site_label
 _atom_site_symmetry_multiplicity
 _atom_site_fract_x
 _atom_site_fract_y
 _atom_site_fract_z
 _atom_site_occupancy
  Ba  Ba0  1  0.66666700  0.33333300  0.86799920  1
  Ba  Ba1  1  0.33333300  0.66666700  0.13200080  1
  Ba  Ba2  1  0.33333300  0.66666700  0.36799920  1
  Ba  Ba3  1  0.66666700  0.33333300  0.63200080  1
  Ba  Ba4  1  -0.00000000  -0.00000000  0.75000000  1
  Ba  Ba5  1  -0.00000000  -0.00000000  0.25000000  1
  Gd  Gd6  1  -0.00000000  -0.00000000  0.00000000  1
  Gd  Gd7  1  -0.00000000  -0.00000000  0.50000000  1
  B  B8  1  0.54917687  0.83475808  0.91783575  1
  B  B9  1  0.45082313  0.16524192  0.08216425  1
  B  B10  1  0.28558120  0.45082313  0.91783575  1
  B  B11  1  0.45082313  0.16524192  0.41783575  1
  B  B12  1  0.71441880  0.54917687  0.08216425  1
  B  B13  1  0.54917687  0.83475808  0.58216425  1
  B  B14  1  0.16524192  0.71441880  0.91783575  1
  B  B15  1  0.71441880  0.54917687  0.41783575  1
  B  B16  1  0.83475808  0.28558120  0.08216425  1
  B  B17  1  0.28558120  0.45082313  0.58216425  1
  B  B18  1  0.83475808  0.28558120  0.41783575  1
  B  B19  1  0.16524192  0.71441880  0.58216425  1
  B  B20  1  0.50449629  0.62220320  0.75000000  1
  B  B21  1  0.49550371  0.37779680  0.25000000  1
  B  B22  1  0.11770691  0.49550371  0.75000000  1
  B  B23  1  0.88229309  0.50449629  0.25000000  1
  B  B24  1  0.37779680  0.88229309  0.75000000  1
  B  B25  1  0.62220320  0.11770691  0.25000000  1
  O  O26  1  0.54124227  0.83242146  0.75000000  1
  O  O27  1  0.45875773  0.16757854  0.25000000  1
  O  O28  1  0.29117919  0.45875773  0.75000000  1
  O  O29  1  0.70882081  0.54124227  0.25000000  1
  O  O30  1  0.16757854  0.70882081  0.75000000  1
  O  O31  1  0.83242146  0.29117919  0.25000000  1
  O  O32  1  0.92032280  0.33273278  0.75000000  1
  O  O33  1  0.07967720  0.66726722  0.25000000  1
  O  O34  1  0.41240999  0.07967720  0.75000000  1
  O  O35  1  0.58759001  0.92032280  0.25000000  1
  O  O36  1  0.66726722  0.58759001  0.75000000  1
  O  O37  1  0.33273278  0.41240999  0.25000000  1
  O  O38  1  0.74828572  0.99547282  0.91810474  1
  O  O39  1  0.25171428  0.00452718  0.08189526  1
  O  O40  1  0.24718710  0.25171428  0.91810474  1
  O  O41  1  0.25171428  0.00452718  0.41810474  1
  O  O42  1  0.75281290  0.74828572  0.08189526  1
  O  O43  1  0.74828572  0.99547282  0.58189526  1
  O  O44  1  0.00452718  0.75281290  0.91810474  1
  O  O45  1  0.75281290  0.74828572  0.41810474  1
  O  O46  1  0.99547282  0.24718710  0.08189526  1
  O  O47  1  0.24718710  0.25171428  0.58189526  1
  O  O48  1  0.99547282  0.24718710  0.41810474  1
  O  O49  1  0.00452718  0.75281290  0.58189526  1
  O  O50  1  0.49653890  0.62068357  0.91836085  1
  O  O51  1  0.50346110  0.37931643  0.08163915  1
  O  O52  1  0.12414467  0.50346110  0.91836085  1
  O  O53  1  0.50346110  0.37931643  0.41836085  1
  O  O54  1  0.87585533  0.49653890  0.08163915  1
  O  O55  1  0.49653890  0.62068357  0.58163915  1
  O  O56  1  0.37931643  0.87585533  0.91836085  1
  O  O57  1  0.87585533  0.49653890  0.41836085  1
  O  O58  1  0.62068357  0.12414467  0.08163915  1
  O  O59  1  0.12414467  0.50346110  0.58163915  1
  O  O60  1  0.62068357  0.12414467  0.41836085  1
  O  O61  1  0.37931643  0.87585533  0.58163915  1
