# generated using pymatgen
data_Ba3SbI3
_symmetry_space_group_name_H-M   'P 1'
_cell_length_a   12.35217860
_cell_length_b   12.35217860
_cell_length_c   12.35217860
_cell_angle_alpha   109.47122063
_cell_angle_beta   109.47122063
_cell_angle_gamma   109.47122063
_symmetry_Int_Tables_number   1
_chemical_formula_structural   Ba3SbI3
_chemical_formula_sum   'Ba12 Sb4 I12'
_cell_volume   1450.80417530
_cell_formula_units_Z   4
loop_
 _symmetry_equiv_pos_site_id
 _symmetry_equiv_pos_as_xyz
  1  'x, y, z'
loop_
 _atom_site_type_symbol
 _atom_site_label
 _atom_site_symmetry_multiplicity
 _atom_site_fract_x
 _atom_site_fract_y
 _atom_site_fract_z
 _atom_site_occupancy
  Ba  Ba0  1  0.75655219  0.50655219  0.51310438  1
  Ba  Ba1  1  0.74344781  0.75655219  0.25000000  1
  Ba  Ba2  1  0.50655219  0.99344781  0.25000000  1
  Ba  Ba3  1  0.50655219  0.51310438  0.75655219  1
  Ba  Ba4  1  0.75655219  0.25000000  0.74344781  1
  Ba  Ba5  1  0.99344781  0.74344781  0.98689562  1
  Ba  Ba6  1  0.74344781  0.98689562  0.99344781  1
  Ba  Ba7  1  0.99344781  0.25000000  0.50655219  1
  Ba  Ba8  1  0.51310438  0.75655219  0.50655219  1
  Ba  Ba9  1  0.25000000  0.50655219  0.99344781  1
  Ba  Ba10  1  0.98689562  0.99344781  0.74344781  1
  Ba  Ba11  1  0.25000000  0.74344781  0.75655219  1
  Sb  Sb12  1  0.75000000  0.75000000  0.75000000  1
  Sb  Sb13  1  0.75000000  -0.00000000  0.50000000  1
  Sb  Sb14  1  0.50000000  0.75000000  0.00000000  1
  Sb  Sb15  1  -0.00000000  0.50000000  0.75000000  1
  I  I16  1  0.24924272  0.25075728  0.75000000  1
  I  I17  1  0.25075728  0.50075728  0.50151456  1
  I  I18  1  0.99924272  0.24924272  0.99848544  1
  I  I19  1  0.25075728  0.75000000  0.24924272  1
  I  I20  1  0.24924272  0.99848544  0.99924272  1
  I  I21  1  0.50075728  0.99924272  0.75000000  1
  I  I22  1  0.50075728  0.50151456  0.25075728  1
  I  I23  1  0.99924272  0.75000000  0.50075728  1
  I  I24  1  0.75000000  0.24924272  0.25075728  1
  I  I25  1  0.99848544  0.99924272  0.24924272  1
  I  I26  1  0.75000000  0.50075728  0.99924272  1
  I  I27  1  0.50151456  0.25075728  0.50075728  1
