# generated using pymatgen
data_BaNaVF6
_symmetry_space_group_name_H-M   'P 1'
_cell_length_a   5.70886518
_cell_length_b   19.60391498
_cell_length_c   10.04387507
_cell_angle_alpha   90.00000000
_cell_angle_beta   90.00000000
_cell_angle_gamma   90.00000000
_symmetry_Int_Tables_number   1
_chemical_formula_structural   BaNaVF6
_chemical_formula_sum   'Ba8 Na8 V8 F48'
_cell_volume   1124.07140327
_cell_formula_units_Z   8
loop_
 _symmetry_equiv_pos_site_id
 _symmetry_equiv_pos_as_xyz
  1  'x, y, z'
loop_
 _atom_site_type_symbol
 _atom_site_label
 _atom_site_symmetry_multiplicity
 _atom_site_fract_x
 _atom_site_fract_y
 _atom_site_fract_z
 _atom_site_occupancy
  Ba  Ba0  1  0.24267187  0.88702192  0.63388767  1
  Ba  Ba1  1  0.75732813  0.11297808  0.13388767  1
  Ba  Ba2  1  0.25732813  0.38702192  0.63388767  1
  Ba  Ba3  1  0.74267187  0.61297808  0.13388767  1
  Ba  Ba4  1  0.74249226  0.86368518  0.99672290  1
  Ba  Ba5  1  0.25750774  0.13631482  0.49672290  1
  Ba  Ba6  1  0.75750774  0.36368518  0.99672290  1
  Ba  Ba7  1  0.24249226  0.63631482  0.49672290  1
  Na  Na8  1  0.74142950  0.93591819  0.36290518  1
  Na  Na9  1  0.25857050  0.06408181  0.86290518  1
  Na  Na10  1  0.75857050  0.43591819  0.36290518  1
  Na  Na11  1  0.24142950  0.56408181  0.86290518  1
  Na  Na12  1  0.74038773  0.68693850  0.77033917  1
  Na  Na13  1  0.25961227  0.31306150  0.27033917  1
  Na  Na14  1  0.75961227  0.18693850  0.77033917  1
  Na  Na15  1  0.24038773  0.81306150  0.27033917  1
  V  V16  1  0.73694142  0.50613183  0.73706753  1
  V  V17  1  0.26305858  0.49386817  0.23706753  1
  V  V18  1  0.76305858  0.00613183  0.73706753  1
  V  V19  1  0.23694142  0.99386817  0.23706753  1
  V  V20  1  0.74707970  0.75470844  0.39593722  1
  V  V21  1  0.25292030  0.24529156  0.89593722  1
  V  V22  1  0.75292030  0.25470844  0.39593722  1
  V  V23  1  0.24707970  0.74529156  0.89593722  1
  F  F24  1  0.97775061  0.94089941  0.82627838  1
  F  F25  1  0.02224939  0.05910059  0.32627838  1
  F  F26  1  0.52224939  0.44089941  0.82627838  1
  F  F27  1  0.47775061  0.55910059  0.32627838  1
  F  F28  1  0.66732430  0.57086296  0.88311991  1
  F  F29  1  0.33267570  0.42913704  0.38311991  1
  F  F30  1  0.83267570  0.07086296  0.88311991  1
  F  F31  1  0.16732430  0.92913704  0.38311991  1
  F  F32  1  0.50018793  0.96416854  0.83801516  1
  F  F33  1  0.49981207  0.03583146  0.33801516  1
  F  F34  1  0.99981207  0.46416854  0.83801516  1
  F  F35  1  0.00018793  0.53583146  0.33801516  1
  F  F36  1  0.51772440  0.82116557  0.46084732  1
  F  F37  1  0.48227560  0.17883443  0.96084732  1
  F  F38  1  0.98227560  0.32116557  0.46084732  1
  F  F39  1  0.01772440  0.67883443  0.96084732  1
  F  F40  1  0.47129177  0.80841698  0.80674889  1
  F  F41  1  0.52870823  0.19158302  0.30674889  1
  F  F42  1  0.02870823  0.30841698  0.80674889  1
  F  F43  1  0.97129177  0.69158302  0.30674889  1
  F  F44  1  0.69753937  0.68830529  0.53996689  1
  F  F45  1  0.30246063  0.31169471  0.03996689  1
  F  F46  1  0.80246063  0.18830529  0.53996689  1
  F  F47  1  0.19753937  0.81169471  0.03996689  1
  F  F48  1  0.95705880  0.57549679  0.67212727  1
  F  F49  1  0.04294120  0.42450321  0.17212727  1
  F  F50  1  0.54294120  0.07549679  0.67212727  1
  F  F51  1  0.45705880  0.92450321  0.17212727  1
  F  F52  1  0.98774418  0.78891732  0.79607389  1
  F  F53  1  0.01225582  0.21108268  0.29607389  1
  F  F54  1  0.51225582  0.28891732  0.79607389  1
  F  F55  1  0.48774418  0.71108268  0.29607389  1
  F  F56  1  0.45225187  0.53880581  0.64543314  1
  F  F57  1  0.54774813  0.46119419  0.14543314  1
  F  F58  1  0.04774813  0.03880581  0.64543314  1
  F  F59  1  0.95225187  0.96119419  0.14543314  1
  F  F60  1  0.80428109  0.81948907  0.24916091  1
  F  F61  1  0.19571891  0.18051093  0.74916091  1
  F  F62  1  0.69571891  0.31948907  0.24916091  1
  F  F63  1  0.30428109  0.68051093  0.74916091  1
  F  F64  1  0.70374363  0.94010424  0.59387582  1
  F  F65  1  0.29625637  0.05989576  0.09387582  1
  F  F66  1  0.79625637  0.44010424  0.59387582  1
  F  F67  1  0.20374363  0.55989576  0.09387582  1
  F  F68  1  0.52467650  0.70753949  0.98589276  1
  F  F69  1  0.47532350  0.29246051  0.48589276  1
  F  F70  1  0.97532350  0.20753949  0.98589276  1
  F  F71  1  0.02467650  0.79246051  0.48589276  1
