# generated using pymatgen
data_Ba2TlF7
_symmetry_space_group_name_H-M   'P 1'
_cell_length_a   6.04941874
_cell_length_b   9.18643670
_cell_length_c   12.96451314
_cell_angle_alpha   90.00000000
_cell_angle_beta   90.00000000
_cell_angle_gamma   90.84571097
_symmetry_Int_Tables_number   1
_chemical_formula_structural   Ba2TlF7
_chemical_formula_sum   'Ba8 Tl4 F28'
_cell_volume   720.39324918
_cell_formula_units_Z   4
loop_
 _symmetry_equiv_pos_site_id
 _symmetry_equiv_pos_as_xyz
  1  'x, y, z'
loop_
 _atom_site_type_symbol
 _atom_site_label
 _atom_site_symmetry_multiplicity
 _atom_site_fract_x
 _atom_site_fract_y
 _atom_site_fract_z
 _atom_site_occupancy
  Ba  Ba0  1  0.25503305  0.94268309  0.71880483  1
  Ba  Ba1  1  0.74496695  0.05731691  0.28119517  1
  Ba  Ba2  1  0.74496695  0.55731691  0.21880483  1
  Ba  Ba3  1  0.25503305  0.44268309  0.78119517  1
  Ba  Ba4  1  0.72744196  0.66272145  0.56195533  1
  Ba  Ba5  1  0.27255804  0.33727855  0.43804467  1
  Ba  Ba6  1  0.27255804  0.83727855  0.06195533  1
  Ba  Ba7  1  0.72744196  0.16272145  0.93804467  1
  Tl  Tl8  1  0.79357807  0.68577764  0.87323411  1
  Tl  Tl9  1  0.20642193  0.31422236  0.12676589  1
  Tl  Tl10  1  0.20642193  0.81422236  0.37323411  1
  Tl  Tl11  1  0.79357807  0.18577764  0.62676589  1
  F  F12  1  0.99331333  0.80763557  0.22624037  1
  F  F13  1  0.00668667  0.19236443  0.77375963  1
  F  F14  1  0.00668667  0.69236443  0.72624037  1
  F  F15  1  0.99331333  0.30763557  0.27375963  1
  F  F16  1  0.73714580  0.95534936  0.66372642  1
  F  F17  1  0.26285420  0.04465064  0.33627358  1
  F  F18  1  0.26285420  0.54465064  0.16372642  1
  F  F19  1  0.73714580  0.45534936  0.83627358  1
  F  F20  1  0.51384454  0.70200281  0.76393009  1
  F  F21  1  0.48615546  0.29799719  0.23606991  1
  F  F22  1  0.48615546  0.79799719  0.26393009  1
  F  F23  1  0.51384454  0.20200281  0.73606991  1
  F  F24  1  0.42794940  0.96308487  0.89658538  1
  F  F25  1  0.57205060  0.03691513  0.10341462  1
  F  F26  1  0.57205060  0.53691513  0.39658538  1
  F  F27  1  0.42794940  0.46308487  0.60341462  1
  F  F28  1  0.87845839  0.87690815  0.43547617  1
  F  F29  1  0.12154161  0.12309185  0.56452383  1
  F  F30  1  0.12154161  0.62309185  0.93547617  1
  F  F31  1  0.87845839  0.37690815  0.06452383  1
  F  F32  1  0.35390419  0.81448782  0.52783396  1
  F  F33  1  0.64609581  0.18551218  0.47216604  1
  F  F34  1  0.64609581  0.68551218  0.02783396  1
  F  F35  1  0.35390419  0.31448782  0.97216604  1
  F  F36  1  0.93912580  0.90320773  0.90090693  1
  F  F37  1  0.06087420  0.09679227  0.09909307  1
  F  F38  1  0.06087420  0.59679227  0.40090693  1
  F  F39  1  0.93912580  0.40320773  0.59909307  1
