# generated using pymatgen
data_Yb3DySb3
_symmetry_space_group_name_H-M   'P 1'
_cell_length_a   8.17782579
_cell_length_b   8.11747673
_cell_length_c   8.19134964
_cell_angle_alpha   70.47361292
_cell_angle_beta   70.23854051
_cell_angle_gamma   109.45863923
_symmetry_Int_Tables_number   1
_chemical_formula_structural   Yb3DySb3
_chemical_formula_sum   'Yb6 Dy2 Sb6'
_cell_volume   416.86286267
_cell_formula_units_Z   2
loop_
 _symmetry_equiv_pos_site_id
 _symmetry_equiv_pos_as_xyz
  1  'x, y, z'
loop_
 _atom_site_type_symbol
 _atom_site_label
 _atom_site_symmetry_multiplicity
 _atom_site_fract_x
 _atom_site_fract_y
 _atom_site_fract_z
 _atom_site_occupancy
  Yb  Yb0  1  0.49615508  0.14186950  0.99908240  1
  Yb  Yb1  1  0.64416013  0.49997557  0.50427991  1
  Yb  Yb2  1  0.00117247  0.99610181  0.35547993  1
  Yb  Yb3  1  0.35428559  0.85813050  0.64095190  1
  Yb  Yb4  1  0.14418456  0.50002443  0.50425548  1
  Yb  Yb5  1  0.00507067  0.00389819  0.85158174  1
  Dy  Dy6  1  0.85467856  0.35484268  0.14482954  1
  Dy  Dy7  1  0.49983589  0.64515732  0.99967222  1
  Sb  Sb8  1  0.38374487  0.25969107  0.36652222  1
  Sb  Sb9  1  0.12405380  0.74030893  0.12621329  1
  Sb  Sb10  1  0.86877405  0.62148281  0.76001584  1
  Sb  Sb11  1  0.62771502  0.87883694  0.24338996  1
  Sb  Sb12  1  0.74887808  0.12116306  0.62222691  1
  Sb  Sb13  1  0.24729124  0.37851719  0.88149865  1
