# generated using pymatgen
data_Zr2Sb2Pb4O13
_symmetry_space_group_name_H-M   'P 1'
_cell_length_a   7.66199016
_cell_length_b   7.67803364
_cell_length_c   7.62055752
_cell_angle_alpha   90.00000000
_cell_angle_beta   60.17871994
_cell_angle_gamma   120.06928999
_symmetry_Int_Tables_number   1
_chemical_formula_structural   Zr2Sb2Pb4O13
_chemical_formula_sum   'Zr2 Sb2 Pb4 O13'
_cell_volume   317.52510665
_cell_formula_units_Z   1
loop_
 _symmetry_equiv_pos_site_id
 _symmetry_equiv_pos_as_xyz
  1  'x, y, z'
loop_
 _atom_site_type_symbol
 _atom_site_label
 _atom_site_symmetry_multiplicity
 _atom_site_fract_x
 _atom_site_fract_y
 _atom_site_fract_z
 _atom_site_occupancy
  Zr  Zr0  1  0.50071492  0.00127647  0.49964254  1
  Zr  Zr1  1  0.50071492  0.49943846  0.49964254  1
  Sb  Sb2  1  0.99961648  0.49980824  0.00070238  1
  Sb  Sb3  1  0.99961648  0.49980824  0.49968114  1
  Pb  Pb4  1  0.49931519  0.49990753  0.00034240  1
  Pb  Pb5  1  0.49931519  0.99940766  0.00034240  1
  Pb  Pb6  1  0.99933646  0.99966823  0.49843644  1
  Pb  Pb7  1  0.99933646  0.99966823  0.00222710  1
  O  O8  1  0.66276156  0.83138078  0.41861922  1
  O  O9  1  0.86227007  0.43113504  0.81886496  1
  O  O10  1  0.24506128  0.81279149  0.83272783  1
  O  O11  1  0.24506128  0.43226980  0.42221089  1
  O  O12  1  0.24506128  0.43226980  0.83272783  1
  O  O13  1  0.24506128  0.81279149  0.42221089  1
  O  O14  1  0.34388668  0.17194334  0.57805666  1
  O  O15  1  0.13385749  0.56692874  0.18307126  1
  O  O16  1  0.75353259  0.18890837  0.17054872  1
  O  O17  1  0.75353259  0.56462422  0.57591868  1
  O  O18  1  0.75353259  0.56462422  0.17054872  1
  O  O19  1  0.75353259  0.18890837  0.57591868  1
  O  O20  1  0.25488260  0.12744130  0.12255870  1
