# generated using pymatgen
data_Zr2Te3
_symmetry_space_group_name_H-M   'P 1'
_cell_length_a   6.99180004
_cell_length_b   7.89851914
_cell_length_c   6.99206038
_cell_angle_alpha   63.72842013
_cell_angle_beta   60.00927086
_cell_angle_gamma   89.99618694
_symmetry_Int_Tables_number   1
_chemical_formula_structural   Zr2Te3
_chemical_formula_sum   'Zr4 Te6'
_cell_volume   287.47046768
_cell_formula_units_Z   2
loop_
 _symmetry_equiv_pos_site_id
 _symmetry_equiv_pos_as_xyz
  1  'x, y, z'
loop_
 _atom_site_type_symbol
 _atom_site_label
 _atom_site_symmetry_multiplicity
 _atom_site_fract_x
 _atom_site_fract_y
 _atom_site_fract_z
 _atom_site_occupancy
  Zr  Zr0  1  0.66666700  0.00000000  0.66666700  1
  Zr  Zr1  1  0.32703206  0.98122125  0.34583030  1
  Zr  Zr2  1  0.00630094  0.01877875  0.98750270  1
  Zr  Zr3  1  0.16666700  0.50000000  0.66666700  1
  Te  Te4  1  0.73915445  0.26479014  0.17054041  1
  Te  Te5  1  0.08990415  0.26480567  0.47449700  1
  Te  Te6  1  0.43544539  0.26473396  0.82538950  1
  Te  Te7  1  0.89788761  0.73526604  0.50794350  1
  Te  Te8  1  0.24342885  0.73519433  0.85883600  1
  Te  Te9  1  0.59417955  0.73520986  0.16279359  1
