# generated using pymatgen
data_YbMnCuP2
_symmetry_space_group_name_H-M   'P 1'
_cell_length_a   3.89579340
_cell_length_b   3.89760128
_cell_length_c   6.52718093
_cell_angle_alpha   90.00000002
_cell_angle_beta   90.01289195
_cell_angle_gamma   120.01536750
_symmetry_Int_Tables_number   1
_chemical_formula_structural   YbMnCuP2
_chemical_formula_sum   'Yb1 Mn1 Cu1 P2'
_cell_volume   85.81877726
_cell_formula_units_Z   1
loop_
 _symmetry_equiv_pos_site_id
 _symmetry_equiv_pos_as_xyz
  1  'x, y, z'
loop_
 _atom_site_type_symbol
 _atom_site_label
 _atom_site_symmetry_multiplicity
 _atom_site_fract_x
 _atom_site_fract_y
 _atom_site_fract_z
 _atom_site_occupancy
  Yb  Yb0  1  0.99993742  0.99996871  0.98996349  1
  Mn  Mn1  1  0.66652033  0.33326016  0.37773317  1
  Cu  Cu2  1  0.33353028  0.66676514  0.63342072  1
  P  P3  1  0.33340018  0.66670009  0.27452846  1
  P  P4  1  0.66661180  0.33330590  0.72435417  1
