# generated using pymatgen
data_YbZnGe
_symmetry_space_group_name_H-M   'P 1'
_cell_length_a   4.45218239
_cell_length_b   5.65142671
_cell_length_c   5.75927366
_cell_angle_alpha   96.02534940
_cell_angle_beta   112.73831682
_cell_angle_gamma   66.80267625
_symmetry_Int_Tables_number   1
_chemical_formula_structural   YbZnGe
_chemical_formula_sum   'Yb2 Zn2 Ge2'
_cell_volume   122.65154507
_cell_formula_units_Z   2
loop_
 _symmetry_equiv_pos_site_id
 _symmetry_equiv_pos_as_xyz
  1  'x, y, z'
loop_
 _atom_site_type_symbol
 _atom_site_label
 _atom_site_symmetry_multiplicity
 _atom_site_fract_x
 _atom_site_fract_y
 _atom_site_fract_z
 _atom_site_occupancy
  Yb  Yb0  1  0.74928738  0.71431488  0.21288965  1
  Yb  Yb1  1  0.25071262  0.28568512  0.78711035  1
  Zn  Zn2  1  0.55027410  0.28708936  0.38763757  1
  Zn  Zn3  1  0.44972590  0.71291064  0.61236243  1
  Ge  Ge4  1  0.04613580  0.11704478  0.20931637  1
  Ge  Ge5  1  0.95386420  0.88295522  0.79068363  1
