# generated using pymatgen
data_YbGaCu4
_symmetry_space_group_name_H-M   'P 1'
_cell_length_a   4.05581021
_cell_length_b   5.07935593
_cell_length_c   5.07969603
_cell_angle_alpha   60.01154654
_cell_angle_beta   90.00000000
_cell_angle_gamma   90.00000000
_symmetry_Int_Tables_number   1
_chemical_formula_structural   YbGaCu4
_chemical_formula_sum   'Yb1 Ga1 Cu4'
_cell_volume   90.63692131
_cell_formula_units_Z   1
loop_
 _symmetry_equiv_pos_site_id
 _symmetry_equiv_pos_as_xyz
  1  'x, y, z'
loop_
 _atom_site_type_symbol
 _atom_site_label
 _atom_site_symmetry_multiplicity
 _atom_site_fract_x
 _atom_site_fract_y
 _atom_site_fract_z
 _atom_site_occupancy
  Yb  Yb0  1  -0.00000000  0.99998165  0.00002516  1
  Ga  Ga1  1  -0.00000000  0.33331377  0.33338738  1
  Cu  Cu2  1  -0.00000000  0.66664418  0.66668970  1
  Cu  Cu3  1  0.50000000  0.50180806  0.50184042  1
  Cu  Cu4  1  0.50000000  0.50179803  0.99634648  1
  Cu  Cu5  1  0.50000000  0.99635431  0.50181086  1
