# generated using pymatgen
data_Te4MoW3(SeS)2
_symmetry_space_group_name_H-M   'P 1'
_cell_length_a   3.39960672
_cell_length_b   3.39944333
_cell_length_c   38.76968200
_cell_angle_alpha   90.00004019
_cell_angle_beta   90.00000000
_cell_angle_gamma   120.00158999
_symmetry_Int_Tables_number   1
_chemical_formula_structural   Te4MoW3(SeS)2
_chemical_formula_sum   'Te4 Mo1 W3 Se2 S2'
_cell_volume   388.01846780
_cell_formula_units_Z   1
loop_
 _symmetry_equiv_pos_site_id
 _symmetry_equiv_pos_as_xyz
  1  'x, y, z'
loop_
 _atom_site_type_symbol
 _atom_site_label
 _atom_site_symmetry_multiplicity
 _atom_site_fract_x
 _atom_site_fract_y
 _atom_site_fract_z
 _atom_site_occupancy
  Te  Te0  1  0.33335095  0.66670291  0.33035707  1
  Te  Te1  1  0.33335540  0.66671180  0.70613062  1
  Te  Te2  1  0.33334911  0.66669923  0.23318852  1
  Te  Te3  1  0.33334907  0.66669913  0.60894339  1
  Mo  Mo4  1  0.33331734  0.66663468  0.09396115  1
  W  W5  1  0.33330814  0.66661628  0.46963610  1
  W  W6  1  0.66668945  0.33337891  0.28177405  1
  W  W7  1  0.66668913  0.33337826  0.65754049  1
  Se  Se8  1  0.66665052  0.33330004  0.42694387  1
  Se  Se9  1  0.66665058  0.33330016  0.51237012  1
  S  S10  1  0.66664453  0.33328807  0.05520586  1
  S  S11  1  0.66664577  0.33329055  0.13269677  1
