# generated using pymatgen
data_YbSm4S5
_symmetry_space_group_name_H-M   'P 1'
_cell_length_a   4.01595170
_cell_length_b   4.01595170
_cell_length_c   16.41416299
_cell_angle_alpha   97.02670268
_cell_angle_beta   82.97329732
_cell_angle_gamma   120.00000000
_symmetry_Int_Tables_number   1
_chemical_formula_structural   YbSm4S5
_chemical_formula_sum   'Yb1 Sm4 S5'
_cell_volume   226.96018922
_cell_formula_units_Z   1
loop_
 _symmetry_equiv_pos_site_id
 _symmetry_equiv_pos_as_xyz
  1  'x, y, z'
loop_
 _atom_site_type_symbol
 _atom_site_label
 _atom_site_symmetry_multiplicity
 _atom_site_fract_x
 _atom_site_fract_y
 _atom_site_fract_z
 _atom_site_occupancy
  Yb  Yb0  1  -0.00000000  -0.00000000  -0.00000000  1
  Sm  Sm1  1  0.59878390  0.40121610  0.20364830  1
  Sm  Sm2  1  0.20118724  0.79881276  0.39643829  1
  Sm  Sm3  1  0.79881276  0.20118724  0.60356171  1
  Sm  Sm4  1  0.40121610  0.59878390  0.79635170  1
  S  S5  1  0.69926718  0.30073282  0.90219846  1
  S  S6  1  0.50000000  0.50000000  0.50000000  1
  S  S7  1  0.09990515  0.90009485  0.70028455  1
  S  S8  1  0.30073282  0.69926718  0.09780154  1
  S  S9  1  0.90009485  0.09990515  0.29971545  1
