# generated using pymatgen
data_Y3Mn2Sb3O14
_symmetry_space_group_name_H-M   'P 1'
_cell_length_a   7.47805769
_cell_length_b   7.25810778
_cell_length_c   7.47805769
_cell_angle_alpha   90.00000000
_cell_angle_beta   60.00000000
_cell_angle_gamma   121.00761636
_symmetry_Int_Tables_number   1
_chemical_formula_structural   Y3Mn2Sb3O14
_chemical_formula_sum   'Y3 Mn2 Sb3 O14'
_cell_volume   282.55369174
_cell_formula_units_Z   1
loop_
 _symmetry_equiv_pos_site_id
 _symmetry_equiv_pos_as_xyz
  1  'x, y, z'
loop_
 _atom_site_type_symbol
 _atom_site_label
 _atom_site_symmetry_multiplicity
 _atom_site_fract_x
 _atom_site_fract_y
 _atom_site_fract_z
 _atom_site_occupancy
  Y  Y0  1  0.50000000  0.50000000  0.50000000  1
  Y  Y1  1  0.00000000  0.50000000  -0.00000000  1
  Y  Y2  1  0.00000000  0.50000000  0.50000000  1
  Mn  Mn3  1  0.50000000  0.50000000  -0.00000000  1
  Mn  Mn4  1  0.50000000  0.00000000  0.50000000  1
  Sb  Sb5  1  0.50000000  0.00000000  -0.00000000  1
  Sb  Sb6  1  0.00000000  0.00000000  0.50000000  1
  Sb  Sb7  1  0.00000000  0.00000000  -0.00000000  1
  O  O8  1  0.85631840  0.93922711  0.32184080  1
  O  O9  1  0.69464896  0.33521290  0.90267552  1
  O  O10  1  0.26106791  0.93922711  0.91709129  1
  O  O11  1  0.23788842  0.33521290  0.35943605  1
  O  O12  1  0.23788842  0.33521290  0.90267552  1
  O  O13  1  0.26106791  0.93922711  0.32184080  1
  O  O14  1  0.14368160  0.06077289  0.67815920  1
  O  O15  1  0.30535104  0.66478710  0.09732448  1
  O  O16  1  0.73893209  0.06077289  0.08290871  1
  O  O17  1  0.76211158  0.66478710  0.64056395  1
  O  O18  1  0.76211158  0.66478710  0.09732448  1
  O  O19  1  0.73893209  0.06077289  0.67815920  1
  O  O20  1  0.73868612  0.35802918  0.38065694  1
  O  O21  1  0.26131388  0.64197082  0.61934306  1
