# generated using pymatgen
data_Y20Si12C
_symmetry_space_group_name_H-M   'P 1'
_cell_length_a   6.40172159
_cell_length_b   8.45958058
_cell_length_c   14.69422534
_cell_angle_alpha   90.00000251
_cell_angle_beta   90.00000001
_cell_angle_gamma   89.90694730
_symmetry_Int_Tables_number   1
_chemical_formula_structural   Y20Si12C
_chemical_formula_sum   'Y20 Si12 C1'
_cell_volume   795.77764965
_cell_formula_units_Z   1
loop_
 _symmetry_equiv_pos_site_id
 _symmetry_equiv_pos_as_xyz
  1  'x, y, z'
loop_
 _atom_site_type_symbol
 _atom_site_label
 _atom_site_symmetry_multiplicity
 _atom_site_fract_x
 _atom_site_fract_y
 _atom_site_fract_z
 _atom_site_occupancy
  Y  Y0  1  0.49999934  0.00000101  0.33617510  1
  Y  Y1  1  0.50000051  0.49999987  0.82955162  1
  Y  Y2  1  0.50000051  0.49999987  0.17044838  1
  Y  Y3  1  0.49999934  0.00000101  0.66382490  1
  Y  Y4  1  -0.00000030  0.49999826  0.16210866  1
  Y  Y5  1  0.99999940  0.99999903  0.67122416  1
  Y  Y6  1  0.99999940  0.99999903  0.32877584  1
  Y  Y7  1  -0.00000030  0.49999826  0.83789134  1
  Y  Y8  1  0.75237395  0.74504071  0.50000000  1
  Y  Y9  1  0.72423418  0.23610331  1.00000000  1
  Y  Y10  1  0.75173105  0.37845607  0.37938917  1
  Y  Y11  1  0.72679833  0.87980876  0.88143277  1
  Y  Y12  1  0.72679833  0.87980876  0.11856723  1
  Y  Y13  1  0.75173105  0.37845607  0.62061083  1
  Y  Y14  1  0.27576376  0.76389787  0.00000000  1
  Y  Y15  1  0.24762448  0.25495922  0.50000000  1
  Y  Y16  1  0.27320492  0.12019138  0.11856729  1
  Y  Y17  1  0.24826896  0.62154402  0.62061144  1
  Y  Y18  1  0.24826896  0.62154402  0.37938856  1
  Y  Y19  1  0.27320492  0.12019138  0.88143271  1
  Si  Si20  1  0.73678086  0.59976830  1.00000000  1
  Si  Si21  1  0.75633023  0.10344078  0.50000000  1
  Si  Si22  1  0.74299445  0.19993971  0.19965685  1
  Si  Si23  1  0.75301116  0.69807470  0.69765363  1
  Si  Si24  1  0.75301116  0.69807470  0.30234637  1
  Si  Si25  1  0.74299445  0.19993971  0.80034315  1
  Si  Si26  1  0.24366900  0.89656014  0.50000000  1
  Si  Si27  1  0.26322081  0.40023219  0.00000000  1
  Si  Si28  1  0.24698782  0.30192534  0.30234642  1
  Si  Si29  1  0.25700489  0.80006059  0.80034351  1
  Si  Si30  1  0.25700489  0.80006059  0.19965649  1
  Si  Si31  1  0.24698782  0.30192534  0.69765358  1
  C  C32  1  0.50000170  0.00000003  0.00000000  1
