# generated using pymatgen
data_Zr3(V2Fe)2
_symmetry_space_group_name_H-M   'P 1'
_cell_length_a   5.06430676
_cell_length_b   5.15137804
_cell_length_c   12.56207776
_cell_angle_alpha   90.79036051
_cell_angle_beta   88.63304788
_cell_angle_gamma   119.40057335
_symmetry_Int_Tables_number   1
_chemical_formula_structural   Zr3(V2Fe)2
_chemical_formula_sum   'Zr6 V8 Fe4'
_cell_volume   285.43179803
_cell_formula_units_Z   2
loop_
 _symmetry_equiv_pos_site_id
 _symmetry_equiv_pos_as_xyz
  1  'x, y, z'
loop_
 _atom_site_type_symbol
 _atom_site_label
 _atom_site_symmetry_multiplicity
 _atom_site_fract_x
 _atom_site_fract_y
 _atom_site_fract_z
 _atom_site_occupancy
  Zr  Zr0  1  0.33715128  0.66619442  0.91969987  1
  Zr  Zr1  1  0.00345612  0.00059409  0.24554150  1
  Zr  Zr2  1  0.66839098  0.33152063  0.58259365  1
  Zr  Zr3  1  0.33160902  0.66847937  0.66740635  1
  Zr  Zr4  1  0.99654388  0.99940591  0.00445850  1
  Zr  Zr5  1  0.66284872  0.33380558  0.33030013  1
  V  V6  1  0.16737779  0.33440506  0.45692853  1
  V  V7  1  0.83262221  0.66559494  0.79307147  1
  V  V8  1  0.33735327  0.67309944  0.28696599  1
  V  V9  1  0.00000000  0.00000000  0.62500000  1
  V  V10  1  0.66264673  0.32690056  0.96303401  1
  V  V11  1  0.00000000  0.50000000  0.12500000  1
  V  V12  1  0.66552336  0.83182957  0.45765898  1
  V  V13  1  0.33447664  0.16817043  0.79234102  1
  Fe  Fe14  1  0.50000000  0.50000000  0.12500000  1
  Fe  Fe15  1  0.16588897  0.83279530  0.45726281  1
  Fe  Fe16  1  0.83411103  0.16720470  0.79273719  1
  Fe  Fe17  1  0.50000000  0.00000000  0.12500000  1
