# generated using pymatgen
data_Te4MoW3(SeS)2
_symmetry_space_group_name_H-M   'P 1'
_cell_length_a   3.40221550
_cell_length_b   3.40219695
_cell_length_c   40.44923981
_cell_angle_alpha   90.00050982
_cell_angle_beta   90.00000000
_cell_angle_gamma   120.00018038
_symmetry_Int_Tables_number   1
_chemical_formula_structural   Te4MoW3(SeS)2
_chemical_formula_sum   'Te4 Mo1 W3 Se2 S2'
_cell_volume   405.47256629
_cell_formula_units_Z   1
loop_
 _symmetry_equiv_pos_site_id
 _symmetry_equiv_pos_as_xyz
  1  'x, y, z'
loop_
 _atom_site_type_symbol
 _atom_site_label
 _atom_site_symmetry_multiplicity
 _atom_site_fract_x
 _atom_site_fract_y
 _atom_site_fract_z
 _atom_site_occupancy
  Te  Te0  1  0.33333035  0.66666170  0.70599106  1
  Te  Te1  1  0.66671110  0.33342121  0.42167010  1
  Te  Te2  1  0.66671596  0.33343093  0.51482208  1
  Te  Te3  1  0.33330306  0.66660713  0.61289720  1
  Mo  Mo4  1  0.33329749  0.66659498  0.09413845  1
  W  W5  1  0.33338180  0.66676361  0.46824801  1
  W  W6  1  0.66666544  0.33333087  0.28108436  1
  W  W7  1  0.66665408  0.33330816  0.65947357  1
  Se  Se8  1  0.33332373  0.66664846  0.32191415  1
  Se  Se9  1  0.33333956  0.66668011  0.24024821  1
  S  S10  1  0.66663149  0.33326198  0.05702088  1
  S  S11  1  0.66664593  0.33329086  0.13123992  1
