# generated using pymatgen
data_Zn3Ni4(SbO6)2
_symmetry_space_group_name_H-M   'P 1'
_cell_length_a   6.10267058
_cell_length_b   13.61142527
_cell_length_c   6.10275224
_cell_angle_alpha   76.22339299
_cell_angle_beta   90.16576036
_cell_angle_gamma   77.93992686
_symmetry_Int_Tables_number   1
_chemical_formula_structural   Zn3Ni4(SbO6)2
_chemical_formula_sum   'Zn6 Ni8 Sb4 O24'
_cell_volume   480.74101729
_cell_formula_units_Z   2
loop_
 _symmetry_equiv_pos_site_id
 _symmetry_equiv_pos_as_xyz
  1  'x, y, z'
loop_
 _atom_site_type_symbol
 _atom_site_label
 _atom_site_symmetry_multiplicity
 _atom_site_fract_x
 _atom_site_fract_y
 _atom_site_fract_z
 _atom_site_occupancy
  Zn  Zn0  1  0.19805724  0.08333286  0.94805549  1
  Zn  Zn1  1  0.53374796  0.40870986  0.27366669  1
  Zn  Zn2  1  0.84905851  0.75795562  0.60912821  1
  Zn  Zn3  1  0.46860876  0.58333314  0.71861051  1
  Zn  Zn4  1  0.81760849  0.90871138  0.05753879  1
  Zn  Zn5  1  0.13291904  0.25795714  0.39300031  1
  Ni  Ni6  1  0.33333300  0.83333300  0.33333300  1
  Ni  Ni7  1  0.65928423  0.17047774  0.16244651  1
  Ni  Ni8  1  0.00738277  0.49618926  0.50422049  1
  Ni  Ni9  1  0.33333300  0.83333300  0.83333300  1
  Ni  Ni10  1  0.33333300  0.33333300  0.83333300  1
  Ni  Ni11  1  0.83333300  0.33333300  0.83333300  1
  Ni  Ni12  1  0.16707169  0.67048002  0.17024838  1
  Ni  Ni13  1  0.49959531  0.99618698  0.49641862  1
  Sb  Sb14  1  0.65657391  0.17008647  0.66796436  1
  Sb  Sb15  1  0.01009309  0.49658053  0.99870264  1
  Sb  Sb16  1  0.66191258  0.67009266  0.17331701  1
  Sb  Sb17  1  0.00475442  0.99657434  0.49334999  1
  O  O18  1  0.58681584  0.32532675  0.05855667  1
  O  O19  1  0.91065260  0.65998998  0.39770404  1
  O  O20  1  0.23957531  0.99585790  0.72345568  1
  O  O21  1  0.58724046  0.32437564  0.59450415  1
  O  O22  1  0.91163908  0.65810669  0.93948539  1
  O  O23  1  0.24064098  0.99971361  0.26861279  1
  O  O24  1  0.88597902  0.17080938  0.90209376  1
  O  O25  1  0.22437051  0.50667561  0.23729771  1
  O  O26  1  0.55054134  0.84134059  0.57882534  1
  O  O27  1  0.43499400  0.16695445  0.90702496  1
  O  O28  1  0.76426947  0.50855703  0.23639584  1
  O  O29  1  0.08553745  0.84229275  0.57829941  1
  O  O30  1  0.07985116  0.34134025  0.60811033  1
  O  O31  1  0.42709169  0.67080910  0.94321132  1
  O  O32  1  0.75601340  0.00667602  0.26896196  1
  O  O33  1  0.07942654  0.34229136  0.07216285  1
  O  O34  1  0.42602602  0.66695339  0.39805421  1
  O  O35  1  0.75502692  0.00855931  0.72718061  1
  O  O36  1  0.78068798  0.49585762  0.76457324  1
  O  O37  1  0.11612566  0.82532641  0.08784166  1
  O  O38  1  0.44229549  0.15999039  0.42936829  1
  O  O39  1  0.23167300  0.49971255  0.75964204  1
  O  O40  1  0.58112955  0.82437425  0.08836759  1
  O  O41  1  0.90239653  0.15810897  0.43027016  1
