# generated using pymatgen
data_Tm2C
_symmetry_space_group_name_H-M   'P 1'
_cell_length_a   3.54154272
_cell_length_b   3.54154272
_cell_length_c   6.31761921
_cell_angle_alpha   73.72242207
_cell_angle_beta   90.00000000
_cell_angle_gamma   120.00000000
_symmetry_Int_Tables_number   1
_chemical_formula_structural   Tm2C
_chemical_formula_sum   'Tm2 C1'
_cell_volume   64.92934484
_cell_formula_units_Z   1
loop_
 _symmetry_equiv_pos_site_id
 _symmetry_equiv_pos_as_xyz
  1  'x, y, z'
loop_
 _atom_site_type_symbol
 _atom_site_label
 _atom_site_symmetry_multiplicity
 _atom_site_fract_x
 _atom_site_fract_y
 _atom_site_fract_z
 _atom_site_occupancy
  Tm  Tm0  1  0.99050963  0.98101926  0.02847111  1
  Tm  Tm1  1  0.50949037  0.01898074  0.47152889  1
  C  C2  1  0.25000000  0.50000000  0.25000000  1
