# generated using pymatgen
data_Tl9SnTe6
_symmetry_space_group_name_H-M   'P 1'
_cell_length_a   9.02190818
_cell_length_b   9.02190818
_cell_length_c   9.20134721
_cell_angle_alpha   60.64303090
_cell_angle_beta   60.64303090
_cell_angle_gamma   90.00000000
_symmetry_Int_Tables_number   1
_chemical_formula_structural   Tl9SnTe6
_chemical_formula_sum   'Tl9 Sn1 Te6'
_cell_volume   539.71201119
_cell_formula_units_Z   1
loop_
 _symmetry_equiv_pos_site_id
 _symmetry_equiv_pos_as_xyz
  1  'x, y, z'
loop_
 _atom_site_type_symbol
 _atom_site_label
 _atom_site_symmetry_multiplicity
 _atom_site_fract_x
 _atom_site_fract_y
 _atom_site_fract_z
 _atom_site_occupancy
  Tl  Tl0  1  0.69732430  0.49153814  0.31203957  1
  Tl  Tl1  1  0.99063612  0.19642229  0.31203957  1
  Tl  Tl2  1  0.49153814  0.99063612  0.31203957  1
  Tl  Tl3  1  0.19642229  0.69732430  0.31203957  1
  Tl  Tl4  1  0.30267570  0.50846186  0.68796043  1
  Tl  Tl5  1  0.00936388  0.80357771  0.68796043  1
  Tl  Tl6  1  0.50846186  0.00936388  0.68796043  1
  Tl  Tl7  1  0.80357771  0.30267570  0.68796043  1
  Tl  Tl8  1  0.50000000  0.50000000  0.00000000  1
  Sn  Sn9  1  0.00000000  0.00000000  0.00000000  1
  Te  Te10  1  0.67103212  0.85051837  0.00000000  1
  Te  Te11  1  0.32896788  0.14948163  0.00000000  1
  Te  Te12  1  0.85051837  0.32896788  0.00000000  1
  Te  Te13  1  0.14948163  0.67103212  0.00000000  1
  Te  Te14  1  0.23969456  0.23969456  0.52061089  1
  Te  Te15  1  0.76030544  0.76030544  0.47938911  1
