# generated using pymatgen
data_Y3CBr3
_symmetry_space_group_name_H-M   'P 1'
_cell_length_a   6.57046584
_cell_length_b   6.56983843
_cell_length_c   10.73541982
_cell_angle_alpha   72.19861886
_cell_angle_beta   90.00442066
_cell_angle_gamma   120.00131245
_symmetry_Int_Tables_number   1
_chemical_formula_structural   Y3CBr3
_chemical_formula_sum   'Y6 C2 Br6'
_cell_volume   375.49184521
_cell_formula_units_Z   2
loop_
 _symmetry_equiv_pos_site_id
 _symmetry_equiv_pos_as_xyz
  1  'x, y, z'
loop_
 _atom_site_type_symbol
 _atom_site_label
 _atom_site_symmetry_multiplicity
 _atom_site_fract_x
 _atom_site_fract_y
 _atom_site_fract_z
 _atom_site_occupancy
  Y  Y0  1  0.93364114  0.57595058  0.13623736  1
  Y  Y1  1  0.64231105  0.93027488  0.13623937  1
  Y  Y2  1  0.28798376  0.22154737  0.13622877  1
  Y  Y3  1  0.37868324  0.11178563  0.86377123  1
  Y  Y4  1  0.02435495  0.40305912  0.86376063  1
  Y  Y5  1  0.73302586  0.75738242  0.86376264  1
  C  C6  1  0.99997767  0.00001507  -0.00000895  1
  C  C7  1  0.66668933  0.33331793  0.00000895  1
  Br  Br8  1  0.90075999  0.12543885  0.32570705  1
  Br  Br9  1  0.22482496  0.77389648  0.32573771  1
  Br  Br10  1  0.54905890  0.44971510  0.32570595  1
  Br  Br11  1  0.11760810  0.88361790  0.67429405  1
  Br  Br12  1  0.44184104  0.55943752  0.67426229  1
  Br  Br13  1  0.76590701  0.20789415  0.67429295  1
