# generated using pymatgen
data_Zr18Co5Sn4
_symmetry_space_group_name_H-M   'P 1'
_cell_length_a   3.34944100
_cell_length_b   8.01317143
_cell_length_c   21.20006800
_cell_angle_alpha   100.90461401
_cell_angle_beta   90.00000000
_cell_angle_gamma   90.00000000
_symmetry_Int_Tables_number   1
_chemical_formula_structural   Zr18Co5Sn4
_chemical_formula_sum   'Zr18 Co5 Sn4'
_cell_volume   558.72809742
_cell_formula_units_Z   1
loop_
 _symmetry_equiv_pos_site_id
 _symmetry_equiv_pos_as_xyz
  1  'x, y, z'
loop_
 _atom_site_type_symbol
 _atom_site_label
 _atom_site_symmetry_multiplicity
 _atom_site_fract_x
 _atom_site_fract_y
 _atom_site_fract_z
 _atom_site_occupancy
  Zr  Zr0  1  0.00000000  0.24196133  0.99931037  1
  Zr  Zr1  1  0.00000000  0.91311009  0.33541155  1
  Zr  Zr2  1  0.00000000  0.57946625  0.66848427  1
  Zr  Zr3  1  0.00000000  0.50574365  0.25199581  1
  Zr  Zr4  1  0.00000000  0.17324452  0.58569621  1
  Zr  Zr5  1  -0.00000000  0.83913441  0.91660693  1
  Zr  Zr6  1  0.00000000  0.91659630  0.07953295  1
  Zr  Zr7  1  0.00000000  0.58408578  0.41524016  1
  Zr  Zr8  1  0.00000000  0.24746540  0.74721193  1
  Zr  Zr9  1  0.50000000  0.27168920  0.33428328  1
  Zr  Zr10  1  0.50000000  0.91192559  0.65127238  1
  Zr  Zr11  1  0.50000000  0.57936942  0.98405003  1
  Zr  Zr12  1  0.50000000  0.26396165  0.13142005  1
  Zr  Zr13  1  0.50000000  0.91160872  0.47978453  1
  Zr  Zr14  1  0.50000000  0.57537357  0.81180352  1
  Zr  Zr15  1  0.50000000  0.79755749  0.20147858  1
  Zr  Zr16  1  0.50000000  0.51086178  0.53773414  1
  Zr  Zr17  1  0.50000000  0.17783377  0.86918825  1
  Co  Co18  1  0.50000000  0.99697662  0.99852701  1
  Co  Co19  1  0.50000000  0.66950628  0.33513722  1
  Co  Co20  1  0.50000000  0.33307932  0.66658749  1
  Co  Co21  1  0.00000000  0.77660272  0.55472218  1
  Co  Co22  1  0.00000000  0.44527674  0.88934753  1
  Sn  Sn23  1  0.00000000  0.55753047  0.10643472  1
  Sn  Sn24  1  -0.00000000  0.22120265  0.44896906  1
  Sn  Sn25  1  0.00000000  0.88829286  0.77753275  1
  Sn  Sn26  1  0.00000000  0.11084342  0.22223713  1
