# generated using pymatgen
data_US2
_symmetry_space_group_name_H-M   'P 1'
_cell_length_a   5.21309926
_cell_length_b   7.93111557
_cell_length_c   7.93111557
_cell_angle_alpha   96.20060879
_cell_angle_beta   109.18677307
_cell_angle_gamma   70.81322693
_symmetry_Int_Tables_number   1
_chemical_formula_structural   US2
_chemical_formula_sum   'U5 S10'
_cell_volume   292.49912850
_cell_formula_units_Z   5
loop_
 _symmetry_equiv_pos_site_id
 _symmetry_equiv_pos_as_xyz
  1  'x, y, z'
loop_
 _atom_site_type_symbol
 _atom_site_label
 _atom_site_symmetry_multiplicity
 _atom_site_fract_x
 _atom_site_fract_y
 _atom_site_fract_z
 _atom_site_occupancy
  U  U0  1  0.33826392  0.50000000  0.17652784  1
  U  U1  1  0.66173608  0.50000000  0.82347216  1
  U  U2  1  0.83826392  0.82347216  0.50000000  1
  U  U3  1  0.16173608  0.17652784  0.50000000  1
  U  U4  1  0.25000000  -0.00000000  -0.00000000  1
  S  S5  1  0.41594779  0.86229606  0.69951390  1
  S  S6  1  0.57872995  0.13770394  0.30048610  1
  S  S7  1  0.92127005  0.30048610  0.13770394  1
  S  S8  1  0.08405221  0.69951390  0.86229606  1
  S  S9  1  0.71643389  0.69951390  0.13770394  1
  S  S10  1  0.27824385  0.30048610  0.86229606  1
  S  S11  1  0.78356611  0.13770394  0.69951390  1
  S  S12  1  0.22175615  0.86229606  0.30048610  1
  S  S13  1  0.25000000  0.50000000  0.50000000  1
  S  S14  1  0.75000000  0.50000000  0.50000000  1
