# generated using pymatgen
data_Tl2Mo2P2O11
_symmetry_space_group_name_H-M   'P 1'
_cell_length_a   10.14154341
_cell_length_b   10.13783824
_cell_length_c   10.38681641
_cell_angle_alpha   90.00000000
_cell_angle_beta   90.00000000
_cell_angle_gamma   97.69257498
_symmetry_Int_Tables_number   1
_chemical_formula_structural   Tl2Mo2P2O11
_chemical_formula_sum   'Tl8 Mo8 P8 O44'
_cell_volume   1058.29261276
_cell_formula_units_Z   4
loop_
 _symmetry_equiv_pos_site_id
 _symmetry_equiv_pos_as_xyz
  1  'x, y, z'
loop_
 _atom_site_type_symbol
 _atom_site_label
 _atom_site_symmetry_multiplicity
 _atom_site_fract_x
 _atom_site_fract_y
 _atom_site_fract_z
 _atom_site_occupancy
  Tl  Tl0  1  0.99952499  0.49983527  0.49999782  1
  Tl  Tl1  1  0.00047501  0.00016473  -0.00000218  1
  Tl  Tl2  1  0.23984937  0.21936606  0.67954565  1
  Tl  Tl3  1  0.76015063  0.28063394  0.17954565  1
  Tl  Tl4  1  0.75721606  0.78980597  0.32446511  1
  Tl  Tl5  1  0.24278394  0.71019403  0.82446511  1
  Tl  Tl6  1  0.48233305  0.99291779  0.58062164  1
  Tl  Tl7  1  0.51766695  0.50708221  0.08062164  1
  Mo  Mo8  1  0.65356228  0.36544706  0.58526509  1
  Mo  Mo9  1  0.34643772  0.13455294  0.08526509  1
  Mo  Mo10  1  0.34571543  0.63589559  0.41549261  1
  Mo  Mo11  1  0.65428457  0.86410441  0.91549261  1
  Mo  Mo12  1  0.92274149  0.35209194  0.82269239  1
  Mo  Mo13  1  0.07725851  0.14790806  0.32269239  1
  Mo  Mo14  1  0.07678012  0.64794255  0.17751413  1
  Mo  Mo15  1  0.92321988  0.85205745  0.67751413  1
  P  P16  1  0.60469508  0.18500544  0.87524631  1
  P  P17  1  0.39530492  0.31499456  0.37524631  1
  P  P18  1  0.39501850  0.81529949  0.12427123  1
  P  P19  1  0.60498150  0.68470051  0.62427123  1
  P  P20  1  0.87375809  0.14669272  0.57644125  1
  P  P21  1  0.12624191  0.35330728  0.07644125  1
  P  P22  1  0.12548076  0.85316483  0.42361301  1
  P  P23  1  0.87451924  0.64683517  0.92361301  1
  O  O24  1  0.86690460  0.49499324  0.94549362  1
  O  O25  1  0.13309540  0.00500676  0.44549362  1
  O  O26  1  0.13330139  0.50522918  0.05475000  1
  O  O27  1  0.86669861  0.99477082  0.55475000  1
  O  O28  1  0.57589963  0.53279048  0.64939857  1
  O  O29  1  0.42410037  0.96720952  0.14939857  1
  O  O30  1  0.42428773  0.46817587  0.34879751  1
  O  O31  1  0.57571227  0.03182413  0.84879751  1
  O  O32  1  0.92770073  0.18205114  0.71433357  1
  O  O33  1  0.07229927  0.31794886  0.21433357  1
  O  O34  1  0.07253384  0.81808689  0.28560721  1
  O  O35  1  0.92746616  0.68191311  0.78560721  1
  O  O36  1  0.07620522  0.43022150  0.76616600  1
  O  O37  1  0.92379478  0.06977850  0.26616600  1
  O  O38  1  0.92354561  0.56956019  0.23370439  1
  O  O39  1  0.07645439  0.93043981  0.73370439  1
  O  O40  1  0.75345319  0.23029931  0.90748502  1
  O  O41  1  0.24654681  0.26970069  0.40748502  1
  O  O42  1  0.24626895  0.76964351  0.09219074  1
  O  O43  1  0.75373105  0.73035649  0.59219074  1
  O  O44  1  0.47214899  0.28062747  0.49898272  1
  O  O45  1  0.52785101  0.21937253  0.99898272  1
  O  O46  1  0.52754427  0.72175651  0.50081960  1
  O  O47  1  0.47245573  0.77824349  0.00081960  1
  O  O48  1  0.80362959  0.41615974  0.69808279  1
  O  O49  1  0.19637041  0.08384026  0.19808279  1
  O  O50  1  0.19676999  0.58408353  0.30180427  1
  O  O51  1  0.80323001  0.91591647  0.80180427  1
  O  O52  1  0.02519428  0.27671985  0.98053721  1
  O  O53  1  0.97480572  0.22328015  0.48053721  1
  O  O54  1  0.97596085  0.72318815  0.01919397  1
  O  O55  1  0.02403915  0.77681185  0.51919397  1
  O  O56  1  0.73139634  0.18327863  0.55432483  1
  O  O57  1  0.26860366  0.31672137  0.05432483  1
  O  O58  1  0.26733757  0.81543928  0.44695135  1
  O  O59  1  0.73266243  0.68456072  0.94695135  1
  O  O60  1  0.71149683  0.43192811  0.43838281  1
  O  O61  1  0.28850317  0.06807189  0.93838281  1
  O  O62  1  0.28882409  0.56652685  0.56142694  1
  O  O63  1  0.71117591  0.93347315  0.06142694  1
  O  O64  1  0.55819038  0.25641205  0.75514466  1
  O  O65  1  0.44180962  0.24358795  0.25514466  1
  O  O66  1  0.44195047  0.73815966  0.24105596  1
  O  O67  1  0.55804953  0.76184034  0.74105596  1
