# generated using pymatgen
data_Ti2Si6Mo
_symmetry_space_group_name_H-M   'P 1'
_cell_length_a   4.71258159
_cell_length_b   4.72050984
_cell_length_c   6.51204027
_cell_angle_alpha   90.00000000
_cell_angle_beta   90.00000000
_cell_angle_gamma   60.05554813
_symmetry_Int_Tables_number   1
_chemical_formula_structural   Ti2Si6Mo
_chemical_formula_sum   'Ti2 Si6 Mo1'
_cell_volume   125.52733783
_cell_formula_units_Z   1
loop_
 _symmetry_equiv_pos_site_id
 _symmetry_equiv_pos_as_xyz
  1  'x, y, z'
loop_
 _atom_site_type_symbol
 _atom_site_label
 _atom_site_symmetry_multiplicity
 _atom_site_fract_x
 _atom_site_fract_y
 _atom_site_fract_z
 _atom_site_occupancy
  Ti  Ti0  1  0.00000000  0.50000000  0.50011310  1
  Ti  Ti1  1  0.50000000  0.50000000  0.83321990  1
  Si  Si2  1  0.16570072  0.66859857  0.16666700  1
  Si  Si3  1  0.68342249  0.16044214  0.49919849  1
  Si  Si4  1  0.15613537  0.16044214  0.83413451  1
  Si  Si5  1  0.83429928  0.33140143  0.16666700  1
  Si  Si6  1  0.31657751  0.83955786  0.49919849  1
  Si  Si7  1  0.84386463  0.83955786  0.83413451  1
  Mo  Mo8  1  0.50000000  -0.00000000  0.16666700  1
