# generated using pymatgen
data_Tm5P12Ir19
_symmetry_space_group_name_H-M   'P 1'
_cell_length_a   3.96387243
_cell_length_b   12.70157743
_cell_length_c   12.70157674
_cell_angle_alpha   59.99499114
_cell_angle_beta   90.00000217
_cell_angle_gamma   89.99999778
_symmetry_Int_Tables_number   1
_chemical_formula_structural   Tm5P12Ir19
_chemical_formula_sum   'Tm5 P12 Ir19'
_cell_volume   553.78817151
_cell_formula_units_Z   1
loop_
 _symmetry_equiv_pos_site_id
 _symmetry_equiv_pos_as_xyz
  1  'x, y, z'
loop_
 _atom_site_type_symbol
 _atom_site_label
 _atom_site_symmetry_multiplicity
 _atom_site_fract_x
 _atom_site_fract_y
 _atom_site_fract_z
 _atom_site_occupancy
  Tm  Tm0  1  0.99991502  0.66664243  0.66664150  1
  Tm  Tm1  1  0.99991502  0.33335850  0.33335757  1
  Tm  Tm2  1  0.49826191  0.81509241  0.18490759  1
  Tm  Tm3  1  0.49826171  0.18487483  0.99999520  1
  Tm  Tm4  1  0.49826171  0.00000480  0.81512517  1
  P  P5  1  0.49957743  0.68837806  0.82892133  1
  P  P6  1  0.49958270  0.82890792  0.48271705  1
  P  P7  1  0.49959003  0.48272994  0.68835657  1
  P  P8  1  0.49957743  0.17107867  0.31162194  1
  P  P9  1  0.49958270  0.51728295  0.17109208  1
  P  P10  1  0.49959003  0.31164343  0.51727006  1
  P  P11  1  0.99948004  0.64301232  0.35698768  1
  P  P12  1  0.99947089  0.35695907  0.00000276  1
  P  P13  1  0.99947089  -0.00000276  0.64304093  1
  P  P14  1  0.99807812  0.17754038  0.82245962  1
  P  P15  1  0.99807221  0.82245618  0.99999576  1
  P  P16  1  0.99807221  0.00000424  0.17754382  1
  Ir  Ir17  1  0.99889582  0.80708024  0.81897447  1
  Ir  Ir18  1  0.99889698  0.81900038  0.37390395  1
  Ir  Ir19  1  0.99890950  0.37394810  0.80715444  1
  Ir  Ir20  1  0.99889582  0.18102553  0.19291976  1
  Ir  Ir21  1  0.99889698  0.62609605  0.18099962  1
  Ir  Ir22  1  0.99890950  0.19284556  0.62605190  1
  Ir  Ir23  1  0.49961958  0.86594862  0.63925880  1
  Ir  Ir24  1  0.49961871  0.63937558  0.49484207  1
  Ir  Ir25  1  0.49962584  0.49480643  0.86594089  1
  Ir  Ir26  1  0.49961958  0.36074120  0.13405138  1
  Ir  Ir27  1  0.49961871  0.50515793  0.36062442  1
  Ir  Ir28  1  0.49962584  0.13405911  0.50519357  1
  Ir  Ir29  1  0.00025533  0.46284225  0.53715775  1
  Ir  Ir30  1  0.00023706  0.53715772  -0.00000350  1
  Ir  Ir31  1  0.00023706  0.00000350  0.46284228  1
  Ir  Ir32  1  0.49821424  0.28359241  0.71640759  1
  Ir  Ir33  1  0.49821255  0.71645090  0.99998285  1
  Ir  Ir34  1  0.49821255  0.00001715  0.28354910  1
  Ir  Ir35  1  0.99823833  0.99998795  0.00001205  1
