# generated using pymatgen
data_U3SiPt5
_symmetry_space_group_name_H-M   'P 1'
_cell_length_a   7.03773377
_cell_length_b   7.48108900
_cell_length_c   8.37120649
_cell_angle_alpha   63.45922914
_cell_angle_beta   65.14308547
_cell_angle_gamma   90.00000000
_symmetry_Int_Tables_number   1
_chemical_formula_structural   U3SiPt5
_chemical_formula_sum   'U6 Si2 Pt10'
_cell_volume   348.05934696
_cell_formula_units_Z   2
loop_
 _symmetry_equiv_pos_site_id
 _symmetry_equiv_pos_as_xyz
  1  'x, y, z'
loop_
 _atom_site_type_symbol
 _atom_site_label
 _atom_site_symmetry_multiplicity
 _atom_site_fract_x
 _atom_site_fract_y
 _atom_site_fract_z
 _atom_site_occupancy
  U  U0  1  0.55019686  0.83204448  0.90308631  1
  U  U1  1  0.45328317  0.16795552  0.09691369  1
  U  U2  1  0.05019686  0.76486922  0.90308631  1
  U  U3  1  0.95328317  0.23513078  0.09691369  1
  U  U4  1  0.74888270  0.38437808  0.50000000  1
  U  U5  1  0.24888270  0.61562192  0.50000000  1
  Si  Si6  1  0.75027484  0.77961484  0.50000000  1
  Si  Si7  1  0.25027484  0.22038516  0.50000000  1
  Pt  Pt8  1  0.31462319  0.16072702  0.79447348  1
  Pt  Pt9  1  0.10909667  0.83927298  0.20552652  1
  Pt  Pt10  1  0.81462319  0.54479950  0.79447348  1
  Pt  Pt11  1  0.60909667  0.45520050  0.20552652  1
  Pt  Pt12  1  0.69585596  0.83225401  0.20112442  1
  Pt  Pt13  1  0.89698038  0.16774599  0.79887558  1
  Pt  Pt14  1  0.19585596  0.46662157  0.20112442  1
  Pt  Pt15  1  0.39698038  0.53337843  0.79887558  1
  Pt  Pt16  1  0.94560622  0.04209603  0.50000000  1
  Pt  Pt17  1  0.44560622  0.95790397  0.50000000  1
