# generated using pymatgen
data_TiNb(PO4)3
_symmetry_space_group_name_H-M   'P 1'
_cell_length_a   8.73354358
_cell_length_b   8.73354358
_cell_length_c   8.94924588
_cell_angle_alpha   90.00000359
_cell_angle_beta   119.20583439
_cell_angle_gamma   59.99999362
_symmetry_Int_Tables_number   1
_chemical_formula_structural   TiNb(PO4)3
_chemical_formula_sum   'Ti2 Nb2 P6 O24'
_cell_volume   488.38531620
_cell_formula_units_Z   2
loop_
 _symmetry_equiv_pos_site_id
 _symmetry_equiv_pos_as_xyz
  1  'x, y, z'
loop_
 _atom_site_type_symbol
 _atom_site_label
 _atom_site_symmetry_multiplicity
 _atom_site_fract_x
 _atom_site_fract_y
 _atom_site_fract_z
 _atom_site_occupancy
  Ti  Ti0  1  0.71727357  0.64136321  0.07591036  1
  Ti  Ti1  1  0.71727357  0.14136321  0.57591036  1
  Nb  Nb2  1  0.27994922  0.36002539  0.91992383  1
  Nb  Nb3  1  0.27994922  0.86002539  0.41992383  1
  P  P4  1  0.21587241  0.02805522  0.75221901  1
  P  P5  1  0.78027424  0.75607237  0.75221901  1
  P  P6  1  0.50829138  0.46365340  0.75221901  1
  P  P7  1  0.21587241  0.25607237  0.25221901  1
  P  P8  1  0.50829138  0.52805522  0.25221901  1
  P  P9  1  0.78027424  0.96365340  0.25221901  1
  O  O10  1  0.41624988  0.86093998  0.91966301  1
  O  O11  1  0.78060299  0.72281015  0.91966301  1
  O  O12  1  0.64247316  0.49658687  0.91966301  1
  O  O13  1  0.41624988  0.22281015  0.41966301  1
  O  O14  1  0.64247316  0.36093998  0.41966301  1
  O  O15  1  0.78060299  0.99658687  0.41966301  1
  O  O16  1  0.58435220  0.13636900  0.08154971  1
  O  O17  1  0.21791870  0.27927880  0.08154971  1
  O  O18  1  0.36082851  0.50280250  0.08154971  1
  O  O19  1  0.58435220  0.77927880  0.58154971  1
  O  O20  1  0.36082851  0.63636900  0.58154971  1
  O  O21  1  0.21791870  0.00280250  0.58154971  1
  O  O22  1  0.78557320  0.78880625  0.22353074  1
  O  O23  1  0.01233698  0.42562056  0.22353074  1
  O  O24  1  0.64915129  0.56204246  0.22353074  1
  O  O25  1  0.78557320  0.92562056  0.72353074  1
  O  O26  1  0.64915129  0.28880625  0.72353074  1
  O  O27  1  0.01233698  0.06204246  0.72353074  1
  O  O28  1  0.21142399  0.20753588  0.77442614  1
  O  O29  1  0.98196201  0.58104013  0.77442614  1
  O  O30  1  0.35546627  0.43699786  0.77442614  1
  O  O31  1  0.21142399  0.08104013  0.27442614  1
  O  O32  1  0.35546627  0.70753588  0.27442614  1
  O  O33  1  0.98196201  0.93699786  0.27442614  1
