# generated using pymatgen
data_Te16(Mo3Ru)3
_symmetry_space_group_name_H-M   'P 1'
_cell_length_a   7.14848062
_cell_length_b   9.82972811
_cell_length_c   10.34748589
_cell_angle_alpha   90.49207655
_cell_angle_beta   90.23960657
_cell_angle_gamma   95.26270641
_symmetry_Int_Tables_number   1
_chemical_formula_structural   Te16(Mo3Ru)3
_chemical_formula_sum   'Te16 Mo9 Ru3'
_cell_volume   723.99251601
_cell_formula_units_Z   1
loop_
 _symmetry_equiv_pos_site_id
 _symmetry_equiv_pos_as_xyz
  1  'x, y, z'
loop_
 _atom_site_type_symbol
 _atom_site_label
 _atom_site_symmetry_multiplicity
 _atom_site_fract_x
 _atom_site_fract_y
 _atom_site_fract_z
 _atom_site_occupancy
  Te  Te0  1  0.78378226  0.78408717  0.99762624  1
  Te  Te1  1  0.78496417  0.29303625  0.49529492  1
  Te  Te2  1  0.20525092  0.20574480  0.99852324  1
  Te  Te3  1  0.20760359  0.70519282  0.49763879  1
  Te  Te4  1  0.61978714  0.57542671  0.70098187  1
  Te  Te5  1  0.61829633  0.07667102  0.19651356  1
  Te  Te6  1  0.88064973  0.44579951  0.17193007  1
  Te  Te7  1  0.88377971  0.94329629  0.67924548  1
  Te  Te8  1  0.26412990  0.75012058  0.12518044  1
  Te  Te9  1  0.26412104  0.25152855  0.62542647  1
  Te  Te10  1  0.37661111  0.42670123  0.31238060  1
  Te  Te11  1  0.37776790  0.92780806  0.81318665  1
  Te  Te12  1  0.12096411  0.55668725  0.82063989  1
  Te  Te13  1  0.12463641  0.05602297  0.31976248  1
  Te  Te14  1  0.73943535  0.25215387  0.87232518  1
  Te  Te15  1  0.73774335  0.74915868  0.37092563  1
  Mo  Mo16  1  0.75946289  0.02222683  0.43757743  1
  Mo  Mo17  1  0.58364625  0.60233451  0.15165667  1
  Mo  Mo18  1  0.58414528  0.10362616  0.64965037  1
  Mo  Mo19  1  0.54448084  0.32958671  0.08378803  1
  Mo  Mo20  1  0.54445510  0.83057674  0.58527812  1
  Mo  Mo21  1  0.24831479  0.47758139  0.06632355  1
  Mo  Mo22  1  0.24826868  0.97987810  0.56562353  1
  Mo  Mo23  1  0.41455388  0.39419362  0.85203784  1
  Mo  Mo24  1  0.41680723  0.89490686  0.35053446  1
  Ru  Ru25  1  0.45248827  0.67121280  0.91391011  1
  Ru  Ru26  1  0.45304944  0.17282505  0.41342469  1
  Ru  Ru27  1  0.76080435  0.52161547  0.93261369  1
