# generated using pymatgen
data_Ti2Tl3P5S18
_symmetry_space_group_name_H-M   'P 1'
_cell_length_a   6.42022688
_cell_length_b   12.03269474
_cell_length_c   20.92051425
_cell_angle_alpha   106.13988628
_cell_angle_beta   90.00000003
_cell_angle_gamma   74.52709626
_symmetry_Int_Tables_number   1
_chemical_formula_structural   Ti2Tl3P5S18
_chemical_formula_sum   'Ti4 Tl6 P10 S36'
_cell_volume   1491.39017928
_cell_formula_units_Z   2
loop_
 _symmetry_equiv_pos_site_id
 _symmetry_equiv_pos_as_xyz
  1  'x, y, z'
loop_
 _atom_site_type_symbol
 _atom_site_label
 _atom_site_symmetry_multiplicity
 _atom_site_fract_x
 _atom_site_fract_y
 _atom_site_fract_z
 _atom_site_occupancy
  Ti  Ti0  1  0.62339895  0.23543325  0.37081617  1
  Ti  Ti1  1  0.85895313  0.76466312  0.12890817  1
  Ti  Ti2  1  0.37638375  0.76466312  0.62890817  1
  Ti  Ti3  1  0.14116780  0.23543325  0.87081617  1
  Tl  Tl4  1  0.03151944  0.68256380  0.32278412  1
  Tl  Tl5  1  0.71714670  0.31489513  0.17602721  1
  Tl  Tl6  1  0.96795817  0.31489513  0.67602721  1
  Tl  Tl7  1  0.28591676  0.68256380  0.82278412  1
  Tl  Tl8  1  0.94421564  0.99095676  0.49545091  1
  Tl  Tl9  1  0.06482760  0.99095676  0.99545091  1
  P  P10  1  0.74873792  0.99958308  0.25001607  1
  P  P11  1  0.25167900  0.99958308  0.75001607  1
  P  P12  1  0.45682441  0.24536731  0.51474536  1
  P  P13  1  0.69921079  0.75574538  0.98537796  1
  P  P14  1  0.54504382  0.75574538  0.48537796  1
  P  P15  1  0.29780828  0.24536731  0.01474536  1
  P  P16  1  0.65749427  0.48547979  0.35812740  1
  P  P17  1  0.14197927  0.51480805  0.14210711  1
  P  P18  1  0.34321268  0.51480805  0.64210711  1
  P  P19  1  0.85702594  0.48547979  0.85812740  1
  S  S20  1  0.90642014  0.04035082  0.33510433  1
  S  S21  1  0.94517315  0.95941663  0.16471482  1
  S  S22  1  0.09541021  0.95941663  0.66471482  1
  S  S23  1  0.05322904  0.04035082  0.83510433  1
  S  S24  1  0.61784879  0.57212275  0.28938448  1
  S  S25  1  0.18979111  0.42833610  0.21095331  1
  S  S26  1  0.38187279  0.42833610  0.71095331  1
  S  S27  1  0.81002846  0.57212275  0.78938448  1
  S  S28  1  0.48085228  0.14321417  0.57474672  1
  S  S29  1  0.61439854  0.85907625  0.92645758  1
  S  S30  1  0.52652521  0.85907625  0.42645758  1
  S  S31  1  0.37593355  0.14321417  0.07474672  1
  S  S32  1  0.39046069  0.43656562  0.38216433  1
  S  S33  1  0.82653543  0.56311915  0.11803868  1
  S  S34  1  0.61034542  0.56311915  0.61803868  1
  S  S35  1  0.17297369  0.43656562  0.88216433  1
  S  S36  1  0.32831056  0.19390832  0.42428916  1
  S  S37  1  0.52064589  0.80671648  0.07599304  1
  S  S38  1  0.67263762  0.80671648  0.57599304  1
  S  S39  1  0.47778111  0.19390832  0.92428916  1
  S  S40  1  0.21661256  0.67696370  0.16332783  1
  S  S41  1  0.89377304  0.32306438  0.33654217  1
  S  S42  1  0.78316258  0.32306438  0.83654217  1
  S  S43  1  0.10642374  0.67696370  0.66332783  1
  S  S44  1  0.74919838  0.26408451  0.48492700  1
  S  S45  1  0.01169096  0.73244946  0.01463929  1
  S  S46  1  0.25585958  0.73244946  0.51463929  1
  S  S47  1  0.98671711  0.26408451  0.98492700  1
  S  S48  1  0.77234032  0.57949950  0.44722208  1
  S  S49  1  0.35194029  0.42006615  0.05303198  1
  S  S50  1  0.22799355  0.42006615  0.55303198  1
  S  S51  1  0.64816017  0.57949950  0.94722208  1
  S  S52  1  0.64684269  0.84759471  0.23752436  1
  S  S53  1  0.49507445  0.15195560  0.26257835  1
  S  S54  1  0.35296995  0.15195560  0.76257835  1
  S  S55  1  0.50556260  0.84759471  0.73752436  1
