# generated using pymatgen
data_TbNdCo14B
_symmetry_space_group_name_H-M   'P 1'
_cell_length_a   8.59368780
_cell_length_b   8.59368780
_cell_length_c   11.70697691
_cell_angle_alpha   90.00000000
_cell_angle_beta   90.00000000
_cell_angle_gamma   90.00000000
_symmetry_Int_Tables_number   1
_chemical_formula_structural   TbNdCo14B
_chemical_formula_sum   'Tb4 Nd4 Co56 B4'
_cell_volume   864.57745410
_cell_formula_units_Z   4
loop_
 _symmetry_equiv_pos_site_id
 _symmetry_equiv_pos_as_xyz
  1  'x, y, z'
loop_
 _atom_site_type_symbol
 _atom_site_label
 _atom_site_symmetry_multiplicity
 _atom_site_fract_x
 _atom_site_fract_y
 _atom_site_fract_z
 _atom_site_occupancy
  Tb  Tb0  1  0.22398766  0.77601234  0.50000000  1
  Tb  Tb1  1  0.77601234  0.22398766  0.50000000  1
  Tb  Tb2  1  0.27601234  0.27601234  -0.00000000  1
  Tb  Tb3  1  0.72398766  0.72398766  -0.00000000  1
  Nd  Nd4  1  0.64344840  0.64344840  0.50000000  1
  Nd  Nd5  1  0.35655160  0.35655160  0.50000000  1
  Nd  Nd6  1  0.85655160  0.14344840  -0.00000000  1
  Nd  Nd7  1  0.14344840  0.85655160  -0.00000000  1
  Co  Co8  1  0.40095758  0.59904242  0.29543313  1
  Co  Co9  1  0.59904242  0.40095758  0.29543313  1
  Co  Co10  1  0.09904242  0.09904242  0.79543313  1
  Co  Co11  1  0.90095758  0.90095758  0.79543313  1
  Co  Co12  1  0.59904242  0.40095758  0.70456687  1
  Co  Co13  1  0.40095758  0.59904242  0.70456687  1
  Co  Co14  1  0.90095758  0.90095758  0.20456687  1
  Co  Co15  1  0.09904242  0.09904242  0.20456687  1
  Co  Co16  1  0.18222770  0.81777230  0.25460039  1
  Co  Co17  1  0.81777230  0.18222770  0.25460039  1
  Co  Co18  1  0.31777230  0.31777230  0.75460039  1
  Co  Co19  1  0.68222770  0.68222770  0.75460039  1
  Co  Co20  1  0.81777230  0.18222770  0.74539961  1
  Co  Co21  1  0.18222770  0.81777230  0.74539961  1
  Co  Co22  1  0.68222770  0.68222770  0.24539961  1
  Co  Co23  1  0.31777230  0.31777230  0.24539961  1
  Co  Co24  1  -0.00000000  0.50000000  0.50000000  1
  Co  Co25  1  0.50000000  -0.00000000  -0.00000000  1
  Co  Co26  1  0.50000000  -0.00000000  0.50000000  1
  Co  Co27  1  -0.00000000  0.50000000  -0.00000000  1
  Co  Co28  1  0.14033955  0.53750772  0.32199259  1
  Co  Co29  1  0.85966045  0.46249228  0.32199259  1
  Co  Co30  1  0.35966045  0.03750772  0.82199259  1
  Co  Co31  1  0.64033955  0.96249228  0.82199259  1
  Co  Co32  1  0.85966045  0.46249228  0.67800741  1
  Co  Co33  1  0.14033955  0.53750772  0.67800741  1
  Co  Co34  1  0.64033955  0.96249228  0.17800741  1
  Co  Co35  1  0.35966045  0.03750772  0.17800741  1
  Co  Co36  1  0.53750772  0.14033955  0.32199259  1
  Co  Co37  1  0.46249228  0.85966045  0.32199259  1
  Co  Co38  1  0.03750772  0.35966045  0.82199259  1
  Co  Co39  1  0.96249228  0.64033955  0.82199259  1
  Co  Co40  1  0.46249228  0.85966045  0.67800741  1
  Co  Co41  1  0.53750772  0.14033955  0.67800741  1
  Co  Co42  1  0.96249228  0.64033955  0.17800741  1
  Co  Co43  1  0.03750772  0.35966045  0.17800741  1
  Co  Co44  1  0.93189879  0.72409667  0.37382581  1
  Co  Co45  1  0.06810121  0.27590333  0.37382581  1
  Co  Co46  1  0.56810121  0.22409667  0.87382581  1
  Co  Co47  1  0.43189879  0.77590333  0.87382581  1
  Co  Co48  1  0.06810121  0.27590333  0.62617419  1
  Co  Co49  1  0.93189879  0.72409667  0.62617419  1
  Co  Co50  1  0.43189879  0.77590333  0.12617419  1
  Co  Co51  1  0.56810121  0.22409667  0.12617419  1
  Co  Co52  1  0.72409667  0.93189879  0.37382581  1
  Co  Co53  1  0.27590333  0.06810121  0.37382581  1
  Co  Co54  1  0.22409667  0.56810121  0.87382581  1
  Co  Co55  1  0.77590333  0.43189879  0.87382581  1
  Co  Co56  1  0.27590333  0.06810121  0.62617419  1
  Co  Co57  1  0.72409667  0.93189879  0.62617419  1
  Co  Co58  1  0.77590333  0.43189879  0.12617419  1
  Co  Co59  1  0.22409667  0.56810121  0.12617419  1
  Co  Co60  1  0.50000000  0.50000000  0.11563258  1
  Co  Co61  1  -0.00000000  -0.00000000  0.61563258  1
  Co  Co62  1  0.50000000  0.50000000  0.88436742  1
  Co  Co63  1  -0.00000000  -0.00000000  0.38436742  1
  B  B64  1  0.87731481  0.87731481  0.50000000  1
  B  B65  1  0.12268519  0.12268519  0.50000000  1
  B  B66  1  0.62268519  0.37731481  -0.00000000  1
  B  B67  1  0.37731481  0.62268519  -0.00000000  1
