# generated using pymatgen
data_SrIn3Hg
_symmetry_space_group_name_H-M   'P 1'
_cell_length_a   4.83676726
_cell_length_b   4.83676726
_cell_length_c   7.13473120
_cell_angle_alpha   70.18651379
_cell_angle_beta   70.18651379
_cell_angle_gamma   90.00000000
_symmetry_Int_Tables_number   1
_chemical_formula_structural   SrIn3Hg
_chemical_formula_sum   'Sr1 In3 Hg1'
_cell_volume   146.48509668
_cell_formula_units_Z   1
loop_
 _symmetry_equiv_pos_site_id
 _symmetry_equiv_pos_as_xyz
  1  'x, y, z'
loop_
 _atom_site_type_symbol
 _atom_site_label
 _atom_site_symmetry_multiplicity
 _atom_site_fract_x
 _atom_site_fract_y
 _atom_site_fract_z
 _atom_site_occupancy
  Sr  Sr0  1  0.99902897  0.99902897  0.00194205  1
  In  In1  1  0.75089723  0.25089723  0.49820553  1
  In  In2  1  0.25089723  0.75089723  0.49820553  1
  In  In3  1  0.61003744  0.61003744  0.77992512  1
  Hg  Hg4  1  0.38913912  0.38913912  0.22172177  1
