# generated using pymatgen
data_TbUTe4
_symmetry_space_group_name_H-M   'P 1'
_cell_length_a   4.21642495
_cell_length_b   6.10415029
_cell_length_c   8.00490906
_cell_angle_alpha   67.58729183
_cell_angle_beta   74.73018347
_cell_angle_gamma   90.00000000
_symmetry_Int_Tables_number   1
_chemical_formula_structural   TbUTe4
_chemical_formula_sum   'Tb1 U1 Te4'
_cell_volume   182.57232264
_cell_formula_units_Z   1
loop_
 _symmetry_equiv_pos_site_id
 _symmetry_equiv_pos_as_xyz
  1  'x, y, z'
loop_
 _atom_site_type_symbol
 _atom_site_label
 _atom_site_symmetry_multiplicity
 _atom_site_fract_x
 _atom_site_fract_y
 _atom_site_fract_z
 _atom_site_occupancy
  Tb  Tb0  1  0.86133643  0.86133643  0.27732715  1
  U  U1  1  0.13702529  0.13702529  0.72594941  1
  Te  Te2  1  0.79400508  0.29400508  0.41198985  1
  Te  Te3  1  0.20243300  0.70243300  0.59513400  1
  Te  Te4  1  0.50260010  0.75466469  0.99479980  1
  Te  Te5  1  0.50260010  0.25053551  0.99479980  1
