# generated using pymatgen
data_SrLaZnRuO6
_symmetry_space_group_name_H-M   'P 1'
_cell_length_a   5.69529251
_cell_length_b   5.64275432
_cell_length_c   7.95835015
_cell_angle_alpha   90.16716957
_cell_angle_beta   90.00000000
_cell_angle_gamma   90.00000000
_symmetry_Int_Tables_number   1
_chemical_formula_structural   SrLaZnRuO6
_chemical_formula_sum   'Sr2 La2 Zn2 Ru2 O12'
_cell_volume   255.75749613
_cell_formula_units_Z   2
loop_
 _symmetry_equiv_pos_site_id
 _symmetry_equiv_pos_as_xyz
  1  'x, y, z'
loop_
 _atom_site_type_symbol
 _atom_site_label
 _atom_site_symmetry_multiplicity
 _atom_site_fract_x
 _atom_site_fract_y
 _atom_site_fract_z
 _atom_site_occupancy
  Sr  Sr0  1  0.03284155  0.49462732  0.25064489  1
  Sr  Sr1  1  0.46715845  0.99462732  0.75064489  1
  La  La2  1  0.95836466  0.50982844  0.75162837  1
  La  La3  1  0.54163534  0.00982844  0.25162837  1
  Zn  Zn4  1  0.49415603  0.50098000  0.00132214  1
  Zn  Zn5  1  0.00584397  0.00098000  0.50132214  1
  Ru  Ru6  1  0.49897906  0.50009720  0.49983918  1
  Ru  Ru7  1  0.00102094  0.00009720  -0.00016082  1
  O  O8  1  0.48639859  0.58758631  0.25818821  1
  O  O9  1  0.01360141  0.08758631  0.75818821  1
  O  O10  1  0.52285227  0.43142842  0.74184417  1
  O  O11  1  0.97714773  0.93142842  0.24184417  1
  O  O12  1  0.29850186  0.21800714  0.45597386  1
  O  O13  1  0.20149814  0.71800714  0.95597386  1
  O  O14  1  0.71231482  0.77179980  0.53813084  1
  O  O15  1  0.78768518  0.27179980  0.03813084  1
  O  O16  1  0.21492088  0.69735563  0.54384064  1
  O  O17  1  0.28507912  0.19735563  0.04384064  1
  O  O18  1  0.77168046  0.28828973  0.45858770  1
  O  O19  1  0.72831954  0.78828973  0.95858770  1
