# generated using pymatgen
data_LaMg14Zr
_symmetry_space_group_name_H-M   'P 1'
_cell_length_a   6.61611677
_cell_length_b   6.61611619
_cell_length_c   10.20717218
_cell_angle_alpha   90.00000000
_cell_angle_beta   90.00000000
_cell_angle_gamma   120.00000285
_symmetry_Int_Tables_number   1
_chemical_formula_structural   LaMg14Zr
_chemical_formula_sum   'La1 Mg14 Zr1'
_cell_volume   386.93885759
_cell_formula_units_Z   1
loop_
 _symmetry_equiv_pos_site_id
 _symmetry_equiv_pos_as_xyz
  1  'x, y, z'
loop_
 _atom_site_type_symbol
 _atom_site_label
 _atom_site_symmetry_multiplicity
 _atom_site_fract_x
 _atom_site_fract_y
 _atom_site_fract_z
 _atom_site_occupancy
  La  La0  1  0.16666700  0.33333300  0.62500000  1
  Mg  Mg1  1  0.16895414  0.83447657  0.12500000  1
  Mg  Mg2  1  0.17368369  0.83684135  0.62500000  1
  Mg  Mg3  1  0.66552343  0.33104586  0.12500000  1
  Mg  Mg4  1  0.66315865  0.32631631  0.62500000  1
  Mg  Mg5  1  0.66552343  0.83447657  0.12500000  1
  Mg  Mg6  1  0.66315865  0.83684135  0.62500000  1
  Mg  Mg7  1  0.33515362  0.16484638  0.36815598  1
  Mg  Mg8  1  0.33515362  0.16484638  0.88184402  1
  Mg  Mg9  1  0.33515362  0.67030825  0.36815598  1
  Mg  Mg10  1  0.33515362  0.67030825  0.88184402  1
  Mg  Mg11  1  0.82969175  0.16484638  0.36815598  1
  Mg  Mg12  1  0.82969175  0.16484638  0.88184402  1
  Mg  Mg13  1  0.83333300  0.66666700  0.37748615  1
  Mg  Mg14  1  0.83333300  0.66666700  0.87251385  1
  Zr  Zr15  1  0.16666700  0.33333300  0.12500000  1
