# generated using pymatgen
data_Tb2CuPt
_symmetry_space_group_name_H-M   'P 1'
_cell_length_a   4.46176625
_cell_length_b   5.53330372
_cell_length_c   7.17641856
_cell_angle_alpha   90.00000000
_cell_angle_beta   90.00000000
_cell_angle_gamma   90.00000000
_symmetry_Int_Tables_number   1
_chemical_formula_structural   Tb2CuPt
_chemical_formula_sum   'Tb4 Cu2 Pt2'
_cell_volume   177.17363023
_cell_formula_units_Z   2
loop_
 _symmetry_equiv_pos_site_id
 _symmetry_equiv_pos_as_xyz
  1  'x, y, z'
loop_
 _atom_site_type_symbol
 _atom_site_label
 _atom_site_symmetry_multiplicity
 _atom_site_fract_x
 _atom_site_fract_y
 _atom_site_fract_z
 _atom_site_occupancy
  Tb  Tb0  1  0.25000000  0.36350018  0.68483472  1
  Tb  Tb1  1  0.25000000  0.13649982  0.18483472  1
  Tb  Tb2  1  0.75000000  0.64533715  0.31493764  1
  Tb  Tb3  1  0.75000000  0.85466285  0.81493764  1
  Cu  Cu4  1  0.75000000  0.14293153  0.46437807  1
  Cu  Cu5  1  0.75000000  0.35706847  0.96437807  1
  Pt  Pt6  1  0.25000000  0.86361923  0.53584957  1
  Pt  Pt7  1  0.25000000  0.63638077  0.03584957  1
