# generated using pymatgen
data_TbNd(NiGe2)2
_symmetry_space_group_name_H-M   'P 1'
_cell_length_a   4.22033657
_cell_length_b   4.17356212
_cell_length_c   8.60040762
_cell_angle_alpha   75.95774217
_cell_angle_beta   90.00000000
_cell_angle_gamma   90.00000000
_symmetry_Int_Tables_number   1
_chemical_formula_structural   TbNd(NiGe2)2
_chemical_formula_sum   'Tb1 Nd1 Ni2 Ge4'
_cell_volume   146.95932066
_cell_formula_units_Z   1
loop_
 _symmetry_equiv_pos_site_id
 _symmetry_equiv_pos_as_xyz
  1  'x, y, z'
loop_
 _atom_site_type_symbol
 _atom_site_label
 _atom_site_symmetry_multiplicity
 _atom_site_fract_x
 _atom_site_fract_y
 _atom_site_fract_z
 _atom_site_occupancy
  Tb  Tb0  1  0.75000000  0.10846412  0.78307176  1
  Nd  Nd1  1  0.25000000  0.89239542  0.21520915  1
  Ni  Ni2  1  0.25000000  0.67999656  0.64000688  1
  Ni  Ni3  1  0.75000000  0.31927256  0.36145487  1
  Ge  Ge4  1  0.25000000  0.25056405  0.49887189  1
  Ge  Ge5  1  0.75000000  0.74723707  0.50552585  1
  Ge  Ge6  1  0.25000000  0.54280543  0.91438913  1
  Ge  Ge7  1  0.75000000  0.45926477  0.08147046  1
