# generated using pymatgen
data_SrCaAl2(SiN3)2
_symmetry_space_group_name_H-M   'P 1'
_cell_length_a   5.14503363
_cell_length_b   5.73080908
_cell_length_c   5.74990153
_cell_angle_alpha   119.89011458
_cell_angle_beta   90.13482769
_cell_angle_gamma   90.13840813
_symmetry_Int_Tables_number   1
_chemical_formula_structural   SrCaAl2(SiN3)2
_chemical_formula_sum   'Sr1 Ca1 Al2 Si2 N6'
_cell_volume   146.98401141
_cell_formula_units_Z   1
loop_
 _symmetry_equiv_pos_site_id
 _symmetry_equiv_pos_as_xyz
  1  'x, y, z'
loop_
 _atom_site_type_symbol
 _atom_site_label
 _atom_site_symmetry_multiplicity
 _atom_site_fract_x
 _atom_site_fract_y
 _atom_site_fract_z
 _atom_site_occupancy
  Sr  Sr0  1  0.99810999  0.67877995  0.68264241  1
  Ca  Ca1  1  0.49493838  0.30355063  0.30022144  1
  Al  Al2  1  0.52424470  0.02217436  0.67140724  1
  Al  Al3  1  0.02213192  0.98215439  0.32995000  1
  Si  Si4  1  0.51966068  0.66916241  0.02434266  1
  Si  Si5  1  0.01692856  0.33332164  0.98086863  1
  N  N6  1  0.49712865  0.75515563  0.77278000  1
  N  N7  1  0.98899943  0.23274911  0.21655593  1
  N  N8  1  0.87753795  0.11306317  0.67020579  1
  N  N9  1  0.85362418  0.64492745  0.10040464  1
  N  N10  1  0.38048902  0.90696671  0.33027478  1
  N  N11  1  0.35620655  0.35799456  0.92034647  1
