# generated using pymatgen
data_Sr2LiMgSi3
_symmetry_space_group_name_H-M   'P 1'
_cell_length_a   4.62248109
_cell_length_b   7.18533990
_cell_length_c   10.01309289
_cell_angle_alpha   90.00000000
_cell_angle_beta   76.65453549
_cell_angle_gamma   90.00000000
_symmetry_Int_Tables_number   1
_chemical_formula_structural   Sr2LiMgSi3
_chemical_formula_sum   'Sr4 Li2 Mg2 Si6'
_cell_volume   323.59497532
_cell_formula_units_Z   2
loop_
 _symmetry_equiv_pos_site_id
 _symmetry_equiv_pos_as_xyz
  1  'x, y, z'
loop_
 _atom_site_type_symbol
 _atom_site_label
 _atom_site_symmetry_multiplicity
 _atom_site_fract_x
 _atom_site_fract_y
 _atom_site_fract_z
 _atom_site_occupancy
  Sr  Sr0  1  0.55580968  0.74801365  0.88838063  1
  Sr  Sr1  1  0.44419032  0.24801365  0.11161937  1
  Sr  Sr2  1  0.34605762  0.76115569  0.30788475  1
  Sr  Sr3  1  0.65394238  0.26115569  0.69211525  1
  Li  Li4  1  0.19039511  0.55065120  0.61920977  1
  Li  Li5  1  0.80960489  0.05065120  0.38079023  1
  Mg  Mg6  1  0.80911913  0.44361511  0.38176174  1
  Mg  Mg7  1  0.19088087  0.94361511  0.61823826  1
  Si  Si8  1  0.72162838  0.74896037  0.55674324  1
  Si  Si9  1  0.27837162  0.24896037  0.44325676  1
  Si  Si10  1  0.05321957  0.08212562  0.89356086  1
  Si  Si11  1  0.94741025  0.91547836  0.10517951  1
  Si  Si12  1  0.05258975  0.41547836  0.89482049  1
  Si  Si13  1  0.94678043  0.58212562  0.10643914  1
