# generated using pymatgen
data_SmThN2
_symmetry_space_group_name_H-M   'P 1'
_cell_length_a   3.63631422
_cell_length_b   3.63631422
_cell_length_c   6.26443521
_cell_angle_alpha   73.12799389
_cell_angle_beta   90.00000000
_cell_angle_gamma   120.00000000
_symmetry_Int_Tables_number   1
_chemical_formula_structural   SmThN2
_chemical_formula_sum   'Sm1 Th1 N2'
_cell_volume   67.58725823
_cell_formula_units_Z   1
loop_
 _symmetry_equiv_pos_site_id
 _symmetry_equiv_pos_as_xyz
  1  'x, y, z'
loop_
 _atom_site_type_symbol
 _atom_site_label
 _atom_site_symmetry_multiplicity
 _atom_site_fract_x
 _atom_site_fract_y
 _atom_site_fract_z
 _atom_site_occupancy
  Sm  Sm0  1  0.25000000  0.50000000  0.25000000  1
  Th  Th1  1  0.75000000  0.50000000  0.75000000  1
  N  N2  1  0.00274996  0.00549992  0.99175013  1
  N  N3  1  0.49725004  0.99450008  0.50824987  1
