# generated using pymatgen
data_Sm4Ga7Ag5
_symmetry_space_group_name_H-M   'P 1'
_cell_length_a   4.44315163
_cell_length_b   7.09936007
_cell_length_c   10.37123824
_cell_angle_alpha   89.76578335
_cell_angle_beta   90.00000000
_cell_angle_gamma   90.00000000
_symmetry_Int_Tables_number   1
_chemical_formula_structural   Sm4Ga7Ag5
_chemical_formula_sum   'Sm4 Ga7 Ag5'
_cell_volume   327.14276497
_cell_formula_units_Z   1
loop_
 _symmetry_equiv_pos_site_id
 _symmetry_equiv_pos_as_xyz
  1  'x, y, z'
loop_
 _atom_site_type_symbol
 _atom_site_label
 _atom_site_symmetry_multiplicity
 _atom_site_fract_x
 _atom_site_fract_y
 _atom_site_fract_z
 _atom_site_occupancy
  Sm  Sm0  1  0.75000000  0.21690681  0.82994407  1
  Sm  Sm1  1  0.75000000  0.71796688  0.66967714  1
  Sm  Sm2  1  0.25000000  0.78441285  0.16916359  1
  Sm  Sm3  1  0.25000000  0.28251677  0.33022729  1
  Ga  Ga4  1  0.75000000  0.07771678  0.15231083  1
  Ga  Ga5  1  0.75000000  0.57803725  0.34797860  1
  Ga  Ga6  1  0.25000000  0.92142731  0.84789021  1
  Ga  Ga7  1  0.25000000  0.42191140  0.65227681  1
  Ga  Ga8  1  0.75000000  0.79724249  0.96234034  1
  Ga  Ga9  1  0.25000000  0.70202867  0.46252892  1
  Ga  Ga10  1  0.25000000  0.20298318  0.03773091  1
  Ag  Ag11  1  0.75000000  0.45940723  0.09754281  1
  Ag  Ag12  1  0.75000000  0.95660398  0.40098272  1
  Ag  Ag13  1  0.25000000  0.54105383  0.90223662  1
  Ag  Ag14  1  0.25000000  0.04024927  0.59798315  1
  Ag  Ag15  1  0.75000000  0.29953529  0.53918598  1
