# generated using pymatgen
data_SmAl3Cu
_symmetry_space_group_name_H-M   'P 1'
_cell_length_a   4.18677414
_cell_length_b   4.18677414
_cell_length_c   6.07805108
_cell_angle_alpha   69.85375902
_cell_angle_beta   69.85375902
_cell_angle_gamma   90.00000000
_symmetry_Int_Tables_number   1
_chemical_formula_structural   SmAl3Cu
_chemical_formula_sum   'Sm1 Al3 Cu1'
_cell_volume   93.04979667
_cell_formula_units_Z   1
loop_
 _symmetry_equiv_pos_site_id
 _symmetry_equiv_pos_as_xyz
  1  'x, y, z'
loop_
 _atom_site_type_symbol
 _atom_site_label
 _atom_site_symmetry_multiplicity
 _atom_site_fract_x
 _atom_site_fract_y
 _atom_site_fract_z
 _atom_site_occupancy
  Sm  Sm0  1  0.00645464  0.00645464  0.98709071  1
  Al  Al1  1  0.75806955  0.25806955  0.48386090  1
  Al  Al2  1  0.25806955  0.75806955  0.48386090  1
  Al  Al3  1  0.59936957  0.59936957  0.80126086  1
  Cu  Cu4  1  0.37803668  0.37803668  0.24392663  1
