# generated using pymatgen
data_Sr4Tl2CO9
_symmetry_space_group_name_H-M   'P 1'
_cell_length_a   5.12987691
_cell_length_b   5.08327109
_cell_length_c   10.20340795
_cell_angle_alpha   75.57593482
_cell_angle_beta   75.44078064
_cell_angle_gamma   90.00000000
_symmetry_Int_Tables_number   1
_chemical_formula_structural   Sr4Tl2CO9
_chemical_formula_sum   'Sr4 Tl2 C1 O9'
_cell_volume   248.85111744
_cell_formula_units_Z   1
loop_
 _symmetry_equiv_pos_site_id
 _symmetry_equiv_pos_as_xyz
  1  'x, y, z'
loop_
 _atom_site_type_symbol
 _atom_site_label
 _atom_site_symmetry_multiplicity
 _atom_site_fract_x
 _atom_site_fract_y
 _atom_site_fract_z
 _atom_site_occupancy
  Sr  Sr0  1  0.61134064  0.12234957  0.77731871  1
  Sr  Sr1  1  0.11337122  0.63890600  0.77325755  1
  Sr  Sr2  1  0.38865936  0.89966829  0.22268129  1
  Sr  Sr3  1  0.88662878  0.41216355  0.22674245  1
  Tl  Tl4  1  0.25256578  0.26259097  0.49486844  1
  Tl  Tl5  1  0.74743422  0.75745941  0.50513156  1
  C  C6  1  1.00000000  0.02170171  0.00000000  1
  O  O7  1  0.14145134  0.15751036  0.71709732  1
  O  O8  1  0.85854866  0.87460768  0.28290268  1
  O  O9  1  0.74947592  0.25703000  0.50104816  1
  O  O10  1  0.25052408  0.75807816  0.49895184  1
  O  O11  1  0.63463531  0.64401399  0.73072938  1
  O  O12  1  0.36536469  0.37474337  0.26927062  1
  O  O13  1  0.21880012  0.89248503  1.00000000  1
  O  O14  1  0.78119988  0.89248503  1.00000000  1
  O  O15  1  1.00000000  0.27720688  0.00000000  1
