# generated using pymatgen
data_Sr4Co(IrO4)3
_symmetry_space_group_name_H-M   'P 1'
_cell_length_a   5.66269523
_cell_length_b   5.60178843
_cell_length_c   7.95260966
_cell_angle_alpha   89.96112850
_cell_angle_beta   90.31303557
_cell_angle_gamma   89.86311423
_symmetry_Int_Tables_number   1
_chemical_formula_structural   Sr4Co(IrO4)3
_chemical_formula_sum   'Sr4 Co1 Ir3 O12'
_cell_volume   252.26194056
_cell_formula_units_Z   1
loop_
 _symmetry_equiv_pos_site_id
 _symmetry_equiv_pos_as_xyz
  1  'x, y, z'
loop_
 _atom_site_type_symbol
 _atom_site_label
 _atom_site_symmetry_multiplicity
 _atom_site_fract_x
 _atom_site_fract_y
 _atom_site_fract_z
 _atom_site_occupancy
  Sr  Sr0  1  0.46375232  0.49592540  0.75880484  1
  Sr  Sr1  1  0.95829069  0.01247398  0.75994174  1
  Sr  Sr2  1  0.53624768  0.50407460  0.24119516  1
  Sr  Sr3  1  0.04170931  0.98752602  0.24005826  1
  Co  Co4  1  0.50000000  -0.00000000  0.00000000  1
  Ir  Ir5  1  0.00000000  0.50000000  0.50000000  1
  Ir  Ir6  1  0.50000000  -0.00000000  0.50000000  1
  Ir  Ir7  1  0.00000000  0.50000000  0.00000000  1
  O  O8  1  0.21202763  0.22299288  0.97223074  1
  O  O9  1  0.70171320  0.29938387  0.53642377  1
  O  O10  1  0.79554313  0.79714699  0.46102671  1
  O  O11  1  0.27861171  0.70869558  0.03351727  1
  O  O12  1  0.78797237  0.77700712  0.02776926  1
  O  O13  1  0.29828680  0.70061613  0.46357623  1
  O  O14  1  0.20445687  0.20285301  0.53897329  1
  O  O15  1  0.72138829  0.29130442  0.96648273  1
  O  O16  1  0.01569369  0.57674130  0.75046170  1
  O  O17  1  0.50835242  0.94315685  0.74181046  1
  O  O18  1  0.98430631  0.42325870  0.24953830  1
  O  O19  1  0.49164758  0.05684315  0.25818954  1
