# generated using pymatgen
data_SmH18(BrO6)3
_symmetry_space_group_name_H-M   'P 1'
_cell_length_a   6.95902404
_cell_length_b   11.95983193
_cell_length_c   11.95983193
_cell_angle_alpha   119.99958758
_cell_angle_beta   90.00000000
_cell_angle_gamma   90.00000000
_symmetry_Int_Tables_number   1
_chemical_formula_structural   SmH18(BrO6)3
_chemical_formula_sum   'Sm2 H36 Br6 O36'
_cell_volume   862.04696303
_cell_formula_units_Z   2
loop_
 _symmetry_equiv_pos_site_id
 _symmetry_equiv_pos_as_xyz
  1  'x, y, z'
loop_
 _atom_site_type_symbol
 _atom_site_label
 _atom_site_symmetry_multiplicity
 _atom_site_fract_x
 _atom_site_fract_y
 _atom_site_fract_z
 _atom_site_occupancy
  Sm  Sm0  1  0.74950070  0.66666852  0.33333148  1
  Sm  Sm1  1  0.24950070  0.33333148  0.66666852  1
  H  H2  1  0.75412063  0.74615742  0.11855499  1
  H  H3  1  0.75412029  0.37240205  0.25384604  1
  H  H4  1  0.75412067  0.88144525  0.62760256  1
  H  H5  1  0.75412067  0.37239744  0.11855475  1
  H  H6  1  0.75412063  0.88144501  0.25384258  1
  H  H7  1  0.75412029  0.74615396  0.62759795  1
  H  H8  1  0.25412063  0.25384258  0.88144501  1
  H  H9  1  0.25412029  0.62759795  0.74615396  1
  H  H10  1  0.25412067  0.11855475  0.37239744  1
  H  H11  1  0.25412067  0.62760256  0.88144525  1
  H  H12  1  0.25412063  0.11855499  0.74615742  1
  H  H13  1  0.25412029  0.25384604  0.37240205  1
  H  H14  1  0.06326928  0.63213765  0.50010192  1
  H  H15  1  0.06327580  0.86796893  0.36786357  1
  H  H16  1  0.06326617  0.49989997  0.13203706  1
  H  H17  1  0.06326617  0.86796294  0.50010003  1
  H  H18  1  0.06326928  0.49989808  0.36786235  1
  H  H19  1  0.06327580  0.63213643  0.13203107  1
  H  H20  1  0.93668638  0.36801097  0.49982819  1
  H  H21  1  0.93667961  0.13181240  0.63198800  1
  H  H22  1  0.93668961  0.50016965  0.86818107  1
  H  H23  1  0.93668961  0.13181893  0.49983035  1
  H  H24  1  0.93668638  0.50017181  0.63198903  1
  H  H25  1  0.93667961  0.36801200  0.86818760  1
  H  H26  1  0.56326928  0.36786235  0.49989808  1
  H  H27  1  0.56327580  0.13203107  0.63213643  1
  H  H28  1  0.56326617  0.50010003  0.86796294  1
  H  H29  1  0.56326617  0.13203706  0.49989997  1
  H  H30  1  0.56326928  0.50010192  0.63213765  1
  H  H31  1  0.56327580  0.36786357  0.86796893  1
  H  H32  1  0.43668638  0.63198903  0.50017181  1
  H  H33  1  0.43667961  0.86818760  0.36801200  1
  H  H34  1  0.43668961  0.49983035  0.13181893  1
  H  H35  1  0.43668961  0.86818107  0.50016965  1
  H  H36  1  0.43668638  0.49982819  0.36801097  1
  H  H37  1  0.43667961  0.63198800  0.13181240  1
  Br  Br38  1  0.25632941  0.86727047  0.73453543  1
  Br  Br39  1  0.25633278  0.86726603  0.13273397  1
  Br  Br40  1  0.25632941  0.26546457  0.13272953  1
  Br  Br41  1  0.75632941  0.13272953  0.26546457  1
  Br  Br42  1  0.75633278  0.13273397  0.86726603  1
  Br  Br43  1  0.75632941  0.73453543  0.86727047  1
  O  O44  1  0.98996504  0.58046277  0.16092028  1
  O  O45  1  0.98996630  0.58046294  0.41953706  1
  O  O46  1  0.98996504  0.83907972  0.41953723  1
  O  O47  1  0.00954845  0.41949400  0.83899216  1
  O  O48  1  0.00954662  0.41949348  0.58050652  1
  O  O49  1  0.00954845  0.16100784  0.58050600  1
  O  O50  1  0.48996504  0.41953723  0.83907972  1
  O  O51  1  0.48996630  0.41953706  0.58046294  1
  O  O52  1  0.48996504  0.16092028  0.58046277  1
  O  O53  1  0.50954845  0.58050600  0.16100784  1
  O  O54  1  0.50954662  0.58050652  0.41949348  1
  O  O55  1  0.50954845  0.83899216  0.41949400  1
  O  O56  1  0.74273719  0.78706504  0.57411701  1
  O  O57  1  0.74273752  0.78706119  0.21293881  1
  O  O58  1  0.74273719  0.42588299  0.21293496  1
  O  O59  1  0.24273719  0.21293496  0.42588299  1
  O  O60  1  0.24273752  0.21293881  0.78706119  1
  O  O61  1  0.24273719  0.57411701  0.78706504  1
  O  O62  1  0.24969520  0.92984357  0.63350499  1
  O  O63  1  0.24969643  0.70366257  0.07015796  1
  O  O64  1  0.24969652  0.36649445  0.29633645  1
  O  O65  1  0.24969652  0.70366355  0.63350555  1
  O  O66  1  0.24969520  0.36649501  0.07015643  1
  O  O67  1  0.24969643  0.92984204  0.29633743  1
  O  O68  1  0.74969520  0.07015643  0.36649501  1
  O  O69  1  0.74969643  0.29633743  0.92984204  1
  O  O70  1  0.74969652  0.63350555  0.70366355  1
  O  O71  1  0.74969652  0.29633645  0.36649445  1
  O  O72  1  0.74969520  0.63350499  0.92984357  1
  O  O73  1  0.74969643  0.07015796  0.70366257  1
  O  O74  1  0.04554167  0.90509261  0.81018164  1
  O  O75  1  0.04553937  0.90508958  0.09491042  1
  O  O76  1  0.04554167  0.18981836  0.09490739  1
  O  O77  1  0.54554167  0.09490739  0.18981836  1
  O  O78  1  0.54553937  0.09491042  0.90508958  1
  O  O79  1  0.54554167  0.81018164  0.90509261  1
