# generated using pymatgen
data_Sm4EuS5
_symmetry_space_group_name_H-M   'P 1'
_cell_length_a   4.04388300
_cell_length_b   4.04388300
_cell_length_c   16.47339468
_cell_angle_alpha   97.05025190
_cell_angle_beta   82.94974810
_cell_angle_gamma   120.00000000
_symmetry_Int_Tables_number   1
_chemical_formula_structural   Sm4EuS5
_chemical_formula_sum   'Sm4 Eu1 S5'
_cell_volume   230.94295225
_cell_formula_units_Z   1
loop_
 _symmetry_equiv_pos_site_id
 _symmetry_equiv_pos_as_xyz
  1  'x, y, z'
loop_
 _atom_site_type_symbol
 _atom_site_label
 _atom_site_symmetry_multiplicity
 _atom_site_fract_x
 _atom_site_fract_y
 _atom_site_fract_z
 _atom_site_occupancy
  Sm  Sm0  1  0.59821675  0.40178325  0.20534976  1
  Sm  Sm1  1  0.20081815  0.79918185  0.39754554  1
  Sm  Sm2  1  0.79918185  0.20081815  0.60245446  1
  Sm  Sm3  1  0.40178325  0.59821675  0.79465024  1
  Eu  Eu4  1  -0.00000000  -0.00000000  -0.00000000  1
  S  S5  1  0.70145896  0.29854104  0.89562311  1
  S  S6  1  0.50000000  0.50000000  0.50000000  1
  S  S7  1  0.10035807  0.89964193  0.69892579  1
  S  S8  1  0.29854104  0.70145896  0.10437689  1
  S  S9  1  0.89964193  0.10035807  0.30107421  1
