# generated using pymatgen
data_Re2Os(Se2Cl)2
_symmetry_space_group_name_H-M   'P 1'
_cell_length_a   9.08727453
_cell_length_b   9.07579681
_cell_length_c   12.17743440
_cell_angle_alpha   88.14298470
_cell_angle_beta   85.20622346
_cell_angle_gamma   63.37777385
_symmetry_Int_Tables_number   1
_chemical_formula_structural   Re2Os(Se2Cl)2
_chemical_formula_sum   'Re8 Os4 Se16 Cl8'
_cell_volume   894.69175785
_cell_formula_units_Z   4
loop_
 _symmetry_equiv_pos_site_id
 _symmetry_equiv_pos_as_xyz
  1  'x, y, z'
loop_
 _atom_site_type_symbol
 _atom_site_label
 _atom_site_symmetry_multiplicity
 _atom_site_fract_x
 _atom_site_fract_y
 _atom_site_fract_z
 _atom_site_occupancy
  Re  Re0  1  0.63231262  0.34881285  0.39104493  1
  Re  Re1  1  0.36768738  0.65118715  0.60895507  1
  Re  Re2  1  0.67329682  0.41771530  0.59086766  1
  Re  Re3  1  0.32670318  0.58228470  0.40913234  1
  Re  Re4  1  0.96114007  0.12333834  0.86992891  1
  Re  Re5  1  0.03885993  0.87666166  0.13007109  1
  Re  Re6  1  0.01081253  0.17286566  0.07206484  1
  Re  Re7  1  0.98918747  0.82713434  0.92793516  1
  Os  Os8  1  0.57146321  0.65535005  0.44086257  1
  Os  Os9  1  0.42853679  0.34464995  0.55913743  1
  Os  Os10  1  0.76906521  0.09350606  0.03742748  1
  Os  Os11  1  0.23093479  0.90649394  0.96257252  1
  Se  Se12  1  0.75461584  0.36828601  0.97926593  1
  Se  Se13  1  0.24538416  0.63171399  0.02073407  1
  Se  Se14  1  0.53032732  0.57833686  0.25212665  1
  Se  Se15  1  0.46967268  0.42166314  0.74787335  1
  Se  Se16  1  0.73448219  0.04074576  0.84267643  1
  Se  Se17  1  0.26551781  0.95925424  0.15732357  1
  Se  Se18  1  0.80610998  0.80950051  0.09036932  1
  Se  Se19  1  0.19389002  0.19049949  0.90963068  1
  Se  Se20  1  0.27503387  0.87083626  0.46169003  1
  Se  Se21  1  0.72496613  0.12916374  0.53830997  1
  Se  Se22  1  0.60872045  0.71313308  0.63434398  1
  Se  Se23  1  0.39127955  0.28686692  0.36565602  1
  Se  Se24  1  0.82365501  0.14017892  0.23044538  1
  Se  Se25  1  0.17634499  0.85982108  0.76955462  1
  Se  Se26  1  0.86112680  0.42559183  0.42714127  1
  Se  Se27  1  0.13887320  0.57440817  0.57285873  1
  Cl  Cl28  1  0.02869136  0.39101472  0.16220995  1
  Cl  Cl29  1  0.97130864  0.60898528  0.83779005  1
  Cl  Cl30  1  0.91886589  0.30035765  0.70187470  1
  Cl  Cl31  1  0.08113411  0.69964235  0.29812530  1
  Cl  Cl32  1  0.48040304  0.20836665  0.08362726  1
  Cl  Cl33  1  0.51959696  0.79163335  0.91637274  1
  Cl  Cl34  1  0.65370558  0.85430743  0.36814517  1
  Cl  Cl35  1  0.34629442  0.14569257  0.63185483  1
