# generated using pymatgen
data_Sm2CoNiO6
_symmetry_space_group_name_H-M   'P 1'
_cell_length_a   5.34635120
_cell_length_b   5.61115403
_cell_length_c   7.68680933
_cell_angle_alpha   90.00000000
_cell_angle_beta   90.50391223
_cell_angle_gamma   90.00000000
_symmetry_Int_Tables_number   1
_chemical_formula_structural   Sm2CoNiO6
_chemical_formula_sum   'Sm4 Co2 Ni2 O12'
_cell_volume   230.58921263
_cell_formula_units_Z   2
loop_
 _symmetry_equiv_pos_site_id
 _symmetry_equiv_pos_as_xyz
  1  'x, y, z'
loop_
 _atom_site_type_symbol
 _atom_site_label
 _atom_site_symmetry_multiplicity
 _atom_site_fract_x
 _atom_site_fract_y
 _atom_site_fract_z
 _atom_site_occupancy
  Sm  Sm0  1  0.51507100  0.56535585  0.24825457  1
  Sm  Sm1  1  0.98492900  0.06535585  0.25174543  1
  Sm  Sm2  1  0.48492900  0.43464415  0.75174543  1
  Sm  Sm3  1  0.01507100  0.93464415  0.74825457  1
  Co  Co4  1  0.00000000  0.50000000  0.50000000  1
  Co  Co5  1  0.50000000  0.00000000  -0.00000000  1
  Ni  Ni6  1  0.00000000  0.50000000  -0.00000000  1
  Ni  Ni7  1  0.50000000  0.00000000  0.50000000  1
  O  O8  1  0.40677074  0.97339531  0.24903514  1
  O  O9  1  0.09322926  0.47339531  0.25096486  1
  O  O10  1  0.59322926  0.02660469  0.75096486  1
  O  O11  1  0.90677074  0.52660469  0.74903514  1
  O  O12  1  0.78500358  0.80738751  0.04654310  1
  O  O13  1  0.71499642  0.30738751  0.45345690  1
  O  O14  1  0.19981095  0.20248776  0.54993523  1
  O  O15  1  0.30018905  0.70248776  0.95006477  1
  O  O16  1  0.21499642  0.19261249  0.95345690  1
  O  O17  1  0.28500358  0.69261249  0.54654310  1
  O  O18  1  0.80018905  0.79751224  0.45006477  1
  O  O19  1  0.69981095  0.29751224  0.04993523  1
