# generated using pymatgen
data_Re4(As2S)3
_symmetry_space_group_name_H-M   'P 1'
_cell_length_a   7.07043960
_cell_length_b   7.07043960
_cell_length_c   7.08908482
_cell_angle_alpha   90.00000000
_cell_angle_beta   60.08696593
_cell_angle_gamma   120.00000000
_symmetry_Int_Tables_number   1
_chemical_formula_structural   Re4(As2S)3
_chemical_formula_sum   'Re4 As6 S3'
_cell_volume   250.92136135
_cell_formula_units_Z   1
loop_
 _symmetry_equiv_pos_site_id
 _symmetry_equiv_pos_as_xyz
  1  'x, y, z'
loop_
 _atom_site_type_symbol
 _atom_site_label
 _atom_site_symmetry_multiplicity
 _atom_site_fract_x
 _atom_site_fract_y
 _atom_site_fract_z
 _atom_site_occupancy
  Re  Re0  1  0.19908449  0.59954225  0.20137326  1
  Re  Re1  1  0.80493909  0.60149082  0.59357009  1
  Re  Re2  1  0.80493909  0.20344827  0.59357009  1
  Re  Re3  1  0.20298164  0.60149082  0.59357009  1
  As  As4  1  0.99916554  0.99958277  0.00125169  1
  As  As5  1  0.71339790  0.85669895  0.42990315  1
  As  As6  1  0.28869736  0.85708940  0.85421324  1
  As  As7  1  0.28869736  0.43160797  0.85421324  1
  As  As8  1  0.71417880  0.85708940  0.85421324  1
  As  As9  1  0.72045289  0.36022644  0.91932067  1
  S  S10  1  0.26265662  0.36907630  0.36826709  1
  S  S11  1  0.26265662  0.89358032  0.36826709  1
  S  S12  1  0.73815259  0.36907630  0.36826709  1
