# generated using pymatgen
data_SiAg6HgSe6
_symmetry_space_group_name_H-M   'P 1'
_cell_length_a   8.03276407
_cell_length_b   7.75196020
_cell_length_c   11.34810390
_cell_angle_alpha   90.00000000
_cell_angle_beta   90.00000000
_cell_angle_gamma   90.00000000
_symmetry_Int_Tables_number   1
_chemical_formula_structural   SiAg6HgSe6
_chemical_formula_sum   'Si2 Ag12 Hg2 Se12'
_cell_volume   706.64265509
_cell_formula_units_Z   2
loop_
 _symmetry_equiv_pos_site_id
 _symmetry_equiv_pos_as_xyz
  1  'x, y, z'
loop_
 _atom_site_type_symbol
 _atom_site_label
 _atom_site_symmetry_multiplicity
 _atom_site_fract_x
 _atom_site_fract_y
 _atom_site_fract_z
 _atom_site_occupancy
  Si  Si0  1  0.50000000  0.74691038  0.02928239  1
  Si  Si1  1  -0.00000000  0.25308962  0.52928239  1
  Ag  Ag2  1  0.50000000  0.39259416  0.53905032  1
  Ag  Ag3  1  -0.00000000  0.60740584  0.03905032  1
  Ag  Ag4  1  0.73462868  0.49070830  0.77030792  1
  Ag  Ag5  1  0.26537132  0.49070830  0.77030792  1
  Ag  Ag6  1  0.76537132  0.50929170  0.27030792  1
  Ag  Ag7  1  0.23462868  0.50929170  0.27030792  1
  Ag  Ag8  1  0.70889119  0.91334198  0.34754753  1
  Ag  Ag9  1  0.29110881  0.91334198  0.34754753  1
  Ag  Ag10  1  0.79110881  0.08665802  0.84754753  1
  Ag  Ag11  1  0.20889119  0.08665802  0.84754753  1
  Ag  Ag12  1  0.50000000  0.22327686  0.99902391  1
  Ag  Ag13  1  -0.00000000  0.77672314  0.49902391  1
  Hg  Hg14  1  0.50000000  0.96871644  0.64007191  1
  Hg  Hg15  1  -0.00000000  0.03128356  0.14007191  1
  Se  Se16  1  0.50000000  0.49608814  0.13672883  1
  Se  Se17  1  -0.00000000  0.50391186  0.63672883  1
  Se  Se18  1  0.76180135  0.24596730  0.41477516  1
  Se  Se19  1  0.23819865  0.24596730  0.41477516  1
  Se  Se20  1  0.73819865  0.75403270  0.91477516  1
  Se  Se21  1  0.26180135  0.75403270  0.91477516  1
  Se  Se22  1  0.50000000  0.24603890  0.76654288  1
  Se  Se23  1  -0.00000000  0.75396110  0.26654288  1
  Se  Se24  1  0.50000000  0.97646938  0.15612732  1
  Se  Se25  1  -0.00000000  0.02353062  0.65612732  1
  Se  Se26  1  0.50000000  0.73367656  0.48791121  1
  Se  Se27  1  -0.00000000  0.26632344  0.98791121  1
