# generated using pymatgen
data_Sm2P3Pt4
_symmetry_space_group_name_H-M   'P 1'
_cell_length_a   4.16666645
_cell_length_b   4.16666645
_cell_length_c   9.95869817
_cell_angle_alpha   77.92468116
_cell_angle_beta   77.92468116
_cell_angle_gamma   90.00000000
_symmetry_Int_Tables_number   1
_chemical_formula_structural   Sm2P3Pt4
_chemical_formula_sum   'Sm2 P3 Pt4'
_cell_volume   165.15435817
_cell_formula_units_Z   1
loop_
 _symmetry_equiv_pos_site_id
 _symmetry_equiv_pos_as_xyz
  1  'x, y, z'
loop_
 _atom_site_type_symbol
 _atom_site_label
 _atom_site_symmetry_multiplicity
 _atom_site_fract_x
 _atom_site_fract_y
 _atom_site_fract_z
 _atom_site_occupancy
  Sm  Sm0  1  0.37227196  0.37227196  0.25545608  1
  Sm  Sm1  1  0.62772804  0.62772804  0.74454392  1
  P  P2  1  0.07391289  0.07391289  0.85217421  1
  P  P3  1  0.92608711  0.92608711  0.14782579  1
  P  P4  1  0.25000000  0.75000000  0.50000000  1
  Pt  Pt5  1  0.19616502  0.19616502  0.60766996  1
  Pt  Pt6  1  0.80383498  0.80383498  0.39233004  1
  Pt  Pt7  1  0.00029982  0.50029982  0.99940036  1
  Pt  Pt8  1  0.49970018  0.99970018  0.00059964  1
