# generated using pymatgen
data_Sb3RhPb4O13
_symmetry_space_group_name_H-M   'P 1'
_cell_length_a   7.57758366
_cell_length_b   7.48363714
_cell_length_c   7.57758366
_cell_angle_alpha   90.00000000
_cell_angle_beta   60.00000000
_cell_angle_gamma   120.41614563
_symmetry_Int_Tables_number   1
_chemical_formula_structural   Sb3RhPb4O13
_chemical_formula_sum   'Sb3 Rh1 Pb4 O13'
_cell_volume   301.92469897
_cell_formula_units_Z   1
loop_
 _symmetry_equiv_pos_site_id
 _symmetry_equiv_pos_as_xyz
  1  'x, y, z'
loop_
 _atom_site_type_symbol
 _atom_site_label
 _atom_site_symmetry_multiplicity
 _atom_site_fract_x
 _atom_site_fract_y
 _atom_site_fract_z
 _atom_site_occupancy
  Sb  Sb0  1  0.50070549  0.50010911  0.49964726  1
  Sb  Sb1  1  0.99975637  0.50010911  0.00059637  1
  Sb  Sb2  1  0.99975637  0.50010911  0.49964726  1
  Rh  Rh3  1  0.50099928  0.00149892  0.49950036  1
  Pb  Pb4  1  0.50279375  0.50419063  0.99860312  1
  Pb  Pb5  1  0.50262163  0.99759930  0.99868918  1
  Pb  Pb6  1  0.99628848  0.99759930  0.50502234  1
  Pb  Pb7  1  0.99628848  0.99759930  0.99868918  1
  O  O8  1  0.65480029  0.82294602  0.42259985  1
  O  O9  1  0.85566250  0.42905189  0.82216875  1
  O  O10  1  0.24554588  0.82294602  0.83185427  1
  O  O11  1  0.25122063  0.42905189  0.42661062  1
  O  O12  1  0.25122063  0.42905189  0.82216875  1
  O  O13  1  0.24554588  0.82294602  0.42259985  1
  O  O14  1  0.35078430  0.17915880  0.57460785  1
  O  O15  1  0.14027841  0.56859972  0.17986080  1
  O  O16  1  0.75376665  0.17915880  0.17162550  1
  O  O17  1  0.74846052  0.56859972  0.57167868  1
  O  O18  1  0.74846052  0.56859972  0.17986080  1
  O  O19  1  0.75376665  0.17915880  0.57460785  1
  O  O20  1  0.25127728  0.12691592  0.12436136  1
