# generated using pymatgen
data_YMg14Cr
_symmetry_space_group_name_H-M   'P 1'
_cell_length_a   6.45464718
_cell_length_b   6.36858719
_cell_length_c   10.30317484
_cell_angle_alpha   90.00000000
_cell_angle_beta   90.00000000
_cell_angle_gamma   119.55992388
_symmetry_Int_Tables_number   1
_chemical_formula_structural   YMg14Cr
_chemical_formula_sum   'Y1 Mg14 Cr1'
_cell_volume   368.40554309
_cell_formula_units_Z   1
loop_
 _symmetry_equiv_pos_site_id
 _symmetry_equiv_pos_as_xyz
  1  'x, y, z'
loop_
 _atom_site_type_symbol
 _atom_site_label
 _atom_site_symmetry_multiplicity
 _atom_site_fract_x
 _atom_site_fract_y
 _atom_site_fract_z
 _atom_site_occupancy
  Y  Y0  1  0.16236936  0.33118418  0.12500000  1
  Mg  Mg1  1  0.16640611  0.33320256  0.62500000  1
  Mg  Mg2  1  0.16543905  0.83271903  0.62500000  1
  Mg  Mg3  1  0.65918791  0.32194263  0.12500000  1
  Mg  Mg4  1  0.66654079  0.33445529  0.62500000  1
  Mg  Mg5  1  0.65918791  0.83724428  0.12500000  1
  Mg  Mg6  1  0.66654079  0.83208450  0.62500000  1
  Mg  Mg7  1  0.33375000  0.16187488  0.37610580  1
  Mg  Mg8  1  0.33375000  0.16187488  0.87389420  1
  Mg  Mg9  1  0.33375000  0.67187612  0.37610580  1
  Mg  Mg10  1  0.33375000  0.67187612  0.87389420  1
  Mg  Mg11  1  0.83299259  0.16649680  0.38125972  1
  Mg  Mg12  1  0.83299259  0.16649680  0.86874028  1
  Mg  Mg13  1  0.84022407  0.67011253  0.36601270  1
  Mg  Mg14  1  0.84022407  0.67011253  0.88398730  1
  Cr  Cr15  1  0.17289475  0.83644688  0.12500000  1
