# generated using pymatgen
data_RbTiNbO5
_symmetry_space_group_name_H-M   'P 1'
_cell_length_a   3.85656767
_cell_length_b   6.52568235
_cell_length_c   19.38431429
_cell_angle_alpha   90.00000000
_cell_angle_beta   90.00000000
_cell_angle_gamma   90.00000000
_symmetry_Int_Tables_number   1
_chemical_formula_structural   RbTiNbO5
_chemical_formula_sum   'Rb4 Ti4 Nb4 O20'
_cell_volume   487.83991205
_cell_formula_units_Z   4
loop_
 _symmetry_equiv_pos_site_id
 _symmetry_equiv_pos_as_xyz
  1  'x, y, z'
loop_
 _atom_site_type_symbol
 _atom_site_label
 _atom_site_symmetry_multiplicity
 _atom_site_fract_x
 _atom_site_fract_y
 _atom_site_fract_z
 _atom_site_occupancy
  Rb  Rb0  1  0.75000000  0.70337853  0.30608305  1
  Rb  Rb1  1  0.75000000  0.20337853  0.19391695  1
  Rb  Rb2  1  0.25000000  0.29662147  0.69391695  1
  Rb  Rb3  1  0.25000000  0.79662147  0.80608305  1
  Ti  Ti4  1  0.75000000  0.18585167  0.53219632  1
  Ti  Ti5  1  0.75000000  0.68585167  0.96780368  1
  Ti  Ti6  1  0.25000000  0.81414833  0.46780368  1
  Ti  Ti7  1  0.25000000  0.31414833  0.03219632  1
  Nb  Nb8  1  0.75000000  0.73364740  0.60587675  1
  Nb  Nb9  1  0.75000000  0.23364740  0.89412325  1
  Nb  Nb10  1  0.25000000  0.26635260  0.39412325  1
  Nb  Nb11  1  0.25000000  0.76635260  0.10587675  1
  O  O12  1  0.75000000  0.25958719  0.42299134  1
  O  O13  1  0.75000000  0.75958719  0.07700866  1
  O  O14  1  0.25000000  0.74041281  0.57700866  1
  O  O15  1  0.25000000  0.24041281  0.92299134  1
  O  O16  1  0.75000000  0.66905041  0.69681722  1
  O  O17  1  0.75000000  0.16905041  0.80318278  1
  O  O18  1  0.25000000  0.33094959  0.30318278  1
  O  O19  1  0.25000000  0.83094959  0.19681722  1
  O  O20  1  0.75000000  0.03907145  0.61521819  1
  O  O21  1  0.75000000  0.53907145  0.88478181  1
  O  O22  1  0.25000000  0.96092855  0.38478181  1
  O  O23  1  0.25000000  0.46092855  0.11521819  1
  O  O24  1  0.75000000  0.43683877  0.56999847  1
  O  O25  1  0.75000000  0.93683877  0.93000153  1
  O  O26  1  0.25000000  0.56316123  0.43000153  1
  O  O27  1  0.25000000  0.06316123  0.06999847  1
  O  O28  1  0.75000000  0.85305374  0.49037183  1
  O  O29  1  0.75000000  0.35305374  0.00962817  1
  O  O30  1  0.25000000  0.14694626  0.50962817  1
  O  O31  1  0.25000000  0.64694626  0.99037183  1
