# generated using pymatgen
data_Pd4W
_symmetry_space_group_name_H-M   'P 1'
_cell_length_a   2.80061328
_cell_length_b   2.80061328
_cell_length_c   11.50603647
_cell_angle_alpha   90.00000000
_cell_angle_beta   96.99033495
_cell_angle_gamma   120.00000000
_symmetry_Int_Tables_number   1
_chemical_formula_structural   Pd4W
_chemical_formula_sum   'Pd4 W1'
_cell_volume   77.38048161
_cell_formula_units_Z   1
loop_
 _symmetry_equiv_pos_site_id
 _symmetry_equiv_pos_as_xyz
  1  'x, y, z'
loop_
 _atom_site_type_symbol
 _atom_site_label
 _atom_site_symmetry_multiplicity
 _atom_site_fract_x
 _atom_site_fract_y
 _atom_site_fract_z
 _atom_site_occupancy
  Pd  Pd0  1  0.79660447  0.39830224  0.19490671  1
  Pd  Pd1  1  0.59931535  0.79965768  0.39897303  1
  Pd  Pd2  1  0.40068465  0.20034232  0.60102697  1
  Pd  Pd3  1  0.20339553  0.60169776  0.80509329  1
  W  W4  1  0.00000000  0.00000000  -0.00000000  1
