# generated using pymatgen
data_Rb3Dy7Se12
_symmetry_space_group_name_H-M   'P 1'
_cell_length_a   4.15962759
_cell_length_b   12.70162448
_cell_length_c   26.23915329
_cell_angle_alpha   90.00000000
_cell_angle_beta   90.00000000
_cell_angle_gamma   90.00000000
_symmetry_Int_Tables_number   1
_chemical_formula_structural   Rb3Dy7Se12
_chemical_formula_sum   'Rb6 Dy14 Se24'
_cell_volume   1386.32014978
_cell_formula_units_Z   2
loop_
 _symmetry_equiv_pos_site_id
 _symmetry_equiv_pos_as_xyz
  1  'x, y, z'
loop_
 _atom_site_type_symbol
 _atom_site_label
 _atom_site_symmetry_multiplicity
 _atom_site_fract_x
 _atom_site_fract_y
 _atom_site_fract_z
 _atom_site_occupancy
  Rb  Rb0  1  0.50000000  0.78611150  0.13278755  1
  Rb  Rb1  1  0.50000000  0.20928475  0.86531266  1
  Rb  Rb2  1  -0.00000000  0.29071525  0.36531266  1
  Rb  Rb3  1  0.00000000  0.71388850  0.63278755  1
  Rb  Rb4  1  0.50000000  0.05893429  0.47169645  1
  Rb  Rb5  1  -0.00000000  0.44106571  0.97169645  1
  Dy  Dy6  1  0.50000000  0.90972512  0.78822766  1
  Dy  Dy7  1  0.50000000  0.09076469  0.21132590  1
  Dy  Dy8  1  -0.00000000  0.40923531  0.71132590  1
  Dy  Dy9  1  -0.00000000  0.59027488  0.28822766  1
  Dy  Dy10  1  0.50000000  0.57798073  0.81752903  1
  Dy  Dy11  1  0.50000000  0.42411748  0.18166709  1
  Dy  Dy12  1  0.00000000  0.07588252  0.68166709  1
  Dy  Dy13  1  -0.00000000  0.92201927  0.31752903  1
  Dy  Dy14  1  0.00000000  0.50072984  0.50002856  1
  Dy  Dy15  1  0.50000000  0.99927016  0.00002856  1
  Dy  Dy16  1  0.50000000  0.71802941  0.41720179  1
  Dy  Dy17  1  0.50000000  0.28199154  0.58401384  1
  Dy  Dy18  1  0.00000000  0.21800846  0.08401384  1
  Dy  Dy19  1  -0.00000000  0.78197059  0.91720179  1
  Se  Se20  1  0.50000000  0.92536904  0.67956622  1
  Se  Se21  1  0.50000000  0.07546003  0.32211252  1
  Se  Se22  1  -0.00000000  0.42453997  0.82211252  1
  Se  Se23  1  -0.00000000  0.57463096  0.17956622  1
  Se  Se24  1  0.50000000  0.65141486  0.51897353  1
  Se  Se25  1  0.50000000  0.34440113  0.48032714  1
  Se  Se26  1  0.00000000  0.15559887  0.98032714  1
  Se  Se27  1  -0.00000000  0.84858514  0.01897353  1
  Se  Se28  1  0.50000000  0.93270899  0.89661865  1
  Se  Se29  1  0.50000000  0.06634925  0.10346826  1
  Se  Se30  1  0.00000000  0.43365075  0.60346826  1
  Se  Se31  1  0.00000000  0.56729101  0.39661865  1
  Se  Se32  1  0.50000000  0.75461188  0.30402745  1
  Se  Se33  1  0.50000000  0.24569326  0.69621702  1
  Se  Se34  1  0.00000000  0.25430674  0.19621702  1
  Se  Se35  1  -0.00000000  0.74538812  0.80402745  1
  Se  Se36  1  0.50000000  0.55764804  0.71109572  1
  Se  Se37  1  0.50000000  0.44174973  0.28900496  1
  Se  Se38  1  -0.00000000  0.05825027  0.78900496  1
  Se  Se39  1  -0.00000000  0.94235196  0.21109572  1
  Se  Se40  1  0.50000000  0.62760965  0.92257607  1
  Se  Se41  1  0.50000000  0.37182344  0.07652193  1
  Se  Se42  1  -0.00000000  0.12817656  0.57652193  1
  Se  Se43  1  -0.00000000  0.87239035  0.42257607  1
