# generated using pymatgen
data_RbSO3F
_symmetry_space_group_name_H-M   'P 1'
_cell_length_a   6.23194350
_cell_length_b   7.74486538
_cell_length_c   9.06637202
_cell_angle_alpha   90.00000000
_cell_angle_beta   90.00000000
_cell_angle_gamma   90.00000000
_symmetry_Int_Tables_number   1
_chemical_formula_structural   RbSO3F
_chemical_formula_sum   'Rb4 S4 O12 F4'
_cell_volume   437.59355411
_cell_formula_units_Z   4
loop_
 _symmetry_equiv_pos_site_id
 _symmetry_equiv_pos_as_xyz
  1  'x, y, z'
loop_
 _atom_site_type_symbol
 _atom_site_label
 _atom_site_symmetry_multiplicity
 _atom_site_fract_x
 _atom_site_fract_y
 _atom_site_fract_z
 _atom_site_occupancy
  Rb  Rb0  1  0.25000000  0.34203899  0.82501991  1
  Rb  Rb1  1  0.25000000  0.15796101  0.32501991  1
  Rb  Rb2  1  0.75000000  0.65796101  0.17498009  1
  Rb  Rb3  1  0.75000000  0.84203899  0.67498009  1
  S  S4  1  0.25000000  0.80203357  0.93897250  1
  S  S5  1  0.25000000  0.69796643  0.43897250  1
  S  S6  1  0.75000000  0.19796643  0.06102750  1
  S  S7  1  0.75000000  0.30203357  0.56102750  1
  O  O8  1  0.05319267  0.70554345  0.91190126  1
  O  O9  1  0.44680733  0.79445655  0.41190126  1
  O  O10  1  0.55319267  0.29445655  0.08809874  1
  O  O11  1  0.94680733  0.20554345  0.58809874  1
  O  O12  1  0.94680733  0.29445655  0.08809874  1
  O  O13  1  0.55319267  0.20554345  0.58809874  1
  O  O14  1  0.44680733  0.70554345  0.91190126  1
  O  O15  1  0.05319267  0.79445655  0.41190126  1
  O  O16  1  0.25000000  0.91263989  0.06733001  1
  O  O17  1  0.25000000  0.58736011  0.56733001  1
  O  O18  1  0.75000000  0.08736011  0.93266999  1
  O  O19  1  0.75000000  0.41263989  0.43266999  1
  F  F20  1  0.25000000  0.94196516  0.80025830  1
  F  F21  1  0.25000000  0.55803484  0.30025830  1
  F  F22  1  0.75000000  0.05803484  0.19974170  1
  F  F23  1  0.75000000  0.44196516  0.69974170  1
