# generated using pymatgen
data_Rb4Sn21Hg2
_symmetry_space_group_name_H-M   'P 1'
_cell_length_a   12.50649978
_cell_length_b   12.49388532
_cell_length_c   12.50637620
_cell_angle_alpha   90.00000000
_cell_angle_beta   90.00299104
_cell_angle_gamma   90.00000000
_symmetry_Int_Tables_number   1
_chemical_formula_structural   Rb4Sn21Hg2
_chemical_formula_sum   'Rb8 Sn42 Hg4'
_cell_volume   1954.18098543
_cell_formula_units_Z   2
loop_
 _symmetry_equiv_pos_site_id
 _symmetry_equiv_pos_as_xyz
  1  'x, y, z'
loop_
 _atom_site_type_symbol
 _atom_site_label
 _atom_site_symmetry_multiplicity
 _atom_site_fract_x
 _atom_site_fract_y
 _atom_site_fract_z
 _atom_site_occupancy
  Rb  Rb0  1  0.50018419  0.50000000  0.49972193  1
  Rb  Rb1  1  0.99972345  0.00000000  0.00018260  1
  Rb  Rb2  1  0.99877905  0.75000212  0.49878205  1
  Rb  Rb3  1  0.25128031  0.50000000  0.00123272  1
  Rb  Rb4  1  0.50122849  0.00000000  0.75126589  1
  Rb  Rb5  1  0.99877905  0.24999788  0.49878205  1
  Rb  Rb6  1  0.74876358  0.50000000  0.00124798  1
  Rb  Rb7  1  0.50125448  0.00000000  0.24877330  1
  Sn  Sn8  1  0.38288110  0.80508657  0.49967788  1
  Sn  Sn9  1  0.19459220  0.50000000  0.61673094  1
  Sn  Sn10  1  0.50018882  0.61910875  0.80892725  1
  Sn  Sn11  1  0.62094316  0.18950466  0.49981517  1
  Sn  Sn12  1  0.81068739  0.50000000  0.37982416  1
  Sn  Sn13  1  0.50025897  0.38107585  0.19113596  1
  Sn  Sn14  1  0.80516592  0.50000000  0.61680426  1
  Sn  Sn15  1  0.50018882  0.38089125  0.80892725  1
  Sn  Sn16  1  0.18926466  0.50000000  0.37960357  1
  Sn  Sn17  1  0.50025897  0.61892415  0.19113596  1
  Sn  Sn18  1  0.62094316  0.81049534  0.49981517  1
  Sn  Sn19  1  0.38288110  0.19491343  0.49967788  1
  Sn  Sn20  1  0.30892713  0.88089147  0.00018871  1
  Sn  Sn21  1  0.99981220  0.68950101  0.12094243  1
  Sn  Sn22  1  0.11680494  0.00000000  0.30516688  1
  Sn  Sn23  1  0.69113646  0.11892399  0.00025870  1
  Sn  Sn24  1  0.99967768  0.30508670  0.88288059  1
  Sn  Sn25  1  0.87960190  0.00000000  0.68926731  1
  Sn  Sn26  1  0.99981220  0.31049899  0.12094243  1
  Sn  Sn27  1  0.87982343  0.00000000  0.31068840  1
  Sn  Sn28  1  0.99967768  0.69491330  0.88288059  1
  Sn  Sn29  1  0.11673053  0.00000000  0.69459024  1
  Sn  Sn30  1  0.30892713  0.11910853  0.00018871  1
  Sn  Sn31  1  0.69113646  0.88107601  0.00025870  1
  Sn  Sn32  1  0.31753561  0.68282241  0.68379483  1
  Sn  Sn33  1  0.68128898  0.31818398  0.31831744  1
  Sn  Sn34  1  0.68131003  0.31693193  0.68281376  1
  Sn  Sn35  1  0.31754524  0.68187675  0.31716302  1
  Sn  Sn36  1  0.68128898  0.68181602  0.31831744  1
  Sn  Sn37  1  0.31753561  0.31717759  0.68379483  1
  Sn  Sn38  1  0.31754524  0.31812325  0.31716302  1
  Sn  Sn39  1  0.68131003  0.68306807  0.68281376  1
  Sn  Sn40  1  0.18281353  0.81693134  0.18130970  1
  Sn  Sn41  1  0.81716362  0.18187697  0.81754525  1
  Sn  Sn42  1  0.81831787  0.18181660  0.18128911  1
  Sn  Sn43  1  0.18379448  0.81717771  0.81753534  1
  Sn  Sn44  1  0.18379448  0.18282229  0.81753534  1
  Sn  Sn45  1  0.81831787  0.81818340  0.18128911  1
  Sn  Sn46  1  0.81716362  0.81812303  0.81754525  1
  Sn  Sn47  1  0.18281353  0.18306866  0.18130970  1
  Sn  Sn48  1  0.24978968  0.00000000  0.50027123  1
  Sn  Sn49  1  0.00027142  0.50000000  0.74978921  1
  Hg  Hg50  1  0.49988921  0.74999946  0.99988901  1
  Hg  Hg51  1  0.75019156  0.00000000  0.50011685  1
  Hg  Hg52  1  0.00011560  0.50000000  0.25019012  1
  Hg  Hg53  1  0.49988921  0.25000054  0.99988901  1
