# generated using pymatgen
data_RbNbWO6
_symmetry_space_group_name_H-M   'P 1'
_cell_length_a   7.45682560
_cell_length_b   7.48050408
_cell_length_c   7.41220305
_cell_angle_alpha   90.00000000
_cell_angle_beta   60.19775649
_cell_angle_gamma   120.10509743
_symmetry_Int_Tables_number   1
_chemical_formula_structural   RbNbWO6
_chemical_formula_sum   'Rb2 Nb2 W2 O12'
_cell_volume   292.76640508
_cell_formula_units_Z   2
loop_
 _symmetry_equiv_pos_site_id
 _symmetry_equiv_pos_as_xyz
  1  'x, y, z'
loop_
 _atom_site_type_symbol
 _atom_site_label
 _atom_site_symmetry_multiplicity
 _atom_site_fract_x
 _atom_site_fract_y
 _atom_site_fract_z
 _atom_site_occupancy
  Rb  Rb0  1  0.75212121  0.37606060  0.37393940  1
  Rb  Rb1  1  0.24787879  0.62393940  0.62606060  1
  Nb  Nb2  1  0.50000000  0.50000000  0.00000000  1
  Nb  Nb3  1  0.50000000  0.00000000  -0.00000000  1
  W  W4  1  -0.00000000  0.00000000  0.50000000  1
  W  W5  1  -0.00000000  0.00000000  -0.00000000  1
  O  O6  1  0.88206946  0.94103473  0.30896527  1
  O  O7  1  0.62736337  0.31368169  0.93631831  1
  O  O8  1  0.24556577  0.94027475  0.93685593  1
  O  O9  1  0.24556577  0.30529103  0.31757829  1
  O  O10  1  0.24556577  0.30529103  0.93685593  1
  O  O11  1  0.24556577  0.94027475  0.31757829  1
  O  O12  1  0.11793054  0.05896527  0.69103473  1
  O  O13  1  0.37263663  0.68631831  0.06368169  1
  O  O14  1  0.75443423  0.05972525  0.06314407  1
  O  O15  1  0.75443423  0.69470897  0.68242171  1
  O  O16  1  0.75443423  0.69470897  0.06314407  1
  O  O17  1  0.75443423  0.05972525  0.68242171  1
