# generated using pymatgen
data_Sr2Mg
_symmetry_space_group_name_H-M   'P 1'
_cell_length_a   4.25728672
_cell_length_b   4.25728601
_cell_length_c   17.37582864
_cell_angle_alpha   90.00000000
_cell_angle_beta   90.00000000
_cell_angle_gamma   119.99999450
_symmetry_Int_Tables_number   1
_chemical_formula_structural   Sr2Mg
_chemical_formula_sum   'Sr4 Mg2'
_cell_volume   272.73564932
_cell_formula_units_Z   2
loop_
 _symmetry_equiv_pos_site_id
 _symmetry_equiv_pos_as_xyz
  1  'x, y, z'
loop_
 _atom_site_type_symbol
 _atom_site_label
 _atom_site_symmetry_multiplicity
 _atom_site_fract_x
 _atom_site_fract_y
 _atom_site_fract_z
 _atom_site_occupancy
  Sr  Sr0  1  0.33333300  0.66666700  -0.00000000  1
  Sr  Sr1  1  0.66666700  0.33333300  0.80008008  1
  Sr  Sr2  1  0.66666700  0.33333300  0.50000000  1
  Sr  Sr3  1  0.66666700  0.33333300  0.19991992  1
  Mg  Mg4  1  0.33333300  0.66666700  0.64950976  1
  Mg  Mg5  1  0.33333300  0.66666700  0.35049024  1
