# generated using pymatgen
data_Hg5N3O11
_symmetry_space_group_name_H-M   'P 1'
_cell_length_a   8.19614524
_cell_length_b   9.18047669
_cell_length_c   10.16421246
_cell_angle_alpha   109.69981363
_cell_angle_beta   99.66407410
_cell_angle_gamma   93.95325647
_symmetry_Int_Tables_number   1
_chemical_formula_structural   Hg5N3O11
_chemical_formula_sum   'Hg10 N6 O22'
_cell_volume   703.29803444
_cell_formula_units_Z   2
loop_
 _symmetry_equiv_pos_site_id
 _symmetry_equiv_pos_as_xyz
  1  'x, y, z'
loop_
 _atom_site_type_symbol
 _atom_site_label
 _atom_site_symmetry_multiplicity
 _atom_site_fract_x
 _atom_site_fract_y
 _atom_site_fract_z
 _atom_site_occupancy
  Hg  Hg0  1  0.65489896  0.76369729  0.25803067  1
  Hg  Hg1  1  0.34510104  0.23630271  0.74196933  1
  Hg  Hg2  1  0.71996181  0.05623188  0.28746943  1
  Hg  Hg3  1  0.28003819  0.94376812  0.71253057  1
  Hg  Hg4  1  0.60244415  0.43215881  0.41865596  1
  Hg  Hg5  1  0.39755585  0.56784119  0.58134404  1
  Hg  Hg6  1  0.73187890  0.36269424  0.09431540  1
  Hg  Hg7  1  0.26812110  0.63730576  0.90568460  1
  Hg  Hg8  1  0.83673657  0.15400488  0.89003586  1
  Hg  Hg9  1  0.16326343  0.84599512  0.10996414  1
  N  N10  1  0.27651818  0.20424754  0.06828267  1
  N  N11  1  0.72348182  0.79575246  0.93171733  1
  N  N12  1  0.90922776  0.36660246  0.68635100  1
  N  N13  1  0.09077224  0.63339754  0.31364900  1
  N  N14  1  0.20008584  0.12334150  0.39182419  1
  N  N15  1  0.79991416  0.87665850  0.60817581  1
  O  O16  1  0.76723217  0.29126051  0.30070874  1
  O  O17  1  0.23276783  0.70873949  0.69929126  1
  O  O18  1  0.58403000  0.52349835  0.21437734  1
  O  O19  1  0.41597000  0.47650165  0.78562266  1
  O  O20  1  0.15870718  0.09344130  0.99505783  1
  O  O21  1  0.84129282  0.90655870  0.00494217  1
  O  O22  1  0.40342544  0.17519352  0.13837024  1
  O  O23  1  0.59657456  0.82480648  0.86162976  1
  O  O24  1  0.26338325  0.33919098  0.06569305  1
  O  O25  1  0.73661675  0.66080902  0.93430695  1
  O  O26  1  0.92083582  0.47749627  0.64140220  1
  O  O27  1  0.07916418  0.52250373  0.35859780  1
  O  O28  1  0.02244415  0.36320077  0.78822977  1
  O  O29  1  0.97755585  0.63679923  0.21177023  1
  O  O30  1  0.78779146  0.25902233  0.63385273  1
  O  O31  1  0.21220854  0.74097767  0.36614727  1
  O  O32  1  0.08322251  0.04493370  0.27936576  1
  O  O33  1  0.91677749  0.95506630  0.72063424  1
  O  O34  1  0.34516877  0.08916777  0.39928083  1
  O  O35  1  0.65483123  0.91083223  0.60071917  1
  O  O36  1  0.15645931  0.23087481  0.48811424  1
  O  O37  1  0.84354069  0.76912519  0.51188576  1
