# generated using pymatgen
data_Nd2CuSi3Rh2
_symmetry_space_group_name_H-M   'P 1'
_cell_length_a   4.13288937
_cell_length_b   4.10339950
_cell_length_c   8.82925131
_cell_angle_alpha   90.00000000
_cell_angle_beta   76.46464738
_cell_angle_gamma   90.00000000
_symmetry_Int_Tables_number   1
_chemical_formula_structural   Nd2CuSi3Rh2
_chemical_formula_sum   'Nd2 Cu1 Si3 Rh2'
_cell_volume   145.57558856
_cell_formula_units_Z   1
loop_
 _symmetry_equiv_pos_site_id
 _symmetry_equiv_pos_as_xyz
  1  'x, y, z'
loop_
 _atom_site_type_symbol
 _atom_site_label
 _atom_site_symmetry_multiplicity
 _atom_site_fract_x
 _atom_site_fract_y
 _atom_site_fract_z
 _atom_site_occupancy
  Nd  Nd0  1  0.10242211  0.75000000  0.79515579  1
  Nd  Nd1  1  0.89745843  0.25000000  0.20508314  1
  Cu  Cu2  1  0.46549536  0.75000000  0.06900929  1
  Si  Si3  1  0.53366532  0.25000000  0.93266937  1
  Si  Si4  1  0.32481796  0.75000000  0.35036408  1
  Si  Si5  1  0.67592806  0.25000000  0.64814388  1
  Rh  Rh6  1  0.75016743  0.75000000  0.49966514  1
  Rh  Rh7  1  0.25004534  0.25000000  0.49990932  1
