# generated using pymatgen
data_Nd3Bi(Ru2O7)2
_symmetry_space_group_name_H-M   'P 1'
_cell_length_a   7.41307522
_cell_length_b   7.41307522
_cell_length_c   7.36950307
_cell_angle_alpha   90.00000000
_cell_angle_beta   59.80422274
_cell_angle_gamma   120.00000000
_symmetry_Int_Tables_number   1
_chemical_formula_structural   Nd3Bi(Ru2O7)2
_chemical_formula_sum   'Nd3 Bi1 Ru4 O14'
_cell_volume   285.51472421
_cell_formula_units_Z   1
loop_
 _symmetry_equiv_pos_site_id
 _symmetry_equiv_pos_as_xyz
  1  'x, y, z'
loop_
 _atom_site_type_symbol
 _atom_site_label
 _atom_site_symmetry_multiplicity
 _atom_site_fract_x
 _atom_site_fract_y
 _atom_site_fract_z
 _atom_site_occupancy
  Nd  Nd0  1  0.25000000  0.37500000  0.37500000  1
  Nd  Nd1  1  0.25000000  0.87500000  0.37500000  1
  Nd  Nd2  1  0.75000000  0.37500000  0.37500000  1
  Bi  Bi3  1  0.75000000  0.37500000  0.87500000  1
  Ru  Ru4  1  0.75000000  0.87500000  0.37500000  1
  Ru  Ru5  1  0.25000000  0.87500000  0.87500000  1
  Ru  Ru6  1  0.25000000  0.37500000  0.87500000  1
  Ru  Ru7  1  0.75000000  0.87500000  0.87500000  1
  O  O8  1  0.91095288  0.95547644  0.54477827  1
  O  O9  1  0.49974529  0.54426885  0.54477827  1
  O  O10  1  0.49974529  0.95547644  0.54477827  1
  O  O11  1  0.09464791  0.54732396  0.94972039  1
  O  O12  1  0.50295565  0.95563169  0.94972039  1
  O  O13  1  0.50295565  0.54732396  0.94972039  1
  O  O14  1  0.58904712  0.79452356  0.20522173  1
  O  O15  1  0.00025471  0.20573115  0.20522173  1
  O  O16  1  0.00025471  0.79452356  0.20522173  1
  O  O17  1  0.40535209  0.20267604  0.80027961  1
  O  O18  1  0.99704435  0.79436831  0.80027961  1
  O  O19  1  0.99704435  0.20267604  0.80027961  1
  O  O20  1  0.49886266  0.24943133  0.25170602  1
  O  O21  1  0.00113734  0.50056867  0.49829398  1
