# generated using pymatgen
data_Nd2VFeO6
_symmetry_space_group_name_H-M   'P 1'
_cell_length_a   5.50020516
_cell_length_b   5.69966829
_cell_length_c   7.86722397
_cell_angle_alpha   90.00000000
_cell_angle_beta   90.21521862
_cell_angle_gamma   90.00000000
_symmetry_Int_Tables_number   1
_chemical_formula_structural   Nd2VFeO6
_chemical_formula_sum   'Nd4 V2 Fe2 O12'
_cell_volume   246.63057808
_cell_formula_units_Z   2
loop_
 _symmetry_equiv_pos_site_id
 _symmetry_equiv_pos_as_xyz
  1  'x, y, z'
loop_
 _atom_site_type_symbol
 _atom_site_label
 _atom_site_symmetry_multiplicity
 _atom_site_fract_x
 _atom_site_fract_y
 _atom_site_fract_z
 _atom_site_occupancy
  Nd  Nd0  1  0.48604357  0.55564545  0.25044133  1
  Nd  Nd1  1  0.01395643  0.05564545  0.24955867  1
  Nd  Nd2  1  0.51395643  0.44435455  0.74955867  1
  Nd  Nd3  1  0.98604357  0.94435455  0.75044133  1
  V  V4  1  0.00000000  0.50000000  0.50000000  1
  V  V5  1  0.50000000  0.00000000  -0.00000000  1
  Fe  Fe6  1  0.00000000  0.50000000  -0.00000000  1
  Fe  Fe7  1  0.50000000  0.00000000  0.50000000  1
  O  O8  1  0.70341445  0.70274539  0.94928072  1
  O  O9  1  0.79658555  0.20274539  0.55071928  1
  O  O10  1  0.29760099  0.29578330  0.45044966  1
  O  O11  1  0.20239901  0.79578330  0.04955034  1
  O  O12  1  0.29658555  0.29725461  0.05071928  1
  O  O13  1  0.20341445  0.79725461  0.44928072  1
  O  O14  1  0.70239901  0.70421670  0.54955034  1
  O  O15  1  0.79760099  0.20421670  0.95044966  1
  O  O16  1  0.90560691  0.47294209  0.24821500  1
  O  O17  1  0.59439309  0.97294209  0.25178500  1
  O  O18  1  0.09439309  0.52705791  0.75178500  1
  O  O19  1  0.40560691  0.02705791  0.74821500  1
