# generated using pymatgen
data_Nd14Zn43Sn3
_symmetry_space_group_name_H-M   'P 1'
_cell_length_a   4.47243114
_cell_length_b   15.48671440
_cell_length_c   17.32340739
_cell_angle_alpha   90.11673951
_cell_angle_beta   90.00000000
_cell_angle_gamma   90.00000000
_symmetry_Int_Tables_number   1
_chemical_formula_structural   Nd14Zn43Sn3
_chemical_formula_sum   'Nd14 Zn43 Sn3'
_cell_volume   1199.87324403
_cell_formula_units_Z   1
loop_
 _symmetry_equiv_pos_site_id
 _symmetry_equiv_pos_as_xyz
  1  'x, y, z'
loop_
 _atom_site_type_symbol
 _atom_site_label
 _atom_site_symmetry_multiplicity
 _atom_site_fract_x
 _atom_site_fract_y
 _atom_site_fract_z
 _atom_site_occupancy
  Nd  Nd0  1  0.50000000  0.66810663  0.31856889  1
  Nd  Nd1  1  0.50000000  0.33015392  0.68139556  1
  Nd  Nd2  1  0.50000000  0.17012031  0.18176032  1
  Nd  Nd3  1  0.50000000  0.83085936  0.81767746  1
  Nd  Nd4  1  0.50000000  0.91434157  0.24637407  1
  Nd  Nd5  1  0.50000000  0.08463587  0.75448336  1
  Nd  Nd6  1  0.50000000  0.41488772  0.25535428  1
  Nd  Nd7  1  0.50000000  0.58532036  0.74575723  1
  Nd  Nd8  1  -0.00000000  0.66237315  0.04404821  1
  Nd  Nd9  1  -0.00000000  0.33774725  0.95637995  1
  Nd  Nd10  1  0.00000000  0.16346766  0.45560360  1
  Nd  Nd11  1  -0.00000000  0.83719130  0.54382901  1
  Nd  Nd12  1  0.50000000  0.49969382  0.49934379  1
  Nd  Nd13  1  0.50000000  0.00018988  0.99938785  1
  Zn  Zn14  1  -0.00000000  0.80474867  0.35819505  1
  Zn  Zn15  1  -0.00000000  0.19492500  0.64149932  1
  Zn  Zn16  1  -0.00000000  0.30505204  0.14173922  1
  Zn  Zn17  1  -0.00000000  0.69499156  0.85833130  1
  Zn  Zn18  1  -0.00000000  0.85451867  0.09795037  1
  Zn  Zn19  1  -0.00000000  0.14564132  0.90196632  1
  Zn  Zn20  1  -0.00000000  0.36224175  0.40032885  1
  Zn  Zn21  1  -0.00000000  0.64610119  0.59755702  1
  Zn  Zn22  1  -0.00000000  0.57597280  0.21573328  1
  Zn  Zn23  1  -0.00000000  0.42170291  0.78887079  1
  Zn  Zn24  1  0.00000000  0.07879994  0.28906991  1
  Zn  Zn25  1  0.00000000  0.92162451  0.71094413  1
  Zn  Zn26  1  -0.00000000  0.75610329  0.21892761  1
  Zn  Zn27  1  0.00000000  0.24360409  0.78122247  1
  Zn  Zn28  1  0.00000000  0.25713577  0.28139869  1
  Zn  Zn29  1  -0.00000000  0.74337361  0.71917706  1
  Zn  Zn30  1  0.00000000  0.65327337  0.44684315  1
  Zn  Zn31  1  0.00000000  0.34167531  0.54957366  1
  Zn  Zn32  1  -0.00000000  0.15810769  0.05042346  1
  Zn  Zn33  1  0.00000000  0.84188425  0.94945792  1
  Zn  Zn34  1  0.50000000  0.57267582  0.14084503  1
  Zn  Zn35  1  0.50000000  0.42719039  0.85923286  1
  Zn  Zn36  1  0.50000000  0.07319062  0.35997298  1
  Zn  Zn37  1  0.50000000  0.92679177  0.64077735  1
  Zn  Zn38  1  0.50000000  0.74819038  0.14652188  1
  Zn  Zn39  1  0.50000000  0.25126288  0.85335569  1
  Zn  Zn40  1  0.50000000  0.24793605  0.35308072  1
  Zn  Zn41  1  0.50000000  0.75157170  0.64674077  1
  Zn  Zn42  1  -0.00000000  0.96594162  0.40168768  1
  Zn  Zn43  1  -0.00000000  0.03398412  0.59849796  1
  Zn  Zn44  1  -0.00000000  0.46690993  0.09867563  1
  Zn  Zn45  1  -0.00000000  0.53428511  0.90163770  1
  Zn  Zn46  1  0.50000000  0.85136141  0.41885839  1
  Zn  Zn47  1  0.50000000  0.14841124  0.58073775  1
  Zn  Zn48  1  0.50000000  0.35137095  0.08126828  1
  Zn  Zn49  1  0.50000000  0.64847074  0.91962492  1
  Zn  Zn50  1  0.50000000  0.49995106  0.00014889  1
  Zn  Zn51  1  0.50000000  0.99986730  0.50007958  1
  Zn  Zn52  1  0.50000000  0.79850846  0.00651204  1
  Zn  Zn53  1  0.50000000  0.20103576  0.99329103  1
  Zn  Zn54  1  0.50000000  0.29872806  0.49278512  1
  Zn  Zn55  1  0.50000000  0.70035713  0.50622594  1
  Zn  Zn56  1  -0.00000000  0.51957554  0.35775021  1
  Sn  Sn57  1  0.00000000  0.48169439  0.64180036  1
  Sn  Sn58  1  -0.00000000  0.01838946  0.14258298  1
  Sn  Sn59  1  0.00000000  0.98178157  0.85813511  1
