# generated using pymatgen
data_Nd9Ga5S21
_symmetry_space_group_name_H-M   'P 1'
_cell_length_a   11.75443373
_cell_length_b   11.75446207
_cell_length_c   11.75447317
_cell_angle_alpha   95.35677681
_cell_angle_beta   84.64323971
_cell_angle_gamma   84.64337044
_symmetry_Int_Tables_number   1
_chemical_formula_structural   Nd9Ga5S21
_chemical_formula_sum   'Nd18 Ga10 S42'
_cell_volume   1601.36884003
_cell_formula_units_Z   2
loop_
 _symmetry_equiv_pos_site_id
 _symmetry_equiv_pos_as_xyz
  1  'x, y, z'
loop_
 _atom_site_type_symbol
 _atom_site_label
 _atom_site_symmetry_multiplicity
 _atom_site_fract_x
 _atom_site_fract_y
 _atom_site_fract_z
 _atom_site_occupancy
  Nd  Nd0  1  0.25763512  0.11553963  0.87970913  1
  Nd  Nd1  1  0.91698437  0.45811504  0.22536348  1
  Nd  Nd2  1  0.59741933  0.77702182  0.55056331  1
  Nd  Nd3  1  0.44943180  0.40257447  0.77702393  1
  Nd  Nd4  1  0.12029156  0.74236090  0.11553728  1
  Nd  Nd5  1  0.77463837  0.08300762  0.45811636  1
  Nd  Nd6  1  0.54188449  0.22536161  0.08301435  1
  Nd  Nd7  1  0.22298110  0.55056274  0.40258244  1
  Nd  Nd8  1  0.88445925  0.87970754  0.74236428  1
  Nd  Nd9  1  0.41673880  0.20978643  0.44102895  1
  Nd  Nd10  1  0.07110371  0.55343989  0.78542369  1
  Nd  Nd11  1  0.75029771  0.87542602  0.10803012  1
  Nd  Nd12  1  0.21457456  0.92889493  0.55343410  1
  Nd  Nd13  1  0.89197513  0.24970038  0.87541903  1
  Nd  Nd14  1  0.55897710  0.58325762  0.20977957  1
  Nd  Nd15  1  0.12456714  0.10803060  0.24969746  1
  Nd  Nd16  1  0.79021349  0.44103072  0.58325951  1
  Nd  Nd17  1  0.44656037  0.78543105  0.92889634  1
  Ga  Ga18  1  0.94722688  0.72403596  0.39081502  1
  Ga  Ga19  1  0.60918956  0.05277523  0.72404059  1
  Ga  Ga20  1  0.27596495  0.39081178  0.05277651  1
  Ga  Ga21  1  0.44637794  0.88806692  0.22599343  1
  Ga  Ga22  1  0.11193366  0.22599778  0.55362018  1
  Ga  Ga23  1  0.77400278  0.55362464  0.88806653  1
  Ga  Ga24  1  0.14531245  0.85468821  0.85468542  1
  Ga  Ga25  1  0.84554766  0.15444909  0.15444758  1
  Ga  Ga26  1  0.34605776  0.65394717  0.65394363  1
  Ga  Ga27  1  0.64522548  0.35477464  0.35477713  1
  S  S28  1  0.98235885  0.54436418  0.44918860  1
  S  S29  1  0.64041971  0.87371021  0.78221940  1
  S  S30  1  0.30240891  0.20784326  0.10729833  1
  S  S31  1  0.89269999  0.69759013  0.20785049  1
  S  S32  1  0.55081370  0.01764193  0.54436898  1
  S  S33  1  0.21778456  0.35957866  0.87370908  1
  S  S34  1  0.12629205  0.78221449  0.35957576  1
  S  S35  1  0.79215442  0.10730101  0.69758916  1
  S  S36  1  0.45563601  0.44918918  0.01764333  1
  S  S37  1  0.52088151  0.96836392  0.06918278  1
  S  S38  1  0.18599919  0.30015199  0.39260523  1
  S  S39  1  0.84147817  0.63231388  0.72607514  1
  S  S40  1  0.60739334  0.81400076  0.30015160  1
  S  S41  1  0.27392130  0.15852278  0.63231456  1
  S  S42  1  0.93081559  0.47912399  0.96836191  1
  S  S43  1  0.36768794  0.72607377  0.15852299  1
  S  S44  1  0.03163682  0.06918514  0.47912266  1
  S  S45  1  0.69984832  0.39260606  0.81400740  1
  S  S46  1  0.82235153  0.84646578  0.51140834  1
  S  S47  1  0.48859370  0.17764640  0.84647160  1
  S  S48  1  0.15352949  0.51140320  0.17764874  1
  S  S49  1  0.65375697  0.67858158  0.01072704  1
  S  S50  1  0.32142147  0.01072683  0.34624131  1
  S  S51  1  0.98927484  0.34624497  0.67857866  1
  S  S52  1  0.69221233  0.55481450  0.40178947  1
  S  S53  1  0.33676306  0.89246884  0.75378422  1
  S  S54  1  0.00644975  0.23590159  0.09003380  1
  S  S55  1  0.90996105  0.99354638  0.23589937  1
  S  S56  1  0.59820618  0.30778912  0.55481458  1
  S  S57  1  0.24621199  0.66323305  0.89247045  1
  S  S58  1  0.10753286  0.75378776  0.66323189  1
  S  S59  1  0.76410236  0.09003699  0.99354538  1
  S  S60  1  0.44518598  0.40179073  0.30778882  1
  S  S61  1  0.62448085  0.14683801  0.28617147  1
  S  S62  1  0.27962101  0.47749938  0.62100629  1
  S  S63  1  0.96521486  0.78795383  0.94254578  1
  S  S64  1  0.37899902  0.72038054  0.47749713  1
  S  S65  1  0.05745277  0.03478640  0.78795228  1
  S  S66  1  0.71383131  0.37552301  0.14683619  1
  S  S67  1  0.21204728  0.94254499  0.03478486  1
  S  S68  1  0.85316170  0.28616869  0.37552584  1
  S  S69  1  0.52250068  0.62100567  0.72038374  1
