# generated using pymatgen
data_Nd5Sn15Rh8
_symmetry_space_group_name_H-M   'P 1'
_cell_length_a   4.53877676
_cell_length_b   7.31040568
_cell_length_c   18.75603765
_cell_angle_alpha   90.09472636
_cell_angle_beta   90.00000000
_cell_angle_gamma   90.00000000
_symmetry_Int_Tables_number   1
_chemical_formula_structural   Nd5Sn15Rh8
_chemical_formula_sum   'Nd5 Sn15 Rh8'
_cell_volume   622.33009425
_cell_formula_units_Z   1
loop_
 _symmetry_equiv_pos_site_id
 _symmetry_equiv_pos_as_xyz
  1  'x, y, z'
loop_
 _atom_site_type_symbol
 _atom_site_label
 _atom_site_symmetry_multiplicity
 _atom_site_fract_x
 _atom_site_fract_y
 _atom_site_fract_z
 _atom_site_occupancy
  Nd  Nd0  1  0.25000000  0.99775723  0.85591898  1
  Nd  Nd1  1  0.25000000  0.49953233  0.35732412  1
  Nd  Nd2  1  0.75000000  0.99885365  0.14357739  1
  Nd  Nd3  1  0.75000000  0.49992866  0.64176259  1
  Nd  Nd4  1  0.25000000  0.50423778  0.93058797  1
  Sn  Sn5  1  0.75000000  0.28173859  0.80702410  1
  Sn  Sn6  1  0.75000000  0.22141516  0.30497826  1
  Sn  Sn7  1  0.25000000  0.72279183  0.19406174  1
  Sn  Sn8  1  0.25000000  0.78130876  0.69407737  1
  Sn  Sn9  1  0.75000000  0.14546183  0.96921056  1
  Sn  Sn10  1  0.75000000  0.36738258  0.46844289  1
  Sn  Sn11  1  0.25000000  0.86597836  0.03215894  1
  Sn  Sn12  1  0.25000000  0.63366259  0.53057259  1
  Sn  Sn13  1  0.75000000  0.69594975  0.81970423  1
  Sn  Sn14  1  0.75000000  0.80160769  0.31758976  1
  Sn  Sn15  1  0.25000000  0.30340828  0.18449854  1
  Sn  Sn16  1  0.25000000  0.19344055  0.67949269  1
  Sn  Sn17  1  0.25000000  0.98206702  0.43268151  1
  Sn  Sn18  1  0.75000000  0.48847300  0.06736755  1
  Sn  Sn19  1  0.75000000  0.01731471  0.56849000  1
  Rh  Rh20  1  0.75000000  0.76958292  0.96597465  1
  Rh  Rh21  1  0.75000000  0.75287540  0.46426638  1
  Rh  Rh22  1  0.25000000  0.23463869  0.04414712  1
  Rh  Rh23  1  0.25000000  0.24826446  0.53372109  1
  Rh  Rh24  1  0.75000000  0.98150718  0.71603508  1
  Rh  Rh25  1  0.75000000  0.51773221  0.21318470  1
  Rh  Rh26  1  0.25000000  0.01481658  0.28855005  1
  Rh  Rh27  1  0.25000000  0.47827222  0.77459915  1
