# generated using pymatgen
data_NaNi2H3(SO5)2
_symmetry_space_group_name_H-M   'P 1'
_cell_length_a   5.36170463
_cell_length_b   5.36170463
_cell_length_c   7.44919787
_cell_angle_alpha   69.70985936
_cell_angle_beta   69.70985936
_cell_angle_gamma   71.67485744
_symmetry_Int_Tables_number   1
_chemical_formula_structural   NaNi2H3(SO5)2
_chemical_formula_sum   'Na1 Ni2 H3 S2 O10'
_cell_volume   183.75137823
_cell_formula_units_Z   1
loop_
 _symmetry_equiv_pos_site_id
 _symmetry_equiv_pos_as_xyz
  1  'x, y, z'
loop_
 _atom_site_type_symbol
 _atom_site_label
 _atom_site_symmetry_multiplicity
 _atom_site_fract_x
 _atom_site_fract_y
 _atom_site_fract_z
 _atom_site_occupancy
  Na  Na0  1  0.49837880  0.49837880  0.50111812  1
  Ni  Ni1  1  0.99686651  0.49751142  0.00076273  1
  Ni  Ni2  1  0.49751142  0.99686651  0.00076273  1
  H  H3  1  0.30047659  0.30047659  0.23554080  1
  H  H4  1  0.68583396  0.68583396  0.77139429  1
  H  H5  1  0.49311401  0.49311401  0.00777863  1
  S  S6  1  0.90408379  0.90408379  0.29061898  1
  S  S7  1  0.09083782  0.09083782  0.71148348  1
  O  O8  1  0.34302134  0.34302134  0.08925546  1
  O  O9  1  0.64978824  0.64978824  0.91643334  1
  O  O10  1  0.20726564  0.81623352  0.24527597  1
  O  O11  1  0.81623352  0.20726564  0.24527597  1
  O  O12  1  0.78755842  0.17911678  0.75735186  1
  O  O13  1  0.17911678  0.78755842  0.75735186  1
  O  O14  1  0.77693763  0.77693763  0.49730245  1
  O  O15  1  0.21741110  0.21741110  0.50477758  1
  O  O16  1  0.80686553  0.80686553  0.16027086  1
  O  O17  1  0.18869889  0.18869889  0.84124488  1
