# generated using pymatgen
data_MnNbH8(OF)5
_symmetry_space_group_name_H-M   'P 1'
_cell_length_a   5.95675221
_cell_length_b   7.64745472
_cell_length_c   10.70704336
_cell_angle_alpha   90.00000000
_cell_angle_beta   90.00000000
_cell_angle_gamma   108.48074757
_symmetry_Int_Tables_number   1
_chemical_formula_structural   MnNbH8(OF)5
_chemical_formula_sum   'Mn2 Nb2 H16 O10 F10'
_cell_volume   462.59548976
_cell_formula_units_Z   2
loop_
 _symmetry_equiv_pos_site_id
 _symmetry_equiv_pos_as_xyz
  1  'x, y, z'
loop_
 _atom_site_type_symbol
 _atom_site_label
 _atom_site_symmetry_multiplicity
 _atom_site_fract_x
 _atom_site_fract_y
 _atom_site_fract_z
 _atom_site_occupancy
  Mn  Mn0  1  0.49970057  0.99730021  0.00066949  1
  Mn  Mn1  1  0.50029943  0.50269979  0.50066949  1
  Nb  Nb2  1  0.98101424  0.47990947  0.00202211  1
  Nb  Nb3  1  0.01898576  0.02009053  0.50202211  1
  H  H4  1  0.25869171  0.20179755  0.13556165  1
  H  H5  1  0.74130829  0.29820245  0.63556165  1
  H  H6  1  0.74628614  0.79822418  0.86534898  1
  H  H7  1  0.25371386  0.70177582  0.36534898  1
  H  H8  1  0.29219535  0.21518982  0.85308613  1
  H  H9  1  0.70780465  0.28481018  0.35308613  1
  H  H10  1  0.70874200  0.78332305  0.14685753  1
  H  H11  1  0.29125800  0.71667695  0.64685753  1
  H  H12  1  0.25597852  0.03233171  0.22036149  1
  H  H13  1  0.74402148  0.46766829  0.72036149  1
  H  H14  1  0.73900634  0.96425474  0.77957269  1
  H  H15  1  0.26099366  0.53574526  0.27957269  1
  H  H16  1  0.27832921  0.03903918  0.77389478  1
  H  H17  1  0.72167079  0.46096082  0.27389478  1
  H  H18  1  0.71822164  0.95764322  0.22660192  1
  H  H19  1  0.28177836  0.54235678  0.72660192  1
  O  O20  1  0.26291554  0.07442449  0.13339646  1
  O  O21  1  0.73708446  0.42557551  0.63339646  1
  O  O22  1  0.73256116  0.92288486  0.86660336  1
  O  O23  1  0.26743884  0.57711514  0.36660336  1
  O  O24  1  0.36856961  0.11990526  0.84048232  1
  O  O25  1  0.63143039  0.38009474  0.34048232  1
  O  O26  1  0.62935289  0.87653268  0.15985459  1
  O  O27  1  0.37064711  0.62346732  0.65985459  1
  O  O28  1  0.76694528  0.26014814  0.02551875  1
  O  O29  1  0.23305472  0.23985186  0.52551875  1
  F  F30  1  0.14660596  0.40129050  0.86048299  1
  F  F31  1  0.85339404  0.09870950  0.36048299  1
  F  F32  1  0.85751849  0.59967748  0.14035551  1
  F  F33  1  0.14248151  0.90032252  0.64035551  1
  F  F34  1  0.21568014  0.43587423  0.12083443  1
  F  F35  1  0.78431986  0.06412577  0.62083443  1
  F  F36  1  0.78907462  0.56693945  0.87841911  1
  F  F37  1  0.21092538  0.93306055  0.37841911  1
  F  F38  1  0.23493773  0.74034567  0.97211272  1
  F  F39  1  0.76506227  0.75965433  0.47211272  1
