# generated using pymatgen
data_Na11TiNb2Si4P2O25F
_symmetry_space_group_name_H-M   'P 1'
_cell_length_a   5.57753060
_cell_length_b   7.24737781
_cell_length_c   14.66834809
_cell_angle_alpha   92.62877885
_cell_angle_beta   95.19067784
_cell_angle_gamma   90.66454408
_symmetry_Int_Tables_number   1
_chemical_formula_structural   Na11TiNb2Si4P2O25F
_chemical_formula_sum   'Na11 Ti1 Nb2 Si4 P2 O25 F1'
_cell_volume   589.80403954
_cell_formula_units_Z   1
loop_
 _symmetry_equiv_pos_site_id
 _symmetry_equiv_pos_as_xyz
  1  'x, y, z'
loop_
 _atom_site_type_symbol
 _atom_site_label
 _atom_site_symmetry_multiplicity
 _atom_site_fract_x
 _atom_site_fract_y
 _atom_site_fract_z
 _atom_site_occupancy
  Na  Na0  1  0.49242787  0.73809023  0.50167497  1
  Na  Na1  1  0.50004792  0.26077407  0.49624393  1
  Na  Na2  1  0.75734183  0.76351180  0.92103945  1
  Na  Na3  1  0.24269533  0.23646572  0.07891198  1
  Na  Na4  1  0.81568945  0.51846598  0.10068337  1
  Na  Na5  1  0.18438905  0.48147813  0.89919209  1
  Na  Na6  1  0.29073967  0.51061386  0.26568647  1
  Na  Na7  1  0.70889200  0.48935560  0.73471696  1
  Na  Na8  1  0.80353449  0.99279683  0.13276971  1
  Na  Na9  1  0.19661878  0.00722367  0.86713808  1
  Na  Na10  1  0.00036897  0.00015056  0.49987968  1
  Ti  Ti11  1  0.97383370  0.50009662  0.50750523  1
  Nb  Nb12  1  0.29994013  0.99165326  0.28360672  1
  Nb  Nb13  1  0.70057156  0.00838619  0.71599300  1
  Si  Si14  1  0.80132776  0.70446767  0.31588631  1
  Si  Si15  1  0.20017387  0.29542878  0.68371652  1
  Si  Si16  1  0.18387362  0.71904727  0.69624042  1
  Si  Si17  1  0.81757696  0.28121685  0.30377602  1
  P  P18  1  0.31276030  0.75534087  0.06639499  1
  P  P19  1  0.68744131  0.24456031  0.93357637  1
  O  O20  1  0.58720368  0.75587903  0.05605845  1
  O  O21  1  0.41293499  0.24404692  0.94387356  1
  O  O22  1  0.84134531  0.69829238  0.42614423  1
  O  O23  1  0.16448791  0.30203997  0.57321003  1
  O  O24  1  0.17026623  0.77346473  0.97102638  1
  O  O25  1  0.82974572  0.22651453  0.02891400  1
  O  O26  1  0.25701762  0.93074776  0.12960539  1
  O  O27  1  0.74354835  0.06929087  0.87031557  1
  O  O28  1  0.53951072  0.78794046  0.28209381  1
  O  O29  1  0.46113255  0.21165453  0.71823616  1
  O  O30  1  0.94978114  0.80259784  0.74523753  1
  O  O31  1  0.05095231  0.19741251  0.25436856  1
  O  O32  1  0.23423263  0.57361836  0.10915794  1
  O  O33  1  0.76590097  0.42644095  0.89083938  1
  O  O34  1  0.79668039  0.49401624  0.26478227  1
  O  O35  1  0.20431826  0.50594581  0.73500988  1
  O  O36  1  0.68431497  0.98348443  0.59291763  1
  O  O37  1  0.31557424  0.01610751  0.40674928  1
  O  O38  1  0.43308980  0.82513069  0.74138650  1
  O  O39  1  0.56782684  0.17508688  0.25880954  1
  O  O40  1  0.01566700  0.81425390  0.27185106  1
  O  O41  1  0.98462353  0.18618662  0.72741947  1
  O  O42  1  0.16144576  0.70877501  0.58501024  1
  O  O43  1  0.84217156  0.29178615  0.41484468  1
  O  O44  1  0.73854864  0.49753570  0.57587621  1
  F  F45  1  0.27743431  0.50262596  0.42162999  1
