# generated using pymatgen
data_Na6B18Se17
_symmetry_space_group_name_H-M   'P 1'
_cell_length_a   11.42533592
_cell_length_b   12.39326108
_cell_length_c   12.39326108
_cell_angle_alpha   85.29416470
_cell_angle_beta   89.06301318
_cell_angle_gamma   89.06301318
_symmetry_Int_Tables_number   1
_chemical_formula_structural   Na6B18Se17
_chemical_formula_sum   'Na12 B36 Se34'
_cell_volume   1748.50288956
_cell_formula_units_Z   2
loop_
 _symmetry_equiv_pos_site_id
 _symmetry_equiv_pos_as_xyz
  1  'x, y, z'
loop_
 _atom_site_type_symbol
 _atom_site_label
 _atom_site_symmetry_multiplicity
 _atom_site_fract_x
 _atom_site_fract_y
 _atom_site_fract_z
 _atom_site_occupancy
  Na  Na0  1  0.94929134  0.63573935  0.85490379  1
  Na  Na1  1  0.55064912  0.14628367  0.36408210  1
  Na  Na2  1  0.05064912  0.36408210  0.14628367  1
  Na  Na3  1  0.44929134  0.85490379  0.63573935  1
  Na  Na4  1  0.00000224  0.00003129  0.00000841  1
  Na  Na5  1  0.50000224  0.00000841  0.00003129  1
  Na  Na6  1  0.92703159  0.31154955  0.74172950  1
  Na  Na7  1  0.57320855  0.25791327  0.68711339  1
  Na  Na8  1  0.07320855  0.68711339  0.25791327  1
  Na  Na9  1  0.42703159  0.74172950  0.31154955  1
  Na  Na10  1  0.27841764  0.47221642  0.57845026  1
  Na  Na11  1  0.77841764  0.57845026  0.47221642  1
  B  B12  1  0.07229075  0.88059591  0.49232380  1
  B  B13  1  0.42783288  0.50782332  0.11976624  1
  B  B14  1  0.92783288  0.11976624  0.50782332  1
  B  B15  1  0.57229075  0.49232380  0.88059591  1
  B  B16  1  0.14771883  0.00477504  0.49516506  1
  B  B17  1  0.35224561  0.50479225  0.99543826  1
  B  B18  1  0.85224561  0.99543826  0.50479225  1
  B  B19  1  0.64771883  0.49516506  0.00477504  1
  B  B20  1  0.94060922  0.88970401  0.56825148  1
  B  B21  1  0.55922094  0.43129280  0.11068346  1
  B  B22  1  0.05922094  0.11068346  0.43129280  1
  B  B23  1  0.44060922  0.56825148  0.88970401  1
  B  B24  1  0.32100440  0.97804776  0.31465738  1
  B  B25  1  0.17901447  0.68543488  0.02174360  1
  B  B26  1  0.67901447  0.02174360  0.68543488  1
  B  B27  1  0.82100440  0.31465738  0.97804776  1
  B  B28  1  0.06740940  0.98000875  0.37974956  1
  B  B29  1  0.43261002  0.62024700  0.02007886  1
  B  B30  1  0.93261002  0.02007886  0.62024700  1
  B  B31  1  0.56740940  0.37974956  0.98000875  1
  B  B32  1  0.07008891  0.94985664  0.61273484  1
  B  B33  1  0.42990256  0.38740654  0.05006357  1
  B  B34  1  0.92990256  0.05006357  0.38740654  1
  B  B35  1  0.57008891  0.61273484  0.94985664  1
  B  B36  1  0.18885304  0.05989286  0.77793284  1
  B  B37  1  0.31050894  0.22189808  0.94026124  1
  B  B38  1  0.81050894  0.94026124  0.22189808  1
  B  B39  1  0.68885304  0.77793284  0.05989286  1
  B  B40  1  0.06242444  0.08971987  0.57510060  1
  B  B41  1  0.43771055  0.42487112  0.91033323  1
  B  B42  1  0.93771055  0.91033323  0.42487112  1
  B  B43  1  0.56242444  0.57510060  0.08971987  1
  B  B44  1  0.02594063  0.65929967  0.59920226  1
  B  B45  1  0.47486509  0.40136875  0.34094133  1
  B  B46  1  0.97486509  0.34094133  0.40136875  1
  B  B47  1  0.52594063  0.59920226  0.65929967  1
  Se  Se48  1  0.14370247  0.73041100  0.49674731  1
  Se  Se49  1  0.35579978  0.50307081  0.26955094  1
  Se  Se50  1  0.85579978  0.26955094  0.50307081  1
  Se  Se51  1  0.64370247  0.49674731  0.73041100  1
  Se  Se52  1  0.04875303  0.51549835  0.66447982  1
  Se  Se53  1  0.45007538  0.33520575  0.48461497  1
  Se  Se54  1  0.95007538  0.48461497  0.33520575  1
  Se  Se55  1  0.54875303  0.66447982  0.51549835  1
  Se  Se56  1  0.46934147  0.97009223  0.23908513  1
  Se  Se57  1  0.03066733  0.76098815  0.02978847  1
  Se  Se58  1  0.53066733  0.02978847  0.76098815  1
  Se  Se59  1  0.96934147  0.23908513  0.97009223  1
  Se  Se60  1  0.15910566  0.90963570  0.75002880  1
  Se  Se61  1  0.34099422  0.24997102  0.09006022  1
  Se  Se62  1  0.84099422  0.09006022  0.24997102  1
  Se  Se63  1  0.65910566  0.75002880  0.90963570  1
  Se  Se64  1  0.14606429  0.18169890  0.67569980  1
  Se  Se65  1  0.35445679  0.32428493  0.81830394  1
  Se  Se66  1  0.85445679  0.81830394  0.32428493  1
  Se  Se67  1  0.64606429  0.67569980  0.18169890  1
  Se  Se68  1  0.25001993  0.07444153  0.92541233  1
  Se  Se69  1  0.75001993  0.92541233  0.07444153  1
  Se  Se70  1  0.16728867  0.95533166  0.24783422  1
  Se  Se71  1  0.33269475  0.75224033  0.04441109  1
  Se  Se72  1  0.83269475  0.04441109  0.75224033  1
  Se  Se73  1  0.66728867  0.24783422  0.95533166  1
  Se  Se74  1  0.32190886  0.00749105  0.46975837  1
  Se  Se75  1  0.17805994  0.53030163  0.99221741  1
  Se  Se76  1  0.67805994  0.99221741  0.53030163  1
  Se  Se77  1  0.82190886  0.46975837  0.00749105  1
  Se  Se78  1  0.88514044  0.74618365  0.63701609  1
  Se  Se79  1  0.61447581  0.36278185  0.25407872  1
  Se  Se80  1  0.11447581  0.25407872  0.36278185  1
  Se  Se81  1  0.38514044  0.63701609  0.74618365  1
