# generated using pymatgen
data_Na3ThB24
_symmetry_space_group_name_H-M   'P 1'
_cell_length_a   4.14669006
_cell_length_b   4.14669006
_cell_length_c   16.63441971
_cell_angle_alpha   90.00000000
_cell_angle_beta   90.00000000
_cell_angle_gamma   90.00000000
_symmetry_Int_Tables_number   1
_chemical_formula_structural   Na3ThB24
_chemical_formula_sum   'Na3 Th1 B24'
_cell_volume   286.02948657
_cell_formula_units_Z   1
loop_
 _symmetry_equiv_pos_site_id
 _symmetry_equiv_pos_as_xyz
  1  'x, y, z'
loop_
 _atom_site_type_symbol
 _atom_site_label
 _atom_site_symmetry_multiplicity
 _atom_site_fract_x
 _atom_site_fract_y
 _atom_site_fract_z
 _atom_site_occupancy
  Na  Na0  1  0.50000000  0.50000000  0.38569857  1
  Na  Na1  1  0.50000000  0.50000000  0.62500000  1
  Na  Na2  1  0.50000000  0.50000000  0.86430143  1
  Th  Th3  1  0.50000000  0.50000000  0.12500000  1
  B  B4  1  -0.00000000  -0.00000000  0.17381295  1
  B  B5  1  -0.00000000  -0.00000000  0.42424416  1
  B  B6  1  -0.00000000  0.00000000  0.67482831  1
  B  B7  1  -0.00000000  -0.00000000  0.92596765  1
  B  B8  1  -0.00000000  0.29920014  0.00212282  1
  B  B9  1  -0.00000000  0.29920014  0.24787718  1
  B  B10  1  -0.00000000  0.30100086  0.49942598  1
  B  B11  1  -0.00000000  0.30100086  0.75057402  1
  B  B12  1  0.29920014  -0.00000000  0.00212282  1
  B  B13  1  0.29920014  0.00000000  0.24787718  1
  B  B14  1  0.30100086  -0.00000000  0.49942598  1
  B  B15  1  0.30100086  0.00000000  0.75057402  1
  B  B16  1  -0.00000000  0.00000000  0.07618705  1
  B  B17  1  -0.00000000  0.00000000  0.32403235  1
  B  B18  1  -0.00000000  -0.00000000  0.57517169  1
  B  B19  1  -0.00000000  0.00000000  0.82575584  1
  B  B20  1  -0.00000000  0.70079986  0.00212282  1
  B  B21  1  -0.00000000  0.70079986  0.24787718  1
  B  B22  1  -0.00000000  0.69899914  0.49942598  1
  B  B23  1  -0.00000000  0.69899914  0.75057402  1
  B  B24  1  0.70079986  -0.00000000  0.00212282  1
  B  B25  1  0.70079986  0.00000000  0.24787718  1
  B  B26  1  0.69899914  -0.00000000  0.49942598  1
  B  B27  1  0.69899914  0.00000000  0.75057402  1
