# generated using pymatgen
data_NaH3(SeO3)2
_symmetry_space_group_name_H-M   'P 1'
_cell_length_a   4.88741239
_cell_length_b   5.84045005
_cell_length_c   10.50590878
_cell_angle_alpha   91.43249091
_cell_angle_beta   90.00000000
_cell_angle_gamma   90.00000000
_symmetry_Int_Tables_number   1
_chemical_formula_structural   NaH3(SeO3)2
_chemical_formula_sum   'Na2 H6 Se4 O12'
_cell_volume   299.79416461
_cell_formula_units_Z   2
loop_
 _symmetry_equiv_pos_site_id
 _symmetry_equiv_pos_as_xyz
  1  'x, y, z'
loop_
 _atom_site_type_symbol
 _atom_site_label
 _atom_site_symmetry_multiplicity
 _atom_site_fract_x
 _atom_site_fract_y
 _atom_site_fract_z
 _atom_site_occupancy
  Na  Na0  1  0.49698726  0.50649023  0.50015050  1
  Na  Na1  1  0.00301274  0.00649023  0.00015050  1
  H  H2  1  0.00019482  0.58530709  0.32713153  1
  H  H3  1  0.49980518  0.08530709  0.82713153  1
  H  H4  1  0.02766874  0.39652895  0.66880876  1
  H  H5  1  0.47233126  0.89652895  0.16880876  1
  H  H6  1  0.53028749  0.01624484  0.48669948  1
  H  H7  1  0.96971251  0.51624484  0.98669948  1
  Se  Se8  1  0.89013391  0.99180761  0.32784902  1
  Se  Se9  1  0.60986609  0.49180761  0.82784902  1
  Se  Se10  1  0.11715091  0.00076318  0.66942483  1
  Se  Se11  1  0.38284909  0.50076318  0.16942483  1
  O  O12  1  0.19200000  0.38337440  0.05037085  1
  O  O13  1  0.30800000  0.88337440  0.55037085  1
  O  O14  1  0.81772082  0.62267503  0.95021973  1
  O  O15  1  0.68227918  0.12267503  0.45021973  1
  O  O16  1  0.69766594  0.20451665  0.85323364  1
  O  O17  1  0.80233406  0.70451665  0.35323364  1
  O  O18  1  0.29729644  0.79964182  0.14645484  1
  O  O19  1  0.20270356  0.29964182  0.64645484  1
  O  O20  1  0.71388713  0.04941247  0.19352893  1
  O  O21  1  0.78611287  0.54941247  0.69352893  1
  O  O22  1  0.30445196  0.95813774  0.80812791  1
  O  O23  1  0.19554804  0.45813774  0.30812791  1
