# generated using pymatgen
data_Na(VSe2)2
_symmetry_space_group_name_H-M   'P 1'
_cell_length_a   3.55193402
_cell_length_b   7.83149647
_cell_length_c   6.17121369
_cell_angle_alpha   69.88277870
_cell_angle_beta   89.99999896
_cell_angle_gamma   89.99999969
_symmetry_Int_Tables_number   1
_chemical_formula_structural   Na(VSe2)2
_chemical_formula_sum   'Na1 V2 Se4'
_cell_volume   161.19130910
_cell_formula_units_Z   1
loop_
 _symmetry_equiv_pos_site_id
 _symmetry_equiv_pos_as_xyz
  1  'x, y, z'
loop_
 _atom_site_type_symbol
 _atom_site_label
 _atom_site_symmetry_multiplicity
 _atom_site_fract_x
 _atom_site_fract_y
 _atom_site_fract_z
 _atom_site_occupancy
  Na  Na0  1  0.50000000  0.49222579  0.33828260  1
  V  V1  1  -0.00000000  0.00400934  0.02874573  1
  V  V2  1  0.50000000  -0.00309580  0.46848771  1
  Se  Se3  1  0.00000000  0.78000856  0.42704277  1
  Se  Se4  1  0.50000000  0.81923455  0.90914838  1
  Se  Se5  1  0.00000000  0.18228883  0.58987644  1
  Se  Se6  1  0.50000000  0.22062873  0.07331638  1
