# generated using pymatgen
data_MgZnCu
_symmetry_space_group_name_H-M   'P 1'
_cell_length_a   5.08325807
_cell_length_b   5.08325807
_cell_length_c   5.08325807
_cell_angle_alpha   89.63633493
_cell_angle_beta   60.48137125
_cell_angle_gamma   120.06263139
_symmetry_Int_Tables_number   1
_chemical_formula_structural   MgZnCu
_chemical_formula_sum   'Mg2 Zn2 Cu2'
_cell_volume   93.16699221
_cell_formula_units_Z   2
loop_
 _symmetry_equiv_pos_site_id
 _symmetry_equiv_pos_as_xyz
  1  'x, y, z'
loop_
 _atom_site_type_symbol
 _atom_site_label
 _atom_site_symmetry_multiplicity
 _atom_site_fract_x
 _atom_site_fract_y
 _atom_site_fract_z
 _atom_site_occupancy
  Mg  Mg0  1  0.50000000  0.74859509  0.75140491  1
  Mg  Mg1  1  -0.00000000  0.00140491  0.99859509  1
  Zn  Zn2  1  0.25000000  0.87500000  0.37500000  1
  Zn  Zn3  1  0.75000000  0.37500000  0.37500000  1
  Cu  Cu4  1  0.75000000  0.37500000  0.87500000  1
  Cu  Cu5  1  0.25000000  0.37500000  0.37500000  1
