# generated using pymatgen
data_Mn2In2Se5
_symmetry_space_group_name_H-M   'P 1'
_cell_length_a   4.06582720
_cell_length_b   4.06582720
_cell_length_c   16.55933763
_cell_angle_alpha   90.00000166
_cell_angle_beta   97.05172886
_cell_angle_gamma   59.99999472
_symmetry_Int_Tables_number   1
_chemical_formula_structural   Mn2In2Se5
_chemical_formula_sum   'Mn2 In2 Se5'
_cell_volume   234.67312904
_cell_formula_units_Z   1
loop_
 _symmetry_equiv_pos_site_id
 _symmetry_equiv_pos_as_xyz
  1  'x, y, z'
loop_
 _atom_site_type_symbol
 _atom_site_label
 _atom_site_symmetry_multiplicity
 _atom_site_fract_x
 _atom_site_fract_y
 _atom_site_fract_z
 _atom_site_occupancy
  Mn  Mn0  1  0.60221451  0.69889274  0.90332177  1
  Mn  Mn1  1  0.39778549  0.30110726  0.09667823  1
  In  In2  1  0.88806096  0.55596952  0.33209143  1
  In  In3  1  0.11193904  0.44403048  0.66790857  1
  Se  Se4  1  0.72759808  0.13620096  0.59139712  1
  Se  Se5  1  0.27240192  0.86379904  0.40860288  1
  Se  Se6  1  0.21636967  0.39181517  0.82455450  1
  Se  Se7  1  0.78363033  0.60818483  0.17544550  1
  Se  Se8  1  0.00000000  -0.00000000  0.00000000  1
