# generated using pymatgen
data_Mg3BH2O5F
_symmetry_space_group_name_H-M   'P 1'
_cell_length_a   3.16241803
_cell_length_b   9.04841402
_cell_length_c   9.02527373
_cell_angle_alpha   60.35600240
_cell_angle_beta   90.00000000
_cell_angle_gamma   90.00000000
_symmetry_Int_Tables_number   1
_chemical_formula_structural   Mg3BH2O5F
_chemical_formula_sum   'Mg6 B2 H4 O10 F2'
_cell_volume   224.45514069
_cell_formula_units_Z   2
loop_
 _symmetry_equiv_pos_site_id
 _symmetry_equiv_pos_as_xyz
  1  'x, y, z'
loop_
 _atom_site_type_symbol
 _atom_site_label
 _atom_site_symmetry_multiplicity
 _atom_site_fract_x
 _atom_site_fract_y
 _atom_site_fract_z
 _atom_site_occupancy
  Mg  Mg0  1  0.75000000  0.02887404  0.62740501  1
  Mg  Mg1  1  0.75000000  0.33759380  0.03678544  1
  Mg  Mg2  1  0.75000000  0.61981871  0.34380480  1
  Mg  Mg3  1  0.25000000  0.96467400  0.37172289  1
  Mg  Mg4  1  0.25000000  0.65743130  0.96937818  1
  Mg  Mg5  1  0.25000000  0.37324265  0.65936913  1
  B  B6  1  0.75000000  0.66415006  0.66760935  1
  B  B7  1  0.25000000  0.32955147  0.33429870  1
  H  H8  1  0.75000000  0.02686444  0.13255728  1
  H  H9  1  0.75000000  0.82434158  0.04008006  1
  H  H10  1  0.75000000  0.14731635  0.84012869  1
  H  H11  1  0.25000000  0.97875417  0.85071664  1
  O  O12  1  0.75000000  0.83978795  0.55527789  1
  O  O13  1  0.75000000  0.59790040  0.84417862  1
  O  O14  1  0.75000000  0.55228057  0.60189610  1
  O  O15  1  0.25000000  0.15386473  0.44364424  1
  O  O16  1  0.25000000  0.39538422  0.15736686  1
  O  O17  1  0.25000000  0.43986367  0.40150755  1
  O  O18  1  0.75000000  0.08081194  0.20222200  1
  O  O19  1  0.75000000  0.70144736  0.09310158  1
  O  O20  1  0.75000000  0.20275542  0.71668542  1
  O  O21  1  0.25000000  0.91098360  0.79457865  1
  F  F22  1  0.25000000  0.29950564  0.91119998  1
  F  F23  1  0.25000000  0.78280190  0.30448493  1
