# generated using pymatgen
data_Li(ZrS2)2
_symmetry_space_group_name_H-M   'P 1'
_cell_length_a   3.64249986
_cell_length_b   6.59597353
_cell_length_c   6.29458948
_cell_angle_alpha   71.76194349
_cell_angle_beta   90.00000587
_cell_angle_gamma   90.00000005
_symmetry_Int_Tables_number   1
_chemical_formula_structural   Li(ZrS2)2
_chemical_formula_sum   'Li1 Zr2 S4'
_cell_volume   143.63548317
_cell_formula_units_Z   1
loop_
 _symmetry_equiv_pos_site_id
 _symmetry_equiv_pos_as_xyz
  1  'x, y, z'
loop_
 _atom_site_type_symbol
 _atom_site_label
 _atom_site_symmetry_multiplicity
 _atom_site_fract_x
 _atom_site_fract_y
 _atom_site_fract_z
 _atom_site_occupancy
  Li  Li0  1  0.00000000  0.50000000  0.50000000  1
  Zr  Zr1  1  0.00000000  0.00000000  0.00000000  1
  Zr  Zr2  1  0.50000000  0.00000000  0.50000000  1
  S  S3  1  0.50000000  0.24576024  0.75284464  1
  S  S4  1  0.00000000  0.24129378  0.25312209  1
  S  S5  1  0.50000000  0.75423976  0.24715536  1
  S  S6  1  1.00000000  0.75870622  0.74687791  1
