# generated using pymatgen
data_MgZr4(PO4)6
_symmetry_space_group_name_H-M   'P 1'
_cell_length_a   8.98352158
_cell_length_b   9.11107129
_cell_length_c   12.68010729
_cell_angle_alpha   90.00000000
_cell_angle_beta   90.31586161
_cell_angle_gamma   90.00000000
_symmetry_Int_Tables_number   1
_chemical_formula_structural   MgZr4(PO4)6
_chemical_formula_sum   'Mg2 Zr8 P12 O48'
_cell_volume   1037.84474166
_cell_formula_units_Z   2
loop_
 _symmetry_equiv_pos_site_id
 _symmetry_equiv_pos_as_xyz
  1  'x, y, z'
loop_
 _atom_site_type_symbol
 _atom_site_label
 _atom_site_symmetry_multiplicity
 _atom_site_fract_x
 _atom_site_fract_y
 _atom_site_fract_z
 _atom_site_occupancy
  Mg  Mg0  1  0.21296734  0.27863733  0.67954764  1
  Mg  Mg1  1  0.71296734  0.22136267  0.17954764  1
  Zr  Zr2  1  0.74609171  0.47212268  0.61705723  1
  Zr  Zr3  1  0.24609171  0.02787732  0.11705723  1
  Zr  Zr4  1  0.24701554  0.52665379  0.37872998  1
  Zr  Zr5  1  0.74701554  0.97334621  0.87872998  1
  Zr  Zr6  1  0.24892209  0.47284934  0.89528779  1
  Zr  Zr7  1  0.74892209  0.02715066  0.39528779  1
  Zr  Zr8  1  0.75553969  0.55498824  0.11338761  1
  Zr  Zr9  1  0.25553969  0.94501176  0.61338761  1
  P  P10  1  0.96307368  0.24982482  0.00487196  1
  P  P11  1  0.46307368  0.25017518  0.50487196  1
  P  P12  1  0.03448707  0.75280397  0.99304553  1
  P  P13  1  0.53448707  0.74719603  0.49304553  1
  P  P14  1  0.90050101  0.12068824  0.64717198  1
  P  P15  1  0.40050101  0.37931176  0.14717198  1
  P  P16  1  0.10679496  0.88789160  0.35479524  1
  P  P17  1  0.60679496  0.61210840  0.85479524  1
  P  P18  1  0.38245576  0.10412746  0.85249248  1
  P  P19  1  0.88245576  0.39587254  0.35249248  1
  P  P20  1  0.61055140  0.90487192  0.14248287  1
  P  P21  1  0.11055140  0.59512808  0.64248287  1
  O  O22  1  0.82658353  0.01915784  0.72800389  1
  O  O23  1  0.32658353  0.48084216  0.22800389  1
  O  O24  1  0.18819022  0.98112419  0.27214800  1
  O  O25  1  0.68819022  0.51887581  0.77214800  1
  O  O26  1  0.06279274  0.16253819  0.08133691  1
  O  O27  1  0.56279274  0.33746181  0.58133691  1
  O  O28  1  0.92904055  0.83822451  0.92028806  1
  O  O29  1  0.42904055  0.66177549  0.42028806  1
  O  O30  1  0.32895787  0.99968919  0.76385850  1
  O  O31  1  0.82895787  0.50031081  0.26385850  1
  O  O32  1  0.66571511  0.01791131  0.22950800  1
  O  O33  1  0.16571511  0.48208869  0.72950800  1
  O  O34  1  0.55387367  0.10548896  0.85577472  1
  O  O35  1  0.05387367  0.39451104  0.35577472  1
  O  O36  1  0.44089208  0.90373245  0.13966885  1
  O  O37  1  0.94089208  0.59626755  0.63966885  1
  O  O38  1  0.31630633  0.06331953  0.95916886  1
  O  O39  1  0.81630633  0.43668047  0.45916886  1
  O  O40  1  0.67799169  0.96459091  0.03981291  1
  O  O41  1  0.17799169  0.53540909  0.53981291  1
  O  O42  1  0.31971978  0.26104294  0.81978276  1
  O  O43  1  0.81971978  0.23895706  0.31978276  1
  O  O44  1  0.66758110  0.74914502  0.16806432  1
  O  O45  1  0.16758110  0.75085498  0.66806432  1
  O  O46  1  0.86652341  0.28340894  0.66548561  1
  O  O47  1  0.36652341  0.21659106  0.16548561  1
  O  O48  1  0.13617363  0.72188105  0.33941549  1
  O  O49  1  0.63617363  0.77811895  0.83941549  1
  O  O50  1  0.05402120  0.36322825  0.94288185  1
  O  O51  1  0.55402120  0.13677175  0.44288185  1
  O  O52  1  0.94688965  0.64277894  0.06271346  1
  O  O53  1  0.44688965  0.85722106  0.56271346  1
  O  O54  1  0.84185450  0.32789967  0.07502570  1
  O  O55  1  0.34185450  0.17210033  0.57502570  1
  O  O56  1  0.14675078  0.66493238  0.92613892  1
  O  O57  1  0.64675078  0.83506762  0.42613892  1
  O  O58  1  0.07465056  0.10674018  0.65590556  1
  O  O59  1  0.57465056  0.39325982  0.15590556  1
  O  O60  1  0.93841761  0.92091914  0.34655001  1
  O  O61  1  0.43841761  0.57908086  0.84655001  1
  O  O62  1  0.87919919  0.14899864  0.92799569  1
  O  O63  1  0.37919919  0.35100136  0.42799569  1
  O  O64  1  0.12174887  0.85195535  0.06820526  1
  O  O65  1  0.62174887  0.64804465  0.56820526  1
  O  O66  1  0.85128812  0.07349622  0.53532315  1
  O  O67  1  0.35128812  0.42650378  0.03532315  1
  O  O68  1  0.16043756  0.93147122  0.46707324  1
  O  O69  1  0.66043756  0.56852878  0.96707324  1
