# generated using pymatgen
data_Mg14ZrMn
_symmetry_space_group_name_H-M   'P 1'
_cell_length_a   6.38395609
_cell_length_b   6.27917689
_cell_length_c   10.13679360
_cell_angle_alpha   90.00000000
_cell_angle_beta   90.00000000
_cell_angle_gamma   119.45854015
_symmetry_Int_Tables_number   1
_chemical_formula_structural   Mg14ZrMn
_chemical_formula_sum   'Mg14 Zr1 Mn1'
_cell_volume   353.80799127
_cell_formula_units_Z   1
loop_
 _symmetry_equiv_pos_site_id
 _symmetry_equiv_pos_as_xyz
  1  'x, y, z'
loop_
 _atom_site_type_symbol
 _atom_site_label
 _atom_site_symmetry_multiplicity
 _atom_site_fract_x
 _atom_site_fract_y
 _atom_site_fract_z
 _atom_site_occupancy
  Mg  Mg0  1  0.16614937  0.33307419  0.62500000  1
  Mg  Mg1  1  0.16752351  0.83376125  0.62500000  1
  Mg  Mg2  1  0.66016094  0.33607497  0.12500000  1
  Mg  Mg3  1  0.66546001  0.33116669  0.62500000  1
  Mg  Mg4  1  0.66016094  0.82408497  0.12500000  1
  Mg  Mg5  1  0.66546001  0.83429232  0.62500000  1
  Mg  Mg6  1  0.32958362  0.16634976  0.36839721  1
  Mg  Mg7  1  0.32958362  0.16634976  0.88160279  1
  Mg  Mg8  1  0.32958362  0.66323485  0.36839721  1
  Mg  Mg9  1  0.32958362  0.66323485  0.88160279  1
  Mg  Mg10  1  0.84307520  0.17153810  0.36379902  1
  Mg  Mg11  1  0.84307520  0.17153810  0.88620098  1
  Mg  Mg12  1  0.83679173  0.66839636  0.37612891  1
  Mg  Mg13  1  0.83679173  0.66839636  0.87387109  1
  Zr  Zr14  1  0.15658833  0.82829367  0.12500000  1
  Mn  Mn15  1  0.18042856  0.34021378  0.12500000  1
