# generated using pymatgen
data_LiUI6
_symmetry_space_group_name_H-M   'P 1'
_cell_length_a   7.41638480
_cell_length_b   7.61748318
_cell_length_c   7.61748318
_cell_angle_alpha   117.39498831
_cell_angle_beta   100.75333064
_cell_angle_gamma   100.75333064
_symmetry_Int_Tables_number   1
_chemical_formula_structural   LiUI6
_chemical_formula_sum   'Li1 U1 I6'
_cell_volume   356.59525586
_cell_formula_units_Z   1
loop_
 _symmetry_equiv_pos_site_id
 _symmetry_equiv_pos_as_xyz
  1  'x, y, z'
loop_
 _atom_site_type_symbol
 _atom_site_label
 _atom_site_symmetry_multiplicity
 _atom_site_fract_x
 _atom_site_fract_y
 _atom_site_fract_z
 _atom_site_occupancy
  Li  Li0  1  0.50000000  0.84552464  0.15447536  1
  U  U1  1  -0.00000000  0.00094275  0.99905725  1
  I  I2  1  0.76467128  0.22603160  0.23417589  1
  I  I3  1  0.23532872  0.76582411  0.77396840  1
  I  I4  1  0.25486516  0.06323420  0.38399007  1
  I  I5  1  0.24242107  0.39269946  0.07626669  1
  I  I6  1  0.75757893  0.92373331  0.60730054  1
  I  I7  1  0.74513484  0.61600993  0.93676580  1
