# generated using pymatgen
data_LaZn4Ni
_symmetry_space_group_name_H-M   'P 1'
_cell_length_a   4.28612577
_cell_length_b   5.30811195
_cell_length_c   5.30797915
_cell_angle_alpha   60.00040097
_cell_angle_beta   90.00000000
_cell_angle_gamma   90.00000000
_symmetry_Int_Tables_number   1
_chemical_formula_structural   LaZn4Ni
_chemical_formula_sum   'La1 Zn4 Ni1'
_cell_volume   104.58432048
_cell_formula_units_Z   1
loop_
 _symmetry_equiv_pos_site_id
 _symmetry_equiv_pos_as_xyz
  1  'x, y, z'
loop_
 _atom_site_type_symbol
 _atom_site_label
 _atom_site_symmetry_multiplicity
 _atom_site_fract_x
 _atom_site_fract_y
 _atom_site_fract_z
 _atom_site_occupancy
  La  La0  1  0.00000000  0.99996654  0.00000496  1
  Zn  Zn1  1  0.00000000  0.66663392  0.66668916  1
  Zn  Zn2  1  0.50000000  0.49628107  0.49627922  1
  Zn  Zn3  1  0.50000000  0.49627643  0.00744427  1
  Zn  Zn4  1  0.50000000  0.00742836  0.49628392  1
  Ni  Ni5  1  0.00000000  0.33331368  0.33339847  1
