# generated using pymatgen
data_LaAlZn
_symmetry_space_group_name_H-M   'P 1'
_cell_length_a   4.69948565
_cell_length_b   5.88139365
_cell_length_c   6.01832441
_cell_angle_alpha   99.27395944
_cell_angle_beta   112.98135080
_cell_angle_gamma   66.45172991
_symmetry_Int_Tables_number   1
_chemical_formula_structural   LaAlZn
_chemical_formula_sum   'La2 Al2 Zn2'
_cell_volume   140.38561061
_cell_formula_units_Z   2
loop_
 _symmetry_equiv_pos_site_id
 _symmetry_equiv_pos_as_xyz
  1  'x, y, z'
loop_
 _atom_site_type_symbol
 _atom_site_label
 _atom_site_symmetry_multiplicity
 _atom_site_fract_x
 _atom_site_fract_y
 _atom_site_fract_z
 _atom_site_occupancy
  La  La0  1  0.53642608  0.71680082  0.78965298  1
  La  La1  1  0.46357392  0.28319918  0.21034702  1
  Al  Al2  1  0.16235635  0.28018689  0.60489959  1
  Al  Al3  1  0.83764365  0.71981311  0.39510041  1
  Zn  Zn4  1  0.83612419  0.10658247  0.77883086  1
  Zn  Zn5  1  0.16387581  0.89341753  0.22116914  1
