# generated using pymatgen
data_LaTb3(Mo2O7)2
_symmetry_space_group_name_H-M   'P 1'
_cell_length_a   7.49800459
_cell_length_b   7.39684681
_cell_length_c   7.49800459
_cell_angle_alpha   90.00000000
_cell_angle_beta   60.00000000
_cell_angle_gamma   120.45343236
_symmetry_Int_Tables_number   1
_chemical_formula_structural   LaTb3(Mo2O7)2
_chemical_formula_sum   'La1 Tb3 Mo4 O14'
_cell_volume   292.01979147
_cell_formula_units_Z   1
loop_
 _symmetry_equiv_pos_site_id
 _symmetry_equiv_pos_as_xyz
  1  'x, y, z'
loop_
 _atom_site_type_symbol
 _atom_site_label
 _atom_site_symmetry_multiplicity
 _atom_site_fract_x
 _atom_site_fract_y
 _atom_site_fract_z
 _atom_site_occupancy
  La  La0  1  0.50000000  0.00000000  0.50000000  1
  Tb  Tb1  1  0.50000000  0.50000000  0.50000000  1
  Tb  Tb2  1  -0.00000000  0.50000000  0.00000000  1
  Tb  Tb3  1  -0.00000000  0.50000000  0.50000000  1
  Mo  Mo4  1  0.50000000  0.50000000  0.00000000  1
  Mo  Mo5  1  0.50000000  0.00000000  0.00000000  1
  Mo  Mo6  1  -0.00000000  0.00000000  0.50000000  1
  Mo  Mo7  1  -0.00000000  0.00000000  0.00000000  1
  O  O8  1  0.83554182  0.91927174  0.33222909  1
  O  O9  1  0.68237791  0.33515614  0.90881105  1
  O  O10  1  0.25150083  0.91927174  0.91627008  1
  O  O11  1  0.24396719  0.33515614  0.34722176  1
  O  O12  1  0.24396719  0.33515614  0.90881105  1
  O  O13  1  0.25150083  0.91927174  0.33222909  1
  O  O14  1  0.16445818  0.08072826  0.66777091  1
  O  O15  1  0.31762209  0.66484386  0.09118895  1
  O  O16  1  0.74849917  0.08072826  0.08372992  1
  O  O17  1  0.75603281  0.66484386  0.65277824  1
  O  O18  1  0.75603281  0.66484386  0.09118895  1
  O  O19  1  0.74849917  0.08072826  0.66777091  1
  O  O20  1  0.75879864  0.38819796  0.37060068  1
  O  O21  1  0.24120136  0.61180204  0.62939932  1
