# generated using pymatgen
data_La3Si7Ni3
_symmetry_space_group_name_H-M   'P 1'
_cell_length_a   4.14283710
_cell_length_b   4.22178405
_cell_length_c   13.20102751
_cell_angle_alpha   90.00000000
_cell_angle_beta   80.97221399
_cell_angle_gamma   90.00000000
_symmetry_Int_Tables_number   1
_chemical_formula_structural   La3Si7Ni3
_chemical_formula_sum   'La3 Si7 Ni3'
_cell_volume   228.02797178
_cell_formula_units_Z   1
loop_
 _symmetry_equiv_pos_site_id
 _symmetry_equiv_pos_as_xyz
  1  'x, y, z'
loop_
 _atom_site_type_symbol
 _atom_site_label
 _atom_site_symmetry_multiplicity
 _atom_site_fract_x
 _atom_site_fract_y
 _atom_site_fract_z
 _atom_site_occupancy
  La  La0  1  0.00088859  -0.00000000  0.99822282  1
  La  La1  1  0.68586984  0.50000000  0.62826031  1
  La  La2  1  0.31788601  0.50000000  0.36422799  1
  Si  Si3  1  0.59401900  -0.00000000  0.81196200  1
  Si  Si4  1  0.40862604  -0.00000000  0.18274791  1
  Si  Si5  1  0.77646056  -0.00000000  0.44707889  1
  Si  Si6  1  0.22428742  -0.00000000  0.55142516  1
  Si  Si7  1  0.90859051  0.50000000  0.18281897  1
  Si  Si8  1  0.09472660  0.50000000  0.81054679  1
  Si  Si9  1  0.53850783  0.50000000  0.92298435  1
  Ni  Ni10  1  0.86635756  -0.00000000  0.26728488  1
  Ni  Ni11  1  0.13263536  -0.00000000  0.73472928  1
  Ni  Ni12  1  0.45114468  0.50000000  0.09771063  1
