# generated using pymatgen
data_KTaWO6
_symmetry_space_group_name_H-M   'P 1'
_cell_length_a   7.46771085
_cell_length_b   7.44611899
_cell_length_c   7.50362480
_cell_angle_alpha   90.00000000
_cell_angle_beta   59.84078405
_cell_angle_gamma   119.90440047
_symmetry_Int_Tables_number   1
_chemical_formula_structural   KTaWO6
_chemical_formula_sum   'K2 Ta2 W2 O12'
_cell_volume   294.74964694
_cell_formula_units_Z   2
loop_
 _symmetry_equiv_pos_site_id
 _symmetry_equiv_pos_as_xyz
  1  'x, y, z'
loop_
 _atom_site_type_symbol
 _atom_site_label
 _atom_site_symmetry_multiplicity
 _atom_site_fract_x
 _atom_site_fract_y
 _atom_site_fract_z
 _atom_site_occupancy
  K  K0  1  0.53515343  0.04943032  0.48242329  1
  K  K1  1  0.46484657  0.51427689  0.51757671  1
  Ta  Ta2  1  -0.00000000  0.99845989  0.50000000  1
  Ta  Ta3  1  0.00000000  0.99845989  -0.00000000  1
  W  W4  1  0.49935383  0.49730571  0.00032309  1
  W  W5  1  0.50064617  0.99795188  -0.00032309  1
  O  O6  1  0.87259324  0.93801958  0.31370338  1
  O  O7  1  0.61303229  0.30649069  0.94348385  1
  O  O8  1  0.25632723  0.94212280  0.93827747  1
  O  O9  1  0.25466802  0.31345493  0.30511847  1
  O  O10  1  0.25466802  0.31345493  0.94021351  1
  O  O11  1  0.25632723  0.94212280  0.30539530  1
  O  O12  1  0.12740676  0.06542634  0.68629662  1
  O  O13  1  0.38696771  0.69345840  0.05651615  1
  O  O14  1  0.74533198  0.05878691  0.05978649  1
  O  O15  1  0.74367277  0.68579557  0.69460470  1
  O  O16  1  0.74367277  0.68579557  0.06172253  1
  O  O17  1  0.74533198  0.05878691  0.69488153  1
