# generated using pymatgen
data_Lu2Mn(GeO3)4
_symmetry_space_group_name_H-M   'P 1'
_cell_length_a   4.98190492
_cell_length_b   9.93267162
_cell_length_c   9.93267162
_cell_angle_alpha   90.28220018
_cell_angle_beta   90.00000000
_cell_angle_gamma   90.00000000
_symmetry_Int_Tables_number   1
_chemical_formula_structural   Lu2Mn(GeO3)4
_chemical_formula_sum   'Lu4 Mn2 Ge8 O24'
_cell_volume   491.49864206
_cell_formula_units_Z   2
loop_
 _symmetry_equiv_pos_site_id
 _symmetry_equiv_pos_as_xyz
  1  'x, y, z'
loop_
 _atom_site_type_symbol
 _atom_site_label
 _atom_site_symmetry_multiplicity
 _atom_site_fract_x
 _atom_site_fract_y
 _atom_site_fract_z
 _atom_site_occupancy
  Lu  Lu0  1  0.50000000  0.00000000  0.50000000  1
  Lu  Lu1  1  0.50000000  0.50000000  0.00000000  1
  Lu  Lu2  1  0.50000000  0.75000000  0.75000000  1
  Lu  Lu3  1  0.50000000  0.25000000  0.25000000  1
  Mn  Mn4  1  0.50000000  0.50000000  0.50000000  1
  Mn  Mn5  1  0.50000000  0.00000000  0.00000000  1
  Ge  Ge6  1  0.99606421  0.74758478  0.48076124  1
  Ge  Ge7  1  0.00393579  0.25241522  0.51923876  1
  Ge  Ge8  1  0.00393579  0.24758478  0.98076124  1
  Ge  Ge9  1  0.99606421  0.75241522  0.01923876  1
  Ge  Ge10  1  0.00393579  0.48076124  0.74758478  1
  Ge  Ge11  1  0.99606421  0.51923876  0.25241522  1
  Ge  Ge12  1  0.99606421  0.98076124  0.24758478  1
  Ge  Ge13  1  0.00393579  0.01923876  0.75241522  1
  O  O14  1  0.83315294  0.36922483  0.63077517  1
  O  O15  1  0.82579938  0.87512428  0.37512428  1
  O  O16  1  0.82579938  0.62487572  0.12487572  1
  O  O17  1  0.83315294  0.13077517  0.86922483  1
  O  O18  1  0.16684706  0.63077517  0.36922483  1
  O  O19  1  0.17420062  0.12487572  0.62487572  1
  O  O20  1  0.17420062  0.37512428  0.87512428  1
  O  O21  1  0.16684706  0.86922483  0.13077517  1
  O  O22  1  0.26157393  0.56770830  0.66833914  1
  O  O23  1  0.25758190  0.06401666  0.33175602  1
  O  O24  1  0.25758190  0.43598334  0.16824398  1
  O  O25  1  0.26157393  0.93229170  0.83166086  1
  O  O26  1  0.73842607  0.43229170  0.33166086  1
  O  O27  1  0.74241810  0.93598334  0.66824398  1
  O  O28  1  0.74241810  0.56401666  0.83175602  1
  O  O29  1  0.73842607  0.06770830  0.16833914  1
  O  O30  1  0.73842607  0.66833914  0.56770830  1
  O  O31  1  0.74241810  0.33175602  0.06401666  1
  O  O32  1  0.74241810  0.16824398  0.43598334  1
  O  O33  1  0.73842607  0.83166086  0.93229170  1
  O  O34  1  0.26157393  0.33166086  0.43229170  1
  O  O35  1  0.25758190  0.66824398  0.93598334  1
  O  O36  1  0.25758190  0.83175602  0.56401666  1
  O  O37  1  0.26157393  0.16833914  0.06770830  1
