# generated using pymatgen
data_Li2ScP2HO8
_symmetry_space_group_name_H-M   'P 1'
_cell_length_a   4.92454617
_cell_length_b   7.74707159
_cell_length_c   8.30349243
_cell_angle_alpha   90.00000000
_cell_angle_beta   90.00000000
_cell_angle_gamma   103.94080153
_symmetry_Int_Tables_number   1
_chemical_formula_structural   Li2ScP2HO8
_chemical_formula_sum   'Li4 Sc2 P4 H2 O16'
_cell_volume   307.45412683
_cell_formula_units_Z   2
loop_
 _symmetry_equiv_pos_site_id
 _symmetry_equiv_pos_as_xyz
  1  'x, y, z'
loop_
 _atom_site_type_symbol
 _atom_site_label
 _atom_site_symmetry_multiplicity
 _atom_site_fract_x
 _atom_site_fract_y
 _atom_site_fract_z
 _atom_site_occupancy
  Li  Li0  1  0.61594730  0.15751774  0.13384036  1
  Li  Li1  1  0.10088015  0.66275686  0.36445785  1
  Li  Li2  1  0.39911985  0.83724314  0.86445785  1
  Li  Li3  1  0.88405270  0.34248226  0.63384036  1
  Sc  Sc4  1  -0.00021170  0.50638454  0.00063278  1
  Sc  Sc5  1  0.50021170  0.99361546  0.50063278  1
  P  P6  1  0.12994033  0.26483543  0.34276676  1
  P  P7  1  0.63389945  0.77521989  0.15059058  1
  P  P8  1  0.86610055  0.72478011  0.65059058  1
  P  P9  1  0.37005967  0.23516457  0.84276676  1
  H  H10  1  0.45731281  0.48258290  0.47944617  1
  H  H11  1  0.04268719  0.01741710  0.97944617  1
  O  O12  1  0.35438033  0.15963942  0.32174186  1
  O  O13  1  0.85042004  0.66187001  0.17547666  1
  O  O14  1  0.64957996  0.83812999  0.67547666  1
  O  O15  1  0.14561967  0.34036058  0.82174186  1
  O  O16  1  0.25658120  0.44932804  0.43168058  1
  O  O17  1  0.75518824  0.95029819  0.06015308  1
  O  O18  1  0.74481176  0.54970181  0.56015308  1
  O  O19  1  0.24341880  0.05067196  0.93168058  1
  O  O20  1  0.01170784  0.31437603  0.18285477  1
  O  O21  1  0.51313922  0.81583713  0.31535120  1
  O  O22  1  0.98686078  0.68416287  0.81535120  1
  O  O23  1  0.48829216  0.18562397  0.68285477  1
  O  O24  1  0.89111114  0.16693396  0.45315445  1
  O  O25  1  0.38904569  0.66496673  0.04685289  1
  O  O26  1  0.11095431  0.83503327  0.54685289  1
  O  O27  1  0.60888886  0.33306604  0.95315445  1
