# generated using pymatgen
data_KPr9(Si3O13)2
_symmetry_space_group_name_H-M   'P 1'
_cell_length_a   7.21728996
_cell_length_b   9.71722857
_cell_length_c   9.71722056
_cell_angle_alpha   59.99957070
_cell_angle_beta   89.99978057
_cell_angle_gamma   89.99980955
_symmetry_Int_Tables_number   1
_chemical_formula_structural   KPr9(Si3O13)2
_chemical_formula_sum   'K1 Pr9 Si6 O26'
_cell_volume   590.18393745
_cell_formula_units_Z   1
loop_
 _symmetry_equiv_pos_site_id
 _symmetry_equiv_pos_as_xyz
  1  'x, y, z'
loop_
 _atom_site_type_symbol
 _atom_site_label
 _atom_site_symmetry_multiplicity
 _atom_site_fract_x
 _atom_site_fract_y
 _atom_site_fract_z
 _atom_site_occupancy
  K  K0  1  0.49876164  0.66664558  0.66667808  1
  Pr  Pr1  1  0.99944828  0.33333153  0.33333441  1
  Pr  Pr2  1  0.49906867  0.33333771  0.33333038  1
  Pr  Pr3  1  0.99767860  0.66666836  0.66666410  1
  Pr  Pr4  1  0.74846899  0.00853868  0.75894363  1
  Pr  Pr5  1  0.74847181  0.23251489  0.00853681  1
  Pr  Pr6  1  0.74847149  0.75894672  0.23251403  1
  Pr  Pr7  1  0.25150069  0.98759269  0.24578881  1
  Pr  Pr8  1  0.25150025  0.76662417  0.98759210  1
  Pr  Pr9  1  0.25149951  0.24578006  0.76662693  1
  Si  Si10  1  0.75337924  0.62850813  0.97329190  1
  Si  Si11  1  0.75338008  0.39820137  0.62850548  1
  Si  Si12  1  0.75337500  0.97329219  0.39820176  1
  Si  Si13  1  0.24400635  0.36659014  0.03198751  1
  Si  Si14  1  0.24400755  0.60142239  0.36658811  1
  Si  Si15  1  0.24400816  0.03198758  0.60142391  1
  O  O16  1  0.76916806  0.52267991  0.88598689  1
  O  O17  1  0.76916545  0.59133716  0.52268323  1
  O  O18  1  0.76916101  0.88597678  0.59133717  1
  O  O19  1  0.24940710  0.46826967  0.12725808  1
  O  O20  1  0.24940807  0.40447065  0.46826609  1
  O  O21  1  0.24940915  0.12727084  0.40447144  1
  O  O22  1  0.74938611  0.31906188  0.51197281  1
  O  O23  1  0.74938363  0.16896663  0.31906750  1
  O  O24  1  0.74938451  0.51197821  0.16896783  1
  O  O25  1  0.22890592  0.68731396  0.47182739  1
  O  O26  1  0.22890862  0.84085774  0.68729965  1
  O  O27  1  0.22890162  0.47182929  0.84085447  1
  O  O28  1  0.75585242  -0.00000013  0.99999689  1
  O  O29  1  0.25115066  0.99999810  0.00000590  1
  O  O30  1  0.57395218  0.74923153  0.92258996  1
  O  O31  1  0.57395546  0.32817451  0.74922991  1
  O  O32  1  0.57395220  0.92259966  0.32817259  1
  O  O33  1  0.06461507  0.24462167  0.10575417  1
  O  O34  1  0.06461385  0.64962916  0.24461998  1
  O  O35  1  0.06461480  0.10574424  0.64963591  1
  O  O36  1  0.43225620  0.25404929  0.09253427  1
  O  O37  1  0.43225819  0.65341692  0.25404702  1
  O  O38  1  0.43225472  0.09253030  0.65342404  1
  O  O39  1  0.93430270  0.74913198  0.91251356  1
  O  O40  1  0.93430493  0.33835051  0.74912886  1
  O  O41  1  0.93430108  0.91252734  0.33834644  1
