# generated using pymatgen
data_KNaCaTh(Si2O5)4
_symmetry_space_group_name_H-M   'P 1'
_cell_length_a   7.63182308
_cell_length_b   7.63182308
_cell_length_c   14.96746789
_cell_angle_alpha   90.00000000
_cell_angle_beta   90.00000000
_cell_angle_gamma   90.00000000
_symmetry_Int_Tables_number   1
_chemical_formula_structural   KNaCaTh(Si2O5)4
_chemical_formula_sum   'K2 Na2 Ca2 Th2 Si16 O40'
_cell_volume   871.77602911
_cell_formula_units_Z   2
loop_
 _symmetry_equiv_pos_site_id
 _symmetry_equiv_pos_as_xyz
  1  'x, y, z'
loop_
 _atom_site_type_symbol
 _atom_site_label
 _atom_site_symmetry_multiplicity
 _atom_site_fract_x
 _atom_site_fract_y
 _atom_site_fract_z
 _atom_site_occupancy
  K  K0  1  -0.00000000  -0.00000000  0.50000000  1
  K  K1  1  -0.00000000  -0.00000000  -0.00000000  1
  Na  Na2  1  -0.00000000  0.50000000  0.25000000  1
  Na  Na3  1  0.50000000  -0.00000000  0.75000000  1
  Ca  Ca4  1  0.50000000  -0.00000000  0.25000000  1
  Ca  Ca5  1  -0.00000000  0.50000000  0.75000000  1
  Th  Th6  1  -0.00000000  -0.00000000  0.25000000  1
  Th  Th7  1  -0.00000000  -0.00000000  0.75000000  1
  Si  Si8  1  0.25692523  0.33527591  0.39172467  1
  Si  Si9  1  0.74307477  0.66472409  0.39172467  1
  Si  Si10  1  0.66282764  0.26081171  0.39258263  1
  Si  Si11  1  0.33717236  0.73918829  0.39258263  1
  Si  Si12  1  0.73918829  0.33717236  0.89258263  1
  Si  Si13  1  0.26081171  0.66282764  0.89258263  1
  Si  Si14  1  0.33527591  0.25692523  0.89172467  1
  Si  Si15  1  0.66472409  0.74307477  0.89172467  1
  Si  Si16  1  0.73918829  0.66282764  0.60741737  1
  Si  Si17  1  0.26081171  0.33717236  0.60741737  1
  Si  Si18  1  0.33527591  0.74307477  0.60827533  1
  Si  Si19  1  0.66472409  0.25692523  0.60827533  1
  Si  Si20  1  0.25692523  0.66472409  0.10827533  1
  Si  Si21  1  0.74307477  0.33527591  0.10827533  1
  Si  Si22  1  0.66282764  0.73918829  0.10741737  1
  Si  Si23  1  0.33717236  0.26081171  0.10741737  1
  O  O24  1  0.10284084  0.24068781  0.33830073  1
  O  O25  1  0.89715916  0.75931219  0.33830073  1
  O  O26  1  0.74667339  0.10330387  0.33587349  1
  O  O27  1  0.25332661  0.89669613  0.33587349  1
  O  O28  1  0.89669613  0.25332661  0.83587349  1
  O  O29  1  0.10330387  0.74667339  0.83587349  1
  O  O30  1  0.24068781  0.10284084  0.83830073  1
  O  O31  1  0.75931219  0.89715916  0.83830073  1
  O  O32  1  0.89669613  0.74667339  0.66412651  1
  O  O33  1  0.10330387  0.25332661  0.66412651  1
  O  O34  1  0.24068781  0.89715916  0.66169927  1
  O  O35  1  0.75931219  0.10284084  0.66169927  1
  O  O36  1  0.10284084  0.75931219  0.16169927  1
  O  O37  1  0.89715916  0.24068781  0.16169927  1
  O  O38  1  0.74667339  0.89669613  0.16412651  1
  O  O39  1  0.25332661  0.10330387  0.16412651  1
  O  O40  1  0.23084738  0.31119065  0.50001261  1
  O  O41  1  0.76915262  0.68880935  0.50001261  1
  O  O42  1  0.68880935  0.23084738  0.49998739  1
  O  O43  1  0.31119065  0.76915262  0.49998739  1
  O  O44  1  0.76915262  0.31119065  -0.00001261  1
  O  O45  1  0.23084738  0.68880935  -0.00001261  1
  O  O46  1  0.31119065  0.23084738  0.00001261  1
  O  O47  1  0.68880935  0.76915262  0.00001261  1
  O  O48  1  0.45190978  0.25445536  0.36539155  1
  O  O49  1  0.54809022  0.74554464  0.36539155  1
  O  O50  1  0.74176455  0.45426302  0.36687329  1
  O  O51  1  0.25823545  0.54573698  0.36687329  1
  O  O52  1  0.54573698  0.25823545  0.86687329  1
  O  O53  1  0.45426302  0.74176455  0.86687329  1
  O  O54  1  0.25445536  0.45190978  0.86539155  1
  O  O55  1  0.74554464  0.54809022  0.86539155  1
  O  O56  1  0.54573698  0.74176455  0.63312671  1
  O  O57  1  0.45426302  0.25823545  0.63312671  1
  O  O58  1  0.25445536  0.54809022  0.63460845  1
  O  O59  1  0.74554464  0.45190978  0.63460845  1
  O  O60  1  0.45190978  0.74554464  0.13460845  1
  O  O61  1  0.54809022  0.25445536  0.13460845  1
  O  O62  1  0.74176455  0.54573698  0.13312671  1
  O  O63  1  0.25823545  0.45426302  0.13312671  1
