# generated using pymatgen
data_KBa(AgTe2)2
_symmetry_space_group_name_H-M   'P 1'
_cell_length_a   4.59137464
_cell_length_b   4.59137464
_cell_length_c   12.79575241
_cell_angle_alpha   79.66459785
_cell_angle_beta   79.66459785
_cell_angle_gamma   90.00000000
_symmetry_Int_Tables_number   1
_chemical_formula_structural   KBa(AgTe2)2
_chemical_formula_sum   'K1 Ba1 Ag2 Te4'
_cell_volume   260.91675776
_cell_formula_units_Z   1
loop_
 _symmetry_equiv_pos_site_id
 _symmetry_equiv_pos_as_xyz
  1  'x, y, z'
loop_
 _atom_site_type_symbol
 _atom_site_label
 _atom_site_symmetry_multiplicity
 _atom_site_fract_x
 _atom_site_fract_y
 _atom_site_fract_z
 _atom_site_occupancy
  K  K0  1  0.11712356  0.11712356  0.76575288  1
  Ba  Ba1  1  0.88358945  0.88358945  0.23282111  1
  Ag  Ag2  1  0.24865599  0.74865599  0.50268801  1
  Ag  Ag3  1  0.74865599  0.24865599  0.50268801  1
  Te  Te4  1  0.99764410  0.49764410  0.00471181  1
  Te  Te5  1  0.49764410  0.99764410  0.00471181  1
  Te  Te6  1  0.67963673  0.67963673  0.64072655  1
  Te  Te7  1  0.32705008  0.32705008  0.34589983  1
