# generated using pymatgen
data_La12Si4SnS28
_symmetry_space_group_name_H-M   'P 1'
_cell_length_a   10.41254817
_cell_length_b   11.63032028
_cell_length_c   11.92479046
_cell_angle_alpha   60.80739744
_cell_angle_beta   115.90521402
_cell_angle_gamma   90.00750135
_symmetry_Int_Tables_number   1
_chemical_formula_structural   La12Si4SnS28
_chemical_formula_sum   'La12 Si4 Sn1 S28'
_cell_volume   1091.51142406
_cell_formula_units_Z   1
loop_
 _symmetry_equiv_pos_site_id
 _symmetry_equiv_pos_as_xyz
  1  'x, y, z'
loop_
 _atom_site_type_symbol
 _atom_site_label
 _atom_site_symmetry_multiplicity
 _atom_site_fract_x
 _atom_site_fract_y
 _atom_site_fract_z
 _atom_site_occupancy
  La  La0  1  0.75981998  0.81978716  0.12582125  1
  La  La1  1  0.77207635  0.30924587  0.11874589  1
  La  La2  1  0.88098805  0.54176608  0.65377610  1
  La  La3  1  0.87436816  0.06633207  0.63309508  1
  La  La4  1  0.36635407  0.76173091  0.24189181  1
  La  La5  1  0.34646143  0.25527021  0.22683839  1
  La  La6  1  0.22750770  0.19263376  0.88144274  1
  La  La7  1  0.24020698  0.68051302  0.87350416  1
  La  La8  1  0.12765289  0.43371187  0.36747723  1
  La  La9  1  0.11774508  0.96057397  0.34530683  1
  La  La10  1  0.65401488  0.24712047  0.77237668  1
  La  La11  1  0.63338707  0.73723778  0.76015602  1
  Si  Si12  1  0.33261937  0.99904755  0.66560691  1
  Si  Si13  1  0.33404644  0.49703159  0.66767009  1
  Si  Si14  1  0.66793078  0.91632519  0.33341987  1
  Si  Si15  1  0.66532932  0.41587636  0.33321309  1
  Sn  Sn16  1  0.00003407  0.75842166  0.99996929  1
  S  S17  1  0.33131032  0.68182459  0.66305587  1
  S  S18  1  0.33525437  0.17829337  0.67026250  1
  S  S19  1  0.66631505  0.09785242  0.33291146  1
  S  S20  1  0.66685629  0.59758872  0.33367367  1
  S  S21  1  0.82989867  0.08690613  0.08669823  1
  S  S22  1  0.84134377  0.59971583  0.08441701  1
  S  S23  1  0.91552052  0.76355406  0.75696351  1
  S  S24  1  0.91347687  0.25869014  0.74305195  1
  S  S25  1  0.25680469  0.04512163  0.17042535  1
  S  S26  1  0.24307844  0.56263290  0.15854858  1
  S  S27  1  0.16242617  0.91460104  0.91910933  1
  S  S28  1  0.16919265  0.42802204  0.91219582  1
  S  S29  1  0.08772311  0.25512439  0.25724748  1
  S  S30  1  0.08107258  0.75253607  0.24340843  1
  S  S31  1  0.75649737  0.95529920  0.83749442  1
  S  S32  1  0.74291546  0.46875414  0.83061641  1
  S  S33  1  0.88501809  0.80456636  0.41289935  1
  S  S34  1  0.88201978  0.31118537  0.40222757  1
  S  S35  1  0.59809717  0.77224141  0.47980758  1
  S  S36  1  0.58682282  0.27508185  0.47218522  1
  S  S37  1  0.52179625  0.95402965  0.11567697  1
  S  S38  1  0.52598624  0.45321307  0.11682761  1
  S  S39  1  0.11642110  0.96386354  0.59313967  1
  S  S40  1  0.11585925  0.46655534  0.58993555  1
  S  S41  1  0.40999122  0.99800517  0.52579420  1
  S  S42  1  0.40701069  0.49926051  0.52346547  1
  S  S43  1  0.47568455  0.81977813  0.88389702  1
  S  S44  1  0.47506389  0.31807739  0.88375234  1
