# generated using pymatgen
data_KLiZn3O4
_symmetry_space_group_name_H-M   'P 1'
_cell_length_a   3.36387982
_cell_length_b   6.09722896
_cell_length_c   6.14656871
_cell_angle_alpha   93.72440501
_cell_angle_beta   105.88090927
_cell_angle_gamma   73.98714109
_symmetry_Int_Tables_number   1
_chemical_formula_structural   KLiZn3O4
_chemical_formula_sum   'K1 Li1 Zn3 O4'
_cell_volume   116.54421025
_cell_formula_units_Z   1
loop_
 _symmetry_equiv_pos_site_id
 _symmetry_equiv_pos_as_xyz
  1  'x, y, z'
loop_
 _atom_site_type_symbol
 _atom_site_label
 _atom_site_symmetry_multiplicity
 _atom_site_fract_x
 _atom_site_fract_y
 _atom_site_fract_z
 _atom_site_occupancy
  K  K0  1  0.99869469  0.00626181  0.00365118  1
  Li  Li1  1  0.36743707  0.45250971  0.18738384  1
  Zn  Zn2  1  0.64192206  0.55498360  0.83882773  1
  Zn  Zn3  1  0.17079064  0.19912727  0.54070854  1
  Zn  Zn4  1  0.81625852  0.80643759  0.43895464  1
  O  O5  1  0.60305145  0.16209190  0.36819481  1
  O  O6  1  0.40316752  0.82350314  0.62983818  1
  O  O7  1  0.22778515  0.36772465  0.82329495  1
  O  O8  1  0.77089291  0.62736032  0.16914613  1
