# generated using pymatgen
data_KBa3(BiO3)4
_symmetry_space_group_name_H-M   'P 1'
_cell_length_a   6.17410524
_cell_length_b   8.75079221
_cell_length_c   6.25041851
_cell_angle_alpha   90.00000000
_cell_angle_beta   90.00000000
_cell_angle_gamma   90.00000000
_symmetry_Int_Tables_number   1
_chemical_formula_structural   KBa3(BiO3)4
_chemical_formula_sum   'K1 Ba3 Bi4 O12'
_cell_volume   337.69956163
_cell_formula_units_Z   1
loop_
 _symmetry_equiv_pos_site_id
 _symmetry_equiv_pos_as_xyz
  1  'x, y, z'
loop_
 _atom_site_type_symbol
 _atom_site_label
 _atom_site_symmetry_multiplicity
 _atom_site_fract_x
 _atom_site_fract_y
 _atom_site_fract_z
 _atom_site_occupancy
  K  K0  1  0.50000000  0.75000000  0.00336222  1
  Ba  Ba1  1  0.00000000  0.25000000  0.49549299  1
  Ba  Ba2  1  0.50000000  0.25000000  0.99813760  1
  Ba  Ba3  1  0.00000000  0.75000000  0.49937902  1
  Bi  Bi4  1  0.00000000  0.50246798  0.99920264  1
  Bi  Bi5  1  0.50000000  0.99845946  0.50036302  1
  Bi  Bi6  1  0.00000000  0.99753202  0.99920264  1
  Bi  Bi7  1  0.50000000  0.50154054  0.50036302  1
  O  O8  1  0.00000000  0.25000000  0.03682558  1
  O  O9  1  0.50000000  0.75000000  0.54269693  1
  O  O10  1  0.00000000  0.75000000  0.95672186  1
  O  O11  1  0.50000000  0.25000000  0.45410803  1
  O  O12  1  0.75344037  0.51298280  0.26159110  1
  O  O13  1  0.25016537  0.02878826  0.74194501  1
  O  O14  1  0.74983463  0.47121174  0.74194501  1
  O  O15  1  0.24655963  0.98701720  0.26159110  1
  O  O16  1  0.24655963  0.51298280  0.26159110  1
  O  O17  1  0.74983463  0.02878826  0.74194501  1
  O  O18  1  0.25016537  0.47121174  0.74194501  1
  O  O19  1  0.75344037  0.98701720  0.26159110  1
