# generated using pymatgen
data_KV3(PbO3)4
_symmetry_space_group_name_H-M   'P 1'
_cell_length_a   7.54029740
_cell_length_b   10.34616926
_cell_length_c   10.34534813
_cell_angle_alpha   59.99513565
_cell_angle_beta   90.00000000
_cell_angle_gamma   90.00000000
_symmetry_Int_Tables_number   1
_chemical_formula_structural   KV3(PbO3)4
_chemical_formula_sum   'K2 V6 Pb8 O24'
_cell_volume   698.91201455
_cell_formula_units_Z   2
loop_
 _symmetry_equiv_pos_site_id
 _symmetry_equiv_pos_as_xyz
  1  'x, y, z'
loop_
 _atom_site_type_symbol
 _atom_site_label
 _atom_site_symmetry_multiplicity
 _atom_site_fract_x
 _atom_site_fract_y
 _atom_site_fract_z
 _atom_site_occupancy
  K  K0  1  0.01489249  0.33335229  0.33333636  1
  K  K1  1  0.51489249  0.66664771  0.66666364  1
  V  V2  1  0.24703523  0.01509129  0.37460041  1
  V  V3  1  0.24701488  0.61031913  0.01508247  1
  V  V4  1  0.24702132  0.37456599  0.61033263  1
  V  V5  1  0.74703523  0.98490871  0.62539959  1
  V  V6  1  0.74701488  0.38968087  0.98491753  1
  V  V7  1  0.74702132  0.62543401  0.38966737  1
  Pb  Pb8  1  0.75054185  0.25825514  0.74348934  1
  Pb  Pb9  1  0.75059574  0.99839162  0.25823046  1
  Pb  Pb10  1  0.75060617  0.74351374  0.99819218  1
  Pb  Pb11  1  0.25054185  0.74174486  0.25651066  1
  Pb  Pb12  1  0.25059574  0.00160838  0.74176954  1
  Pb  Pb13  1  0.25060617  0.25648626  0.00180782  1
  Pb  Pb14  1  0.02687681  0.66655217  0.66663379  1
  Pb  Pb15  1  0.52687681  0.33344783  0.33336621  1
  O  O16  1  0.56817422  0.33958075  0.91394417  1
  O  O17  1  0.56813792  0.74647581  0.33958901  1
  O  O18  1  0.56817124  0.91388147  0.74646601  1
  O  O19  1  0.06817422  0.66041925  0.08605583  1
  O  O20  1  0.06813792  0.25352419  0.66041099  1
  O  O21  1  0.06817124  0.08611853  0.25353399  1
  O  O22  1  0.43084344  0.66229285  0.07911589  1
  O  O23  1  0.43087665  0.25859248  0.66225538  1
  O  O24  1  0.43084051  0.07913092  0.25857810  1
  O  O25  1  0.93084344  0.33770715  0.92088411  1
  O  O26  1  0.93087665  0.74140752  0.33774462  1
  O  O27  1  0.93084051  0.92086908  0.74142190  1
  O  O28  1  0.25280454  0.09230037  0.49320533  1
  O  O29  1  0.25277193  0.41447785  0.09232407  1
  O  O30  1  0.25274263  0.49319717  0.41449945  1
  O  O31  1  0.75280454  0.90769963  0.50679467  1
  O  O32  1  0.75277193  0.58552215  0.90767593  1
  O  O33  1  0.75274263  0.50680283  0.58550055  1
  O  O34  1  0.23667102  0.70527439  0.81961290  1
  O  O35  1  0.23669124  0.47507236  0.70529014  1
  O  O36  1  0.23669018  0.81961084  0.47510627  1
  O  O37  1  0.73667102  0.29472561  0.18038710  1
  O  O38  1  0.73669124  0.52492764  0.29470986  1
  O  O39  1  0.73669018  0.18038916  0.52489373  1
