# generated using pymatgen
data_La(Tl3Te2)3
_symmetry_space_group_name_H-M   'P 1'
_cell_length_a   9.05798549
_cell_length_b   9.05798549
_cell_length_c   9.35042720
_cell_angle_alpha   61.02931125
_cell_angle_beta   61.02931125
_cell_angle_gamma   90.00000000
_symmetry_Int_Tables_number   1
_chemical_formula_structural   La(Tl3Te2)3
_chemical_formula_sum   'La1 Tl9 Te6'
_cell_volume   558.92649779
_cell_formula_units_Z   1
loop_
 _symmetry_equiv_pos_site_id
 _symmetry_equiv_pos_as_xyz
  1  'x, y, z'
loop_
 _atom_site_type_symbol
 _atom_site_label
 _atom_site_symmetry_multiplicity
 _atom_site_fract_x
 _atom_site_fract_y
 _atom_site_fract_z
 _atom_site_occupancy
  La  La0  1  0.00000000  0.00000000  -0.00000000  1
  Tl  Tl1  1  0.69319875  0.48802641  0.31610280  1
  Tl  Tl2  1  0.99069845  0.19587078  0.31610280  1
  Tl  Tl3  1  0.48802641  0.99069845  0.31610280  1
  Tl  Tl4  1  0.19587078  0.69319875  0.31610280  1
  Tl  Tl5  1  0.30680125  0.51197359  0.68389720  1
  Tl  Tl6  1  0.00930155  0.80412922  0.68389720  1
  Tl  Tl7  1  0.51197359  0.00930155  0.68389720  1
  Tl  Tl8  1  0.80412922  0.30680125  0.68389720  1
  Tl  Tl9  1  0.50000000  0.50000000  -0.00000000  1
  Te  Te10  1  0.67110720  0.84772164  -0.00000000  1
  Te  Te11  1  0.32889280  0.15227836  -0.00000000  1
  Te  Te12  1  0.84772164  0.32889280  -0.00000000  1
  Te  Te13  1  0.15227836  0.67110720  -0.00000000  1
  Te  Te14  1  0.23838733  0.23838733  0.52322534  1
  Te  Te15  1  0.76161267  0.76161267  0.47677466  1
