# generated using pymatgen
data_La4Fe3NiO12
_symmetry_space_group_name_H-M   'P 1'
_cell_length_a   5.59873592
_cell_length_b   5.58905576
_cell_length_c   7.94470851
_cell_angle_alpha   89.99688946
_cell_angle_beta   89.89892351
_cell_angle_gamma   90.10529058
_symmetry_Int_Tables_number   1
_chemical_formula_structural   La4Fe3NiO12
_chemical_formula_sum   'La4 Fe3 Ni1 O12'
_cell_volume   248.60220960
_cell_formula_units_Z   1
loop_
 _symmetry_equiv_pos_site_id
 _symmetry_equiv_pos_as_xyz
  1  'x, y, z'
loop_
 _atom_site_type_symbol
 _atom_site_label
 _atom_site_symmetry_multiplicity
 _atom_site_fract_x
 _atom_site_fract_y
 _atom_site_fract_z
 _atom_site_occupancy
  La  La0  1  0.46950074  0.49561450  0.75270547  1
  La  La1  1  0.96602554  0.00949389  0.75283306  1
  La  La2  1  0.53049926  0.50438550  0.24729453  1
  La  La3  1  0.03397446  0.99050611  0.24716694  1
  Fe  Fe4  1  0.00000000  0.50000000  0.50000000  1
  Fe  Fe5  1  0.50000000  -0.00000000  0.50000000  1
  Fe  Fe6  1  0.00000000  0.50000000  -0.00000000  1
  Ni  Ni7  1  0.50000000  -0.00000000  -0.00000000  1
  O  O8  1  0.01384479  0.58037665  0.74771260  1
  O  O9  1  0.51433048  0.92483831  0.74630091  1
  O  O10  1  0.98615521  0.41962335  0.25228740  1
  O  O11  1  0.48566952  0.07516169  0.25369909  1
  O  O12  1  0.20940826  0.21914673  0.96057791  1
  O  O13  1  0.71573342  0.28337012  0.54365920  1
  O  O14  1  0.78330468  0.78257158  0.45571772  1
  O  O15  1  0.28326157  0.70825023  0.03906129  1
  O  O16  1  0.79059174  0.78085327  0.03942209  1
  O  O17  1  0.28426658  0.71662988  0.45634080  1
  O  O18  1  0.21669532  0.21742842  0.54428228  1
  O  O19  1  0.71673843  0.29174977  0.96093871  1
