# generated using pymatgen
data_La6Ga3Co11
_symmetry_space_group_name_H-M   'P 1'
_cell_length_a   8.12020162
_cell_length_b   8.12020162
_cell_length_c   12.70751321
_cell_angle_alpha   71.36707077
_cell_angle_beta   71.36707077
_cell_angle_gamma   90.00000000
_symmetry_Int_Tables_number   1
_chemical_formula_structural   La6Ga3Co11
_chemical_formula_sum   'La12 Ga6 Co22'
_cell_volume   747.49029625
_cell_formula_units_Z   2
loop_
 _symmetry_equiv_pos_site_id
 _symmetry_equiv_pos_as_xyz
  1  'x, y, z'
loop_
 _atom_site_type_symbol
 _atom_site_label
 _atom_site_symmetry_multiplicity
 _atom_site_fract_x
 _atom_site_fract_y
 _atom_site_fract_z
 _atom_site_occupancy
  La  La0  1  0.39911961  0.39911961  0.20176077  1
  La  La1  1  0.89911961  0.89911961  0.20176077  1
  La  La2  1  0.60243200  0.60243200  0.79513601  1
  La  La3  1  0.10243200  0.10243200  0.79513601  1
  La  La4  1  0.34815089  0.84815089  0.63553362  1
  La  La5  1  0.01631549  0.51631549  0.63553362  1
  La  La6  1  0.51631549  0.34815089  0.63553362  1
  La  La7  1  0.84815089  0.01631549  0.63553362  1
  La  La8  1  0.64263487  0.14263487  0.37450990  1
  La  La9  1  0.98285522  0.48285522  0.37450990  1
  La  La10  1  0.48285522  0.64263487  0.37450990  1
  La  La11  1  0.14263487  0.98285522  0.37450990  1
  Ga  Ga12  1  0.75052574  0.75052574  0.49894853  1
  Ga  Ga13  1  0.25052574  0.25052574  0.49894853  1
  Ga  Ga14  1  0.53023872  0.03023872  0.18297336  1
  Ga  Ga15  1  0.28678791  0.78678791  0.18297336  1
  Ga  Ga16  1  0.78678791  0.53023872  0.18297336  1
  Ga  Ga17  1  0.03023872  0.28678791  0.18297336  1
  Co  Co18  1  0.00240925  0.50240925  0.99518149  1
  Co  Co19  1  0.50240925  0.00240925  0.99518149  1
  Co  Co20  1  0.23640065  0.73640065  0.88571262  1
  Co  Co21  1  0.87788673  0.37788673  0.88571262  1
  Co  Co22  1  0.37788673  0.23640065  0.88571262  1
  Co  Co23  1  0.73640065  0.87788673  0.88571262  1
  Co  Co24  1  0.77012204  0.27012204  0.11312397  1
  Co  Co25  1  0.11675399  0.61675399  0.11312397  1
  Co  Co26  1  0.61675399  0.77012204  0.11312397  1
  Co  Co27  1  0.27012204  0.11675399  0.11312397  1
  Co  Co28  1  0.71329490  0.56846767  0.99586157  1
  Co  Co29  1  0.29084353  0.43567076  0.99586157  1
  Co  Co30  1  0.79084353  0.06846767  0.99586157  1
  Co  Co31  1  0.21329490  0.93567076  0.99586157  1
  Co  Co32  1  0.56846767  0.29084353  0.99586157  1
  Co  Co33  1  0.43567076  0.71329490  0.99586157  1
  Co  Co34  1  0.06846767  0.21329490  0.99586157  1
  Co  Co35  1  0.93567076  0.79084353  0.99586157  1
  Co  Co36  1  0.47664531  0.97664531  0.82090998  1
  Co  Co37  1  0.70244471  0.20244471  0.82090998  1
  Co  Co38  1  0.20244471  0.47664531  0.82090998  1
  Co  Co39  1  0.97664531  0.70244471  0.82090998  1
