# generated using pymatgen
data_LaTi6(PO4)9
_symmetry_space_group_name_H-M   'P 1'
_cell_length_a   8.98191203
_cell_length_b   14.54391434
_cell_length_c   12.29922858
_cell_angle_alpha   66.76709236
_cell_angle_beta   84.73036401
_cell_angle_gamma   105.61465158
_symmetry_Int_Tables_number   1
_chemical_formula_structural   LaTi6(PO4)9
_chemical_formula_sum   'La2 Ti12 P18 O72'
_cell_volume   1385.84873382
_cell_formula_units_Z   2
loop_
 _symmetry_equiv_pos_site_id
 _symmetry_equiv_pos_as_xyz
  1  'x, y, z'
loop_
 _atom_site_type_symbol
 _atom_site_label
 _atom_site_symmetry_multiplicity
 _atom_site_fract_x
 _atom_site_fract_y
 _atom_site_fract_z
 _atom_site_occupancy
  La  La0  1  0.00044306  0.99782995  0.00024850  1
  La  La1  1  0.66625093  0.33549274  0.33307165  1
  Ti  Ti2  1  0.04424490  0.66710618  0.02013565  1
  Ti  Ti3  1  0.71007911  0.99621595  0.35873103  1
  Ti  Ti4  1  0.37962770  0.33661555  0.68804587  1
  Ti  Ti5  1  0.62241500  0.66622683  0.31320002  1
  Ti  Ti6  1  0.28703995  0.99671188  0.64528711  1
  Ti  Ti7  1  0.95658297  0.33712440  0.97460179  1
  Ti  Ti8  1  0.36673342  0.33444752  0.18067909  1
  Ti  Ti9  1  0.04672038  0.66718480  0.52556526  1
  Ti  Ti10  1  0.69680590  0.99821386  0.84939776  1
  Ti  Ti11  1  0.29994896  0.99889025  0.15265197  1
  Ti  Ti12  1  0.96989691  0.33512766  0.48392812  1
  Ti  Ti13  1  0.61992687  0.66614583  0.80777371  1
  P  P14  1  0.40130221  0.80883551  0.84053991  1
  P  P15  1  0.06727397  0.14371388  0.17462587  1
  P  P16  1  0.73904543  0.47866764  0.50788756  1
  P  P17  1  0.06568057  0.42714027  0.17684217  1
  P  P18  1  0.73469950  0.75772166  0.51232634  1
  P  P19  1  0.39890252  0.09439737  0.84332035  1
  P  P20  1  0.01904309  0.76158448  0.22707453  1
  P  P21  1  0.68481798  0.09674558  0.55742186  1
  P  P22  1  0.35148978  0.43075355  0.89027765  1
  P  P23  1  0.26537662  0.52449621  0.49281152  1
  P  P24  1  0.92761518  0.85466560  0.82544198  1
  P  P25  1  0.59941657  0.18962228  0.15869634  1
  P  P26  1  0.60099197  0.90620344  0.15649147  1
  P  P27  1  0.26778043  0.23893215  0.49000633  1
  P  P28  1  0.93194300  0.57561024  0.82101503  1
  P  P29  1  0.64761954  0.57175084  0.10625288  1
  P  P30  1  0.31516149  0.90257311  0.44305872  1
  P  P31  1  0.98185522  0.23659552  0.77591008  1
  O  O32  1  0.48739191  0.90559442  0.41882277  1
  O  O33  1  0.15146072  0.23275517  0.75869717  1
  O  O34  1  0.81768483  0.56613749  0.09393165  1
  O  O35  1  0.62973231  0.12242215  0.28123574  1
  O  O36  1  0.29284638  0.45020758  0.61305257  1
  O  O37  1  0.96255894  0.78977696  0.94815816  1
  O  O38  1  0.70745366  0.97865486  0.20258026  1
  O  O39  1  0.37386700  0.31069554  0.53674972  1
  O  O40  1  0.03172958  0.64381617  0.87481339  1
  O  O41  1  0.17926219  0.42773177  0.91451806  1
  O  O42  1  0.84897460  0.76718698  0.23940463  1
  O  O43  1  0.51520875  0.10057049  0.57465450  1
  O  O44  1  0.03693374  0.21091722  0.05209687  1
  O  O45  1  0.70410635  0.54355811  0.38517265  1
  O  O46  1  0.37380228  0.88312689  0.72030589  1
  O  O47  1  0.95918485  0.35469185  0.13076078  1
  O  O48  1  0.63491500  0.68952426  0.45851996  1
  O  O49  1  0.29279384  0.02263784  0.79657586  1
  O  O50  1  0.54252000  0.87574412  0.87413974  1
  O  O51  1  0.20979191  0.20632325  0.20818211  1
  O  O52  1  0.87878359  0.53981013  0.54091126  1
  O  O53  1  0.21975888  0.40104975  0.19834516  1
  O  O54  1  0.89047756  0.73473638  0.52870120  1
  O  O55  1  0.55378062  0.06899919  0.86413843  1
  O  O56  1  0.07291347  0.72526977  0.34624775  1
  O  O57  1  0.73896792  0.05890659  0.67902223  1
  O  O58  1  0.40236423  0.38892698  0.01452161  1
  O  O59  1  0.12417637  0.45758615  0.45919264  1
  O  O60  1  0.78786685  0.79352274  0.79243322  1
  O  O61  1  0.45690875  0.12700095  0.12514353  1
  O  O62  1  0.44690243  0.93228123  0.13498839  1
  O  O63  1  0.11291061  0.26433299  0.46917548  1
  O  O64  1  0.77616434  0.59859660  0.80462563  1
  O  O65  1  0.59374560  0.60807026  0.98708959  1
  O  O66  1  0.26427018  0.94439119  0.31881832  1
  O  O67  1  0.92773857  0.27443087  0.65430006  1
  O  O68  1  0.11303109  0.54535435  0.09199999  1
  O  O69  1  0.77671702  0.87771220  0.42546033  1
  O  O70  1  0.44556745  0.21289889  0.75811734  1
  O  O71  1  0.03891665  0.69163181  0.16352854  1
  O  O72  1  0.70561001  0.02368978  0.49921791  1
  O  O73  1  0.37045435  0.35676341  0.83233317  1
  O  O74  1  0.25689531  0.76461483  0.94597174  1
  O  O75  1  0.92312468  0.09685114  0.28064019  1
  O  O76  1  0.59075421  0.43025142  0.61267356  1
  O  O77  1  0.55365499  0.78799044  0.24132125  1
  O  O78  1  0.22108935  0.12042522  0.57520830  1
  O  O79  1  0.88991997  0.45562119  0.90787976  1
  O  O80  1  0.62776559  0.64170378  0.16980536  1
  O  O81  1  0.29623302  0.97657323  0.50099626  1
  O  O82  1  0.96104429  0.30965227  0.83411193  1
  O  O83  1  0.40977725  0.56871044  0.38737630  1
  O  O84  1  0.07589201  0.90308826  0.72064682  1
  O  O85  1  0.74356156  0.23648076  0.05268819  1
  O  O86  1  0.21798194  0.61307443  0.50563703  1
  O  O87  1  0.89188108  0.94889522  0.84304573  1
  O  O88  1  0.55863125  0.28189444  0.17602794  1
  O  O89  1  0.70315228  0.93144978  0.03168638  1
  O  O90  1  0.36975907  0.26418000  0.36522199  1
  O  O91  1  0.02664651  0.59770206  0.69785343  1
  O  O92  1  0.54115837  0.45301832  0.19362153  1
  O  O93  1  0.20389492  0.78977821  0.52144904  1
  O  O94  1  0.87450340  0.11996544  0.86064922  1
  O  O95  1  0.44864487  0.72024989  0.82770011  1
  O  O96  1  0.10803208  0.05144004  0.15727938  1
  O  O97  1  0.77478322  0.38443615  0.49029995  1
  O  O98  1  0.96353240  0.40189948  0.30164993  1
  O  O99  1  0.64001939  0.73562569  0.63548792  1
  O  O100  1  0.29693777  0.06914028  0.96810906  1
  O  O101  1  0.12551388  0.88031713  0.13970607  1
  O  O102  1  0.79216599  0.21337084  0.47268463  1
  O  O103  1  0.46273987  0.54355455  0.81190164  1
