# generated using pymatgen
data_KInAs3H7O13
_symmetry_space_group_name_H-M   'P 1'
_cell_length_a   4.92293149
_cell_length_b   8.84278240
_cell_length_c   14.30814704
_cell_angle_alpha   90.00000000
_cell_angle_beta   94.50409072
_cell_angle_gamma   90.00000000
_symmetry_Int_Tables_number   1
_chemical_formula_structural   KInAs3H7O13
_chemical_formula_sum   'K2 In2 As6 H14 O26'
_cell_volume   620.94456578
_cell_formula_units_Z   2
loop_
 _symmetry_equiv_pos_site_id
 _symmetry_equiv_pos_as_xyz
  1  'x, y, z'
loop_
 _atom_site_type_symbol
 _atom_site_label
 _atom_site_symmetry_multiplicity
 _atom_site_fract_x
 _atom_site_fract_y
 _atom_site_fract_z
 _atom_site_occupancy
  K  K0  1  0.15065100  0.00588391  0.51052793  1
  K  K1  1  0.65065100  0.99411609  0.01052793  1
  In  In2  1  0.24959988  0.22897883  0.75343985  1
  In  In3  1  0.74959988  0.77102117  0.25343985  1
  As  As4  1  0.69956029  0.34607016  0.59796844  1
  As  As5  1  0.29632328  0.64245568  0.40373929  1
  As  As6  1  0.79632328  0.35754432  0.90373929  1
  As  As7  1  0.19956029  0.65392984  0.09796844  1
  As  As8  1  0.74828961  0.95762882  0.74729267  1
  As  As9  1  0.24828961  0.04237118  0.24729267  1
  H  H10  1  0.39309682  0.33838367  0.47165993  1
  H  H11  1  0.60408353  0.67626862  0.52917395  1
  H  H12  1  0.10408353  0.32373138  0.02917395  1
  H  H13  1  0.89309682  0.66161633  0.97165993  1
  H  H14  1  0.47495031  0.77046347  0.80483282  1
  H  H15  1  0.51445234  0.23187825  0.19245222  1
  H  H16  1  0.01445234  0.76812175  0.69245222  1
  H  H17  1  0.97495031  0.22953653  0.30483282  1
  H  H18  1  0.34813281  0.58664813  0.71106779  1
  H  H19  1  0.64675888  0.41565815  0.28911113  1
  H  H20  1  0.14675888  0.58434185  0.78911113  1
  H  H21  1  0.84813281  0.41335187  0.21106779  1
  H  H22  1  0.97495960  0.49820216  0.50946195  1
  H  H23  1  0.47495960  0.50179784  0.00946195  1
  O  O24  1  0.82119068  0.51808893  0.55722186  1
  O  O25  1  0.18470213  0.47520939  0.44645465  1
  O  O26  1  0.68470213  0.52479061  0.94645465  1
  O  O27  1  0.32119068  0.48191107  0.05722186  1
  O  O28  1  0.48801008  0.05313354  0.68772542  1
  O  O29  1  0.50327684  0.94906181  0.30978979  1
  O  O30  1  0.00327684  0.05093819  0.80978979  1
  O  O31  1  0.98801008  0.94686646  0.18772542  1
  O  O32  1  0.48541819  0.39973648  0.68060295  1
  O  O33  1  0.51655669  0.59879349  0.32013441  1
  O  O34  1  0.01655669  0.40120651  0.82013441  1
  O  O35  1  0.98541819  0.60026352  0.18060295  1
  O  O36  1  0.62412907  0.83946440  0.83338606  1
  O  O37  1  0.37482030  0.15993980  0.16091422  1
  O  O38  1  0.87482030  0.84006020  0.66091422  1
  O  O39  1  0.12412907  0.16053560  0.33338606  1
  O  O40  1  0.96286513  0.22638414  0.62787234  1
  O  O41  1  0.03803807  0.76841055  0.37471110  1
  O  O42  1  0.53803807  0.23158945  0.87471110  1
  O  O43  1  0.46286513  0.77361586  0.12787234  1
  O  O44  1  0.52405512  0.25787630  0.50110468  1
  O  O45  1  0.46664238  0.74553132  0.49755002  1
  O  O46  1  0.96664238  0.25446868  0.99755002  1
  O  O47  1  0.02405512  0.74212370  0.00110468  1
  O  O48  1  0.24503697  0.65599355  0.74990455  1
  O  O49  1  0.74503697  0.34400645  0.24990455  1
