# generated using pymatgen
data_K2Co2(SeO3)3
_symmetry_space_group_name_H-M   'P 1'
_cell_length_a   5.57066071
_cell_length_b   5.57066071
_cell_length_c   18.00557934
_cell_angle_alpha   90.00000000
_cell_angle_beta   90.00000000
_cell_angle_gamma   120.28370691
_symmetry_Int_Tables_number   1
_chemical_formula_structural   K2Co2(SeO3)3
_chemical_formula_sum   'K4 Co4 Se6 O18'
_cell_volume   482.50571978
_cell_formula_units_Z   2
loop_
 _symmetry_equiv_pos_site_id
 _symmetry_equiv_pos_as_xyz
  1  'x, y, z'
loop_
 _atom_site_type_symbol
 _atom_site_label
 _atom_site_symmetry_multiplicity
 _atom_site_fract_x
 _atom_site_fract_y
 _atom_site_fract_z
 _atom_site_occupancy
  K  K0  1  0.66690339  0.33309661  0.53005806  1
  K  K1  1  0.33313324  0.66686676  0.46004987  1
  K  K2  1  0.33309661  0.66690339  0.03005806  1
  K  K3  1  0.66686676  0.33313324  0.96004987  1
  Co  Co4  1  0.66519105  0.33480895  0.16921255  1
  Co  Co5  1  0.33621460  0.66378540  0.83601200  1
  Co  Co6  1  0.33480895  0.66519105  0.66921255  1
  Co  Co7  1  0.66378540  0.33621460  0.33601200  1
  Se  Se8  1  0.99959574  0.00040426  0.63853509  1
  Se  Se9  1  0.00019723  -0.00019723  0.35975971  1
  Se  Se10  1  0.00040426  0.99959574  0.13853509  1
  Se  Se11  1  -0.00019723  0.00019723  0.85975971  1
  Se  Se12  1  0.66762276  0.33237724  0.71455080  1
  Se  Se13  1  0.33237724  0.66762276  0.21455080  1
  O  O14  1  0.83948770  0.16051230  0.09557578  1
  O  O15  1  0.32612890  0.16129375  0.09650068  1
  O  O16  1  0.83870625  0.67387110  0.09650068  1
  O  O17  1  0.15914516  0.84085484  0.90430134  1
  O  O18  1  0.67739218  0.84069197  0.90384214  1
  O  O19  1  0.15930803  0.32260782  0.90384214  1
  O  O20  1  0.16051230  0.83948770  0.59557578  1
  O  O21  1  0.67387110  0.83870625  0.59650068  1
  O  O22  1  0.16129375  0.32612890  0.59650068  1
  O  O23  1  0.84085484  0.15914516  0.40430134  1
  O  O24  1  0.32260782  0.15930803  0.40384214  1
  O  O25  1  0.84069197  0.67739218  0.40384214  1
  O  O26  1  0.50273434  0.49726566  0.75243232  1
  O  O27  1  0.00043624  0.49946471  0.75181343  1
  O  O28  1  0.50053529  0.99956376  0.75181343  1
  O  O29  1  0.49726566  0.50273434  0.25243232  1
  O  O30  1  0.99956376  0.50053529  0.25181343  1
  O  O31  1  0.49946471  0.00043624  0.25181343  1
