# generated using pymatgen
data_La20Os12C13
_symmetry_space_group_name_H-M   'P 1'
_cell_length_a   6.80585295
_cell_length_b   9.18086415
_cell_length_c   15.96833242
_cell_angle_alpha   90.00000005
_cell_angle_beta   89.99999998
_cell_angle_gamma   90.06994118
_symmetry_Int_Tables_number   1
_chemical_formula_structural   La20Os12C13
_chemical_formula_sum   'La20 Os12 C13'
_cell_volume   997.75833393
_cell_formula_units_Z   1
loop_
 _symmetry_equiv_pos_site_id
 _symmetry_equiv_pos_as_xyz
  1  'x, y, z'
loop_
 _atom_site_type_symbol
 _atom_site_label
 _atom_site_symmetry_multiplicity
 _atom_site_fract_x
 _atom_site_fract_y
 _atom_site_fract_z
 _atom_site_occupancy
  La  La0  1  0.73413507  0.23919106  0.00000000  1
  La  La1  1  0.75084699  0.75231521  0.50000000  1
  La  La2  1  0.75054072  0.37477222  0.37420835  1
  La  La3  1  0.73505048  0.88050642  0.88098611  1
  La  La4  1  0.73505048  0.88050642  0.11901389  1
  La  La5  1  0.75054072  0.37477222  0.62579165  1
  La  La6  1  0.26590203  0.76081237  -0.00000000  1
  La  La7  1  0.24916147  0.24767613  0.50000000  1
  La  La8  1  0.26494480  0.11947764  0.11901912  1
  La  La9  1  0.24946427  0.62525824  0.62579875  1
  La  La10  1  0.24946427  0.62525824  0.37420125  1
  La  La11  1  0.26494480  0.11947764  0.88098088  1
  La  La12  1  0.49999430  0.99998191  0.33350894  1
  La  La13  1  0.50001112  0.49998813  0.83361898  1
  La  La14  1  0.50001112  0.49998813  0.16638102  1
  La  La15  1  0.49999430  0.99998191  0.66649106  1
  La  La16  1  0.99998838  0.50001775  0.16594448  1
  La  La17  1  0.00000083  0.00001908  0.66728761  1
  La  La18  1  0.00000083  0.00001908  0.33271239  1
  La  La19  1  0.99998838  0.50001775  0.83405552  1
  Os  Os20  1  0.75104344  0.59597395  1.00000000  1
  Os  Os21  1  0.75038212  0.09852117  0.50000000  1
  Os  Os22  1  0.75057539  0.20196606  0.20269019  1
  Os  Os23  1  0.75042840  0.70036373  0.70044873  1
  Os  Os24  1  0.75042840  0.70036373  0.29955127  1
  Os  Os25  1  0.75057539  0.20196606  0.79730981  1
  Os  Os26  1  0.24894507  0.40402183  0.00000000  1
  Os  Os27  1  0.24961555  0.90146950  0.50000000  1
  Os  Os28  1  0.24956563  0.29963122  0.29954857  1
  Os  Os29  1  0.24942503  0.79803584  0.79731362  1
  Os  Os30  1  0.24942503  0.79803584  0.20268638  1
  Os  Os31  1  0.24956563  0.29963122  0.70045143  1
  C  C32  1  0.50000021  0.99999608  0.50000000  1
  C  C33  1  0.49999686  0.49999751  -0.00000000  1
  C  C34  1  0.49833157  0.25000407  0.25005379  1
  C  C35  1  0.50166860  0.74996063  0.74995448  1
  C  C36  1  0.50166860  0.74996063  0.25004552  1
  C  C37  1  0.49833157  0.25000407  0.74994621  1
  C  C38  1  -0.00000072  0.99999753  0.50000000  1
  C  C39  1  0.99999640  0.49999772  -0.00000000  1
  C  C40  1  0.00068944  0.25092855  0.25029513  1
  C  C41  1  0.99930808  0.74910501  0.74969425  1
  C  C42  1  0.99930808  0.74910501  0.25030575  1
  C  C43  1  0.00068944  0.25092855  0.74970487  1
  C  C44  1  0.50000139  0.99999691  0.00000000  1
